MODEL 1
REMARK VINA RESULT:      -7.4      0.000      0.000
REMARK SMILES C=CCN(CC(=O)OCCOCCOCCOCCOC(=O)c1ccc(-c2c3nc(c(-c4ccc(S(=O)(=O)[O-])cc4)c4ccc([nH]4)c(-c4ccc(S(=O)(=O)[O-])cc4)c4nc(c(-c5ccc(S(=O)(=O)[O-])cc5)c5ccc2[nH]5)C=C4)C=C3)cc1)C(=O)N1CC[N@H+](C)C(C)(C)C1
REMARK SMILES IDX 14 1 13 2 12 3 11 4 10 5 9 6 8 7 6 8 7 9 5 10 4 11 3 12 2 13
REMARK SMILES IDX 1 14 83 15 84 16 85 17 86 18 93 19 87 20 90 21 88 22 91 23
REMARK SMILES IDX 92 24 89 25 15 27 16 28 17 29 18 30 19 31 20 32 21 33 22 34
REMARK SMILES IDX 23 35 24 36 82 37 25 38 81 39 26 40 27 41 28 42 75 43 29 44
REMARK SMILES IDX 80 45 74 46 76 47 30 48 79 49 73 50 72 51 31 53 61 54 42 55
REMARK SMILES IDX 60 56 43 57 46 58 59 59 77 60 44 61 45 62 58 64 78 65 47 66
REMARK SMILES IDX 32 67 33 68 41 69 34 70 40 71 35 72 36 73 37 74 38 75 39 76
REMARK SMILES IDX 62 77 63 78 71 79 64 80 70 81 65 82 66 83 67 84 68 85 69 86
REMARK SMILES IDX 48 87 49 88 57 89 50 90 56 91 51 92 52 93 53 94 54 95 55 96
REMARK H PARENT 88 26 76 52 46 63
REMARK Flexibility Score: inf
ROOT
ATOM      1  O   UNL A   1      33.688  36.639  33.068  1.00  0.00    -0.377 OA
ENDROOT
BRANCH   1   2
ATOM      2  C   UNL A   1      32.820  36.195  32.040  1.00  0.00     0.188 C 
BRANCH   2   3
ATOM      3  C   UNL A   1      33.029  36.700  30.605  1.00  0.00     0.188 C 
BRANCH   3   4
ATOM      4  O   UNL A   1      32.484  35.770  29.670  1.00  0.00    -0.376 OA
BRANCH   4   5
ATOM      5  C   UNL A   1      33.363  35.494  28.577  1.00  0.00     0.202 C 
BRANCH   5   6
ATOM      6  C   UNL A   1      33.324  34.041  28.063  1.00  0.00     0.261 C 
BRANCH   6   7
ATOM      7  O   UNL A   1      32.084  33.663  27.396  1.00  0.00    -0.462 OA
BRANCH   7   8
ATOM      8  C   UNL A   1      31.943  32.413  26.896  1.00  0.00     0.325 C 
ATOM      9  O   UNL A   1      31.032  32.087  26.143  1.00  0.00    -0.250 OA
BRANCH   8  10
ATOM     10  C   UNL A   1      33.016  31.403  27.396  1.00  0.00     0.244 C 
BRANCH  10  11
ATOM     11  N   UNL A   1      33.314  30.130  26.695  1.00  0.00    -0.310 N 
BRANCH  11  12
ATOM     12  C   UNL A   1      34.734  29.794  26.549  1.00  0.00     0.149 C 
BRANCH  12  13
ATOM     13  C   UNL A   1      35.514  30.361  27.708  1.00  0.00    -0.013 C 
ATOM     14  C   UNL A   1      35.722  29.702  28.858  1.00  0.00     0.006 C 
ENDBRANCH  12  13
ENDBRANCH  11  12
BRANCH  11  15
ATOM     15  C   UNL A   1      32.414  29.117  26.357  1.00  0.00     0.321 C 
ATOM     16  O   UNL A   1      31.719  28.555  27.208  1.00  0.00    -0.248 OA
BRANCH  15  17
ATOM     17  N   UNL A   1      32.273  28.739  25.033  1.00  0.00    -0.313 N 
ATOM     18  C   UNL A   1      30.984  29.032  24.398  1.00  0.00     0.183 C 
ATOM     19  C   UNL A   1      32.884  27.527  24.518  1.00  0.00     0.189 C 
ATOM     20  C   UNL A   1      31.033  28.952  22.859  1.00  0.00     0.284 C 
ATOM     21  C   UNL A   1      33.003  27.486  22.973  1.00  0.00     0.110 C 
ATOM     22  N   UNL A   1      31.707  27.760  22.284  1.00  0.00    -0.330 N 
ATOM     23  C   UNL A   1      34.023  28.556  22.522  1.00  0.00     0.080 C 
ATOM     24  C   UNL A   1      33.609  26.112  22.601  1.00  0.00     0.080 C 
ATOM     25  C   UNL A   1      30.786  26.622  22.241  1.00  0.00     0.333 C 
ATOM     26  H   UNL A   1      31.960  27.948  21.313  1.00  0.00     0.348 HD
ENDBRANCH  15  17
ENDBRANCH  11  15
ENDBRANCH  10  11
ENDBRANCH   8  10
ENDBRANCH   7   8
ENDBRANCH   6   7
ENDBRANCH   5   6
ENDBRANCH   4   5
ENDBRANCH   3   4
ENDBRANCH   2   3
ENDBRANCH   1   2
BRANCH   1  27
ATOM     27  C   UNL A   1      34.351  35.632  33.788  1.00  0.00     0.188 C 
BRANCH  27  28
ATOM     28  C   UNL A   1      35.595  35.059  33.085  1.00  0.00     0.188 C 
BRANCH  28  29
ATOM     29  O   UNL A   1      35.543  33.755  32.500  1.00  0.00    -0.376 OA
BRANCH  29  30
ATOM     30  C   UNL A   1      35.315  33.607  31.098  1.00  0.00     0.202 C 
BRANCH  30  31
ATOM     31  C   UNL A   1      36.508  33.495  30.145  1.00  0.00     0.261 C 
BRANCH  31  32
ATOM     32  O   UNL A   1      37.671  32.967  30.799  1.00  0.00    -0.460 OA
BRANCH  32  33
ATOM     33  C   UNL A   1      38.565  33.879  31.243  1.00  0.00     0.338 C 
ATOM     34  O   UNL A   1      38.849  34.949  30.726  1.00  0.00    -0.246 OA
BRANCH  33  35
ATOM     35  C   UNL A   1      38.973  33.503  32.609  1.00  0.00     0.060 A 
ATOM     36  C   UNL A   1      39.399  34.533  33.461  1.00  0.00     0.016 A 
ATOM     37  C   UNL A   1      38.856  32.190  33.077  1.00  0.00     0.016 A 
ATOM     38  C   UNL A   1      39.703  34.254  34.788  1.00  0.00     0.010 A 
ATOM     39  C   UNL A   1      39.213  31.901  34.395  1.00  0.00     0.010 A 
ATOM     40  C   UNL A   1      39.657  32.930  35.243  1.00  0.00    -0.014 A 
BRANCH  40  41
ATOM     41  C   UNL A   1      40.330  32.610  36.518  1.00  0.00     0.031 A 
ATOM     42  C   UNL A   1      39.483  32.644  37.760  1.00  0.00     0.074 A 
ATOM     43  C   UNL A   1      41.626  32.258  36.562  1.00  0.00     0.049 A 
ATOM     44  N   UNL A   1      39.806  32.347  38.989  1.00  0.00    -0.248 NA
ATOM     45  C   UNL A   1      38.077  33.061  37.588  1.00  0.00     0.031 C 
ATOM     46  C   UNL A   1      42.524  32.164  35.410  1.00  0.00     0.029 A 
ATOM     47  N   UNL A   1      42.413  31.910  37.630  1.00  0.00    -0.354 N 
ATOM     48  C   UNL A   1      38.645  32.533  39.732  1.00  0.00     0.074 A 
ATOM     49  C   UNL A   1      37.616  32.984  38.827  1.00  0.00     0.031 C 
ATOM     50  C   UNL A   1      43.746  31.796  35.838  1.00  0.00     0.029 A 
ATOM     51  C   UNL A   1      43.719  31.644  37.291  1.00  0.00     0.049 A 
ATOM     52  H   UNL A   1      42.074  31.855  38.553  1.00  0.00     0.167 HD
ATOM     53  C   UNL A   1      38.458  32.343  41.056  1.00  0.00     0.031 A 
ATOM     54  C   UNL A   1      44.768  31.330  38.078  1.00  0.00     0.031 A 
ATOM     55  C   UNL A   1      39.498  31.925  41.954  1.00  0.00     0.049 A 
ATOM     56  C   UNL A   1      44.543  31.190  39.563  1.00  0.00     0.074 A 
ATOM     57  C   UNL A   1      39.416  31.690  43.313  1.00  0.00     0.029 A 
ATOM     58  N   UNL A   1      40.813  31.698  41.580  1.00  0.00    -0.354 N 
ATOM     59  N   UNL A   1      43.426  31.310  40.244  1.00  0.00    -0.248 NA
ATOM     60  C   UNL A   1      45.717  30.865  40.386  1.00  0.00     0.031 C 
ATOM     61  C   UNL A   1      40.698  31.376  43.773  1.00  0.00     0.029 A 
ATOM     62  C   UNL A   1      41.563  31.357  42.689  1.00  0.00     0.049 A 
ATOM     63  H   UNL A   1      41.161  31.770  40.662  1.00  0.00     0.167 HD
ATOM     64  C   UNL A   1      43.759  31.047  41.569  1.00  0.00     0.074 A 
ATOM     65  C   UNL A   1      45.175  30.743  41.590  1.00  0.00     0.031 C 
ATOM     66  C   UNL A   1      42.971  31.057  42.673  1.00  0.00     0.031 A 
BRANCH  53  67
ATOM     67  C   UNL A   1      37.092  32.624  41.617  1.00  0.00    -0.014 A 
ATOM     68  C   UNL A   1      36.739  33.911  42.059  1.00  0.00     0.010 A 
ATOM     69  C   UNL A   1      36.132  31.597  41.651  1.00  0.00     0.010 A 
ATOM     70  C   UNL A   1      35.449  34.165  42.531  1.00  0.00     0.020 A 
ATOM     71  C   UNL A   1      34.836  31.851  42.103  1.00  0.00     0.020 A 
ATOM     72  C   UNL A   1      34.504  33.133  42.544  1.00  0.00     0.054 A 
BRANCH  72  73
ATOM     73  S   UNL A   1      32.816  33.508  43.093  1.00  0.00     0.124 S 
ATOM     74  O   UNL A   1      32.020  33.068  41.949  1.00  0.00    -0.237 OA
ATOM     75  O   UNL A   1      32.684  32.695  44.300  1.00  0.00    -0.237 OA
ATOM     76  O   UNL A   1      32.837  34.951  43.319  1.00  0.00    -0.744 OA
ENDBRANCH  72  73
ENDBRANCH  53  67
BRANCH  54  77
ATOM     77  C   UNL A   1      46.131  31.160  37.497  1.00  0.00    -0.014 A 
ATOM     78  C   UNL A   1      47.007  32.252  37.364  1.00  0.00     0.010 A 
ATOM     79  C   UNL A   1      46.540  29.899  37.023  1.00  0.00     0.010 A 
ATOM     80  C   UNL A   1      48.247  32.095  36.736  1.00  0.00     0.020 A 
ATOM     81  C   UNL A   1      47.791  29.732  36.420  1.00  0.00     0.020 A 
ATOM     82  C   UNL A   1      48.629  30.836  36.262  1.00  0.00     0.054 A 
BRANCH  82  83
ATOM     83  S   UNL A   1      50.246  30.649  35.459  1.00  0.00     0.124 S 
ATOM     84  O   UNL A   1      50.677  32.036  35.320  1.00  0.00    -0.237 OA
ATOM     85  O   UNL A   1      50.989  29.846  36.427  1.00  0.00    -0.237 OA
ATOM     86  O   UNL A   1      49.927  29.962  34.210  1.00  0.00    -0.744 OA
ENDBRANCH  82  83
ENDBRANCH  54  77
BRANCH  66  87
ATOM     87  C   UNL A   1      43.616  30.699  43.984  1.00  0.00    -0.014 A 
ATOM     88  C   UNL A   1      43.879  29.361  44.324  1.00  0.00     0.010 A 
ATOM     89  C   UNL A   1      44.012  31.724  44.863  1.00  0.00     0.010 A 
ATOM     90  C   UNL A   1      44.493  29.052  45.540  1.00  0.00     0.020 A 
ATOM     91  C   UNL A   1      44.653  31.421  46.065  1.00  0.00     0.020 A 
ATOM     92  C   UNL A   1      44.873  30.083  46.403  1.00  0.00     0.054 A 
BRANCH  92  93
ATOM     93  S   UNL A   1      45.694  29.660  47.963  1.00  0.00     0.124 S 
ATOM     94  O   UNL A   1      46.502  30.851  48.213  1.00  0.00    -0.237 OA
ATOM     95  O   UNL A   1      44.569  29.462  48.875  1.00  0.00    -0.237 OA
ATOM     96  O   UNL A   1      46.447  28.451  47.642  1.00  0.00    -0.744 OA
ENDBRANCH  92  93
ENDBRANCH  66  87
ENDBRANCH  40  41
ENDBRANCH  33  35
ENDBRANCH  32  33
ENDBRANCH  31  32
ENDBRANCH  30  31
ENDBRANCH  29  30
ENDBRANCH  28  29
ENDBRANCH  27  28
ENDBRANCH   1  27
TORSDOF 28
ENDMDL
MODEL 2
REMARK VINA RESULT:      -7.1      8.162     11.741
REMARK SMILES C=CCN(CC(=O)OCCOCCOCCOCCOC(=O)c1ccc(-c2c3nc(c(-c4ccc(S(=O)(=O)[O-])cc4)c4ccc([nH]4)c(-c4ccc(S(=O)(=O)[O-])cc4)c4nc(c(-c5ccc(S(=O)(=O)[O-])cc5)c5ccc2[nH]5)C=C4)C=C3)cc1)C(=O)N1CC[N@H+](C)C(C)(C)C1
REMARK SMILES IDX 14 1 13 2 12 3 11 4 10 5 9 6 8 7 6 8 7 9 5 10 4 11 3 12 2 13
REMARK SMILES IDX 1 14 83 15 84 16 85 17 86 18 93 19 87 20 90 21 88 22 91 23
REMARK SMILES IDX 92 24 89 25 15 27 16 28 17 29 18 30 19 31 20 32 21 33 22 34
REMARK SMILES IDX 23 35 24 36 82 37 25 38 81 39 26 40 27 41 28 42 75 43 29 44
REMARK SMILES IDX 80 45 74 46 76 47 30 48 79 49 73 50 72 51 31 53 61 54 42 55
REMARK SMILES IDX 60 56 43 57 46 58 59 59 77 60 44 61 45 62 58 64 78 65 47 66
REMARK SMILES IDX 32 67 33 68 41 69 34 70 40 71 35 72 36 73 37 74 38 75 39 76
REMARK SMILES IDX 62 77 63 78 71 79 64 80 70 81 65 82 66 83 67 84 68 85 69 86
REMARK SMILES IDX 48 87 49 88 57 89 50 90 56 91 51 92 52 93 53 94 54 95 55 96
REMARK H PARENT 88 26 76 52 46 63
REMARK Flexibility Score: inf
ROOT
ATOM      1  O   UNL A   1      32.961  37.305  31.944  1.00  0.00    -0.377 OA
ENDROOT
BRANCH   1   2
ATOM      2  C   UNL A   1      32.913  36.049  31.290  1.00  0.00     0.188 C 
BRANCH   2   3
ATOM      3  C   UNL A   1      32.743  35.998  29.765  1.00  0.00     0.188 C 
BRANCH   3   4
ATOM      4  O   UNL A   1      32.502  34.658  29.340  1.00  0.00    -0.376 OA
BRANCH   4   5
ATOM      5  C   UNL A   1      32.984  34.393  28.020  1.00  0.00     0.202 C 
BRANCH   5   6
ATOM      6  C   UNL A   1      32.991  32.905  27.618  1.00  0.00     0.261 C 
BRANCH   6   7
ATOM      7  O   UNL A   1      31.828  32.475  26.851  1.00  0.00    -0.462 OA
BRANCH   7   8
ATOM      8  C   UNL A   1      31.752  31.200  26.403  1.00  0.00     0.325 C 
ATOM      9  O   UNL A   1      31.064  30.862  25.445  1.00  0.00    -0.250 OA
BRANCH   8  10
ATOM     10  C   UNL A   1      32.579  30.181  27.239  1.00  0.00     0.244 C 
BRANCH  10  11
ATOM     11  N   UNL A   1      32.752  28.763  26.839  1.00  0.00    -0.310 N 
BRANCH  11  12
ATOM     12  C   UNL A   1      34.136  28.281  26.766  1.00  0.00     0.149 C 
BRANCH  12  13
ATOM     13  C   UNL A   1      35.085  29.397  27.120  1.00  0.00    -0.013 C 
ATOM     14  C   UNL A   1      36.162  29.236  27.903  1.00  0.00     0.006 C 
ENDBRANCH  12  13
ENDBRANCH  11  12
BRANCH  11  15
ATOM     15  C   UNL A   1      31.763  27.782  26.741  1.00  0.00     0.321 C 
ATOM     16  O   UNL A   1      31.082  27.447  27.714  1.00  0.00    -0.248 OA
BRANCH  15  17
ATOM     17  N   UNL A   1      31.516  27.177  25.521  1.00  0.00    -0.313 N 
ATOM     18  C   UNL A   1      30.624  26.014  25.531  1.00  0.00     0.183 C 
ATOM     19  C   UNL A   1      32.541  27.083  24.496  1.00  0.00     0.189 C 
ATOM     20  C   UNL A   1      30.089  25.646  24.132  1.00  0.00     0.284 C 
ATOM     21  C   UNL A   1      31.991  26.791  23.076  1.00  0.00     0.110 C 
ATOM     22  N   UNL A   1      31.090  25.600  23.037  1.00  0.00    -0.330 N 
ATOM     23  C   UNL A   1      31.187  28.019  22.590  1.00  0.00     0.080 C 
ATOM     24  C   UNL A   1      33.212  26.660  22.135  1.00  0.00     0.080 C 
ATOM     25  C   UNL A   1      31.784  24.311  23.031  1.00  0.00     0.333 C 
ATOM     26  H   UNL A   1      30.613  25.662  22.137  1.00  0.00     0.348 HD
ENDBRANCH  15  17
ENDBRANCH  11  15
ENDBRANCH  10  11
ENDBRANCH   8  10
ENDBRANCH   7   8
ENDBRANCH   6   7
ENDBRANCH   5   6
ENDBRANCH   4   5
ENDBRANCH   3   4
ENDBRANCH   2   3
ENDBRANCH   1   2
BRANCH   1  27
ATOM     27  C   UNL A   1      33.586  37.318  33.202  1.00  0.00     0.188 C 
BRANCH  27  28
ATOM     28  C   UNL A   1      34.592  36.174  33.426  1.00  0.00     0.188 C 
BRANCH  28  29
ATOM     29  O   UNL A   1      34.225  35.054  34.235  1.00  0.00    -0.376 OA
BRANCH  29  30
ATOM     30  C   UNL A   1      35.120  33.950  34.381  1.00  0.00     0.202 C 
BRANCH  30  31
ATOM     31  C   UNL A   1      36.379  33.878  33.514  1.00  0.00     0.261 C 
BRANCH  31  32
ATOM     32  O   UNL A   1      36.227  32.962  32.421  1.00  0.00    -0.460 OA
BRANCH  32  33
ATOM     33  C   UNL A   1      36.814  31.754  32.576  1.00  0.00     0.338 C 
ATOM     34  O   UNL A   1      36.315  30.744  33.050  1.00  0.00    -0.246 OA
BRANCH  33  35
ATOM     35  C   UNL A   1      38.092  31.761  31.841  1.00  0.00     0.060 A 
ATOM     36  C   UNL A   1      39.226  31.282  32.516  1.00  0.00     0.016 A 
ATOM     37  C   UNL A   1      38.166  32.140  30.497  1.00  0.00     0.016 A 
ATOM     38  C   UNL A   1      40.437  31.173  31.843  1.00  0.00     0.010 A 
ATOM     39  C   UNL A   1      39.396  32.081  29.838  1.00  0.00     0.010 A 
ATOM     40  C   UNL A   1      40.535  31.618  30.518  1.00  0.00    -0.014 A 
BRANCH  40  41
ATOM     41  C   UNL A   1      41.883  31.841  29.958  1.00  0.00     0.031 A 
ATOM     42  C   UNL A   1      42.465  33.218  30.118  1.00  0.00     0.074 A 
ATOM     43  C   UNL A   1      42.578  30.849  29.376  1.00  0.00     0.049 A 
ATOM     44  N   UNL A   1      43.644  33.662  29.778  1.00  0.00    -0.248 NA
ATOM     45  C   UNL A   1      41.602  34.229  30.760  1.00  0.00     0.031 C 
ATOM     46  C   UNL A   1      42.114  29.472  29.201  1.00  0.00     0.029 A 
ATOM     47  N   UNL A   1      43.833  30.853  28.823  1.00  0.00    -0.354 N 
ATOM     48  C   UNL A   1      43.666  34.995  30.170  1.00  0.00     0.074 A 
ATOM     49  C   UNL A   1      42.382  35.298  30.756  1.00  0.00     0.031 C 
ATOM     50  C   UNL A   1      43.070  28.766  28.569  1.00  0.00     0.029 A 
ATOM     51  C   UNL A   1      44.202  29.644  28.282  1.00  0.00     0.049 A 
ATOM     52  H   UNL A   1      44.415  31.646  28.816  1.00  0.00     0.167 HD
ATOM     53  C   UNL A   1      44.672  35.889  30.049  1.00  0.00     0.031 A 
ATOM     54  C   UNL A   1      45.325  29.302  27.618  1.00  0.00     0.031 A 
ATOM     55  C   UNL A   1      45.933  35.586  29.434  1.00  0.00     0.049 A 
ATOM     56  C   UNL A   1      46.405  30.341  27.439  1.00  0.00     0.074 A 
ATOM     57  C   UNL A   1      47.028  36.413  29.270  1.00  0.00     0.029 A 
ATOM     58  N   UNL A   1      46.258  34.363  28.869  1.00  0.00    -0.354 N 
ATOM     59  N   UNL A   1      46.436  31.582  27.869  1.00  0.00    -0.248 NA
ATOM     60  C   UNL A   1      47.604  29.932  26.695  1.00  0.00     0.031 C 
ATOM     61  C   UNL A   1      47.996  35.705  28.550  1.00  0.00     0.029 A 
ATOM     62  C   UNL A   1      47.526  34.420  28.323  1.00  0.00     0.049 A 
ATOM     63  H   UNL A   1      45.672  33.572  28.858  1.00  0.00     0.167 HD
ATOM     64  C   UNL A   1      47.667  32.092  27.470  1.00  0.00     0.074 A 
ATOM     65  C   UNL A   1      48.359  31.019  26.784  1.00  0.00     0.031 C 
ATOM     66  C   UNL A   1      48.185  33.333  27.650  1.00  0.00     0.031 A 
BRANCH  53  67
ATOM     67  C   UNL A   1      44.433  37.283  30.555  1.00  0.00    -0.014 A 
ATOM     68  C   UNL A   1      44.936  37.701  31.800  1.00  0.00     0.010 A 
ATOM     69  C   UNL A   1      43.741  38.204  29.749  1.00  0.00     0.010 A 
ATOM     70  C   UNL A   1      44.746  39.016  32.232  1.00  0.00     0.020 A 
ATOM     71  C   UNL A   1      43.566  39.524  30.167  1.00  0.00     0.020 A 
ATOM     72  C   UNL A   1      44.067  39.921  31.409  1.00  0.00     0.054 A 
BRANCH  72  73
ATOM     73  S   UNL A   1      43.898  41.641  31.962  1.00  0.00     0.124 S 
ATOM     74  O   UNL A   1      42.741  42.093  31.193  1.00  0.00    -0.237 OA
ATOM     75  O   UNL A   1      43.680  41.494  33.398  1.00  0.00    -0.237 OA
ATOM     76  O   UNL A   1      45.172  42.252  31.588  1.00  0.00    -0.744 OA
ENDBRANCH  72  73
ENDBRANCH  53  67
BRANCH  54  77
ATOM     77  C   UNL A   1      45.482  27.937  27.041  1.00  0.00    -0.014 A 
ATOM     78  C   UNL A   1      45.295  27.702  25.667  1.00  0.00     0.010 A 
ATOM     79  C   UNL A   1      45.774  26.848  27.883  1.00  0.00     0.010 A 
ATOM     80  C   UNL A   1      45.357  26.401  25.154  1.00  0.00     0.020 A 
ATOM     81  C   UNL A   1      45.866  25.550  27.369  1.00  0.00     0.020 A 
ATOM     82  C   UNL A   1      45.636  25.332  26.010  1.00  0.00     0.054 A 
BRANCH  82  83
ATOM     83  S   UNL A   1      45.724  23.653  25.326  1.00  0.00     0.124 S 
ATOM     84  O   UNL A   1      46.448  23.873  24.078  1.00  0.00    -0.237 OA
ATOM     85  O   UNL A   1      46.453  22.926  26.362  1.00  0.00    -0.237 OA
ATOM     86  O   UNL A   1      44.322  23.271  25.180  1.00  0.00    -0.744 OA
ENDBRANCH  82  83
ENDBRANCH  54  77
BRANCH  66  87
ATOM     87  C   UNL A   1      49.572  33.584  27.125  1.00  0.00    -0.014 A 
ATOM     88  C   UNL A   1      49.780  34.283  25.924  1.00  0.00     0.010 A 
ATOM     89  C   UNL A   1      50.683  33.159  27.877  1.00  0.00     0.010 A 
ATOM     90  C   UNL A   1      51.078  34.518  25.463  1.00  0.00     0.020 A 
ATOM     91  C   UNL A   1      51.981  33.419  27.435  1.00  0.00     0.020 A 
ATOM     92  C   UNL A   1      52.169  34.082  26.220  1.00  0.00     0.054 A 
BRANCH  92  93
ATOM     93  S   UNL A   1      53.844  34.423  25.617  1.00  0.00     0.124 S 
ATOM     94  O   UNL A   1      53.578  35.187  24.400  1.00  0.00    -0.237 OA
ATOM     95  O   UNL A   1      54.434  35.182  26.718  1.00  0.00    -0.237 OA
ATOM     96  O   UNL A   1      54.415  33.095  25.407  1.00  0.00    -0.744 OA
ENDBRANCH  92  93
ENDBRANCH  66  87
ENDBRANCH  40  41
ENDBRANCH  33  35
ENDBRANCH  32  33
ENDBRANCH  31  32
ENDBRANCH  30  31
ENDBRANCH  29  30
ENDBRANCH  28  29
ENDBRANCH  27  28
ENDBRANCH   1  27
TORSDOF 28
ENDMDL
MODEL 3
REMARK VINA RESULT:      -6.7      7.180     12.892
REMARK SMILES C=CCN(CC(=O)OCCOCCOCCOCCOC(=O)c1ccc(-c2c3nc(c(-c4ccc(S(=O)(=O)[O-])cc4)c4ccc([nH]4)c(-c4ccc(S(=O)(=O)[O-])cc4)c4nc(c(-c5ccc(S(=O)(=O)[O-])cc5)c5ccc2[nH]5)C=C4)C=C3)cc1)C(=O)N1CC[N@H+](C)C(C)(C)C1
REMARK SMILES IDX 14 1 13 2 12 3 11 4 10 5 9 6 8 7 6 8 7 9 5 10 4 11 3 12 2 13
REMARK SMILES IDX 1 14 83 15 84 16 85 17 86 18 93 19 87 20 90 21 88 22 91 23
REMARK SMILES IDX 92 24 89 25 15 27 16 28 17 29 18 30 19 31 20 32 21 33 22 34
REMARK SMILES IDX 23 35 24 36 82 37 25 38 81 39 26 40 27 41 28 42 75 43 29 44
REMARK SMILES IDX 80 45 74 46 76 47 30 48 79 49 73 50 72 51 31 53 61 54 42 55
REMARK SMILES IDX 60 56 43 57 46 58 59 59 77 60 44 61 45 62 58 64 78 65 47 66
REMARK SMILES IDX 32 67 33 68 41 69 34 70 40 71 35 72 36 73 37 74 38 75 39 76
REMARK SMILES IDX 62 77 63 78 71 79 64 80 70 81 65 82 66 83 67 84 68 85 69 86
REMARK SMILES IDX 48 87 49 88 57 89 50 90 56 91 51 92 52 93 53 94 54 95 55 96
REMARK H PARENT 88 26 76 52 46 63
REMARK Flexibility Score: inf
ROOT
ATOM      1  O   UNL A   1      40.024  28.453  28.841  1.00  0.00    -0.377 OA
ENDROOT
BRANCH   1   2
ATOM      2  C   UNL A   1      39.026  29.458  28.801  1.00  0.00     0.188 C 
BRANCH   2   3
ATOM      3  C   UNL A   1      38.057  29.513  27.612  1.00  0.00     0.188 C 
BRANCH   3   4
ATOM      4  O   UNL A   1      36.943  30.348  27.920  1.00  0.00    -0.376 OA
BRANCH   4   5
ATOM      5  C   UNL A   1      35.712  29.626  28.022  1.00  0.00     0.202 C 
BRANCH   5   6
ATOM      6  C   UNL A   1      34.503  30.308  27.354  1.00  0.00     0.261 C 
BRANCH   6   7
ATOM      7  O   UNL A   1      33.881  29.537  26.284  1.00  0.00    -0.462 OA
BRANCH   7   8
ATOM      8  C   UNL A   1      32.605  29.802  25.918  1.00  0.00     0.325 C 
ATOM      9  O   UNL A   1      31.883  30.593  26.516  1.00  0.00    -0.250 OA
BRANCH   8  10
ATOM     10  C   UNL A   1      32.108  28.976  24.696  1.00  0.00     0.244 C 
BRANCH  10  11
ATOM     11  N   UNL A   1      31.327  27.723  24.835  1.00  0.00    -0.310 N 
BRANCH  11  12
ATOM     12  C   UNL A   1      30.450  27.385  23.708  1.00  0.00     0.149 C 
BRANCH  12  13
ATOM     13  C   UNL A   1      29.642  28.593  23.310  1.00  0.00    -0.013 C 
ATOM     14  C   UNL A   1      28.311  28.573  23.139  1.00  0.00     0.006 C 
ENDBRANCH  12  13
ENDBRANCH  11  12
BRANCH  11  15
ATOM     15  C   UNL A   1      31.488  26.725  25.798  1.00  0.00     0.321 C 
ATOM     16  O   UNL A   1      30.877  26.753  26.870  1.00  0.00    -0.248 OA
BRANCH  15  17
ATOM     17  N   UNL A   1      32.335  25.660  25.547  1.00  0.00    -0.313 N 
ATOM     18  C   UNL A   1      33.711  25.990  25.162  1.00  0.00     0.183 C 
ATOM     19  C   UNL A   1      31.860  24.439  24.921  1.00  0.00     0.189 C 
ATOM     20  C   UNL A   1      34.679  24.797  25.285  1.00  0.00     0.284 C 
ATOM     21  C   UNL A   1      32.800  23.221  25.115  1.00  0.00     0.110 C 
ATOM     22  N   UNL A   1      34.211  23.508  24.717  1.00  0.00    -0.330 N 
ATOM     23  C   UNL A   1      32.795  22.820  26.608  1.00  0.00     0.080 C 
ATOM     24  C   UNL A   1      32.177  22.039  24.336  1.00  0.00     0.080 C 
ATOM     25  C   UNL A   1      34.457  23.465  23.274  1.00  0.00     0.333 C 
ATOM     26  H   UNL A   1      34.756  22.742  25.114  1.00  0.00     0.348 HD
ENDBRANCH  15  17
ENDBRANCH  11  15
ENDBRANCH  10  11
ENDBRANCH   8  10
ENDBRANCH   7   8
ENDBRANCH   6   7
ENDBRANCH   5   6
ENDBRANCH   4   5
ENDBRANCH   3   4
ENDBRANCH   2   3
ENDBRANCH   1   2
BRANCH   1  27
ATOM     27  C   UNL A   1      39.827  27.358  27.983  1.00  0.00     0.188 C 
BRANCH  27  28
ATOM     28  C   UNL A   1      40.982  27.107  26.996  1.00  0.00     0.188 C 
BRANCH  28  29
ATOM     29  O   UNL A   1      41.558  25.803  26.894  1.00  0.00    -0.376 OA
BRANCH  29  30
ATOM     30  C   UNL A   1      41.900  25.268  25.614  1.00  0.00     0.202 C 
BRANCH  30  31
ATOM     31  C   UNL A   1      43.359  24.924  25.304  1.00  0.00     0.261 C 
BRANCH  31  32
ATOM     32  O   UNL A   1      44.219  26.065  25.432  1.00  0.00    -0.460 OA
BRANCH  32  33
ATOM     33  C   UNL A   1      45.102  26.028  26.455  1.00  0.00     0.338 C 
ATOM     34  O   UNL A   1      46.031  25.248  26.604  1.00  0.00    -0.246 OA
BRANCH  33  35
ATOM     35  C   UNL A   1      44.935  27.255  27.256  1.00  0.00     0.060 A 
ATOM     36  C   UNL A   1      44.199  28.303  26.683  1.00  0.00     0.016 A 
ATOM     37  C   UNL A   1      45.407  27.346  28.569  1.00  0.00     0.016 A 
ATOM     38  C   UNL A   1      43.926  29.445  27.427  1.00  0.00     0.010 A 
ATOM     39  C   UNL A   1      45.177  28.516  29.297  1.00  0.00     0.010 A 
ATOM     40  C   UNL A   1      44.456  29.572  28.717  1.00  0.00    -0.014 A 
BRANCH  40  41
ATOM     41  C   UNL A   1      44.472  30.915  29.331  1.00  0.00     0.031 A 
ATOM     42  C   UNL A   1      45.476  31.896  28.792  1.00  0.00     0.074 A 
ATOM     43  C   UNL A   1      43.599  31.262  30.293  1.00  0.00     0.049 A 
ATOM     44  N   UNL A   1      45.659  33.149  29.106  1.00  0.00    -0.248 NA
ATOM     45  C   UNL A   1      46.392  31.395  27.748  1.00  0.00     0.031 C 
ATOM     46  C   UNL A   1      42.567  30.393  30.860  1.00  0.00     0.029 A 
ATOM     47  N   UNL A   1      43.444  32.449  30.962  1.00  0.00    -0.354 N 
ATOM     48  C   UNL A   1      46.701  33.587  28.296  1.00  0.00     0.074 A 
ATOM     49  C   UNL A   1      47.125  32.467  27.490  1.00  0.00     0.031 C 
ATOM     50  C   UNL A   1      41.893  31.076  31.805  1.00  0.00     0.029 A 
ATOM     51  C   UNL A   1      42.457  32.419  31.918  1.00  0.00     0.049 A 
ATOM     52  H   UNL A   1      43.989  33.247  30.775  1.00  0.00     0.167 HD
ATOM     53  C   UNL A   1      47.254  34.817  28.233  1.00  0.00     0.031 A 
ATOM     54  C   UNL A   1      42.071  33.373  32.790  1.00  0.00     0.031 A 
ATOM     55  C   UNL A   1      46.847  35.915  29.064  1.00  0.00     0.049 A 
ATOM     56  C   UNL A   1      42.754  34.717  32.742  1.00  0.00     0.074 A 
ATOM     57  C   UNL A   1      47.332  37.209  29.075  1.00  0.00     0.029 A 
ATOM     58  N   UNL A   1      45.867  35.839  30.042  1.00  0.00    -0.354 N 
ATOM     59  N   UNL A   1      43.697  35.136  31.928  1.00  0.00    -0.248 NA
ATOM     60  C   UNL A   1      42.316  35.721  33.721  1.00  0.00     0.031 C 
ATOM     61  C   UNL A   1      46.684  37.901  30.103  1.00  0.00     0.029 A 
ATOM     62  C   UNL A   1      45.754  37.054  30.688  1.00  0.00     0.049 A 
ATOM     63  H   UNL A   1      45.332  35.037  30.245  1.00  0.00     0.167 HD
ATOM     64  C   UNL A   1      43.944  36.458  32.282  1.00  0.00     0.074 A 
ATOM     65  C   UNL A   1      43.038  36.776  33.367  1.00  0.00     0.031 C 
ATOM     66  C   UNL A   1      44.839  37.336  31.762  1.00  0.00     0.031 A 
BRANCH  53  67
ATOM     67  C   UNL A   1      48.383  35.027  27.265  1.00  0.00    -0.014 A 
ATOM     68  C   UNL A   1      48.136  35.380  25.926  1.00  0.00     0.010 A 
ATOM     69  C   UNL A   1      49.712  34.921  27.714  1.00  0.00     0.010 A 
ATOM     70  C   UNL A   1      49.200  35.619  25.052  1.00  0.00     0.020 A 
ATOM     71  C   UNL A   1      50.777  35.178  26.850  1.00  0.00     0.020 A 
ATOM     72  C   UNL A   1      50.514  35.523  25.523  1.00  0.00     0.054 A 
BRANCH  72  73
ATOM     73  S   UNL A   1      51.875  35.910  24.386  1.00  0.00     0.124 S 
ATOM     74  O   UNL A   1      52.860  36.505  25.285  1.00  0.00    -0.237 OA
ATOM     75  O   UNL A   1      52.226  34.597  23.849  1.00  0.00    -0.237 OA
ATOM     76  O   UNL A   1      51.272  36.831  23.425  1.00  0.00    -0.744 OA
ENDBRANCH  72  73
ENDBRANCH  53  67
BRANCH  54  77
ATOM     77  C   UNL A   1      41.016  33.093  33.806  1.00  0.00    -0.014 A 
ATOM     78  C   UNL A   1      39.679  33.470  33.589  1.00  0.00     0.010 A 
ATOM     79  C   UNL A   1      41.362  32.489  35.029  1.00  0.00     0.010 A 
ATOM     80  C   UNL A   1      38.717  33.282  34.589  1.00  0.00     0.020 A 
ATOM     81  C   UNL A   1      40.399  32.273  36.019  1.00  0.00     0.020 A 
ATOM     82  C   UNL A   1      39.085  32.690  35.801  1.00  0.00     0.054 A 
BRANCH  82  83
ATOM     83  S   UNL A   1      37.823  32.445  37.081  1.00  0.00     0.124 S 
ATOM     84  O   UNL A   1      36.662  33.104  36.492  1.00  0.00    -0.237 OA
ATOM     85  O   UNL A   1      37.746  30.989  37.176  1.00  0.00    -0.237 OA
ATOM     86  O   UNL A   1      38.394  33.105  38.253  1.00  0.00    -0.744 OA
ENDBRANCH  82  83
ENDBRANCH  54  77
BRANCH  66  87
ATOM     87  C   UNL A   1      44.856  38.725  32.338  1.00  0.00    -0.014 A 
ATOM     88  C   UNL A   1      45.701  39.057  33.412  1.00  0.00     0.010 A 
ATOM     89  C   UNL A   1      44.053  39.724  31.759  1.00  0.00     0.010 A 
ATOM     90  C   UNL A   1      45.712  40.358  33.921  1.00  0.00     0.020 A 
ATOM     91  C   UNL A   1      44.085  41.032  32.246  1.00  0.00     0.020 A 
ATOM     92  C   UNL A   1      44.902  41.336  33.337  1.00  0.00     0.054 A 
BRANCH  92  93
ATOM     93  S   UNL A   1      44.954  43.023  33.997  1.00  0.00     0.124 S 
ATOM     94  O   UNL A   1      43.826  43.650  33.314  1.00  0.00    -0.237 OA
ATOM     95  O   UNL A   1      44.781  42.812  35.433  1.00  0.00    -0.237 OA
ATOM     96  O   UNL A   1      46.273  43.510  33.600  1.00  0.00    -0.744 OA
ENDBRANCH  92  93
ENDBRANCH  66  87
ENDBRANCH  40  41
ENDBRANCH  33  35
ENDBRANCH  32  33
ENDBRANCH  31  32
ENDBRANCH  30  31
ENDBRANCH  29  30
ENDBRANCH  28  29
ENDBRANCH  27  28
ENDBRANCH   1  27
TORSDOF 28
ENDMDL
