MODEL 1
REMARK VINA RESULT:      -7.7      0.000      0.000
REMARK SMILES CC[NH2+][C@@]1(C(=O)OCCOCCOCCOCCOC(=O)c2ccc(-c3c4nc(c(-c5ccc(S(=O)(=O)[O-])cc5)c5ccc([nH]5)c(-c5ccc(S(=O)(=O)[O-])cc5)c5nc(c(-c6ccc(S(=O)(=O)[O-])cc6)c6ccc3[nH]6)C=C5)C=C4)cc2)CCC[C@H]1CCN1C(=O)CCC1=O
REMARK SMILES IDX 13 1 12 2 11 3 10 4 9 5 8 6 7 7 5 8 6 9 4 10 82 11 85 12
REMARK SMILES IDX 83 13 84 14 3 15 2 18 1 19 86 20 87 21 88 22 89 23 93 24
REMARK SMILES IDX 90 25 91 26 92 27 94 28 14 29 15 30 16 31 17 32 18 33 19 34
REMARK SMILES IDX 20 35 21 36 22 37 23 38 81 39 24 40 80 41 25 42 26 43 27 44
REMARK SMILES IDX 74 45 28 46 79 47 73 48 75 49 29 50 78 51 72 52 71 53 30 55
REMARK SMILES IDX 60 56 41 57 59 58 42 59 45 60 58 61 76 62 43 63 44 64 57 66
REMARK SMILES IDX 77 67 46 68 31 69 32 70 40 71 33 72 39 73 34 74 35 75 36 76
REMARK SMILES IDX 37 77 38 78 61 79 62 80 70 81 63 82 69 83 64 84 65 85 66 86
REMARK SMILES IDX 67 87 68 88 47 89 48 90 56 91 49 92 55 93 50 94 51 95 52 96
REMARK SMILES IDX 53 97 54 98
REMARK H PARENT 3 16 3 17 75 54 45 65
REMARK Flexibility Score: inf
ROOT
ATOM      1  O   UNL A   1      35.531  33.032  29.362  1.00  0.00    -0.377 OA
ENDROOT
BRANCH   1   2
ATOM      2  C   UNL A   1      34.348  32.728  28.637  1.00  0.00     0.188 C 
BRANCH   2   3
ATOM      3  C   UNL A   1      34.304  31.553  27.654  1.00  0.00     0.188 C 
BRANCH   3   4
ATOM      4  O   UNL A   1      35.367  30.648  27.801  1.00  0.00    -0.376 OA
BRANCH   4   5
ATOM      5  C   UNL A   1      35.187  29.285  27.458  1.00  0.00     0.202 C 
BRANCH   5   6
ATOM      6  C   UNL A   1      33.817  28.619  27.198  1.00  0.00     0.261 C 
BRANCH   6   7
ATOM      7  O   UNL A   1      33.533  28.138  25.876  1.00  0.00    -0.459 OA
BRANCH   7   8
ATOM      8  C   UNL A   1      32.389  27.417  25.748  1.00  0.00     0.368 C 
ATOM      9  O   UNL A   1      31.333  27.730  26.300  1.00  0.00    -0.245 OA
BRANCH   8  10
ATOM     10  C   UNL A   1      32.499  26.172  24.780  1.00  0.00     0.197 C 
ATOM     11  C   UNL A   1      31.917  25.008  25.612  1.00  0.00     0.081 C 
ATOM     12  C   UNL A   1      33.933  25.628  24.446  1.00  0.00     0.064 C 
ATOM     13  C   UNL A   1      33.063  24.640  26.547  1.00  0.00     0.008 C 
ATOM     14  C   UNL A   1      34.323  24.803  25.707  1.00  0.00     0.011 C 
BRANCH  10  15
ATOM     15  N   UNL A   1      31.747  26.595  23.595  1.00  0.00    -0.332 N 
ATOM     16  H   UNL A   1      31.834  25.846  22.907  1.00  0.00     0.347 HD
ATOM     17  H   UNL A   1      30.815  26.784  23.960  1.00  0.00     0.347 HD
BRANCH  15  18
ATOM     18  C   UNL A   1      32.101  27.822  22.924  1.00  0.00     0.257 C 
ATOM     19  C   UNL A   1      30.842  28.622  22.622  1.00  0.00     0.071 C 
ENDBRANCH  15  18
ENDBRANCH  10  15
BRANCH  12  20
ATOM     20  C   UNL A   1      34.077  24.683  23.213  1.00  0.00     0.033 C 
BRANCH  20  21
ATOM     21  C   UNL A   1      34.854  23.360  23.322  1.00  0.00     0.129 C 
BRANCH  21  22
ATOM     22  N   UNL A   1      34.169  22.164  23.787  1.00  0.00    -0.283 N 
ATOM     23  C   UNL A   1      34.590  21.389  24.829  1.00  0.00     0.229 C 
ATOM     24  C   UNL A   1      32.862  21.915  23.464  1.00  0.00     0.229 C 
ATOM     25  O   UNL A   1      35.665  21.448  25.408  1.00  0.00    -0.274 OA
ATOM     26  C   UNL A   1      33.466  20.493  25.268  1.00  0.00     0.110 C 
ATOM     27  C   UNL A   1      32.342  20.785  24.299  1.00  0.00     0.110 C 
ATOM     28  O   UNL A   1      32.185  22.516  22.641  1.00  0.00    -0.274 OA
ENDBRANCH  21  22
ENDBRANCH  20  21
ENDBRANCH  12  20
ENDBRANCH   8  10
ENDBRANCH   7   8
ENDBRANCH   6   7
ENDBRANCH   5   6
ENDBRANCH   4   5
ENDBRANCH   3   4
ENDBRANCH   2   3
ENDBRANCH   1   2
BRANCH   1  29
ATOM     29  C   UNL A   1      35.478  33.581  30.675  1.00  0.00     0.188 C 
BRANCH  29  30
ATOM     30  C   UNL A   1      34.923  32.760  31.855  1.00  0.00     0.188 C 
BRANCH  30  31
ATOM     31  O   UNL A   1      35.874  32.401  32.842  1.00  0.00    -0.376 OA
BRANCH  31  32
ATOM     32  C   UNL A   1      36.343  31.061  32.846  1.00  0.00     0.202 C 
BRANCH  32  33
ATOM     33  C   UNL A   1      37.255  30.634  31.688  1.00  0.00     0.261 C 
BRANCH  33  34
ATOM     34  O   UNL A   1      38.587  30.246  32.030  1.00  0.00    -0.460 OA
BRANCH  34  35
ATOM     35  C   UNL A   1      39.560  31.160  31.841  1.00  0.00     0.338 C 
ATOM     36  O   UNL A   1      39.676  32.243  32.370  1.00  0.00    -0.246 OA
BRANCH  35  37
ATOM     37  C   UNL A   1      40.586  30.496  31.022  1.00  0.00     0.060 A 
ATOM     38  C   UNL A   1      41.638  29.848  31.675  1.00  0.00     0.016 A 
ATOM     39  C   UNL A   1      40.498  30.512  29.627  1.00  0.00     0.016 A 
ATOM     40  C   UNL A   1      42.655  29.272  30.927  1.00  0.00     0.010 A 
ATOM     41  C   UNL A   1      41.526  29.947  28.877  1.00  0.00     0.010 A 
ATOM     42  C   UNL A   1      42.635  29.381  29.530  1.00  0.00    -0.014 A 
BRANCH  42  43
ATOM     43  C   UNL A   1      43.900  29.158  28.800  1.00  0.00     0.031 A 
ATOM     44  C   UNL A   1      44.936  30.248  28.855  1.00  0.00     0.074 A 
ATOM     45  C   UNL A   1      44.156  27.985  28.197  1.00  0.00     0.049 A 
ATOM     46  N   UNL A   1      46.147  30.266  28.365  1.00  0.00    -0.248 NA
ATOM     47  C   UNL A   1      44.557  31.484  29.565  1.00  0.00     0.031 C 
ATOM     48  C   UNL A   1      43.240  26.846  28.135  1.00  0.00     0.029 A 
ATOM     49  N   UNL A   1      45.277  27.555  27.539  1.00  0.00    -0.354 N 
ATOM     50  C   UNL A   1      46.670  31.509  28.704  1.00  0.00     0.074 A 
ATOM     51  C   UNL A   1      45.634  32.234  29.403  1.00  0.00     0.031 C 
ATOM     52  C   UNL A   1      43.844  25.839  27.481  1.00  0.00     0.029 A 
ATOM     53  C   UNL A   1      45.172  26.273  27.055  1.00  0.00     0.049 A 
ATOM     54  H   UNL A   1      46.081  28.111  27.423  1.00  0.00     0.167 HD
ATOM     55  C   UNL A   1      47.908  31.998  28.466  1.00  0.00     0.031 A 
ATOM     56  C   UNL A   1      46.052  25.543  26.342  1.00  0.00     0.031 A 
ATOM     57  C   UNL A   1      48.925  31.273  27.755  1.00  0.00     0.049 A 
ATOM     58  C   UNL A   1      47.401  26.138  26.026  1.00  0.00     0.074 A 
ATOM     59  C   UNL A   1      50.214  31.670  27.451  1.00  0.00     0.029 A 
ATOM     60  N   UNL A   1      48.762  29.999  27.230  1.00  0.00    -0.354 N 
ATOM     61  N   UNL A   1      47.888  27.310  26.363  1.00  0.00    -0.248 NA
ATOM     62  C   UNL A   1      48.325  25.302  25.249  1.00  0.00     0.031 C 
ATOM     63  C   UNL A   1      50.809  30.662  26.686  1.00  0.00     0.029 A 
ATOM     64  C   UNL A   1      49.918  29.604  26.582  1.00  0.00     0.049 A 
ATOM     65  H   UNL A   1      47.944  29.456  27.306  1.00  0.00     0.167 HD
ATOM     66  C   UNL A   1      49.189  27.337  25.870  1.00  0.00     0.074 A 
ATOM     67  C   UNL A   1      49.414  26.058  25.228  1.00  0.00     0.031 C 
ATOM     68  C   UNL A   1      50.117  28.326  25.943  1.00  0.00     0.031 A 
BRANCH  55  69
ATOM     69  C   UNL A   1      48.205  33.398  28.940  1.00  0.00    -0.014 A 
ATOM     70  C   UNL A   1      48.570  34.418  28.041  1.00  0.00     0.010 A 
ATOM     71  C   UNL A   1      48.101  33.700  30.310  1.00  0.00     0.010 A 
ATOM     72  C   UNL A   1      48.864  35.702  28.510  1.00  0.00     0.020 A 
ATOM     73  C   UNL A   1      48.362  34.990  30.778  1.00  0.00     0.020 A 
ATOM     74  C   UNL A   1      48.758  35.980  29.876  1.00  0.00     0.054 A 
BRANCH  74  75
ATOM     75  S   UNL A   1      49.118  37.661  30.451  1.00  0.00     0.124 S 
ATOM     76  O   UNL A   1      48.257  37.770  31.625  1.00  0.00    -0.237 OA
ATOM     77  O   UNL A   1      50.552  37.604  30.727  1.00  0.00    -0.237 OA
ATOM     78  O   UNL A   1      48.737  38.505  29.321  1.00  0.00    -0.744 OA
ENDBRANCH  74  75
ENDBRANCH  55  69
BRANCH  56  79
ATOM     79  C   UNL A   1      45.684  24.177  25.874  1.00  0.00    -0.014 A 
ATOM     80  C   UNL A   1      45.890  23.050  26.689  1.00  0.00     0.010 A 
ATOM     81  C   UNL A   1      45.123  24.000  24.596  1.00  0.00     0.010 A 
ATOM     82  C   UNL A   1      45.562  21.771  26.227  1.00  0.00     0.020 A 
ATOM     83  C   UNL A   1      44.762  22.728  24.143  1.00  0.00     0.020 A 
ATOM     84  C   UNL A   1      44.996  21.620  24.958  1.00  0.00     0.054 A 
BRANCH  84  85
ATOM     85  S   UNL A   1      44.532  19.956  24.400  1.00  0.00     0.124 S 
ATOM     86  O   UNL A   1      44.536  20.110  22.949  1.00  0.00    -0.237 OA
ATOM     87  O   UNL A   1      45.602  19.131  24.953  1.00  0.00    -0.237 OA
ATOM     88  O   UNL A   1      43.218  19.747  25.004  1.00  0.00    -0.744 OA
ENDBRANCH  84  85
ENDBRANCH  56  79
BRANCH  68  89
ATOM     89  C   UNL A   1      51.476  28.040  25.359  1.00  0.00    -0.014 A 
ATOM     90  C   UNL A   1      51.748  28.230  23.993  1.00  0.00     0.010 A 
ATOM     91  C   UNL A   1      52.508  27.596  26.207  1.00  0.00     0.010 A 
ATOM     92  C   UNL A   1      53.009  27.922  23.475  1.00  0.00     0.020 A 
ATOM     93  C   UNL A   1      53.781  27.325  25.700  1.00  0.00     0.020 A 
ATOM     94  C   UNL A   1      54.016  27.466  24.332  1.00  0.00     0.054 A 
BRANCH  94  95
ATOM     95  S   UNL A   1      55.644  27.075  23.638  1.00  0.00     0.124 S 
ATOM     96  O   UNL A   1      56.025  25.892  24.404  1.00  0.00    -0.237 OA
ATOM     97  O   UNL A   1      55.342  26.840  22.227  1.00  0.00    -0.237 OA
ATOM     98  O   UNL A   1      56.434  28.273  23.909  1.00  0.00    -0.744 OA
ENDBRANCH  94  95
ENDBRANCH  68  89
ENDBRANCH  42  43
ENDBRANCH  35  37
ENDBRANCH  34  35
ENDBRANCH  33  34
ENDBRANCH  32  33
ENDBRANCH  31  32
ENDBRANCH  30  31
ENDBRANCH  29  30
ENDBRANCH   1  29
TORSDOF 28
ENDMDL
MODEL 2
REMARK VINA RESULT:      -7.5      4.633      5.868
REMARK SMILES CC[NH2+][C@@]1(C(=O)OCCOCCOCCOCCOC(=O)c2ccc(-c3c4nc(c(-c5ccc(S(=O)(=O)[O-])cc5)c5ccc([nH]5)c(-c5ccc(S(=O)(=O)[O-])cc5)c5nc(c(-c6ccc(S(=O)(=O)[O-])cc6)c6ccc3[nH]6)C=C5)C=C4)cc2)CCC[C@H]1CCN1C(=O)CCC1=O
REMARK SMILES IDX 13 1 12 2 11 3 10 4 9 5 8 6 7 7 5 8 6 9 4 10 82 11 85 12
REMARK SMILES IDX 83 13 84 14 3 15 2 18 1 19 86 20 87 21 88 22 89 23 93 24
REMARK SMILES IDX 90 25 91 26 92 27 94 28 14 29 15 30 16 31 17 32 18 33 19 34
REMARK SMILES IDX 20 35 21 36 22 37 23 38 81 39 24 40 80 41 25 42 26 43 27 44
REMARK SMILES IDX 74 45 28 46 79 47 73 48 75 49 29 50 78 51 72 52 71 53 30 55
REMARK SMILES IDX 60 56 41 57 59 58 42 59 45 60 58 61 76 62 43 63 44 64 57 66
REMARK SMILES IDX 77 67 46 68 31 69 32 70 40 71 33 72 39 73 34 74 35 75 36 76
REMARK SMILES IDX 37 77 38 78 61 79 62 80 70 81 63 82 69 83 64 84 65 85 66 86
REMARK SMILES IDX 67 87 68 88 47 89 48 90 56 91 49 92 55 93 50 94 51 95 52 96
REMARK SMILES IDX 53 97 54 98
REMARK H PARENT 3 16 3 17 75 54 45 65
REMARK Flexibility Score: inf
ROOT
ATOM      1  O   UNL A   1      34.169  33.489  28.707  1.00  0.00    -0.377 OA
ENDROOT
BRANCH   1   2
ATOM      2  C   UNL A   1      33.780  32.514  27.751  1.00  0.00     0.188 C 
BRANCH   2   3
ATOM      3  C   UNL A   1      34.328  31.084  27.811  1.00  0.00     0.188 C 
BRANCH   3   4
ATOM      4  O   UNL A   1      33.495  30.129  27.206  1.00  0.00    -0.376 OA
BRANCH   4   5
ATOM      5  C   UNL A   1      32.390  30.549  26.426  1.00  0.00     0.202 C 
BRANCH   5   6
ATOM      6  C   UNL A   1      31.754  29.721  25.287  1.00  0.00     0.261 C 
BRANCH   6   7
ATOM      7  O   UNL A   1      32.615  28.917  24.465  1.00  0.00    -0.459 OA
BRANCH   7   8
ATOM      8  C   UNL A   1      31.995  27.958  23.731  1.00  0.00     0.368 C 
ATOM      9  O   UNL A   1      31.196  28.215  22.829  1.00  0.00    -0.245 OA
BRANCH   8  10
ATOM     10  C   UNL A   1      32.426  26.478  24.081  1.00  0.00     0.197 C 
ATOM     11  C   UNL A   1      31.084  25.747  24.301  1.00  0.00     0.081 C 
ATOM     12  C   UNL A   1      33.144  26.230  25.454  1.00  0.00     0.064 C 
ATOM     13  C   UNL A   1      30.678  26.177  25.705  1.00  0.00     0.008 C 
ATOM     14  C   UNL A   1      31.982  26.236  26.490  1.00  0.00     0.011 C 
BRANCH  10  15
ATOM     15  N   UNL A   1      33.232  26.075  22.924  1.00  0.00    -0.332 N 
ATOM     16  H   UNL A   1      33.432  26.924  22.394  1.00  0.00     0.347 HD
ATOM     17  H   UNL A   1      34.025  25.591  23.343  1.00  0.00     0.347 HD
BRANCH  15  18
ATOM     18  C   UNL A   1      32.706  25.112  21.987  1.00  0.00     0.257 C 
ATOM     19  C   UNL A   1      33.283  23.736  22.290  1.00  0.00     0.071 C 
ENDBRANCH  15  18
ENDBRANCH  10  15
BRANCH  12  20
ATOM     20  C   UNL A   1      33.914  24.884  25.634  1.00  0.00     0.033 C 
BRANCH  20  21
ATOM     21  C   UNL A   1      33.379  23.791  26.575  1.00  0.00     0.129 C 
BRANCH  21  22
ATOM     22  N   UNL A   1      33.169  22.445  26.063  1.00  0.00    -0.283 N 
ATOM     23  C   UNL A   1      31.991  21.992  25.542  1.00  0.00     0.229 C 
ATOM     24  C   UNL A   1      34.220  21.636  25.724  1.00  0.00     0.229 C 
ATOM     25  O   UNL A   1      30.903  22.546  25.585  1.00  0.00    -0.274 OA
ATOM     26  C   UNL A   1      32.241  20.725  24.775  1.00  0.00     0.110 C 
ATOM     27  C   UNL A   1      33.715  20.443  24.970  1.00  0.00     0.110 C 
ATOM     28  O   UNL A   1      35.403  21.834  25.963  1.00  0.00    -0.274 OA
ENDBRANCH  21  22
ENDBRANCH  20  21
ENDBRANCH  12  20
ENDBRANCH   8  10
ENDBRANCH   7   8
ENDBRANCH   6   7
ENDBRANCH   5   6
ENDBRANCH   4   5
ENDBRANCH   3   4
ENDBRANCH   2   3
ENDBRANCH   1   2
BRANCH   1  29
ATOM     29  C   UNL A   1      34.647  33.118  29.996  1.00  0.00     0.188 C 
BRANCH  29  30
ATOM     30  C   UNL A   1      34.667  34.133  31.156  1.00  0.00     0.188 C 
BRANCH  30  31
ATOM     31  O   UNL A   1      35.679  33.924  32.123  1.00  0.00    -0.376 OA
BRANCH  31  32
ATOM     32  C   UNL A   1      36.597  32.864  31.897  1.00  0.00     0.202 C 
BRANCH  32  33
ATOM     33  C   UNL A   1      36.324  31.536  32.614  1.00  0.00     0.261 C 
BRANCH  33  34
ATOM     34  O   UNL A   1      37.464  30.823  33.100  1.00  0.00    -0.460 OA
BRANCH  34  35
ATOM     35  C   UNL A   1      38.272  31.471  33.962  1.00  0.00     0.338 C 
ATOM     36  O   UNL A   1      37.984  31.945  35.039  1.00  0.00    -0.246 OA
BRANCH  35  37
ATOM     37  C   UNL A   1      39.638  31.304  33.441  1.00  0.00     0.060 A 
ATOM     38  C   UNL A   1      40.686  31.937  34.116  1.00  0.00     0.016 A 
ATOM     39  C   UNL A   1      39.872  30.525  32.305  1.00  0.00     0.016 A 
ATOM     40  C   UNL A   1      41.974  31.853  33.608  1.00  0.00     0.010 A 
ATOM     41  C   UNL A   1      41.163  30.453  31.787  1.00  0.00     0.010 A 
ATOM     42  C   UNL A   1      42.202  31.168  32.407  1.00  0.00    -0.014 A 
BRANCH  42  43
ATOM     43  C   UNL A   1      43.455  31.451  31.676  1.00  0.00     0.031 A 
ATOM     44  C   UNL A   1      43.518  32.721  30.871  1.00  0.00     0.074 A 
ATOM     45  C   UNL A   1      44.531  30.658  31.809  1.00  0.00     0.049 A 
ATOM     46  N   UNL A   1      44.520  33.232  30.205  1.00  0.00    -0.248 NA
ATOM     47  C   UNL A   1      42.286  33.530  30.815  1.00  0.00     0.031 C 
ATOM     48  C   UNL A   1      44.588  29.435  32.609  1.00  0.00     0.029 A 
ATOM     49  N   UNL A   1      45.790  30.779  31.284  1.00  0.00    -0.354 N 
ATOM     50  C   UNL A   1      44.038  34.413  29.651  1.00  0.00     0.074 A 
ATOM     51  C   UNL A   1      42.647  34.525  30.021  1.00  0.00     0.031 C 
ATOM     52  C   UNL A   1      45.829  28.923  32.530  1.00  0.00     0.029 A 
ATOM     53  C   UNL A   1      46.639  29.764  31.652  1.00  0.00     0.049 A 
ATOM     54  H   UNL A   1      46.060  31.523  30.699  1.00  0.00     0.167 HD
ATOM     55  C   UNL A   1      44.701  35.330  28.911  1.00  0.00     0.031 A 
ATOM     56  C   UNL A   1      47.923  29.543  31.308  1.00  0.00     0.031 A 
ATOM     57  C   UNL A   1      46.083  35.200  28.535  1.00  0.00     0.049 A 
ATOM     58  C   UNL A   1      48.620  30.543  30.422  1.00  0.00     0.074 A 
ATOM     59  C   UNL A   1      46.857  36.065  27.785  1.00  0.00     0.029 A 
ATOM     60  N   UNL A   1      46.894  34.128  28.880  1.00  0.00    -0.354 N 
ATOM     61  N   UNL A   1      48.157  31.663  29.915  1.00  0.00    -0.248 NA
ATOM     62  C   UNL A   1      50.018  30.258  30.077  1.00  0.00     0.031 C 
ATOM     63  C   UNL A   1      48.118  35.484  27.620  1.00  0.00     0.029 A 
ATOM     64  C   UNL A   1      48.154  34.297  28.335  1.00  0.00     0.049 A 
ATOM     65  H   UNL A   1      46.615  33.361  29.429  1.00  0.00     0.167 HD
ATOM     66  C   UNL A   1      49.220  32.234  29.221  1.00  0.00     0.074 A 
ATOM     67  C   UNL A   1      50.350  31.343  29.391  1.00  0.00     0.031 C 
ATOM     68  C   UNL A   1      49.263  33.391  28.512  1.00  0.00     0.031 A 
BRANCH  55  69
ATOM     69  C   UNL A   1      43.922  36.526  28.425  1.00  0.00    -0.014 A 
ATOM     70  C   UNL A   1      43.167  36.480  27.238  1.00  0.00     0.010 A 
ATOM     71  C   UNL A   1      43.934  37.712  29.180  1.00  0.00     0.010 A 
ATOM     72  C   UNL A   1      42.472  37.610  26.797  1.00  0.00     0.020 A 
ATOM     73  C   UNL A   1      43.215  38.834  28.760  1.00  0.00     0.020 A 
ATOM     74  C   UNL A   1      42.501  38.780  27.562  1.00  0.00     0.054 A 
BRANCH  74  75
ATOM     75  S   UNL A   1      41.568  40.222  26.979  1.00  0.00     0.124 S 
ATOM     76  O   UNL A   1      42.637  41.123  26.556  1.00  0.00    -0.237 OA
ATOM     77  O   UNL A   1      40.755  39.663  25.902  1.00  0.00    -0.237 OA
ATOM     78  O   UNL A   1      40.822  40.654  28.159  1.00  0.00    -0.744 OA
ENDBRANCH  74  75
ENDBRANCH  55  69
BRANCH  56  79
ATOM     79  C   UNL A   1      48.627  28.324  31.796  1.00  0.00    -0.014 A 
ATOM     80  C   UNL A   1      48.652  27.144  31.031  1.00  0.00     0.010 A 
ATOM     81  C   UNL A   1      49.278  28.340  33.043  1.00  0.00     0.010 A 
ATOM     82  C   UNL A   1      49.296  26.000  31.513  1.00  0.00     0.020 A 
ATOM     83  C   UNL A   1      49.952  27.210  33.513  1.00  0.00     0.020 A 
ATOM     84  C   UNL A   1      49.946  26.042  32.750  1.00  0.00     0.054 A 
BRANCH  84  85
ATOM     85  S   UNL A   1      50.817  24.560  33.331  1.00  0.00     0.124 S 
ATOM     86  O   UNL A   1      50.340  23.542  32.402  1.00  0.00    -0.237 OA
ATOM     87  O   UNL A   1      52.218  24.945  33.187  1.00  0.00    -0.237 OA
ATOM     88  O   UNL A   1      50.357  24.413  34.711  1.00  0.00    -0.744 OA
ENDBRANCH  84  85
ENDBRANCH  56  79
BRANCH  68  89
ATOM     89  C   UNL A   1      50.588  33.783  27.912  1.00  0.00    -0.014 A 
ATOM     90  C   UNL A   1      51.527  34.546  28.628  1.00  0.00     0.010 A 
ATOM     91  C   UNL A   1      50.907  33.354  26.609  1.00  0.00     0.010 A 
ATOM     92  C   UNL A   1      52.733  34.924  28.031  1.00  0.00     0.020 A 
ATOM     93  C   UNL A   1      52.127  33.696  26.023  1.00  0.00     0.020 A 
ATOM     94  C   UNL A   1      53.022  34.501  26.729  1.00  0.00     0.054 A 
BRANCH  94  95
ATOM     95  S   UNL A   1      54.593  35.002  25.977  1.00  0.00     0.124 S 
ATOM     96  O   UNL A   1      55.424  33.823  26.197  1.00  0.00    -0.237 OA
ATOM     97  O   UNL A   1      54.216  35.255  24.588  1.00  0.00    -0.237 OA
ATOM     98  O   UNL A   1      54.980  36.187  26.737  1.00  0.00    -0.744 OA
ENDBRANCH  94  95
ENDBRANCH  68  89
ENDBRANCH  42  43
ENDBRANCH  35  37
ENDBRANCH  34  35
ENDBRANCH  33  34
ENDBRANCH  32  33
ENDBRANCH  31  32
ENDBRANCH  30  31
ENDBRANCH  29  30
ENDBRANCH   1  29
TORSDOF 28
ENDMDL
MODEL 3
REMARK VINA RESULT:      -7.4      8.685     15.665
REMARK SMILES CC[NH2+][C@@]1(C(=O)OCCOCCOCCOCCOC(=O)c2ccc(-c3c4nc(c(-c5ccc(S(=O)(=O)[O-])cc5)c5ccc([nH]5)c(-c5ccc(S(=O)(=O)[O-])cc5)c5nc(c(-c6ccc(S(=O)(=O)[O-])cc6)c6ccc3[nH]6)C=C5)C=C4)cc2)CCC[C@H]1CCN1C(=O)CCC1=O
REMARK SMILES IDX 13 1 12 2 11 3 10 4 9 5 8 6 7 7 5 8 6 9 4 10 82 11 85 12
REMARK SMILES IDX 83 13 84 14 3 15 2 18 1 19 86 20 87 21 88 22 89 23 93 24
REMARK SMILES IDX 90 25 91 26 92 27 94 28 14 29 15 30 16 31 17 32 18 33 19 34
REMARK SMILES IDX 20 35 21 36 22 37 23 38 81 39 24 40 80 41 25 42 26 43 27 44
REMARK SMILES IDX 74 45 28 46 79 47 73 48 75 49 29 50 78 51 72 52 71 53 30 55
REMARK SMILES IDX 60 56 41 57 59 58 42 59 45 60 58 61 76 62 43 63 44 64 57 66
REMARK SMILES IDX 77 67 46 68 31 69 32 70 40 71 33 72 39 73 34 74 35 75 36 76
REMARK SMILES IDX 37 77 38 78 61 79 62 80 70 81 63 82 69 83 64 84 65 85 66 86
REMARK SMILES IDX 67 87 68 88 47 89 48 90 56 91 49 92 55 93 50 94 51 95 52 96
REMARK SMILES IDX 53 97 54 98
REMARK H PARENT 3 16 3 17 75 54 45 65
REMARK Flexibility Score: inf
ROOT
ATOM      1  O   UNL A   1      43.982  42.639  24.477  1.00  0.00    -0.377 OA
ENDROOT
BRANCH   1   2
ATOM      2  C   UNL A   1      42.817  42.297  23.741  1.00  0.00     0.188 C 
BRANCH   2   3
ATOM      3  C   UNL A   1      42.029  43.361  22.969  1.00  0.00     0.188 C 
BRANCH   3   4
ATOM      4  O   UNL A   1      41.238  42.841  21.931  1.00  0.00    -0.376 OA
BRANCH   4   5
ATOM      5  C   UNL A   1      41.573  43.117  20.582  1.00  0.00     0.202 C 
BRANCH   5   6
ATOM      6  C   UNL A   1      42.786  43.962  20.134  1.00  0.00     0.261 C 
BRANCH   6   7
ATOM      7  O   UNL A   1      42.613  44.876  19.040  1.00  0.00    -0.459 OA
BRANCH   7   8
ATOM      8  C   UNL A   1      43.530  44.777  18.043  1.00  0.00     0.368 C 
ATOM      9  O   UNL A   1      43.628  43.786  17.318  1.00  0.00    -0.245 OA
BRANCH   8  10
ATOM     10  C   UNL A   1      44.427  46.063  17.843  1.00  0.00     0.197 C 
ATOM     11  C   UNL A   1      45.837  45.490  17.585  1.00  0.00     0.081 C 
ATOM     12  C   UNL A   1      44.686  46.977  19.092  1.00  0.00     0.064 C 
ATOM     13  C   UNL A   1      46.324  45.119  18.980  1.00  0.00     0.008 C 
ATOM     14  C   UNL A   1      45.788  46.218  19.888  1.00  0.00     0.011 C 
BRANCH  10  15
ATOM     15  N   UNL A   1      43.771  46.765  16.735  1.00  0.00    -0.332 N 
ATOM     16  H   UNL A   1      44.164  47.707  16.708  1.00  0.00     0.347 HD
ATOM     17  H   UNL A   1      43.951  46.163  15.933  1.00  0.00     0.347 HD
BRANCH  15  18
ATOM     18  C   UNL A   1      42.336  46.912  16.731  1.00  0.00     0.257 C 
ATOM     19  C   UNL A   1      41.971  48.385  16.861  1.00  0.00     0.071 C 
ENDBRANCH  15  18
ENDBRANCH  10  15
BRANCH  12  20
ATOM     20  C   UNL A   1      45.218  48.421  18.832  1.00  0.00     0.033 C 
BRANCH  20  21
ATOM     21  C   UNL A   1      46.721  48.682  18.633  1.00  0.00     0.129 C 
BRANCH  21  22
ATOM     22  N   UNL A   1      47.254  50.015  18.872  1.00  0.00    -0.283 N 
ATOM     23  C   UNL A   1      48.252  50.300  19.759  1.00  0.00     0.229 C 
ATOM     24  C   UNL A   1      47.062  51.034  17.978  1.00  0.00     0.229 C 
ATOM     25  O   UNL A   1      48.722  49.557  20.607  1.00  0.00    -0.274 OA
ATOM     26  C   UNL A   1      48.801  51.668  19.466  1.00  0.00     0.110 C 
ATOM     27  C   UNL A   1      47.947  52.190  18.332  1.00  0.00     0.110 C 
ATOM     28  O   UNL A   1      46.307  51.030  17.014  1.00  0.00    -0.274 OA
ENDBRANCH  21  22
ENDBRANCH  20  21
ENDBRANCH  12  20
ENDBRANCH   8  10
ENDBRANCH   7   8
ENDBRANCH   6   7
ENDBRANCH   5   6
ENDBRANCH   4   5
ENDBRANCH   3   4
ENDBRANCH   2   3
ENDBRANCH   1   2
BRANCH   1  29
ATOM     29  C   UNL A   1      44.146  42.247  25.836  1.00  0.00     0.188 C 
BRANCH  29  30
ATOM     30  C   UNL A   1      43.645  40.876  26.331  1.00  0.00     0.188 C 
BRANCH  30  31
ATOM     31  O   UNL A   1      44.412  40.292  27.369  1.00  0.00    -0.376 OA
BRANCH  31  32
ATOM     32  C   UNL A   1      43.711  39.734  28.470  1.00  0.00     0.202 C 
BRANCH  32  33
ATOM     33  C   UNL A   1      43.792  38.213  28.654  1.00  0.00     0.261 C 
BRANCH  33  34
ATOM     34  O   UNL A   1      44.929  37.712  29.360  1.00  0.00    -0.460 OA
BRANCH  34  35
ATOM     35  C   UNL A   1      46.058  37.517  28.648  1.00  0.00     0.338 C 
ATOM     36  O   UNL A   1      46.888  38.339  28.332  1.00  0.00    -0.246 OA
BRANCH  35  37
ATOM     37  C   UNL A   1      46.202  36.059  28.510  1.00  0.00     0.060 A 
ATOM     38  C   UNL A   1      45.911  35.480  27.271  1.00  0.00     0.016 A 
ATOM     39  C   UNL A   1      46.627  35.283  29.592  1.00  0.00     0.016 A 
ATOM     40  C   UNL A   1      45.974  34.101  27.131  1.00  0.00     0.010 A 
ATOM     41  C   UNL A   1      46.675  33.898  29.455  1.00  0.00     0.010 A 
ATOM     42  C   UNL A   1      46.289  33.305  28.240  1.00  0.00    -0.014 A 
BRANCH  42  43
ATOM     43  C   UNL A   1      45.933  31.872  28.188  1.00  0.00     0.031 A 
ATOM     44  C   UNL A   1      44.527  31.491  28.568  1.00  0.00     0.074 A 
ATOM     45  C   UNL A   1      46.798  30.958  27.719  1.00  0.00     0.049 A 
ATOM     46  N   UNL A   1      43.947  30.320  28.534  1.00  0.00    -0.248 NA
ATOM     47  C   UNL A   1      43.654  32.580  29.044  1.00  0.00     0.031 C 
ATOM     48  C   UNL A   1      48.164  31.234  27.274  1.00  0.00     0.029 A 
ATOM     49  N   UNL A   1      46.644  29.611  27.524  1.00  0.00    -0.354 N 
ATOM     50  C   UNL A   1      42.649  30.532  28.986  1.00  0.00     0.074 A 
ATOM     51  C   UNL A   1      42.536  31.931  29.328  1.00  0.00     0.031 C 
ATOM     52  C   UNL A   1      48.720  30.088  26.846  1.00  0.00     0.029 A 
ATOM     53  C   UNL A   1      47.762  28.998  27.014  1.00  0.00     0.049 A 
ATOM     54  H   UNL A   1      45.810  29.129  27.729  1.00  0.00     0.167 HD
ATOM     55  C   UNL A   1      41.637  29.642  29.094  1.00  0.00     0.031 A 
ATOM     56  C   UNL A   1      47.981  27.700  26.726  1.00  0.00     0.031 A 
ATOM     57  C   UNL A   1      41.767  28.248  28.765  1.00  0.00     0.049 A 
ATOM     58  C   UNL A   1      46.859  26.713  26.923  1.00  0.00     0.074 A 
ATOM     59  C   UNL A   1      40.810  27.253  28.839  1.00  0.00     0.029 A 
ATOM     60  N   UNL A   1      42.933  27.653  28.307  1.00  0.00    -0.354 N 
ATOM     61  N   UNL A   1      45.632  26.928  27.340  1.00  0.00    -0.248 NA
ATOM     62  C   UNL A   1      47.147  25.311  26.594  1.00  0.00     0.031 C 
ATOM     63  C   UNL A   1      41.417  26.043  28.487  1.00  0.00     0.029 A 
ATOM     64  C   UNL A   1      42.728  26.298  28.117  1.00  0.00     0.049 A 
ATOM     65  H   UNL A   1      43.781  28.124  28.141  1.00  0.00     0.167 HD
ATOM     66  C   UNL A   1      44.991  25.694  27.287  1.00  0.00     0.074 A 
ATOM     67  C   UNL A   1      45.963  24.745  26.782  1.00  0.00     0.031 C 
ATOM     68  C   UNL A   1      43.715  25.371  27.619  1.00  0.00     0.031 A 
BRANCH  55  69
ATOM     69  C   UNL A   1      40.322  30.146  29.630  1.00  0.00    -0.014 A 
ATOM     70  C   UNL A   1      40.122  30.359  31.007  1.00  0.00     0.010 A 
ATOM     71  C   UNL A   1      39.273  30.427  28.736  1.00  0.00     0.010 A 
ATOM     72  C   UNL A   1      38.884  30.805  31.481  1.00  0.00     0.020 A 
ATOM     73  C   UNL A   1      38.046  30.904  29.203  1.00  0.00     0.020 A 
ATOM     74  C   UNL A   1      37.854  31.075  30.575  1.00  0.00     0.054 A 
BRANCH  74  75
ATOM     75  S   UNL A   1      36.269  31.679  31.216  1.00  0.00     0.124 S 
ATOM     76  O   UNL A   1      35.367  31.403  30.101  1.00  0.00    -0.237 OA
ATOM     77  O   UNL A   1      36.069  30.853  32.405  1.00  0.00    -0.237 OA
ATOM     78  O   UNL A   1      36.516  33.094  31.479  1.00  0.00    -0.744 OA
ENDBRANCH  74  75
ENDBRANCH  55  69
BRANCH  56  79
ATOM     79  C   UNL A   1      49.316  27.260  26.230  1.00  0.00    -0.014 A 
ATOM     80  C   UNL A   1      49.543  27.033  24.861  1.00  0.00     0.010 A 
ATOM     81  C   UNL A   1      50.372  27.063  27.138  1.00  0.00     0.010 A 
ATOM     82  C   UNL A   1      50.794  26.597  24.413  1.00  0.00     0.020 A 
ATOM     83  C   UNL A   1      51.634  26.659  26.691  1.00  0.00     0.020 A 
ATOM     84  C   UNL A   1      51.833  26.417  25.331  1.00  0.00     0.054 A 
BRANCH  84  85
ATOM     85  S   UNL A   1      53.461  25.898  24.720  1.00  0.00     0.124 S 
ATOM     86  O   UNL A   1      53.305  24.450  24.631  1.00  0.00    -0.237 OA
ATOM     87  O   UNL A   1      53.557  26.606  23.447  1.00  0.00    -0.237 OA
ATOM     88  O   UNL A   1      54.380  26.367  25.756  1.00  0.00    -0.744 OA
ENDBRANCH  84  85
ENDBRANCH  56  79
BRANCH  68  89
ATOM     89  C   UNL A   1      43.284  23.944  27.398  1.00  0.00    -0.014 A 
ATOM     90  C   UNL A   1      43.539  23.275  26.188  1.00  0.00     0.010 A 
ATOM     91  C   UNL A   1      42.632  23.254  28.437  1.00  0.00     0.010 A 
ATOM     92  C   UNL A   1      43.095  21.963  25.999  1.00  0.00     0.020 A 
ATOM     93  C   UNL A   1      42.222  21.930  28.267  1.00  0.00     0.020 A 
ATOM     94  C   UNL A   1      42.434  21.302  27.039  1.00  0.00     0.054 A 
BRANCH  94  95
ATOM     95  S   UNL A   1      41.869  19.600  26.772  1.00  0.00     0.124 S 
ATOM     96  O   UNL A   1      40.480  19.668  27.214  1.00  0.00    -0.237 OA
ATOM     97  O   UNL A   1      42.064  19.420  25.335  1.00  0.00    -0.237 OA
ATOM     98  O   UNL A   1      42.753  18.804  27.620  1.00  0.00    -0.744 OA
ENDBRANCH  94  95
ENDBRANCH  68  89
ENDBRANCH  42  43
ENDBRANCH  35  37
ENDBRANCH  34  35
ENDBRANCH  33  34
ENDBRANCH  32  33
ENDBRANCH  31  32
ENDBRANCH  30  31
ENDBRANCH  29  30
ENDBRANCH   1  29
TORSDOF 28
ENDMDL
