MODEL 1
REMARK VINA RESULT:      -7.8      0.000      0.000
REMARK SMILES COc1ccc2c(c1)c(CC(=O)OCCOCCOCCOCCOC(=O)c1ccc(-c3c4nc(c(-c5ccc(S(=O)(=O)[O-])cc5)c5ccc([nH]5)c(-c5ccc(S(=O)(=O)[O-])cc5)c5nc(c(-c6ccc(S(=O)(=O)[O-])cc6)c6ccc3[nH]6)C=C5)C=C4)cc1)c(C)n2Cc1ccn(C(F)F)c(=O)c1
REMARK SMILES IDX 18 1 17 2 16 3 15 4 14 5 13 6 11 7 12 8 10 9 9 10 3 11 4 12
REMARK SMILES IDX 8 13 5 14 7 15 6 16 90 17 88 18 89 19 2 20 1 21 91 22 92 23
REMARK SMILES IDX 93 24 101 25 94 26 99 27 95 28 100 29 96 30 97 31 98 32
REMARK SMILES IDX 19 33 20 34 21 35 22 36 23 37 24 38 25 39 26 40 27 41 28 42
REMARK SMILES IDX 29 43 87 44 30 45 86 46 31 47 32 48 33 49 80 50 34 51 85 52
REMARK SMILES IDX 79 53 81 54 35 55 84 56 78 57 77 58 36 60 66 61 47 62 65 63
REMARK SMILES IDX 48 64 51 65 64 66 82 67 49 68 50 69 63 71 83 72 52 73 37 74
REMARK SMILES IDX 38 75 46 76 39 77 45 78 40 79 41 80 42 81 43 82 44 83 67 84
REMARK SMILES IDX 68 85 76 86 69 87 75 88 70 89 71 90 72 91 73 92 74 93 53 94
REMARK SMILES IDX 54 95 62 96 55 97 61 98 56 99 57 100 58 101 59 102 60 103
REMARK H PARENT 81 59 51 70
REMARK Flexibility Score: inf
ROOT
ATOM      1  C   UNL A   1      43.405  38.817  33.952  1.00  0.00     0.188 C 
ENDROOT
BRANCH   1   2
ATOM      2  C   UNL A   1      42.922  37.402  34.234  1.00  0.00     0.188 C 
BRANCH   2   3
ATOM      3  O   UNL A   1      43.522  36.463  33.366  1.00  0.00    -0.376 OA
BRANCH   3   4
ATOM      4  C   UNL A   1      43.080  35.114  33.395  1.00  0.00     0.202 C 
BRANCH   4   5
ATOM      5  C   UNL A   1      41.758  34.637  32.744  1.00  0.00     0.261 C 
BRANCH   5   6
ATOM      6  O   UNL A   1      41.604  34.670  31.308  1.00  0.00    -0.463 OA
BRANCH   6   7
ATOM      7  C   UNL A   1      41.644  33.519  30.605  1.00  0.00     0.310 C 
ATOM      8  O   UNL A   1      42.398  33.340  29.652  1.00  0.00    -0.252 OA
BRANCH   7   9
ATOM      9  C   UNL A   1      40.729  32.403  31.120  1.00  0.00     0.160 C 
BRANCH   9  10
ATOM     10  C   UNL A   1      39.483  32.009  30.341  1.00  0.00    -0.008 A 
ATOM     11  C   UNL A   1      39.482  28.473  28.831  1.00  0.00     0.119 A 
ATOM     12  C   UNL A   1      38.150  28.478  28.440  1.00  0.00     0.048 A 
ATOM     13  C   UNL A   1      40.051  29.638  29.361  1.00  0.00     0.057 A 
ATOM     14  C   UNL A   1      37.361  29.629  28.593  1.00  0.00     0.031 A 
ATOM     15  C   UNL A   1      39.256  30.780  29.627  1.00  0.00     0.007 A 
ATOM     16  C   UNL A   1      37.930  30.777  29.182  1.00  0.00     0.049 A 
ATOM     17  N   UNL A   1      37.425  32.056  29.406  1.00  0.00    -0.340 N 
ATOM     18  C   UNL A   1      38.414  32.832  30.000  1.00  0.00     0.020 A 
ATOM     19  C   UNL A   1      38.333  34.305  30.187  1.00  0.00     0.065 C 
BRANCH  11  20
ATOM     20  O   UNL A   1      40.330  27.402  28.762  1.00  0.00    -0.497 OA
ATOM     21  C   UNL A   1      39.749  26.108  28.639  1.00  0.00     0.278 C 
ENDBRANCH  11  20
BRANCH  17  22
ATOM     22  C   UNL A   1      36.159  32.540  28.821  1.00  0.00     0.158 C 
BRANCH  22  23
ATOM     23  C   UNL A   1      35.251  33.351  29.722  1.00  0.00    -0.021 A 
ATOM     24  C   UNL A   1      34.522  34.468  29.155  1.00  0.00     0.024 A 
ATOM     25  C   UNL A   1      34.981  33.010  30.996  1.00  0.00     0.077 A 
ATOM     26  C   UNL A   1      33.749  35.249  29.915  1.00  0.00     0.095 A 
ATOM     27  C   UNL A   1      34.026  33.807  31.831  1.00  0.00     0.255 A 
ATOM     28  N   UNL A   1      33.535  34.961  31.245  1.00  0.00    -0.258 N 
ATOM     29  O   UNL A   1      33.742  33.387  32.949  1.00  0.00    -0.269 OA
BRANCH  28  30
ATOM     30  C   UNL A   1      32.662  35.806  32.024  1.00  0.00     0.451 C 
ATOM     31  F   UNL A   1      31.956  36.630  31.208  1.00  0.00    -0.185 F 
ATOM     32  F   UNL A   1      31.778  35.083  32.750  1.00  0.00    -0.185 F 
ENDBRANCH  28  30
ENDBRANCH  22  23
ENDBRANCH  17  22
ENDBRANCH   9  10
ENDBRANCH   7   9
ENDBRANCH   6   7
ENDBRANCH   5   6
ENDBRANCH   4   5
ENDBRANCH   3   4
ENDBRANCH   2   3
ENDBRANCH   1   2
BRANCH   1  33
ATOM     33  O   UNL A   1      43.016  39.453  32.765  1.00  0.00    -0.377 OA
BRANCH  33  34
ATOM     34  C   UNL A   1      44.008  39.632  31.789  1.00  0.00     0.188 C 
BRANCH  34  35
ATOM     35  C   UNL A   1      43.421  40.203  30.496  1.00  0.00     0.188 C 
BRANCH  35  36
ATOM     36  O   UNL A   1      43.072  39.358  29.389  1.00  0.00    -0.376 OA
BRANCH  36  37
ATOM     37  C   UNL A   1      43.826  38.187  29.106  1.00  0.00     0.202 C 
BRANCH  37  38
ATOM     38  C   UNL A   1      43.335  37.376  27.893  1.00  0.00     0.261 C 
BRANCH  38  39
ATOM     39  O   UNL A   1      43.955  36.089  27.780  1.00  0.00    -0.460 OA
BRANCH  39  40
ATOM     40  C   UNL A   1      43.721  35.372  26.654  1.00  0.00     0.338 C 
ATOM     41  O   UNL A   1      43.277  35.777  25.591  1.00  0.00    -0.246 OA
BRANCH  40  42
ATOM     42  C   UNL A   1      44.412  34.079  26.849  1.00  0.00     0.060 A 
ATOM     43  C   UNL A   1      43.977  32.925  26.189  1.00  0.00     0.016 A 
ATOM     44  C   UNL A   1      45.270  33.996  27.953  1.00  0.00     0.016 A 
ATOM     45  C   UNL A   1      44.289  31.683  26.741  1.00  0.00     0.010 A 
ATOM     46  C   UNL A   1      45.571  32.751  28.506  1.00  0.00     0.010 A 
ATOM     47  C   UNL A   1      45.037  31.595  27.933  1.00  0.00    -0.014 A 
BRANCH  47  48
ATOM     48  C   UNL A   1      45.457  30.255  28.366  1.00  0.00     0.031 A 
ATOM     49  C   UNL A   1      45.069  29.985  29.777  1.00  0.00     0.074 A 
ATOM     50  C   UNL A   1      45.950  29.238  27.630  1.00  0.00     0.049 A 
ATOM     51  N   UNL A   1      45.820  29.672  30.781  1.00  0.00    -0.248 NA
ATOM     52  C   UNL A   1      43.656  30.229  30.114  1.00  0.00     0.031 C 
ATOM     53  C   UNL A   1      46.054  29.139  26.173  1.00  0.00     0.029 A 
ATOM     54  N   UNL A   1      46.355  27.999  28.056  1.00  0.00    -0.354 N 
ATOM     55  C   UNL A   1      44.949  29.544  31.859  1.00  0.00     0.074 A 
ATOM     56  C   UNL A   1      43.672  30.051  31.429  1.00  0.00     0.031 C 
ATOM     57  C   UNL A   1      46.271  27.846  25.836  1.00  0.00     0.029 A 
ATOM     58  C   UNL A   1      46.425  27.048  27.045  1.00  0.00     0.049 A 
ATOM     59  H   UNL A   1      46.575  27.800  28.995  1.00  0.00     0.167 HD
ATOM     60  C   UNL A   1      45.257  28.864  32.994  1.00  0.00     0.031 A 
ATOM     61  C   UNL A   1      46.491  25.700  27.200  1.00  0.00     0.031 A 
ATOM     62  C   UNL A   1      46.665  28.658  33.156  1.00  0.00     0.049 A 
ATOM     63  C   UNL A   1      46.920  25.406  28.590  1.00  0.00     0.074 A 
ATOM     64  C   UNL A   1      47.755  29.500  33.255  1.00  0.00     0.029 A 
ATOM     65  N   UNL A   1      47.170  27.408  32.895  1.00  0.00    -0.354 N 
ATOM     66  N   UNL A   1      48.112  25.623  29.065  1.00  0.00    -0.248 NA
ATOM     67  C   UNL A   1      45.892  25.133  29.584  1.00  0.00     0.031 C 
ATOM     68  C   UNL A   1      48.822  28.811  32.614  1.00  0.00     0.029 A 
ATOM     69  C   UNL A   1      48.332  27.576  32.183  1.00  0.00     0.049 A 
ATOM     70  H   UNL A   1      46.773  26.549  33.168  1.00  0.00     0.167 HD
ATOM     71  C   UNL A   1      47.916  25.906  30.408  1.00  0.00     0.074 A 
ATOM     72  C   UNL A   1      46.552  25.476  30.691  1.00  0.00     0.031 C 
ATOM     73  C   UNL A   1      48.773  26.710  31.104  1.00  0.00     0.031 A 
BRANCH  60  74
ATOM     74  C   UNL A   1      44.208  28.155  33.806  1.00  0.00    -0.014 A 
ATOM     75  C   UNL A   1      43.968  26.769  33.675  1.00  0.00     0.010 A 
ATOM     76  C   UNL A   1      43.572  28.816  34.871  1.00  0.00     0.010 A 
ATOM     77  C   UNL A   1      43.087  26.084  34.506  1.00  0.00     0.020 A 
ATOM     78  C   UNL A   1      42.727  28.123  35.752  1.00  0.00     0.020 A 
ATOM     79  C   UNL A   1      42.478  26.764  35.551  1.00  0.00     0.054 A 
BRANCH  79  80
ATOM     80  S   UNL A   1      41.439  25.812  36.685  1.00  0.00     0.124 S 
ATOM     81  O   UNL A   1      40.769  26.870  37.437  1.00  0.00    -0.237 OA
ATOM     82  O   UNL A   1      40.591  25.053  35.771  1.00  0.00    -0.237 OA
ATOM     83  O   UNL A   1      42.404  25.018  37.442  1.00  0.00    -0.744 OA
ENDBRANCH  79  80
ENDBRANCH  60  74
BRANCH  61  84
ATOM     84  C   UNL A   1      45.850  24.648  26.360  1.00  0.00    -0.014 A 
ATOM     85  C   UNL A   1      44.716  23.958  26.830  1.00  0.00     0.010 A 
ATOM     86  C   UNL A   1      46.535  24.100  25.253  1.00  0.00     0.010 A 
ATOM     87  C   UNL A   1      44.337  22.725  26.291  1.00  0.00     0.020 A 
ATOM     88  C   UNL A   1      46.167  22.855  24.714  1.00  0.00     0.020 A 
ATOM     89  C   UNL A   1      45.095  22.157  25.269  1.00  0.00     0.054 A 
BRANCH  89  90
ATOM     90  S   UNL A   1      44.718  20.452  24.778  1.00  0.00     0.124 S 
ATOM     91  O   UNL A   1      44.689  20.558  23.321  1.00  0.00    -0.237 OA
ATOM     92  O   UNL A   1      45.849  19.708  25.328  1.00  0.00    -0.237 OA
ATOM     93  O   UNL A   1      43.431  20.182  25.412  1.00  0.00    -0.744 OA
ENDBRANCH  89  90
ENDBRANCH  61  84
BRANCH  73  94
ATOM     94  C   UNL A   1      50.158  26.980  30.555  1.00  0.00    -0.014 A 
ATOM     95  C   UNL A   1      50.244  27.651  29.319  1.00  0.00     0.010 A 
ATOM     96  C   UNL A   1      51.340  26.452  31.109  1.00  0.00     0.010 A 
ATOM     97  C   UNL A   1      51.457  27.754  28.635  1.00  0.00     0.020 A 
ATOM     98  C   UNL A   1      52.567  26.579  30.441  1.00  0.00     0.020 A 
ATOM     99  C   UNL A   1      52.610  27.201  29.192  1.00  0.00     0.054 A 
BRANCH  99 100
ATOM    100  S   UNL A   1      54.150  27.274  28.238  1.00  0.00     0.124 S 
ATOM    101  O   UNL A   1      55.036  26.415  29.020  1.00  0.00    -0.237 OA
ATOM    102  O   UNL A   1      53.753  26.742  26.937  1.00  0.00    -0.237 OA
ATOM    103  O   UNL A   1      54.500  28.693  28.246  1.00  0.00    -0.744 OA
ENDBRANCH  99 100
ENDBRANCH  73  94
ENDBRANCH  47  48
ENDBRANCH  40  42
ENDBRANCH  39  40
ENDBRANCH  38  39
ENDBRANCH  37  38
ENDBRANCH  36  37
ENDBRANCH  35  36
ENDBRANCH  34  35
ENDBRANCH  33  34
ENDBRANCH   1  33
TORSDOF 28
ENDMDL
MODEL 2
REMARK VINA RESULT:      -7.7      3.803      8.263
REMARK SMILES COc1ccc2c(c1)c(CC(=O)OCCOCCOCCOCCOC(=O)c1ccc(-c3c4nc(c(-c5ccc(S(=O)(=O)[O-])cc5)c5ccc([nH]5)c(-c5ccc(S(=O)(=O)[O-])cc5)c5nc(c(-c6ccc(S(=O)(=O)[O-])cc6)c6ccc3[nH]6)C=C5)C=C4)cc1)c(C)n2Cc1ccn(C(F)F)c(=O)c1
REMARK SMILES IDX 18 1 17 2 16 3 15 4 14 5 13 6 11 7 12 8 10 9 9 10 3 11 4 12
REMARK SMILES IDX 8 13 5 14 7 15 6 16 90 17 88 18 89 19 2 20 1 21 91 22 92 23
REMARK SMILES IDX 93 24 101 25 94 26 99 27 95 28 100 29 96 30 97 31 98 32
REMARK SMILES IDX 19 33 20 34 21 35 22 36 23 37 24 38 25 39 26 40 27 41 28 42
REMARK SMILES IDX 29 43 87 44 30 45 86 46 31 47 32 48 33 49 80 50 34 51 85 52
REMARK SMILES IDX 79 53 81 54 35 55 84 56 78 57 77 58 36 60 66 61 47 62 65 63
REMARK SMILES IDX 48 64 51 65 64 66 82 67 49 68 50 69 63 71 83 72 52 73 37 74
REMARK SMILES IDX 38 75 46 76 39 77 45 78 40 79 41 80 42 81 43 82 44 83 67 84
REMARK SMILES IDX 68 85 76 86 69 87 75 88 70 89 71 90 72 91 73 92 74 93 53 94
REMARK SMILES IDX 54 95 62 96 55 97 61 98 56 99 57 100 58 101 59 102 60 103
REMARK H PARENT 81 59 51 70
REMARK Flexibility Score: inf
ROOT
ATOM      1  C   UNL A   1      39.514  30.755  33.114  1.00  0.00     0.188 C 
ENDROOT
BRANCH   1   2
ATOM      2  C   UNL A   1      39.705  31.597  31.860  1.00  0.00     0.188 C 
BRANCH   2   3
ATOM      3  O   UNL A   1      40.955  31.346  31.251  1.00  0.00    -0.376 OA
BRANCH   3   4
ATOM      4  C   UNL A   1      41.098  30.209  30.411  1.00  0.00     0.202 C 
BRANCH   4   5
ATOM      5  C   UNL A   1      40.027  29.772  29.380  1.00  0.00     0.261 C 
BRANCH   5   6
ATOM      6  O   UNL A   1      39.072  28.742  29.719  1.00  0.00    -0.463 OA
BRANCH   6   7
ATOM      7  C   UNL A   1      37.751  28.995  29.612  1.00  0.00     0.310 C 
ATOM      8  O   UNL A   1      36.997  29.046  30.581  1.00  0.00    -0.252 OA
BRANCH   7   9
ATOM      9  C   UNL A   1      37.252  29.291  28.195  1.00  0.00     0.160 C 
BRANCH   9  10
ATOM     10  C   UNL A   1      36.042  30.188  27.976  1.00  0.00    -0.008 A 
ATOM     11  C   UNL A   1      32.887  28.470  26.607  1.00  0.00     0.119 A 
ATOM     12  C   UNL A   1      32.040  29.556  26.778  1.00  0.00     0.048 A 
ATOM     13  C   UNL A   1      34.257  28.615  26.862  1.00  0.00     0.057 A 
ATOM     14  C   UNL A   1      32.535  30.790  27.227  1.00  0.00     0.031 A 
ATOM     15  C   UNL A   1      34.771  29.813  27.417  1.00  0.00     0.007 A 
ATOM     16  C   UNL A   1      33.907  30.906  27.536  1.00  0.00     0.049 A 
ATOM     17  N   UNL A   1      34.682  31.992  27.937  1.00  0.00    -0.340 N 
ATOM     18  C   UNL A   1      35.999  31.574  28.085  1.00  0.00     0.020 A 
ATOM     19  C   UNL A   1      37.157  32.487  28.283  1.00  0.00     0.065 C 
BRANCH  11  20
ATOM     20  O   UNL A   1      32.509  27.216  26.211  1.00  0.00    -0.497 OA
ATOM     21  C   UNL A   1      33.041  26.725  24.985  1.00  0.00     0.278 C 
ENDBRANCH  11  20
BRANCH  17  22
ATOM     22  C   UNL A   1      34.199  33.388  27.901  1.00  0.00     0.158 C 
BRANCH  22  23
ATOM     23  C   UNL A   1      34.018  34.087  29.233  1.00  0.00    -0.021 A 
ATOM     24  C   UNL A   1      33.144  35.241  29.302  1.00  0.00     0.024 A 
ATOM     25  C   UNL A   1      34.521  33.614  30.388  1.00  0.00     0.077 A 
ATOM     26  C   UNL A   1      32.988  35.927  30.437  1.00  0.00     0.095 A 
ATOM     27  C   UNL A   1      34.263  34.304  31.692  1.00  0.00     0.255 A 
ATOM     28  N   UNL A   1      33.573  35.502  31.611  1.00  0.00    -0.258 N 
ATOM     29  O   UNL A   1      34.661  33.768  32.722  1.00  0.00    -0.269 OA
BRANCH  28  30
ATOM     30  C   UNL A   1      33.350  36.248  32.826  1.00  0.00     0.451 C 
ATOM     31  F   UNL A   1      34.533  36.518  33.434  1.00  0.00    -0.185 F 
ATOM     32  F   UNL A   1      32.728  37.425  32.587  1.00  0.00    -0.185 F 
ENDBRANCH  28  30
ENDBRANCH  22  23
ENDBRANCH  17  22
ENDBRANCH   9  10
ENDBRANCH   7   9
ENDBRANCH   6   7
ENDBRANCH   5   6
ENDBRANCH   4   5
ENDBRANCH   3   4
ENDBRANCH   2   3
ENDBRANCH   1   2
BRANCH   1  33
ATOM     33  O   UNL A   1      38.220  30.372  33.494  1.00  0.00    -0.377 OA
BRANCH  33  34
ATOM     34  C   UNL A   1      37.255  31.389  33.567  1.00  0.00     0.188 C 
BRANCH  34  35
ATOM     35  C   UNL A   1      37.626  32.434  34.621  1.00  0.00     0.188 C 
BRANCH  35  36
ATOM     36  O   UNL A   1      36.828  32.633  35.799  1.00  0.00    -0.376 OA
BRANCH  36  37
ATOM     37  C   UNL A   1      37.411  33.150  36.988  1.00  0.00     0.202 C 
BRANCH  37  38
ATOM     38  C   UNL A   1      38.690  33.980  36.777  1.00  0.00     0.261 C 
BRANCH  38  39
ATOM     39  O   UNL A   1      39.892  33.207  36.864  1.00  0.00    -0.460 OA
BRANCH  39  40
ATOM     40  C   UNL A   1      41.054  33.867  37.088  1.00  0.00     0.338 C 
ATOM     41  O   UNL A   1      41.267  34.744  37.911  1.00  0.00    -0.246 OA
BRANCH  40  42
ATOM     42  C   UNL A   1      42.098  33.098  36.377  1.00  0.00     0.060 A 
ATOM     43  C   UNL A   1      42.146  33.072  34.979  1.00  0.00     0.016 A 
ATOM     44  C   UNL A   1      42.795  32.150  37.138  1.00  0.00     0.016 A 
ATOM     45  C   UNL A   1      42.774  31.996  34.353  1.00  0.00     0.010 A 
ATOM     46  C   UNL A   1      43.414  31.072  36.506  1.00  0.00     0.010 A 
ATOM     47  C   UNL A   1      43.359  30.964  35.115  1.00  0.00    -0.014 A 
BRANCH  47  48
ATOM     48  C   UNL A   1      44.135  29.949  34.390  1.00  0.00     0.031 A 
ATOM     49  C   UNL A   1      45.297  30.548  33.678  1.00  0.00     0.074 A 
ATOM     50  C   UNL A   1      44.038  28.605  34.443  1.00  0.00     0.049 A 
ATOM     51  N   UNL A   1      45.584  30.515  32.418  1.00  0.00    -0.248 NA
ATOM     52  C   UNL A   1      46.178  31.404  34.491  1.00  0.00     0.031 C 
ATOM     53  C   UNL A   1      43.237  27.788  35.356  1.00  0.00     0.029 A 
ATOM     54  N   UNL A   1      44.760  27.672  33.743  1.00  0.00    -0.354 N 
ATOM     55  C   UNL A   1      46.766  31.238  32.297  1.00  0.00     0.074 A 
ATOM     56  C   UNL A   1      46.993  31.887  33.562  1.00  0.00     0.031 C 
ATOM     57  C   UNL A   1      43.686  26.511  35.309  1.00  0.00     0.029 A 
ATOM     58  C   UNL A   1      44.725  26.397  34.295  1.00  0.00     0.049 A 
ATOM     59  H   UNL A   1      45.260  27.887  32.921  1.00  0.00     0.167 HD
ATOM     60  C   UNL A   1      47.605  31.129  31.234  1.00  0.00     0.031 A 
ATOM     61  C   UNL A   1      45.565  25.366  34.016  1.00  0.00     0.031 A 
ATOM     62  C   UNL A   1      46.977  30.545  30.086  1.00  0.00     0.049 A 
ATOM     63  C   UNL A   1      46.243  25.648  32.727  1.00  0.00     0.074 A 
ATOM     64  C   UNL A   1      45.887  30.885  29.310  1.00  0.00     0.029 A 
ATOM     65  N   UNL A   1      47.271  29.238  29.784  1.00  0.00    -0.354 N 
ATOM     66  N   UNL A   1      45.666  25.631  31.560  1.00  0.00    -0.248 NA
ATOM     67  C   UNL A   1      47.559  26.270  32.763  1.00  0.00     0.031 C 
ATOM     68  C   UNL A   1      45.308  29.647  28.913  1.00  0.00     0.029 A 
ATOM     69  C   UNL A   1      46.091  28.621  29.447  1.00  0.00     0.049 A 
ATOM     70  H   UNL A   1      48.162  28.820  29.803  1.00  0.00     0.167 HD
ATOM     71  C   UNL A   1      46.351  26.573  30.808  1.00  0.00     0.074 A 
ATOM     72  C   UNL A   1      47.570  26.844  31.560  1.00  0.00     0.031 C 
ATOM     73  C   UNL A   1      45.748  27.252  29.788  1.00  0.00     0.031 A 
BRANCH  60  74
ATOM     74  C   UNL A   1      49.091  31.320  31.370  1.00  0.00    -0.014 A 
ATOM     75  C   UNL A   1      49.926  30.330  31.936  1.00  0.00     0.010 A 
ATOM     76  C   UNL A   1      49.723  32.410  30.746  1.00  0.00     0.010 A 
ATOM     77  C   UNL A   1      51.312  30.448  31.954  1.00  0.00     0.020 A 
ATOM     78  C   UNL A   1      51.123  32.509  30.707  1.00  0.00     0.020 A 
ATOM     79  C   UNL A   1      51.905  31.534  31.327  1.00  0.00     0.054 A 
BRANCH  79  80
ATOM     80  S   UNL A   1      53.713  31.585  31.261  1.00  0.00     0.124 S 
ATOM     81  O   UNL A   1      53.988  32.959  31.672  1.00  0.00    -0.237 OA
ATOM     82  O   UNL A   1      54.091  30.551  32.220  1.00  0.00    -0.237 OA
ATOM     83  O   UNL A   1      54.010  31.274  29.865  1.00  0.00    -0.744 OA
ENDBRANCH  79  80
ENDBRANCH  60  74
BRANCH  61  84
ATOM     84  C   UNL A   1      46.106  24.344  34.956  1.00  0.00    -0.014 A 
ATOM     85  C   UNL A   1      47.222  23.566  34.592  1.00  0.00     0.010 A 
ATOM     86  C   UNL A   1      45.340  23.910  36.060  1.00  0.00     0.010 A 
ATOM     87  C   UNL A   1      47.507  22.356  35.231  1.00  0.00     0.020 A 
ATOM     88  C   UNL A   1      45.612  22.688  36.699  1.00  0.00     0.020 A 
ATOM     89  C   UNL A   1      46.671  21.899  36.248  1.00  0.00     0.054 A 
BRANCH  89  90
ATOM     90  S   UNL A   1      46.930  20.215  36.870  1.00  0.00     0.124 S 
ATOM     91  O   UNL A   1      47.238  19.485  35.643  1.00  0.00    -0.237 OA
ATOM     92  O   UNL A   1      48.050  20.387  37.793  1.00  0.00    -0.237 OA
ATOM     93  O   UNL A   1      45.655  19.875  37.497  1.00  0.00    -0.744 OA
ENDBRANCH  89  90
ENDBRANCH  61  84
BRANCH  73  94
ATOM     94  C   UNL A   1      44.465  26.716  29.188  1.00  0.00    -0.014 A 
ATOM     95  C   UNL A   1      44.559  26.051  27.949  1.00  0.00     0.010 A 
ATOM     96  C   UNL A   1      43.183  26.993  29.698  1.00  0.00     0.010 A 
ATOM     97  C   UNL A   1      43.416  25.714  27.220  1.00  0.00     0.020 A 
ATOM     98  C   UNL A   1      42.030  26.630  28.985  1.00  0.00     0.020 A 
ATOM     99  C   UNL A   1      42.157  26.022  27.734  1.00  0.00     0.054 A 
BRANCH  99 100
ATOM    100  S   UNL A   1      40.698  25.651  26.724  1.00  0.00     0.124 S 
ATOM    101  O   UNL A   1      40.998  26.360  25.481  1.00  0.00    -0.237 OA
ATOM    102  O   UNL A   1      40.727  24.194  26.634  1.00  0.00    -0.237 OA
ATOM    103  O   UNL A   1      39.588  26.203  27.497  1.00  0.00    -0.744 OA
ENDBRANCH  99 100
ENDBRANCH  73  94
ENDBRANCH  47  48
ENDBRANCH  40  42
ENDBRANCH  39  40
ENDBRANCH  38  39
ENDBRANCH  37  38
ENDBRANCH  36  37
ENDBRANCH  35  36
ENDBRANCH  34  35
ENDBRANCH  33  34
ENDBRANCH   1  33
TORSDOF 28
ENDMDL
MODEL 3
REMARK VINA RESULT:      -7.6      7.638     12.681
REMARK SMILES COc1ccc2c(c1)c(CC(=O)OCCOCCOCCOCCOC(=O)c1ccc(-c3c4nc(c(-c5ccc(S(=O)(=O)[O-])cc5)c5ccc([nH]5)c(-c5ccc(S(=O)(=O)[O-])cc5)c5nc(c(-c6ccc(S(=O)(=O)[O-])cc6)c6ccc3[nH]6)C=C5)C=C4)cc1)c(C)n2Cc1ccn(C(F)F)c(=O)c1
REMARK SMILES IDX 18 1 17 2 16 3 15 4 14 5 13 6 11 7 12 8 10 9 9 10 3 11 4 12
REMARK SMILES IDX 8 13 5 14 7 15 6 16 90 17 88 18 89 19 2 20 1 21 91 22 92 23
REMARK SMILES IDX 93 24 101 25 94 26 99 27 95 28 100 29 96 30 97 31 98 32
REMARK SMILES IDX 19 33 20 34 21 35 22 36 23 37 24 38 25 39 26 40 27 41 28 42
REMARK SMILES IDX 29 43 87 44 30 45 86 46 31 47 32 48 33 49 80 50 34 51 85 52
REMARK SMILES IDX 79 53 81 54 35 55 84 56 78 57 77 58 36 60 66 61 47 62 65 63
REMARK SMILES IDX 48 64 51 65 64 66 82 67 49 68 50 69 63 71 83 72 52 73 37 74
REMARK SMILES IDX 38 75 46 76 39 77 45 78 40 79 41 80 42 81 43 82 44 83 67 84
REMARK SMILES IDX 68 85 76 86 69 87 75 88 70 89 71 90 72 91 73 92 74 93 53 94
REMARK SMILES IDX 54 95 62 96 55 97 61 98 56 99 57 100 58 101 59 102 60 103
REMARK H PARENT 81 59 51 70
REMARK Flexibility Score: inf
ROOT
ATOM      1  C   UNL A   1      42.567  40.690  28.653  1.00  0.00     0.188 C 
ENDROOT
BRANCH   1   2
ATOM      2  C   UNL A   1      43.017  39.264  28.370  1.00  0.00     0.188 C 
BRANCH   2   3
ATOM      3  O   UNL A   1      43.227  39.049  26.990  1.00  0.00    -0.376 OA
BRANCH   3   4
ATOM      4  C   UNL A   1      43.755  40.104  26.199  1.00  0.00     0.202 C 
BRANCH   4   5
ATOM      5  C   UNL A   1      42.895  41.274  25.657  1.00  0.00     0.261 C 
BRANCH   5   6
ATOM      6  O   UNL A   1      43.169  41.829  24.352  1.00  0.00    -0.463 OA
BRANCH   6   7
ATOM      7  C   UNL A   1      44.057  42.837  24.228  1.00  0.00     0.310 C 
ATOM      8  O   UNL A   1      43.824  43.987  24.596  1.00  0.00    -0.252 OA
BRANCH   7   9
ATOM      9  C   UNL A   1      45.423  42.443  23.659  1.00  0.00     0.160 C 
BRANCH   9  10
ATOM     10  C   UNL A   1      46.066  43.270  22.556  1.00  0.00    -0.008 A 
ATOM     11  C   UNL A   1      49.276  45.160  23.508  1.00  0.00     0.119 A 
ATOM     12  C   UNL A   1      49.603  45.558  22.219  1.00  0.00     0.048 A 
ATOM     13  C   UNL A   1      48.061  44.500  23.741  1.00  0.00     0.057 A 
ATOM     14  C   UNL A   1      48.743  45.286  21.143  1.00  0.00     0.031 A 
ATOM     15  C   UNL A   1      47.224  44.116  22.665  1.00  0.00     0.007 A 
ATOM     16  C   UNL A   1      47.551  44.570  21.383  1.00  0.00     0.049 A 
ATOM     17  N   UNL A   1      46.497  44.210  20.546  1.00  0.00    -0.340 N 
ATOM     18  C   UNL A   1      45.544  43.527  21.292  1.00  0.00     0.020 A 
ATOM     19  C   UNL A   1      44.181  43.180  20.805  1.00  0.00     0.065 C 
BRANCH  11  20
ATOM     20  O   UNL A   1      50.052  45.339  24.620  1.00  0.00    -0.497 OA
ATOM     21  C   UNL A   1      49.649  46.342  25.549  1.00  0.00     0.278 C 
ENDBRANCH  11  20
BRANCH  17  22
ATOM     22  C   UNL A   1      46.328  44.749  19.181  1.00  0.00     0.158 C 
BRANCH  22  23
ATOM     23  C   UNL A   1      45.660  46.103  19.055  1.00  0.00    -0.021 A 
ATOM     24  C   UNL A   1      44.313  46.170  18.526  1.00  0.00     0.024 A 
ATOM     25  C   UNL A   1      46.203  47.239  19.532  1.00  0.00     0.077 A 
ATOM     26  C   UNL A   1      43.696  47.341  18.344  1.00  0.00     0.095 A 
ATOM     27  C   UNL A   1      45.478  48.547  19.441  1.00  0.00     0.255 A 
ATOM     28  N   UNL A   1      44.280  48.523  18.747  1.00  0.00    -0.258 N 
ATOM     29  O   UNL A   1      45.977  49.527  19.986  1.00  0.00    -0.269 OA
BRANCH  28  30
ATOM     30  C   UNL A   1      43.566  49.764  18.569  1.00  0.00     0.451 C 
ATOM     31  F   UNL A   1      42.395  49.543  17.921  1.00  0.00    -0.185 F 
ATOM     32  F   UNL A   1      43.280  50.355  19.753  1.00  0.00    -0.185 F 
ENDBRANCH  28  30
ENDBRANCH  22  23
ENDBRANCH  17  22
ENDBRANCH   9  10
ENDBRANCH   7   9
ENDBRANCH   6   7
ENDBRANCH   5   6
ENDBRANCH   4   5
ENDBRANCH   3   4
ENDBRANCH   2   3
ENDBRANCH   1   2
BRANCH   1  33
ATOM     33  O   UNL A   1      41.903  40.976  29.854  1.00  0.00    -0.377 OA
BRANCH  33  34
ATOM     34  C   UNL A   1      42.587  40.673  31.042  1.00  0.00     0.188 C 
BRANCH  34  35
ATOM     35  C   UNL A   1      42.398  41.772  32.090  1.00  0.00     0.188 C 
BRANCH  35  36
ATOM     36  O   UNL A   1      43.251  42.926  32.135  1.00  0.00    -0.376 OA
BRANCH  36  37
ATOM     37  C   UNL A   1      44.067  43.178  33.272  1.00  0.00     0.202 C 
BRANCH  37  38
ATOM     38  C   UNL A   1      45.258  42.218  33.441  1.00  0.00     0.261 C 
BRANCH  38  39
ATOM     39  O   UNL A   1      45.018  41.174  34.393  1.00  0.00    -0.460 OA
BRANCH  39  40
ATOM     40  C   UNL A   1      45.830  40.090  34.363  1.00  0.00     0.338 C 
ATOM     41  O   UNL A   1      47.050  40.071  34.426  1.00  0.00    -0.246 OA
BRANCH  40  42
ATOM     42  C   UNL A   1      44.951  38.921  34.571  1.00  0.00     0.060 A 
ATOM     43  C   UNL A   1      45.483  37.671  34.907  1.00  0.00     0.016 A 
ATOM     44  C   UNL A   1      43.640  39.037  34.088  1.00  0.00     0.016 A 
ATOM     45  C   UNL A   1      44.742  36.528  34.610  1.00  0.00     0.010 A 
ATOM     46  C   UNL A   1      42.907  37.890  33.785  1.00  0.00     0.010 A 
ATOM     47  C   UNL A   1      43.477  36.633  33.996  1.00  0.00    -0.014 A 
BRANCH  47  48
ATOM     48  C   UNL A   1      42.693  35.398  33.858  1.00  0.00     0.031 A 
ATOM     49  C   UNL A   1      42.061  34.999  35.145  1.00  0.00     0.074 A 
ATOM     50  C   UNL A   1      42.343  34.732  32.738  1.00  0.00     0.049 A 
ATOM     51  N   UNL A   1      42.190  33.896  35.806  1.00  0.00    -0.248 NA
ATOM     52  C   UNL A   1      41.284  36.044  35.832  1.00  0.00     0.031 C 
ATOM     53  C   UNL A   1      42.519  35.144  31.345  1.00  0.00     0.029 A 
ATOM     54  N   UNL A   1      41.624  33.569  32.630  1.00  0.00    -0.354 N 
ATOM     55  C   UNL A   1      41.393  34.055  36.936  1.00  0.00     0.074 A 
ATOM     56  C   UNL A   1      40.995  35.439  36.977  1.00  0.00     0.031 C 
ATOM     57  C   UNL A   1      41.732  34.373  30.557  1.00  0.00     0.029 A 
ATOM     58  C   UNL A   1      41.084  33.352  31.368  1.00  0.00     0.049 A 
ATOM     59  H   UNL A   1      41.501  32.943  33.381  1.00  0.00     0.167 HD
ATOM     60  C   UNL A   1      40.941  33.018  37.687  1.00  0.00     0.031 A 
ATOM     61  C   UNL A   1      40.096  32.476  31.046  1.00  0.00     0.031 A 
ATOM     62  C   UNL A   1      41.682  31.810  37.472  1.00  0.00     0.049 A 
ATOM     63  C   UNL A   1      39.982  31.475  32.135  1.00  0.00     0.074 A 
ATOM     64  C   UNL A   1      43.010  31.459  37.617  1.00  0.00     0.029 A 
ATOM     65  N   UNL A   1      41.106  30.825  36.709  1.00  0.00    -0.354 N 
ATOM     66  N   UNL A   1      40.860  30.551  32.396  1.00  0.00    -0.248 NA
ATOM     67  C   UNL A   1      38.984  31.698  33.172  1.00  0.00     0.031 C 
ATOM     68  C   UNL A   1      43.267  30.525  36.575  1.00  0.00     0.029 A 
ATOM     69  C   UNL A   1      42.077  30.339  35.868  1.00  0.00     0.049 A 
ATOM     70  H   UNL A   1      40.171  30.522  36.755  1.00  0.00     0.167 HD
ATOM     71  C   UNL A   1      40.777  30.353  33.765  1.00  0.00     0.074 A 
ATOM     72  C   UNL A   1      39.532  30.998  34.166  1.00  0.00     0.031 C 
ATOM     73  C   UNL A   1      41.849  29.926  34.494  1.00  0.00     0.031 A 
BRANCH  60  74
ATOM     74  C   UNL A   1      39.626  33.075  38.415  1.00  0.00    -0.014 A 
ATOM     75  C   UNL A   1      38.394  32.878  37.753  1.00  0.00     0.010 A 
ATOM     76  C   UNL A   1      39.598  33.123  39.819  1.00  0.00     0.010 A 
ATOM     77  C   UNL A   1      37.184  32.809  38.438  1.00  0.00     0.020 A 
ATOM     78  C   UNL A   1      38.390  32.995  40.524  1.00  0.00     0.020 A 
ATOM     79  C   UNL A   1      37.190  32.856  39.824  1.00  0.00     0.054 A 
BRANCH  79  80
ATOM     80  S   UNL A   1      35.613  32.634  40.682  1.00  0.00     0.124 S 
ATOM     81  O   UNL A   1      34.688  32.453  39.567  1.00  0.00    -0.237 OA
ATOM     82  O   UNL A   1      35.862  31.446  41.495  1.00  0.00    -0.237 OA
ATOM     83  O   UNL A   1      35.458  33.878  41.432  1.00  0.00    -0.744 OA
ENDBRANCH  79  80
ENDBRANCH  60  74
BRANCH  61  84
ATOM     84  C   UNL A   1      38.997  32.658  30.056  1.00  0.00    -0.014 A 
ATOM     85  C   UNL A   1      38.372  33.911  29.912  1.00  0.00     0.010 A 
ATOM     86  C   UNL A   1      38.348  31.537  29.493  1.00  0.00     0.010 A 
ATOM     87  C   UNL A   1      37.110  34.034  29.323  1.00  0.00     0.020 A 
ATOM     88  C   UNL A   1      37.073  31.650  28.912  1.00  0.00     0.020 A 
ATOM     89  C   UNL A   1      36.445  32.895  28.873  1.00  0.00     0.054 A 
BRANCH  89  90
ATOM     90  S   UNL A   1      34.716  33.068  28.354  1.00  0.00     0.124 S 
ATOM     91  O   UNL A   1      34.796  34.174  27.403  1.00  0.00    -0.237 OA
ATOM     92  O   UNL A   1      34.429  31.760  27.769  1.00  0.00    -0.237 OA
ATOM     93  O   UNL A   1      34.007  33.362  29.596  1.00  0.00    -0.744 OA
ENDBRANCH  89  90
ENDBRANCH  61  84
BRANCH  73  94
ATOM     94  C   UNL A   1      43.021  29.273  33.790  1.00  0.00    -0.014 A 
ATOM     95  C   UNL A   1      43.948  30.123  33.156  1.00  0.00     0.010 A 
ATOM     96  C   UNL A   1      43.141  27.886  33.585  1.00  0.00     0.010 A 
ATOM     97  C   UNL A   1      44.934  29.614  32.307  1.00  0.00     0.020 A 
ATOM     98  C   UNL A   1      44.148  27.365  32.758  1.00  0.00     0.020 A 
ATOM     99  C   UNL A   1      45.017  28.237  32.099  1.00  0.00     0.054 A 
BRANCH  99 100
ATOM    100  S   UNL A   1      46.250  27.616  30.924  1.00  0.00     0.124 S 
ATOM    101  O   UNL A   1      47.235  28.695  30.915  1.00  0.00    -0.237 OA
ATOM    102  O   UNL A   1      46.694  26.371  31.546  1.00  0.00    -0.237 OA
ATOM    103  O   UNL A   1      45.499  27.454  29.681  1.00  0.00    -0.744 OA
ENDBRANCH  99 100
ENDBRANCH  73  94
ENDBRANCH  47  48
ENDBRANCH  40  42
ENDBRANCH  39  40
ENDBRANCH  38  39
ENDBRANCH  37  38
ENDBRANCH  36  37
ENDBRANCH  35  36
ENDBRANCH  34  35
ENDBRANCH  33  34
ENDBRANCH   1  33
TORSDOF 28
ENDMDL
