MODEL 1
REMARK VINA RESULT:      -9.1      0.000      0.000
REMARK SMILES CC(C)[C@H](C)CNC(=O)N[C@H]1C=C[C@@H](C(=O)OCCOCCOCCOCCOC(=O)c2ccc(-c3c4nc(c(-c5ccc(S(=O)(=O)[O-])cc5)c5ccc([nH]5)c(-c5ccc(S(=O)(=O)[O-])cc5)c5nc(c(-c6ccc(S(=O)(=O)[O-])cc6)c6ccc3[nH]6)C=C5)C=C4)cc2)C1
REMARK SMILES IDX 22 1 21 2 20 3 19 4 18 5 17 6 15 7 16 8 14 9 11 10 12 11
REMARK SMILES IDX 92 12 13 13 10 14 7 15 8 16 9 18 6 20 4 21 5 22 2 23 1 24
REMARK SMILES IDX 3 25 23 26 24 27 25 28 26 29 27 30 28 31 29 32 30 33 31 34
REMARK SMILES IDX 32 35 33 36 91 37 34 38 90 39 35 40 36 41 37 42 84 43 38 44
REMARK SMILES IDX 89 45 83 46 85 47 39 48 88 49 82 50 81 51 40 53 70 54 51 55
REMARK SMILES IDX 69 56 52 57 55 58 68 59 86 60 53 61 54 62 67 64 87 65 56 66
REMARK SMILES IDX 41 67 42 68 50 69 43 70 49 71 44 72 45 73 46 74 47 75 48 76
REMARK SMILES IDX 71 77 72 78 80 79 73 80 79 81 74 82 75 83 76 84 77 85 78 86
REMARK SMILES IDX 57 87 58 88 66 89 59 90 65 91 60 92 61 93 62 94 63 95 64 96
REMARK H PARENT 7 17 10 19 85 52 55 63
REMARK Flexibility Score: inf
ROOT
ATOM      1  C   UNL A   1      30.967  25.368  26.261  1.00  0.00     0.188 C 
ENDROOT
BRANCH   1   2
ATOM      2  C   UNL A   1      31.139  23.894  26.663  1.00  0.00     0.188 C 
BRANCH   2   3
ATOM      3  O   UNL A   1      32.248  23.467  27.441  1.00  0.00    -0.376 OA
BRANCH   3   4
ATOM      4  C   UNL A   1      33.509  23.212  26.836  1.00  0.00     0.202 C 
BRANCH   4   5
ATOM      5  C   UNL A   1      34.371  24.364  26.297  1.00  0.00     0.261 C 
BRANCH   5   6
ATOM      6  O   UNL A   1      34.731  24.271  24.906  1.00  0.00    -0.463 OA
BRANCH   6   7
ATOM      7  C   UNL A   1      33.901  24.829  23.991  1.00  0.00     0.312 C 
ATOM      8  O   UNL A   1      33.687  26.034  23.899  1.00  0.00    -0.252 OA
BRANCH   7   9
ATOM      9  C   UNL A   1      33.307  23.808  23.001  1.00  0.00     0.124 C 
ATOM     10  C   UNL A   1      32.266  21.590  23.166  1.00  0.00     0.107 C 
ATOM     11  C   UNL A   1      31.246  22.663  23.222  1.00  0.00    -0.006 C 
ATOM     12  C   UNL A   1      33.608  22.308  23.216  1.00  0.00     0.048 C 
ATOM     13  C   UNL A   1      31.807  23.868  23.054  1.00  0.00    -0.014 C 
BRANCH  10  14
ATOM     14  N   UNL A   1      32.084  20.510  24.103  1.00  0.00    -0.332 N 
ATOM     15  N   UNL A   1      34.111  19.797  25.114  1.00  0.00    -0.338 N 
ATOM     16  C   UNL A   1      32.813  19.677  24.843  1.00  0.00     0.315 C 
ATOM     17  H   UNL A   1      34.470  19.013  25.589  1.00  0.00     0.165 HD
ATOM     18  O   UNL A   1      32.217  18.704  25.314  1.00  0.00    -0.249 OA
ATOM     19  H   UNL A   1      31.124  20.332  24.236  1.00  0.00     0.165 HD
BRANCH  15  20
ATOM     20  C   UNL A   1      35.117  20.809  24.873  1.00  0.00     0.121 C 
BRANCH  20  21
ATOM     21  C   UNL A   1      36.540  20.356  25.259  1.00  0.00     0.008 C 
ATOM     22  C   UNL A   1      36.757  18.903  24.832  1.00  0.00     0.010 C 
BRANCH  21  23
ATOM     23  C   UNL A   1      37.634  21.315  24.700  1.00  0.00    -0.013 C 
ATOM     24  C   UNL A   1      37.070  22.430  23.821  1.00  0.00     0.008 C 
ATOM     25  C   UNL A   1      38.546  21.929  25.763  1.00  0.00     0.008 C 
ENDBRANCH  21  23
ENDBRANCH  20  21
ENDBRANCH  15  20
ENDBRANCH  10  14
ENDBRANCH   7   9
ENDBRANCH   6   7
ENDBRANCH   5   6
ENDBRANCH   4   5
ENDBRANCH   3   4
ENDBRANCH   2   3
ENDBRANCH   1   2
BRANCH   1  26
ATOM     26  O   UNL A   1      29.822  25.663  25.489  1.00  0.00    -0.377 OA
BRANCH  26  27
ATOM     27  C   UNL A   1      29.948  26.685  24.509  1.00  0.00     0.188 C 
BRANCH  27  28
ATOM     28  C   UNL A   1      31.181  27.605  24.584  1.00  0.00     0.188 C 
BRANCH  28  29
ATOM     29  O   UNL A   1      31.020  28.739  25.427  1.00  0.00    -0.376 OA
BRANCH  29  30
ATOM     30  C   UNL A   1      31.942  28.966  26.484  1.00  0.00     0.202 C 
BRANCH  30  31
ATOM     31  C   UNL A   1      32.409  30.405  26.774  1.00  0.00     0.261 C 
BRANCH  31  32
ATOM     32  O   UNL A   1      33.816  30.668  26.669  1.00  0.00    -0.460 OA
BRANCH  32  33
ATOM     33  C   UNL A   1      34.371  31.529  27.546  1.00  0.00     0.338 C 
ATOM     34  O   UNL A   1      33.852  32.528  28.019  1.00  0.00    -0.246 OA
BRANCH  33  35
ATOM     35  C   UNL A   1      35.645  30.944  28.011  1.00  0.00     0.060 A 
ATOM     36  C   UNL A   1      35.711  29.563  28.238  1.00  0.00     0.016 A 
ATOM     37  C   UNL A   1      36.770  31.747  28.215  1.00  0.00     0.016 A 
ATOM     38  C   UNL A   1      36.891  28.987  28.709  1.00  0.00     0.010 A 
ATOM     39  C   UNL A   1      37.942  31.173  28.713  1.00  0.00     0.010 A 
ATOM     40  C   UNL A   1      37.997  29.797  28.996  1.00  0.00    -0.014 A 
BRANCH  40  41
ATOM     41  C   UNL A   1      39.129  29.241  29.776  1.00  0.00     0.031 A 
ATOM     42  C   UNL A   1      39.329  29.730  31.186  1.00  0.00     0.074 A 
ATOM     43  C   UNL A   1      39.950  28.309  29.259  1.00  0.00     0.049 A 
ATOM     44  N   UNL A   1      40.271  29.431  32.042  1.00  0.00    -0.248 NA
ATOM     45  C   UNL A   1      38.329  30.682  31.700  1.00  0.00     0.031 C 
ATOM     46  C   UNL A   1      39.827  27.718  27.927  1.00  0.00     0.029 A 
ATOM     47  N   UNL A   1      41.057  27.701  29.797  1.00  0.00    -0.354 N 
ATOM     48  C   UNL A   1      39.988  30.167  33.186  1.00  0.00     0.074 A 
ATOM     49  C   UNL A   1      38.800  30.944  32.910  1.00  0.00     0.031 C 
ATOM     50  C   UNL A   1      40.832  26.841  27.746  1.00  0.00     0.029 A 
ATOM     51  C   UNL A   1      41.687  26.838  28.933  1.00  0.00     0.049 A 
ATOM     52  H   UNL A   1      41.369  27.868  30.715  1.00  0.00     0.167 HD
ATOM     53  C   UNL A   1      40.657  30.193  34.364  1.00  0.00     0.031 A 
ATOM     54  C   UNL A   1      42.839  26.150  29.072  1.00  0.00     0.031 A 
ATOM     55  C   UNL A   1      41.846  29.428  34.629  1.00  0.00     0.049 A 
ATOM     56  C   UNL A   1      43.613  26.261  30.362  1.00  0.00     0.074 A 
ATOM     57  C   UNL A   1      42.588  29.374  35.795  1.00  0.00     0.029 A 
ATOM     58  N   UNL A   1      42.474  28.596  33.716  1.00  0.00    -0.354 N 
ATOM     59  N   UNL A   1      43.318  26.939  31.447  1.00  0.00    -0.248 NA
ATOM     60  C   UNL A   1      44.873  25.510  30.450  1.00  0.00     0.031 C 
ATOM     61  C   UNL A   1      43.702  28.562  35.565  1.00  0.00     0.029 A 
ATOM     62  C   UNL A   1      43.614  28.050  34.281  1.00  0.00     0.049 A 
ATOM     63  H   UNL A   1      42.156  28.419  32.801  1.00  0.00     0.167 HD
ATOM     64  C   UNL A   1      44.339  26.669  32.354  1.00  0.00     0.074 A 
ATOM     65  C   UNL A   1      45.249  25.754  31.698  1.00  0.00     0.031 C 
ATOM     66  C   UNL A   1      44.509  27.136  33.617  1.00  0.00     0.031 A 
BRANCH  53  67
ATOM     67  C   UNL A   1      40.140  31.107  35.442  1.00  0.00    -0.014 A 
ATOM     68  C   UNL A   1      38.933  30.841  36.114  1.00  0.00     0.010 A 
ATOM     69  C   UNL A   1      40.906  32.223  35.829  1.00  0.00     0.010 A 
ATOM     70  C   UNL A   1      38.489  31.690  37.132  1.00  0.00     0.020 A 
ATOM     71  C   UNL A   1      40.480  33.056  36.867  1.00  0.00     0.020 A 
ATOM     72  C   UNL A   1      39.268  32.790  37.504  1.00  0.00     0.054 A 
BRANCH  72  73
ATOM     73  S   UNL A   1      38.687  33.847  38.858  1.00  0.00     0.124 S 
ATOM     74  O   UNL A   1      37.324  33.359  39.058  1.00  0.00    -0.237 OA
ATOM     75  O   UNL A   1      39.627  33.537  39.932  1.00  0.00    -0.237 OA
ATOM     76  O   UNL A   1      38.790  35.199  38.315  1.00  0.00    -0.744 OA
ENDBRANCH  72  73
ENDBRANCH  53  67
BRANCH  54  77
ATOM     77  C   UNL A   1      43.355  25.316  27.949  1.00  0.00    -0.014 A 
ATOM     78  C   UNL A   1      44.142  25.883  26.930  1.00  0.00     0.010 A 
ATOM     79  C   UNL A   1      43.039  23.946  27.881  1.00  0.00     0.010 A 
ATOM     80  C   UNL A   1      44.582  25.103  25.857  1.00  0.00     0.020 A 
ATOM     81  C   UNL A   1      43.505  23.156  26.827  1.00  0.00     0.020 A 
ATOM     82  C   UNL A   1      44.263  23.743  25.813  1.00  0.00     0.054 A 
BRANCH  82  83
ATOM     83  S   UNL A   1      44.883  22.742  24.432  1.00  0.00     0.124 S 
ATOM     84  O   UNL A   1      43.683  22.570  23.620  1.00  0.00    -0.237 OA
ATOM     85  O   UNL A   1      45.916  23.603  23.861  1.00  0.00    -0.237 OA
ATOM     86  O   UNL A   1      45.380  21.533  25.081  1.00  0.00    -0.744 OA
ENDBRANCH  82  83
ENDBRANCH  54  77
BRANCH  66  87
ATOM     87  C   UNL A   1      45.699  26.634  34.396  1.00  0.00    -0.014 A 
ATOM     88  C   UNL A   1      46.926  27.322  34.388  1.00  0.00     0.010 A 
ATOM     89  C   UNL A   1      45.565  25.487  35.200  1.00  0.00     0.010 A 
ATOM     90  C   UNL A   1      48.005  26.852  35.142  1.00  0.00     0.020 A 
ATOM     91  C   UNL A   1      46.630  25.033  35.982  1.00  0.00     0.020 A 
ATOM     92  C   UNL A   1      47.849  25.712  35.937  1.00  0.00     0.054 A 
BRANCH  92  93
ATOM     93  S   UNL A   1      49.251  25.151  36.942  1.00  0.00     0.124 S 
ATOM     94  O   UNL A   1      50.184  24.675  35.923  1.00  0.00    -0.237 OA
ATOM     95  O   UNL A   1      49.651  26.369  37.641  1.00  0.00    -0.237 OA
ATOM     96  O   UNL A   1      48.675  24.112  37.792  1.00  0.00    -0.744 OA
ENDBRANCH  92  93
ENDBRANCH  66  87
ENDBRANCH  40  41
ENDBRANCH  33  35
ENDBRANCH  32  33
ENDBRANCH  31  32
ENDBRANCH  30  31
ENDBRANCH  29  30
ENDBRANCH  28  29
ENDBRANCH  27  28
ENDBRANCH  26  27
ENDBRANCH   1  26
TORSDOF 27
ENDMDL
MODEL 2
REMARK VINA RESULT:      -8.8      1.400      2.432
REMARK SMILES CC(C)[C@H](C)CNC(=O)N[C@H]1C=C[C@@H](C(=O)OCCOCCOCCOCCOC(=O)c2ccc(-c3c4nc(c(-c5ccc(S(=O)(=O)[O-])cc5)c5ccc([nH]5)c(-c5ccc(S(=O)(=O)[O-])cc5)c5nc(c(-c6ccc(S(=O)(=O)[O-])cc6)c6ccc3[nH]6)C=C5)C=C4)cc2)C1
REMARK SMILES IDX 22 1 21 2 20 3 19 4 18 5 17 6 15 7 16 8 14 9 11 10 12 11
REMARK SMILES IDX 92 12 13 13 10 14 7 15 8 16 9 18 6 20 4 21 5 22 2 23 1 24
REMARK SMILES IDX 3 25 23 26 24 27 25 28 26 29 27 30 28 31 29 32 30 33 31 34
REMARK SMILES IDX 32 35 33 36 91 37 34 38 90 39 35 40 36 41 37 42 84 43 38 44
REMARK SMILES IDX 89 45 83 46 85 47 39 48 88 49 82 50 81 51 40 53 70 54 51 55
REMARK SMILES IDX 69 56 52 57 55 58 68 59 86 60 53 61 54 62 67 64 87 65 56 66
REMARK SMILES IDX 41 67 42 68 50 69 43 70 49 71 44 72 45 73 46 74 47 75 48 76
REMARK SMILES IDX 71 77 72 78 80 79 73 80 79 81 74 82 75 83 76 84 77 85 78 86
REMARK SMILES IDX 57 87 58 88 66 89 59 90 65 91 60 92 61 93 62 94 63 95 64 96
REMARK H PARENT 7 17 10 19 85 52 55 63
REMARK Flexibility Score: inf
ROOT
ATOM      1  C   UNL A   1      31.509  24.958  26.499  1.00  0.00     0.188 C 
ENDROOT
BRANCH   1   2
ATOM      2  C   UNL A   1      31.484  23.463  26.861  1.00  0.00     0.188 C 
BRANCH   2   3
ATOM      3  O   UNL A   1      32.258  22.954  27.937  1.00  0.00    -0.376 OA
BRANCH   3   4
ATOM      4  C   UNL A   1      33.240  21.948  27.720  1.00  0.00     0.202 C 
BRANCH   4   5
ATOM      5  C   UNL A   1      34.660  22.321  27.268  1.00  0.00     0.261 C 
BRANCH   5   6
ATOM      6  O   UNL A   1      35.265  21.420  26.321  1.00  0.00    -0.463 OA
BRANCH   6   7
ATOM      7  C   UNL A   1      36.396  21.821  25.689  1.00  0.00     0.312 C 
ATOM      8  O   UNL A   1      37.530  21.519  26.047  1.00  0.00    -0.252 OA
BRANCH   7   9
ATOM      9  C   UNL A   1      36.124  22.629  24.406  1.00  0.00     0.124 C 
ATOM     10  C   UNL A   1      34.155  23.636  23.339  1.00  0.00     0.107 C 
ATOM     11  C   UNL A   1      34.831  24.605  24.230  1.00  0.00    -0.006 C 
ATOM     12  C   UNL A   1      34.856  22.306  23.583  1.00  0.00     0.048 C 
ATOM     13  C   UNL A   1      35.948  24.080  24.752  1.00  0.00    -0.014 C 
BRANCH  10  14
ATOM     14  N   UNL A   1      32.715  23.621  23.414  1.00  0.00    -0.332 N 
ATOM     15  N   UNL A   1      31.807  21.432  23.551  1.00  0.00    -0.338 N 
ATOM     16  C   UNL A   1      31.709  22.750  23.397  1.00  0.00     0.315 C 
ATOM     17  H   UNL A   1      30.952  20.970  23.397  1.00  0.00     0.165 HD
ATOM     18  O   UNL A   1      30.582  23.223  23.219  1.00  0.00    -0.249 OA
ATOM     19  H   UNL A   1      32.370  24.540  23.503  1.00  0.00     0.165 HD
BRANCH  15  20
ATOM     20  C   UNL A   1      32.877  20.518  23.891  1.00  0.00     0.121 C 
BRANCH  20  21
ATOM     21  C   UNL A   1      32.500  19.037  23.690  1.00  0.00     0.008 C 
ATOM     22  C   UNL A   1      32.307  18.747  22.200  1.00  0.00     0.010 C 
BRANCH  21  23
ATOM     23  C   UNL A   1      33.525  18.072  24.360  1.00  0.00    -0.013 C 
ATOM     24  C   UNL A   1      33.595  16.701  23.688  1.00  0.00     0.008 C 
ATOM     25  C   UNL A   1      34.940  18.637  24.489  1.00  0.00     0.008 C 
ENDBRANCH  21  23
ENDBRANCH  20  21
ENDBRANCH  15  20
ENDBRANCH  10  14
ENDBRANCH   7   9
ENDBRANCH   6   7
ENDBRANCH   5   6
ENDBRANCH   4   5
ENDBRANCH   3   4
ENDBRANCH   2   3
ENDBRANCH   1   2
BRANCH   1  26
ATOM     26  O   UNL A   1      30.415  25.422  25.738  1.00  0.00    -0.377 OA
BRANCH  26  27
ATOM     27  C   UNL A   1      30.613  26.604  24.973  1.00  0.00     0.188 C 
BRANCH  27  28
ATOM     28  C   UNL A   1      31.919  27.391  25.191  1.00  0.00     0.188 C 
BRANCH  28  29
ATOM     29  O   UNL A   1      31.760  28.609  25.908  1.00  0.00    -0.376 OA
BRANCH  29  30
ATOM     30  C   UNL A   1      32.792  29.051  26.779  1.00  0.00     0.202 C 
BRANCH  30  31
ATOM     31  C   UNL A   1      32.843  30.536  27.185  1.00  0.00     0.261 C 
BRANCH  31  32
ATOM     32  O   UNL A   1      34.124  31.181  27.137  1.00  0.00    -0.460 OA
BRANCH  32  33
ATOM     33  C   UNL A   1      34.575  31.788  28.254  1.00  0.00     0.338 C 
ATOM     34  O   UNL A   1      33.974  32.602  28.938  1.00  0.00    -0.246 OA
BRANCH  33  35
ATOM     35  C   UNL A   1      35.846  31.141  28.640  1.00  0.00     0.060 A 
ATOM     36  C   UNL A   1      35.801  29.936  29.353  1.00  0.00     0.016 A 
ATOM     37  C   UNL A   1      37.073  31.713  28.296  1.00  0.00     0.016 A 
ATOM     38  C   UNL A   1      36.984  29.320  29.761  1.00  0.00     0.010 A 
ATOM     39  C   UNL A   1      38.257  31.109  28.728  1.00  0.00     0.010 A 
ATOM     40  C   UNL A   1      38.216  29.929  29.493  1.00  0.00    -0.014 A 
BRANCH  40  41
ATOM     41  C   UNL A   1      39.437  29.445  30.181  1.00  0.00     0.031 A 
ATOM     42  C   UNL A   1      39.859  30.135  31.452  1.00  0.00     0.074 A 
ATOM     43  C   UNL A   1      40.147  28.405  29.707  1.00  0.00     0.049 A 
ATOM     44  N   UNL A   1      40.910  29.926  32.200  1.00  0.00    -0.248 NA
ATOM     45  C   UNL A   1      38.972  31.203  31.944  1.00  0.00     0.031 C 
ATOM     46  C   UNL A   1      39.811  27.622  28.519  1.00  0.00     0.029 A 
ATOM     47  N   UNL A   1      41.306  27.834  30.171  1.00  0.00    -0.354 N 
ATOM     48  C   UNL A   1      40.820  30.843  33.240  1.00  0.00     0.074 A 
ATOM     49  C   UNL A   1      39.625  31.626  33.016  1.00  0.00     0.031 C 
ATOM     50  C   UNL A   1      40.755  26.679  28.339  1.00  0.00     0.029 A 
ATOM     51  C   UNL A   1      41.778  26.817  29.375  1.00  0.00     0.049 A 
ATOM     52  H   UNL A   1      41.756  28.125  30.997  1.00  0.00     0.167 HD
ATOM     53  C   UNL A   1      41.658  31.017  34.290  1.00  0.00     0.031 A 
ATOM     54  C   UNL A   1      42.919  26.103  29.456  1.00  0.00     0.031 A 
ATOM     55  C   UNL A   1      42.853  30.245  34.501  1.00  0.00     0.049 A 
ATOM     56  C   UNL A   1      43.879  26.374  30.587  1.00  0.00     0.074 A 
ATOM     57  C   UNL A   1      43.759  30.335  35.542  1.00  0.00     0.029 A 
ATOM     58  N   UNL A   1      43.316  29.252  33.652  1.00  0.00    -0.354 N 
ATOM     59  N   UNL A   1      43.767  27.225  31.581  1.00  0.00    -0.248 NA
ATOM     60  C   UNL A   1      45.118  25.583  30.612  1.00  0.00     0.031 C 
ATOM     61  C   UNL A   1      44.805  29.444  35.288  1.00  0.00     0.029 A 
ATOM     62  C   UNL A   1      44.512  28.744  34.128  1.00  0.00     0.049 A 
ATOM     63  H   UNL A   1      42.860  28.952  32.832  1.00  0.00     0.167 HD
ATOM     64  C   UNL A   1      44.905  27.048  32.363  1.00  0.00     0.074 A 
ATOM     65  C   UNL A   1      45.683  25.999  31.738  1.00  0.00     0.031 C 
ATOM     66  C   UNL A   1      45.275  27.695  33.497  1.00  0.00     0.031 A 
BRANCH  53  67
ATOM     67  C   UNL A   1      41.332  32.112  35.272  1.00  0.00    -0.014 A 
ATOM     68  C   UNL A   1      41.835  33.416  35.109  1.00  0.00     0.010 A 
ATOM     69  C   UNL A   1      40.462  31.843  36.345  1.00  0.00     0.010 A 
ATOM     70  C   UNL A   1      41.495  34.422  36.018  1.00  0.00     0.020 A 
ATOM     71  C   UNL A   1      40.096  32.854  37.237  1.00  0.00     0.020 A 
ATOM     72  C   UNL A   1      40.624  34.135  37.074  1.00  0.00     0.054 A 
BRANCH  72  73
ATOM     73  S   UNL A   1      40.168  35.472  38.210  1.00  0.00     0.124 S 
ATOM     74  O   UNL A   1      38.820  35.078  38.614  1.00  0.00    -0.237 OA
ATOM     75  O   UNL A   1      41.188  35.370  39.250  1.00  0.00    -0.237 OA
ATOM     76  O   UNL A   1      40.243  36.674  37.383  1.00  0.00    -0.744 OA
ENDBRANCH  72  73
ENDBRANCH  53  67
BRANCH  54  77
ATOM     77  C   UNL A   1      43.239  25.081  28.419  1.00  0.00    -0.014 A 
ATOM     78  C   UNL A   1      44.179  25.349  27.407  1.00  0.00     0.010 A 
ATOM     79  C   UNL A   1      42.584  23.835  28.426  1.00  0.00     0.010 A 
ATOM     80  C   UNL A   1      44.438  24.403  26.411  1.00  0.00     0.020 A 
ATOM     81  C   UNL A   1      42.866  22.874  27.452  1.00  0.00     0.020 A 
ATOM     82  C   UNL A   1      43.781  23.169  26.441  1.00  0.00     0.054 A 
BRANCH  82  83
ATOM     83  S   UNL A   1      44.167  21.940  25.163  1.00  0.00     0.124 S 
ATOM     84  O   UNL A   1      45.556  21.612  25.468  1.00  0.00    -0.237 OA
ATOM     85  O   UNL A   1      43.193  20.887  25.437  1.00  0.00    -0.237 OA
ATOM     86  O   UNL A   1      43.953  22.666  23.914  1.00  0.00    -0.744 OA
ENDBRANCH  82  83
ENDBRANCH  54  77
BRANCH  66  87
ATOM     87  C   UNL A   1      46.554  27.261  34.168  1.00  0.00    -0.014 A 
ATOM     88  C   UNL A   1      46.605  26.115  34.981  1.00  0.00     0.010 A 
ATOM     89  C   UNL A   1      47.739  27.981  33.927  1.00  0.00     0.010 A 
ATOM     90  C   UNL A   1      47.810  25.717  35.567  1.00  0.00     0.020 A 
ATOM     91  C   UNL A   1      48.952  27.567  34.484  1.00  0.00     0.020 A 
ATOM     92  C   UNL A   1      48.976  26.444  35.312  1.00  0.00     0.054 A 
BRANCH  92  93
ATOM     93  S   UNL A   1      50.535  25.880  36.049  1.00  0.00     0.124 S 
ATOM     94  O   UNL A   1      50.112  25.486  37.390  1.00  0.00    -0.237 OA
ATOM     95  O   UNL A   1      50.927  24.783  35.166  1.00  0.00    -0.237 OA
ATOM     96  O   UNL A   1      51.395  27.059  35.989  1.00  0.00    -0.744 OA
ENDBRANCH  92  93
ENDBRANCH  66  87
ENDBRANCH  40  41
ENDBRANCH  33  35
ENDBRANCH  32  33
ENDBRANCH  31  32
ENDBRANCH  30  31
ENDBRANCH  29  30
ENDBRANCH  28  29
ENDBRANCH  27  28
ENDBRANCH  26  27
ENDBRANCH   1  26
TORSDOF 27
ENDMDL
MODEL 3
REMARK VINA RESULT:      -8.6      5.949      8.635
REMARK SMILES CC(C)[C@H](C)CNC(=O)N[C@H]1C=C[C@@H](C(=O)OCCOCCOCCOCCOC(=O)c2ccc(-c3c4nc(c(-c5ccc(S(=O)(=O)[O-])cc5)c5ccc([nH]5)c(-c5ccc(S(=O)(=O)[O-])cc5)c5nc(c(-c6ccc(S(=O)(=O)[O-])cc6)c6ccc3[nH]6)C=C5)C=C4)cc2)C1
REMARK SMILES IDX 22 1 21 2 20 3 19 4 18 5 17 6 15 7 16 8 14 9 11 10 12 11
REMARK SMILES IDX 92 12 13 13 10 14 7 15 8 16 9 18 6 20 4 21 5 22 2 23 1 24
REMARK SMILES IDX 3 25 23 26 24 27 25 28 26 29 27 30 28 31 29 32 30 33 31 34
REMARK SMILES IDX 32 35 33 36 91 37 34 38 90 39 35 40 36 41 37 42 84 43 38 44
REMARK SMILES IDX 89 45 83 46 85 47 39 48 88 49 82 50 81 51 40 53 70 54 51 55
REMARK SMILES IDX 69 56 52 57 55 58 68 59 86 60 53 61 54 62 67 64 87 65 56 66
REMARK SMILES IDX 41 67 42 68 50 69 43 70 49 71 44 72 45 73 46 74 47 75 48 76
REMARK SMILES IDX 71 77 72 78 80 79 73 80 79 81 74 82 75 83 76 84 77 85 78 86
REMARK SMILES IDX 57 87 58 88 66 89 59 90 65 91 60 92 61 93 62 94 63 95 64 96
REMARK H PARENT 7 17 10 19 85 52 55 63
REMARK Flexibility Score: inf
ROOT
ATOM      1  C   UNL A   1      38.705  28.932  27.836  1.00  0.00     0.188 C 
ENDROOT
BRANCH   1   2
ATOM      2  C   UNL A   1      37.389  29.412  28.470  1.00  0.00     0.188 C 
BRANCH   2   3
ATOM      3  O   UNL A   1      36.299  29.841  27.667  1.00  0.00    -0.376 OA
BRANCH   3   4
ATOM      4  C   UNL A   1      35.096  29.085  27.604  1.00  0.00     0.202 C 
BRANCH   4   5
ATOM      5  C   UNL A   1      34.019  29.405  26.555  1.00  0.00     0.261 C 
BRANCH   5   6
ATOM      6  O   UNL A   1      33.048  28.367  26.328  1.00  0.00    -0.463 OA
BRANCH   6   7
ATOM      7  C   UNL A   1      32.140  28.546  25.337  1.00  0.00     0.312 C 
ATOM      8  O   UNL A   1      31.699  29.640  24.996  1.00  0.00    -0.252 OA
BRANCH   7   9
ATOM      9  C   UNL A   1      31.770  27.243  24.603  1.00  0.00     0.124 C 
ATOM     10  C   UNL A   1      30.655  25.138  25.200  1.00  0.00     0.107 C 
ATOM     11  C   UNL A   1      29.683  26.126  24.678  1.00  0.00    -0.006 C 
ATOM     12  C   UNL A   1      31.967  25.898  25.339  1.00  0.00     0.048 C 
ATOM     13  C   UNL A   1      30.302  27.245  24.281  1.00  0.00    -0.014 C 
BRANCH  10  14
ATOM     14  N   UNL A   1      30.223  24.392  26.356  1.00  0.00    -0.332 N 
ATOM     15  N   UNL A   1      30.897  22.116  26.305  1.00  0.00    -0.338 N 
ATOM     16  C   UNL A   1      30.207  23.139  26.804  1.00  0.00     0.315 C 
ATOM     17  H   UNL A   1      30.653  21.258  26.722  1.00  0.00     0.165 HD
ATOM     18  O   UNL A   1      29.475  22.918  27.774  1.00  0.00    -0.249 OA
ATOM     19  H   UNL A   1      29.813  24.996  27.017  1.00  0.00     0.165 HD
BRANCH  15  20
ATOM     20  C   UNL A   1      31.922  21.970  25.294  1.00  0.00     0.121 C 
BRANCH  20  21
ATOM     21  C   UNL A   1      33.332  22.338  25.798  1.00  0.00     0.008 C 
ATOM     22  C   UNL A   1      33.594  21.661  27.146  1.00  0.00     0.010 C 
BRANCH  21  23
ATOM     23  C   UNL A   1      34.435  22.021  24.744  1.00  0.00    -0.013 C 
ATOM     24  C   UNL A   1      35.139  23.268  24.210  1.00  0.00     0.008 C 
ATOM     25  C   UNL A   1      35.488  21.013  25.206  1.00  0.00     0.008 C 
ENDBRANCH  21  23
ENDBRANCH  20  21
ENDBRANCH  15  20
ENDBRANCH  10  14
ENDBRANCH   7   9
ENDBRANCH   6   7
ENDBRANCH   5   6
ENDBRANCH   4   5
ENDBRANCH   3   4
ENDBRANCH   2   3
ENDBRANCH   1   2
BRANCH   1  26
ATOM     26  O   UNL A   1      39.314  27.819  28.454  1.00  0.00    -0.377 OA
BRANCH  26  27
ATOM     27  C   UNL A   1      39.632  26.710  27.624  1.00  0.00     0.188 C 
BRANCH  27  28
ATOM     28  C   UNL A   1      39.951  25.368  28.308  1.00  0.00     0.188 C 
BRANCH  28  29
ATOM     29  O   UNL A   1      40.281  24.314  27.412  1.00  0.00    -0.376 OA
BRANCH  29  30
ATOM     30  C   UNL A   1      40.509  23.006  27.919  1.00  0.00     0.202 C 
BRANCH  30  31
ATOM     31  C   UNL A   1      40.404  21.804  26.963  1.00  0.00     0.261 C 
BRANCH  31  32
ATOM     32  O   UNL A   1      41.159  21.871  25.744  1.00  0.00    -0.460 OA
BRANCH  32  33
ATOM     33  C   UNL A   1      42.419  21.391  25.747  1.00  0.00     0.338 C 
ATOM     34  O   UNL A   1      42.772  20.259  25.456  1.00  0.00    -0.246 OA
BRANCH  33  35
ATOM     35  C   UNL A   1      43.337  22.530  25.954  1.00  0.00     0.060 A 
ATOM     36  C   UNL A   1      44.154  22.540  27.092  1.00  0.00     0.016 A 
ATOM     37  C   UNL A   1      43.398  23.578  25.033  1.00  0.00     0.016 A 
ATOM     38  C   UNL A   1      45.006  23.618  27.333  1.00  0.00     0.010 A 
ATOM     39  C   UNL A   1      44.232  24.670  25.288  1.00  0.00     0.010 A 
ATOM     40  C   UNL A   1      45.012  24.711  26.457  1.00  0.00    -0.014 A 
BRANCH  40  41
ATOM     41  C   UNL A   1      45.675  25.973  26.866  1.00  0.00     0.031 A 
ATOM     42  C   UNL A   1      44.903  26.935  27.729  1.00  0.00     0.074 A 
ATOM     43  C   UNL A   1      46.940  26.254  26.502  1.00  0.00     0.049 A 
ATOM     44  N   UNL A   1      45.249  28.117  28.169  1.00  0.00    -0.248 NA
ATOM     45  C   UNL A   1      43.560  26.504  28.155  1.00  0.00     0.031 C 
ATOM     46  C   UNL A   1      47.808  25.380  25.714  1.00  0.00     0.029 A 
ATOM     47  N   UNL A   1      47.710  27.364  26.746  1.00  0.00    -0.354 N 
ATOM     48  C   UNL A   1      44.165  28.576  28.908  1.00  0.00     0.074 A 
ATOM     49  C   UNL A   1      43.141  27.557  28.840  1.00  0.00     0.031 C 
ATOM     50  C   UNL A   1      48.989  25.997  25.527  1.00  0.00     0.029 A 
ATOM     51  C   UNL A   1      48.946  27.320  26.147  1.00  0.00     0.049 A 
ATOM     52  H   UNL A   1      47.404  28.120  27.297  1.00  0.00     0.167 HD
ATOM     53  C   UNL A   1      44.035  29.741  29.586  1.00  0.00     0.031 A 
ATOM     54  C   UNL A   1      49.918  28.253  26.082  1.00  0.00     0.031 A 
ATOM     55  C   UNL A   1      45.051  30.757  29.639  1.00  0.00     0.049 A 
ATOM     56  C   UNL A   1      49.715  29.579  26.773  1.00  0.00     0.074 A 
ATOM     57  C   UNL A   1      45.020  31.966  30.311  1.00  0.00     0.029 A 
ATOM     58  N   UNL A   1      46.273  30.692  28.989  1.00  0.00    -0.354 N 
ATOM     59  N   UNL A   1      48.696  29.988  27.493  1.00  0.00    -0.248 NA
ATOM     60  C   UNL A   1      50.796  30.567  26.648  1.00  0.00     0.031 C 
ATOM     61  C   UNL A   1      46.196  32.661  30.012  1.00  0.00     0.029 A 
ATOM     62  C   UNL A   1      46.992  31.853  29.216  1.00  0.00     0.049 A 
ATOM     63  H   UNL A   1      46.585  29.931  28.447  1.00  0.00     0.167 HD
ATOM     64  C   UNL A   1      49.029  31.267  27.930  1.00  0.00     0.074 A 
ATOM     65  C   UNL A   1      50.349  31.556  27.410  1.00  0.00     0.031 C 
ATOM     66  C   UNL A   1      48.308  32.126  28.694  1.00  0.00     0.031 A 
BRANCH  53  67
ATOM     67  C   UNL A   1      42.729  29.999  30.291  1.00  0.00    -0.014 A 
ATOM     68  C   UNL A   1      41.664  30.653  29.646  1.00  0.00     0.010 A 
ATOM     69  C   UNL A   1      42.548  29.528  31.605  1.00  0.00     0.010 A 
ATOM     70  C   UNL A   1      40.451  30.854  30.313  1.00  0.00     0.020 A 
ATOM     71  C   UNL A   1      41.328  29.700  32.263  1.00  0.00     0.020 A 
ATOM     72  C   UNL A   1      40.291  30.373  31.617  1.00  0.00     0.054 A 
BRANCH  72  73
ATOM     73  S   UNL A   1      38.692  30.612  32.438  1.00  0.00     0.124 S 
ATOM     74  O   UNL A   1      39.092  31.210  33.710  1.00  0.00    -0.237 OA
ATOM     75  O   UNL A   1      37.990  31.504  31.519  1.00  0.00    -0.237 OA
ATOM     76  O   UNL A   1      38.143  29.261  32.532  1.00  0.00    -0.744 OA
ENDBRANCH  72  73
ENDBRANCH  53  67
BRANCH  54  77
ATOM     77  C   UNL A   1      51.164  27.986  25.307  1.00  0.00    -0.014 A 
ATOM     78  C   UNL A   1      52.313  27.478  25.939  1.00  0.00     0.010 A 
ATOM     79  C   UNL A   1      51.213  28.264  23.928  1.00  0.00     0.010 A 
ATOM     80  C   UNL A   1      53.491  27.277  25.213  1.00  0.00     0.020 A 
ATOM     81  C   UNL A   1      52.378  28.032  23.193  1.00  0.00     0.020 A 
ATOM     82  C   UNL A   1      53.515  27.552  23.843  1.00  0.00     0.054 A 
BRANCH  82  83
ATOM     83  S   UNL A   1      55.042  27.240  22.914  1.00  0.00     0.124 S 
ATOM     84  O   UNL A   1      55.606  28.581  22.798  1.00  0.00    -0.237 OA
ATOM     85  O   UNL A   1      55.763  26.324  23.796  1.00  0.00    -0.237 OA
ATOM     86  O   UNL A   1      54.569  26.647  21.667  1.00  0.00    -0.744 OA
ENDBRANCH  82  83
ENDBRANCH  54  77
BRANCH  66  87
ATOM     87  C   UNL A   1      48.943  33.445  29.057  1.00  0.00    -0.014 A 
ATOM     88  C   UNL A   1      48.760  34.591  28.263  1.00  0.00     0.010 A 
ATOM     89  C   UNL A   1      49.684  33.552  30.249  1.00  0.00     0.010 A 
ATOM     90  C   UNL A   1      49.334  35.810  28.637  1.00  0.00     0.020 A 
ATOM     91  C   UNL A   1      50.231  34.775  30.643  1.00  0.00     0.020 A 
ATOM     92  C   UNL A   1      50.064  35.894  29.826  1.00  0.00     0.054 A 
BRANCH  92  93
ATOM     93  S   UNL A   1      50.760  37.497  30.311  1.00  0.00     0.124 S 
ATOM     94  O   UNL A   1      49.591  38.370  30.240  1.00  0.00    -0.237 OA
ATOM     95  O   UNL A   1      51.266  37.233  31.656  1.00  0.00    -0.237 OA
ATOM     96  O   UNL A   1      51.787  37.749  29.304  1.00  0.00    -0.744 OA
ENDBRANCH  92  93
ENDBRANCH  66  87
ENDBRANCH  40  41
ENDBRANCH  33  35
ENDBRANCH  32  33
ENDBRANCH  31  32
ENDBRANCH  30  31
ENDBRANCH  29  30
ENDBRANCH  28  29
ENDBRANCH  27  28
ENDBRANCH  26  27
ENDBRANCH   1  26
TORSDOF 27
ENDMDL
