MODEL 1
REMARK VINA RESULT:      -8.1      0.000      0.000
REMARK SMILES Cc1cc(C[N@H+]2CCN(C)C(=O)C2(C)C)oc1C(=O)OCCOCCOCCOCCOC(=O)c1ccc(-c2c3nc(c(-c4ccc(S(=O)(=O)[O-])cc4)c4ccc([nH]4)c(-c4ccc(S(=O)(=O)[O-])cc4)c4nc(c(-c5ccc(S(=O)(=O)[O-])cc5)c5ccc2[nH]5)C=C4)C=C3)cc1
REMARK SMILES IDX 27 1 26 2 25 3 24 4 23 5 22 6 21 7 20 8 18 9 19 10 17 11
REMARK SMILES IDX 1 12 2 13 3 14 4 15 16 16 5 17 6 18 7 19 13 20 8 22 11 23
REMARK SMILES IDX 14 24 15 25 9 26 12 27 10 28 28 29 29 30 30 31 31 32 32 33
REMARK SMILES IDX 33 34 34 35 35 36 36 37 94 38 37 39 93 40 38 41 39 42 40 43
REMARK SMILES IDX 87 44 41 45 92 46 86 47 88 48 42 49 91 50 85 51 84 52 43 54
REMARK SMILES IDX 73 55 54 56 72 57 55 58 58 59 71 60 89 61 56 62 57 63 70 65
REMARK SMILES IDX 90 66 59 67 44 68 45 69 53 70 46 71 52 72 47 73 48 74 49 75
REMARK SMILES IDX 50 76 51 77 74 78 75 79 83 80 76 81 82 82 77 83 78 84 79 85
REMARK SMILES IDX 80 86 81 87 60 88 61 89 69 90 62 91 68 92 63 93 64 94 65 95
REMARK SMILES IDX 66 96 67 97
REMARK H PARENT 6 21 88 53 58 64
REMARK Flexibility Score: inf
ROOT
ATOM      1  C   UNL A   1      36.689  29.432  29.008  1.00  0.00     0.188 C 
ENDROOT
BRANCH   1   2
ATOM      2  O   UNL A   1      35.577  29.674  28.158  1.00  0.00    -0.377 OA
BRANCH   2   3
ATOM      3  C   UNL A   1      35.359  31.027  27.780  1.00  0.00     0.188 C 
BRANCH   3   4
ATOM      4  C   UNL A   1      34.048  31.741  28.150  1.00  0.00     0.188 C 
BRANCH   4   5
ATOM      5  O   UNL A   1      33.020  31.546  27.179  1.00  0.00    -0.376 OA
BRANCH   5   6
ATOM      6  C   UNL A   1      32.588  30.205  26.983  1.00  0.00     0.202 C 
BRANCH   6   7
ATOM      7  C   UNL A   1      31.837  30.023  25.661  1.00  0.00     0.261 C 
BRANCH   7   8
ATOM      8  O   UNL A   1      31.572  28.656  25.313  1.00  0.00    -0.457 OA
BRANCH   8   9
ATOM      9  C   UNL A   1      32.042  28.183  24.130  1.00  0.00     0.374 C 
ATOM     10  O   UNL A   1      32.789  28.807  23.383  1.00  0.00    -0.242 OA
BRANCH   9  11
ATOM     11  C   UNL A   1      31.622  26.807  23.967  1.00  0.00     0.215 A 
ATOM     12  C   UNL A   1      29.032  26.819  23.659  1.00  0.00     0.049 C 
ATOM     13  C   UNL A   1      30.383  26.210  23.767  1.00  0.00     0.003 A 
ATOM     14  C   UNL A   1      30.641  24.820  23.647  1.00  0.00     0.056 A 
ATOM     15  C   UNL A   1      31.967  24.610  23.951  1.00  0.00     0.159 A 
ATOM     16  O   UNL A   1      32.579  25.825  24.099  1.00  0.00    -0.448 OA
BRANCH  15  17
ATOM     17  C   UNL A   1      32.843  23.399  24.063  1.00  0.00     0.339 C 
BRANCH  17  18
ATOM     18  N   UNL A   1      32.868  22.642  25.334  1.00  0.00    -0.315 N 
ATOM     19  C   UNL A   1      31.886  21.555  25.394  1.00  0.00     0.285 C 
ATOM     20  C   UNL A   1      34.188  22.226  25.891  1.00  0.00     0.172 C 
ATOM     21  H   UNL A   1      32.581  23.378  25.978  1.00  0.00     0.349 HD
ATOM     22  C   UNL A   1      32.358  20.265  24.730  1.00  0.00     0.180 C 
ATOM     23  C   UNL A   1      34.707  20.881  25.288  1.00  0.00     0.283 C 
ATOM     24  C   UNL A   1      35.246  23.345  25.770  1.00  0.00     0.090 C 
ATOM     25  C   UNL A   1      34.053  21.944  27.410  1.00  0.00     0.090 C 
ATOM     26  N   UNL A   1      33.754  19.919  24.957  1.00  0.00    -0.335 N 
ATOM     27  O   UNL A   1      35.916  20.650  25.214  1.00  0.00    -0.268 OA
ATOM     28  C   UNL A   1      34.175  18.606  24.497  1.00  0.00     0.147 C 
ENDBRANCH  17  18
ENDBRANCH  15  17
ENDBRANCH   9  11
ENDBRANCH   8   9
ENDBRANCH   7   8
ENDBRANCH   6   7
ENDBRANCH   5   6
ENDBRANCH   4   5
ENDBRANCH   3   4
ENDBRANCH   2   3
ENDBRANCH   1   2
BRANCH   1  29
ATOM     29  C   UNL A   1      36.746  30.447  30.163  1.00  0.00     0.188 C 
BRANCH  29  30
ATOM     30  O   UNL A   1      36.272  29.907  31.401  1.00  0.00    -0.376 OA
BRANCH  30  31
ATOM     31  C   UNL A   1      36.579  30.658  32.571  1.00  0.00     0.202 C 
BRANCH  31  32
ATOM     32  C   UNL A   1      37.840  30.242  33.345  1.00  0.00     0.261 C 
BRANCH  32  33
ATOM     33  O   UNL A   1      37.933  30.736  34.693  1.00  0.00    -0.460 OA
BRANCH  33  34
ATOM     34  C   UNL A   1      37.761  32.060  34.886  1.00  0.00     0.338 C 
ATOM     35  O   UNL A   1      36.875  32.609  35.514  1.00  0.00    -0.246 OA
BRANCH  34  36
ATOM     36  C   UNL A   1      38.951  32.747  34.349  1.00  0.00     0.060 A 
ATOM     37  C   UNL A   1      38.783  33.701  33.338  1.00  0.00     0.016 A 
ATOM     38  C   UNL A   1      40.223  32.452  34.849  1.00  0.00     0.016 A 
ATOM     39  C   UNL A   1      39.897  34.343  32.798  1.00  0.00     0.010 A 
ATOM     40  C   UNL A   1      41.339  33.079  34.292  1.00  0.00     0.010 A 
ATOM     41  C   UNL A   1      41.183  34.002  33.244  1.00  0.00    -0.014 A 
BRANCH  41  42
ATOM     42  C   UNL A   1      42.371  34.449  32.483  1.00  0.00     0.031 A 
ATOM     43  C   UNL A   1      42.861  33.578  31.359  1.00  0.00     0.074 A 
ATOM     44  C   UNL A   1      43.007  35.595  32.784  1.00  0.00     0.049 A 
ATOM     45  N   UNL A   1      43.892  33.742  30.573  1.00  0.00    -0.248 NA
ATOM     46  C   UNL A   1      42.081  32.358  31.088  1.00  0.00     0.031 C 
ATOM     47  C   UNL A   1      42.613  36.535  33.832  1.00  0.00     0.029 A 
ATOM     48  N   UNL A   1      44.133  36.153  32.234  1.00  0.00    -0.354 N 
ATOM     49  C   UNL A   1      43.885  32.650  29.714  1.00  0.00     0.074 A 
ATOM     50  C   UNL A   1      42.765  31.816  30.091  1.00  0.00     0.031 C 
ATOM     51  C   UNL A   1      43.493  37.552  33.855  1.00  0.00     0.029 A 
ATOM     52  C   UNL A   1      44.523  37.320  32.843  1.00  0.00     0.049 A 
ATOM     53  H   UNL A   1      44.614  35.755  31.472  1.00  0.00     0.167 HD
ATOM     54  C   UNL A   1      44.733  32.366  28.698  1.00  0.00     0.031 A 
ATOM     55  C   UNL A   1      45.600  38.100  32.620  1.00  0.00     0.031 A 
ATOM     56  C   UNL A   1      45.865  33.175  28.343  1.00  0.00     0.049 A 
ATOM     57  C   UNL A   1      46.572  37.727  31.532  1.00  0.00     0.074 A 
ATOM     58  C   UNL A   1      46.783  32.973  27.329  1.00  0.00     0.029 A 
ATOM     59  N   UNL A   1      46.241  34.335  29.002  1.00  0.00    -0.354 N 
ATOM     60  N   UNL A   1      46.533  36.709  30.704  1.00  0.00    -0.248 NA
ATOM     61  C   UNL A   1      47.731  38.612  31.342  1.00  0.00     0.031 C 
ATOM     62  C   UNL A   1      47.742  33.989  27.403  1.00  0.00     0.029 A 
ATOM     63  C   UNL A   1      47.392  34.849  28.431  1.00  0.00     0.049 A 
ATOM     64  H   UNL A   1      45.762  34.734  29.763  1.00  0.00     0.167 HD
ATOM     65  C   UNL A   1      47.646  36.846  29.881  1.00  0.00     0.074 A 
ATOM     66  C   UNL A   1      48.334  38.048  30.302  1.00  0.00     0.031 C 
ATOM     67  C   UNL A   1      48.061  36.049  28.865  1.00  0.00     0.031 A 
BRANCH  54  68
ATOM     68  C   UNL A   1      44.473  31.104  27.923  1.00  0.00    -0.014 A 
ATOM     69  C   UNL A   1      43.436  31.037  26.976  1.00  0.00     0.010 A 
ATOM     70  C   UNL A   1      45.282  29.974  28.139  1.00  0.00     0.010 A 
ATOM     71  C   UNL A   1      43.186  29.849  26.286  1.00  0.00     0.020 A 
ATOM     72  C   UNL A   1      45.049  28.790  27.433  1.00  0.00     0.020 A 
ATOM     73  C   UNL A   1      43.990  28.731  26.524  1.00  0.00     0.054 A 
BRANCH  73  74
ATOM     74  S   UNL A   1      43.651  27.202  25.609  1.00  0.00     0.124 S 
ATOM     75  O   UNL A   1      44.967  26.881  25.062  1.00  0.00    -0.237 OA
ATOM     76  O   UNL A   1      43.170  26.301  26.654  1.00  0.00    -0.237 OA
ATOM     77  O   UNL A   1      42.648  27.603  24.626  1.00  0.00    -0.744 OA
ENDBRANCH  73  74
ENDBRANCH  54  68
BRANCH  55  78
ATOM     78  C   UNL A   1      45.827  39.311  33.455  1.00  0.00    -0.014 A 
ATOM     79  C   UNL A   1      46.611  39.242  34.619  1.00  0.00     0.010 A 
ATOM     80  C   UNL A   1      45.255  40.543  33.087  1.00  0.00     0.010 A 
ATOM     81  C   UNL A   1      46.808  40.380  35.409  1.00  0.00     0.020 A 
ATOM     82  C   UNL A   1      45.469  41.687  33.860  1.00  0.00     0.020 A 
ATOM     83  C   UNL A   1      46.236  41.596  35.023  1.00  0.00     0.054 A 
BRANCH  83  84
ATOM     84  S   UNL A   1      46.552  43.073  36.029  1.00  0.00     0.124 S 
ATOM     85  O   UNL A   1      45.254  43.737  36.010  1.00  0.00    -0.237 OA
ATOM     86  O   UNL A   1      46.954  42.502  37.312  1.00  0.00    -0.237 OA
ATOM     87  O   UNL A   1      47.619  43.757  35.302  1.00  0.00    -0.744 OA
ENDBRANCH  83  84
ENDBRANCH  55  78
BRANCH  67  88
ATOM     88  C   UNL A   1      49.297  36.465  28.114  1.00  0.00    -0.014 A 
ATOM     89  C   UNL A   1      50.571  36.016  28.502  1.00  0.00     0.010 A 
ATOM     90  C   UNL A   1      49.171  37.265  26.963  1.00  0.00     0.010 A 
ATOM     91  C   UNL A   1      51.702  36.380  27.765  1.00  0.00     0.020 A 
ATOM     92  C   UNL A   1      50.297  37.613  26.211  1.00  0.00     0.020 A 
ATOM     93  C   UNL A   1      51.557  37.177  26.626  1.00  0.00     0.054 A 
BRANCH  93  94
ATOM     94  S   UNL A   1      53.033  37.597  25.656  1.00  0.00     0.124 S 
ATOM     95  O   UNL A   1      52.613  37.255  24.301  1.00  0.00    -0.237 OA
ATOM     96  O   UNL A   1      53.198  39.025  25.922  1.00  0.00    -0.237 OA
ATOM     97  O   UNL A   1      54.073  36.742  26.223  1.00  0.00    -0.744 OA
ENDBRANCH  93  94
ENDBRANCH  67  88
ENDBRANCH  41  42
ENDBRANCH  34  36
ENDBRANCH  33  34
ENDBRANCH  32  33
ENDBRANCH  31  32
ENDBRANCH  30  31
ENDBRANCH  29  30
ENDBRANCH   1  29
TORSDOF 25
ENDMDL
MODEL 2
REMARK VINA RESULT:      -7.9      8.342     13.313
REMARK SMILES Cc1cc(C[N@H+]2CCN(C)C(=O)C2(C)C)oc1C(=O)OCCOCCOCCOCCOC(=O)c1ccc(-c2c3nc(c(-c4ccc(S(=O)(=O)[O-])cc4)c4ccc([nH]4)c(-c4ccc(S(=O)(=O)[O-])cc4)c4nc(c(-c5ccc(S(=O)(=O)[O-])cc5)c5ccc2[nH]5)C=C4)C=C3)cc1
REMARK SMILES IDX 27 1 26 2 25 3 24 4 23 5 22 6 21 7 20 8 18 9 19 10 17 11
REMARK SMILES IDX 1 12 2 13 3 14 4 15 16 16 5 17 6 18 7 19 13 20 8 22 11 23
REMARK SMILES IDX 14 24 15 25 9 26 12 27 10 28 28 29 29 30 30 31 31 32 32 33
REMARK SMILES IDX 33 34 34 35 35 36 36 37 94 38 37 39 93 40 38 41 39 42 40 43
REMARK SMILES IDX 87 44 41 45 92 46 86 47 88 48 42 49 91 50 85 51 84 52 43 54
REMARK SMILES IDX 73 55 54 56 72 57 55 58 58 59 71 60 89 61 56 62 57 63 70 65
REMARK SMILES IDX 90 66 59 67 44 68 45 69 53 70 46 71 52 72 47 73 48 74 49 75
REMARK SMILES IDX 50 76 51 77 74 78 75 79 83 80 76 81 82 82 77 83 78 84 79 85
REMARK SMILES IDX 80 86 81 87 60 88 61 89 69 90 62 91 68 92 63 93 64 94 65 95
REMARK SMILES IDX 66 96 67 97
REMARK H PARENT 6 21 88 53 58 64
REMARK Flexibility Score: inf
ROOT
ATOM      1  C   UNL A   1      51.280  20.853  36.379  1.00  0.00     0.188 C 
ENDROOT
BRANCH   1   2
ATOM      2  O   UNL A   1      51.658  19.570  35.902  1.00  0.00    -0.377 OA
BRANCH   2   3
ATOM      3  C   UNL A   1      52.130  19.514  34.563  1.00  0.00     0.188 C 
BRANCH   3   4
ATOM      4  C   UNL A   1      53.619  19.736  34.248  1.00  0.00     0.188 C 
BRANCH   4   5
ATOM      5  O   UNL A   1      53.824  20.534  33.082  1.00  0.00    -0.376 OA
BRANCH   5   6
ATOM      6  C   UNL A   1      52.654  21.065  32.472  1.00  0.00     0.202 C 
BRANCH   6   7
ATOM      7  C   UNL A   1      52.435  22.540  32.818  1.00  0.00     0.261 C 
BRANCH   7   8
ATOM      8  O   UNL A   1      51.369  23.169  32.092  1.00  0.00    -0.457 OA
BRANCH   8   9
ATOM      9  C   UNL A   1      50.406  23.825  32.788  1.00  0.00     0.374 C 
ATOM     10  O   UNL A   1      49.844  23.376  33.782  1.00  0.00    -0.242 OA
BRANCH   9  11
ATOM     11  C   UNL A   1      50.251  25.159  32.245  1.00  0.00     0.215 A 
ATOM     12  C   UNL A   1      51.145  26.832  34.036  1.00  0.00     0.049 C 
ATOM     13  C   UNL A   1      50.551  26.423  32.736  1.00  0.00     0.003 A 
ATOM     14  C   UNL A   1      50.195  27.330  31.705  1.00  0.00     0.056 A 
ATOM     15  C   UNL A   1      49.542  26.618  30.724  1.00  0.00     0.159 A 
ATOM     16  O   UNL A   1      49.618  25.286  31.029  1.00  0.00    -0.448 OA
BRANCH  15  17
ATOM     17  C   UNL A   1      48.879  26.974  29.429  1.00  0.00     0.339 C 
BRANCH  17  18
ATOM     18  N   UNL A   1      49.298  26.282  28.189  1.00  0.00    -0.315 N 
ATOM     19  C   UNL A   1      48.422  25.171  27.808  1.00  0.00     0.285 C 
ATOM     20  C   UNL A   1      49.690  27.107  27.010  1.00  0.00     0.172 C 
ATOM     21  H   UNL A   1      50.192  25.903  28.499  1.00  0.00     0.349 HD
ATOM     22  C   UNL A   1      47.183  25.605  27.030  1.00  0.00     0.180 C 
ATOM     23  C   UNL A   1      48.470  27.544  26.139  1.00  0.00     0.283 C 
ATOM     24  C   UNL A   1      50.560  28.318  27.414  1.00  0.00     0.090 C 
ATOM     25  C   UNL A   1      50.572  26.265  26.050  1.00  0.00     0.090 C 
ATOM     26  N   UNL A   1      47.400  26.655  26.045  1.00  0.00    -0.335 N 
ATOM     27  O   UNL A   1      48.508  28.586  25.480  1.00  0.00    -0.268 OA
ATOM     28  C   UNL A   1      46.284  26.951  25.162  1.00  0.00     0.147 C 
ENDBRANCH  17  18
ENDBRANCH  15  17
ENDBRANCH   9  11
ENDBRANCH   8   9
ENDBRANCH   7   8
ENDBRANCH   6   7
ENDBRANCH   5   6
ENDBRANCH   4   5
ENDBRANCH   3   4
ENDBRANCH   2   3
ENDBRANCH   1   2
BRANCH   1  29
ATOM     29  C   UNL A   1      50.390  20.750  37.631  1.00  0.00     0.188 C 
BRANCH  29  30
ATOM     30  O   UNL A   1      49.598  19.558  37.652  1.00  0.00    -0.376 OA
BRANCH  30  31
ATOM     31  C   UNL A   1      49.046  19.195  38.913  1.00  0.00     0.202 C 
BRANCH  31  32
ATOM     32  C   UNL A   1      47.511  19.182  39.015  1.00  0.00     0.261 C 
BRANCH  32  33
ATOM     33  O   UNL A   1      46.827  20.141  38.190  1.00  0.00    -0.460 OA
BRANCH  33  34
ATOM     34  C   UNL A   1      46.572  21.354  38.723  1.00  0.00     0.338 C 
ATOM     35  O   UNL A   1      46.605  21.669  39.898  1.00  0.00    -0.246 OA
BRANCH  34  36
ATOM     36  C   UNL A   1      46.418  22.307  37.607  1.00  0.00     0.060 A 
ATOM     37  C   UNL A   1      47.284  22.211  36.512  1.00  0.00     0.016 A 
ATOM     38  C   UNL A   1      45.418  23.283  37.644  1.00  0.00     0.016 A 
ATOM     39  C   UNL A   1      47.174  23.119  35.459  1.00  0.00     0.010 A 
ATOM     40  C   UNL A   1      45.323  24.204  36.600  1.00  0.00     0.010 A 
ATOM     41  C   UNL A   1      46.220  24.145  35.520  1.00  0.00    -0.014 A 
BRANCH  41  42
ATOM     42  C   UNL A   1      46.289  25.275  34.567  1.00  0.00     0.031 A 
ATOM     43  C   UNL A   1      45.584  25.132  33.246  1.00  0.00     0.074 A 
ATOM     44  C   UNL A   1      46.965  26.400  34.860  1.00  0.00     0.049 A 
ATOM     45  N   UNL A   1      45.527  25.968  32.243  1.00  0.00    -0.248 NA
ATOM     46  C   UNL A   1      44.846  23.875  33.030  1.00  0.00     0.031 C 
ATOM     47  C   UNL A   1      47.665  26.668  36.115  1.00  0.00     0.029 A 
ATOM     48  N   UNL A   1      47.180  27.525  34.106  1.00  0.00    -0.354 N 
ATOM     49  C   UNL A   1      44.747  25.341  31.278  1.00  0.00     0.074 A 
ATOM     50  C   UNL A   1      44.376  24.045  31.803  1.00  0.00     0.031 C 
ATOM     51  C   UNL A   1      48.243  27.880  36.039  1.00  0.00     0.029 A 
ATOM     52  C   UNL A   1      47.974  28.460  34.724  1.00  0.00     0.049 A 
ATOM     53  H   UNL A   1      46.799  27.652  33.206  1.00  0.00     0.167 HD
ATOM     54  C   UNL A   1      44.369  25.803  30.064  1.00  0.00     0.031 A 
ATOM     55  C   UNL A   1      48.444  29.639  34.271  1.00  0.00     0.031 A 
ATOM     56  C   UNL A   1      44.764  27.075  29.527  1.00  0.00     0.049 A 
ATOM     57  C   UNL A   1      48.071  30.102  32.886  1.00  0.00     0.074 A 
ATOM     58  C   UNL A   1      44.432  27.635  28.306  1.00  0.00     0.029 A 
ATOM     59  N   UNL A   1      45.590  27.981  30.174  1.00  0.00    -0.354 N 
ATOM     60  N   UNL A   1      47.304  29.514  31.999  1.00  0.00    -0.248 NA
ATOM     61  C   UNL A   1      48.621  31.393  32.445  1.00  0.00     0.031 C 
ATOM     62  C   UNL A   1      45.095  28.862  28.196  1.00  0.00     0.029 A 
ATOM     63  C   UNL A   1      45.799  29.087  29.369  1.00  0.00     0.049 A 
ATOM     64  H   UNL A   1      45.973  27.856  31.072  1.00  0.00     0.167 HD
ATOM     65  C   UNL A   1      47.261  30.374  30.905  1.00  0.00     0.074 A 
ATOM     66  C   UNL A   1      48.069  31.526  31.246  1.00  0.00     0.031 C 
ATOM     67  C   UNL A   1      46.607  30.225  29.726  1.00  0.00     0.031 A 
BRANCH  54  68
ATOM     68  C   UNL A   1      43.507  24.900  29.227  1.00  0.00    -0.014 A 
ATOM     69  C   UNL A   1      42.133  25.156  29.067  1.00  0.00     0.010 A 
ATOM     70  C   UNL A   1      44.079  23.787  28.585  1.00  0.00     0.010 A 
ATOM     71  C   UNL A   1      41.338  24.291  28.312  1.00  0.00     0.020 A 
ATOM     72  C   UNL A   1      43.290  22.933  27.810  1.00  0.00     0.020 A 
ATOM     73  C   UNL A   1      41.920  23.181  27.694  1.00  0.00     0.054 A 
BRANCH  73  74
ATOM     74  S   UNL A   1      40.868  22.077  26.712  1.00  0.00     0.124 S 
ATOM     75  O   UNL A   1      39.715  22.931  26.434  1.00  0.00    -0.237 OA
ATOM     76  O   UNL A   1      41.711  21.768  25.560  1.00  0.00    -0.237 OA
ATOM     77  O   UNL A   1      40.611  20.955  27.611  1.00  0.00    -0.744 OA
ENDBRANCH  73  74
ENDBRANCH  54  68
BRANCH  55  78
ATOM     78  C   UNL A   1      49.334  30.466  35.130  1.00  0.00    -0.014 A 
ATOM     79  C   UNL A   1      50.729  30.302  35.084  1.00  0.00     0.010 A 
ATOM     80  C   UNL A   1      48.787  31.422  36.006  1.00  0.00     0.010 A 
ATOM     81  C   UNL A   1      51.561  31.069  35.905  1.00  0.00     0.020 A 
ATOM     82  C   UNL A   1      49.616  32.207  36.811  1.00  0.00     0.020 A 
ATOM     83  C   UNL A   1      50.998  32.019  36.763  1.00  0.00     0.054 A 
BRANCH  83  84
ATOM     84  S   UNL A   1      52.098  33.046  37.779  1.00  0.00     0.124 S 
ATOM     85  O   UNL A   1      51.216  33.451  38.867  1.00  0.00    -0.237 OA
ATOM     86  O   UNL A   1      53.161  32.111  38.138  1.00  0.00    -0.237 OA
ATOM     87  O   UNL A   1      52.502  34.113  36.866  1.00  0.00    -0.744 OA
ENDBRANCH  83  84
ENDBRANCH  55  78
BRANCH  67  88
ATOM     88  C   UNL A   1      46.710  31.346  28.727  1.00  0.00    -0.014 A 
ATOM     89  C   UNL A   1      47.678  31.327  27.708  1.00  0.00     0.010 A 
ATOM     90  C   UNL A   1      45.778  32.399  28.772  1.00  0.00     0.010 A 
ATOM     91  C   UNL A   1      47.728  32.358  26.765  1.00  0.00     0.020 A 
ATOM     92  C   UNL A   1      45.812  33.419  27.817  1.00  0.00     0.020 A 
ATOM     93  C   UNL A   1      46.795  33.397  26.826  1.00  0.00     0.054 A 
BRANCH  93  94
ATOM     94  S   UNL A   1      46.848  34.699  25.563  1.00  0.00     0.124 S 
ATOM     95  O   UNL A   1      45.789  34.278  24.650  1.00  0.00    -0.237 OA
ATOM     96  O   UNL A   1      46.571  35.909  26.334  1.00  0.00    -0.237 OA
ATOM     97  O   UNL A   1      48.205  34.607  25.029  1.00  0.00    -0.744 OA
ENDBRANCH  93  94
ENDBRANCH  67  88
ENDBRANCH  41  42
ENDBRANCH  34  36
ENDBRANCH  33  34
ENDBRANCH  32  33
ENDBRANCH  31  32
ENDBRANCH  30  31
ENDBRANCH  29  30
ENDBRANCH   1  29
TORSDOF 25
ENDMDL
MODEL 3
REMARK VINA RESULT:      -7.7      6.086     13.615
REMARK SMILES Cc1cc(C[N@H+]2CCN(C)C(=O)C2(C)C)oc1C(=O)OCCOCCOCCOCCOC(=O)c1ccc(-c2c3nc(c(-c4ccc(S(=O)(=O)[O-])cc4)c4ccc([nH]4)c(-c4ccc(S(=O)(=O)[O-])cc4)c4nc(c(-c5ccc(S(=O)(=O)[O-])cc5)c5ccc2[nH]5)C=C4)C=C3)cc1
REMARK SMILES IDX 27 1 26 2 25 3 24 4 23 5 22 6 21 7 20 8 18 9 19 10 17 11
REMARK SMILES IDX 1 12 2 13 3 14 4 15 16 16 5 17 6 18 7 19 13 20 8 22 11 23
REMARK SMILES IDX 14 24 15 25 9 26 12 27 10 28 28 29 29 30 30 31 31 32 32 33
REMARK SMILES IDX 33 34 34 35 35 36 36 37 94 38 37 39 93 40 38 41 39 42 40 43
REMARK SMILES IDX 87 44 41 45 92 46 86 47 88 48 42 49 91 50 85 51 84 52 43 54
REMARK SMILES IDX 73 55 54 56 72 57 55 58 58 59 71 60 89 61 56 62 57 63 70 65
REMARK SMILES IDX 90 66 59 67 44 68 45 69 53 70 46 71 52 72 47 73 48 74 49 75
REMARK SMILES IDX 50 76 51 77 74 78 75 79 83 80 76 81 82 82 77 83 78 84 79 85
REMARK SMILES IDX 80 86 81 87 60 88 61 89 69 90 62 91 68 92 63 93 64 94 65 95
REMARK SMILES IDX 66 96 67 97
REMARK H PARENT 6 21 88 53 58 64
REMARK Flexibility Score: inf
ROOT
ATOM      1  C   UNL A   1      47.579  26.369  26.252  1.00  0.00     0.188 C 
ENDROOT
BRANCH   1   2
ATOM      2  O   UNL A   1      48.668  26.564  27.145  1.00  0.00    -0.377 OA
BRANCH   2   3
ATOM      3  C   UNL A   1      49.171  27.891  27.238  1.00  0.00     0.188 C 
BRANCH   3   4
ATOM      4  C   UNL A   1      50.632  28.147  27.642  1.00  0.00     0.188 C 
BRANCH   4   5
ATOM      5  O   UNL A   1      50.754  28.707  28.949  1.00  0.00    -0.376 OA
BRANCH   5   6
ATOM      6  C   UNL A   1      50.957  30.114  29.011  1.00  0.00     0.202 C 
BRANCH   6   7
ATOM      7  C   UNL A   1      49.655  30.898  28.821  1.00  0.00     0.261 C 
BRANCH   7   8
ATOM      8  O   UNL A   1      49.196  31.580  29.998  1.00  0.00    -0.457 OA
BRANCH   8   9
ATOM      9  C   UNL A   1      48.229  30.996  30.752  1.00  0.00     0.374 C 
ATOM     10  O   UNL A   1      48.362  30.694  31.934  1.00  0.00    -0.242 OA
BRANCH   9  11
ATOM     11  C   UNL A   1      47.008  30.911  29.977  1.00  0.00     0.215 A 
ATOM     12  C   UNL A   1      46.598  28.389  29.455  1.00  0.00     0.049 C 
ATOM     13  C   UNL A   1      46.305  29.846  29.428  1.00  0.00     0.003 A 
ATOM     14  C   UNL A   1      45.161  30.416  28.815  1.00  0.00     0.056 A 
ATOM     15  C   UNL A   1      45.299  31.785  28.854  1.00  0.00     0.159 A 
ATOM     16  O   UNL A   1      46.401  32.091  29.606  1.00  0.00    -0.448 OA
BRANCH  15  17
ATOM     17  C   UNL A   1      44.492  32.940  28.345  1.00  0.00     0.339 C 
BRANCH  17  18
ATOM     18  N   UNL A   1      44.343  34.145  29.191  1.00  0.00    -0.315 N 
ATOM     19  C   UNL A   1      45.137  35.289  28.735  1.00  0.00     0.285 C 
ATOM     20  C   UNL A   1      42.972  34.556  29.612  1.00  0.00     0.172 C 
ATOM     21  H   UNL A   1      44.743  33.795  30.061  1.00  0.00     0.349 HD
ATOM     22  C   UNL A   1      44.466  36.101  27.632  1.00  0.00     0.180 C 
ATOM     23  C   UNL A   1      42.245  35.435  28.545  1.00  0.00     0.283 C 
ATOM     24  C   UNL A   1      42.108  33.346  30.031  1.00  0.00     0.090 C 
ATOM     25  C   UNL A   1      43.057  35.461  30.869  1.00  0.00     0.090 C 
ATOM     26  N   UNL A   1      43.031  36.301  27.786  1.00  0.00    -0.335 N 
ATOM     27  O   UNL A   1      41.015  35.435  28.462  1.00  0.00    -0.268 OA
ATOM     28  C   UNL A   1      42.405  37.226  26.856  1.00  0.00     0.147 C 
ENDBRANCH  17  18
ENDBRANCH  15  17
ENDBRANCH   9  11
ENDBRANCH   8   9
ENDBRANCH   7   8
ENDBRANCH   6   7
ENDBRANCH   5   6
ENDBRANCH   4   5
ENDBRANCH   3   4
ENDBRANCH   2   3
ENDBRANCH   1   2
BRANCH   1  29
ATOM     29  C   UNL A   1      47.389  24.880  25.914  1.00  0.00     0.188 C 
BRANCH  29  30
ATOM     30  O   UNL A   1      47.040  24.663  24.543  1.00  0.00    -0.376 OA
BRANCH  30  31
ATOM     31  C   UNL A   1      46.338  23.456  24.258  1.00  0.00     0.202 C 
BRANCH  31  32
ATOM     32  C   UNL A   1      45.124  23.140  25.146  1.00  0.00     0.261 C 
BRANCH  32  33
ATOM     33  O   UNL A   1      43.843  23.491  24.595  1.00  0.00    -0.460 OA
BRANCH  33  34
ATOM     34  C   UNL A   1      42.743  23.109  25.277  1.00  0.00     0.338 C 
ATOM     35  O   UNL A   1      42.194  22.024  25.250  1.00  0.00    -0.246 OA
BRANCH  34  36
ATOM     36  C   UNL A   1      42.409  24.191  26.224  1.00  0.00     0.060 A 
ATOM     37  C   UNL A   1      42.872  25.486  25.960  1.00  0.00     0.016 A 
ATOM     38  C   UNL A   1      41.639  23.924  27.358  1.00  0.00     0.016 A 
ATOM     39  C   UNL A   1      42.591  26.518  26.856  1.00  0.00     0.010 A 
ATOM     40  C   UNL A   1      41.377  24.953  28.265  1.00  0.00     0.010 A 
ATOM     41  C   UNL A   1      41.879  26.245  28.033  1.00  0.00    -0.014 A 
BRANCH  41  42
ATOM     42  C   UNL A   1      41.833  27.251  29.118  1.00  0.00     0.031 A 
ATOM     43  C   UNL A   1      42.861  27.161  30.211  1.00  0.00     0.074 A 
ATOM     44  C   UNL A   1      40.898  28.217  29.140  1.00  0.00     0.049 A 
ATOM     45  N   UNL A   1      43.005  27.903  31.276  1.00  0.00    -0.248 NA
ATOM     46  C   UNL A   1      43.861  26.085  30.083  1.00  0.00     0.031 C 
ATOM     47  C   UNL A   1      39.866  28.424  28.125  1.00  0.00     0.029 A 
ATOM     48  N   UNL A   1      40.665  29.202  30.066  1.00  0.00    -0.354 N 
ATOM     49  C   UNL A   1      44.110  27.389  31.945  1.00  0.00     0.074 A 
ATOM     50  C   UNL A   1      44.582  26.255  31.181  1.00  0.00     0.031 C 
ATOM     51  C   UNL A   1      39.101  29.468  28.492  1.00  0.00     0.029 A 
ATOM     52  C   UNL A   1      39.574  29.984  29.776  1.00  0.00     0.049 A 
ATOM     53  H   UNL A   1      41.228  29.336  30.863  1.00  0.00     0.167 HD
ATOM     54  C   UNL A   1      44.684  27.823  33.091  1.00  0.00     0.031 A 
ATOM     55  C   UNL A   1      39.012  30.989  30.477  1.00  0.00     0.031 A 
ATOM     56  C   UNL A   1      44.196  28.928  33.868  1.00  0.00     0.049 A 
ATOM     57  C   UNL A   1      39.624  31.409  31.788  1.00  0.00     0.074 A 
ATOM     58  C   UNL A   1      44.709  29.446  35.043  1.00  0.00     0.029 A 
ATOM     59  N   UNL A   1      43.074  29.677  33.554  1.00  0.00    -0.354 N 
ATOM     60  N   UNL A   1      40.690  30.935  32.391  1.00  0.00    -0.248 NA
ATOM     61  C   UNL A   1      38.962  32.505  32.512  1.00  0.00     0.031 C 
ATOM     62  C   UNL A   1      43.869  30.482  35.465  1.00  0.00     0.029 A 
ATOM     63  C   UNL A   1      42.863  30.640  34.525  1.00  0.00     0.049 A 
ATOM     64  H   UNL A   1      42.509  29.544  32.759  1.00  0.00     0.167 HD
ATOM     65  C   UNL A   1      40.839  31.691  33.549  1.00  0.00     0.074 A 
ATOM     66  C   UNL A   1      39.762  32.659  33.559  1.00  0.00     0.031 C 
ATOM     67  C   UNL A   1      41.784  31.596  34.516  1.00  0.00     0.031 A 
BRANCH  54  68
ATOM     68  C   UNL A   1      45.889  27.068  33.580  1.00  0.00    -0.014 A 
ATOM     69  C   UNL A   1      45.749  25.955  34.428  1.00  0.00     0.010 A 
ATOM     70  C   UNL A   1      47.175  27.472  33.180  1.00  0.00     0.010 A 
ATOM     71  C   UNL A   1      46.878  25.283  34.901  1.00  0.00     0.020 A 
ATOM     72  C   UNL A   1      48.305  26.787  33.633  1.00  0.00     0.020 A 
ATOM     73  C   UNL A   1      48.150  25.707  34.504  1.00  0.00     0.054 A 
BRANCH  73  74
ATOM     74  S   UNL A   1      49.600  24.812  35.125  1.00  0.00     0.124 S 
ATOM     75  O   UNL A   1      48.990  23.622  35.712  1.00  0.00    -0.237 OA
ATOM     76  O   UNL A   1      50.380  24.582  33.911  1.00  0.00    -0.237 OA
ATOM     77  O   UNL A   1      50.199  25.742  36.079  1.00  0.00    -0.744 OA
ENDBRANCH  73  74
ENDBRANCH  54  68
BRANCH  55  78
ATOM     78  C   UNL A   1      37.790  31.664  29.962  1.00  0.00    -0.014 A 
ATOM     79  C   UNL A   1      37.884  32.878  29.259  1.00  0.00     0.010 A 
ATOM     80  C   UNL A   1      36.522  31.095  30.178  1.00  0.00     0.010 A 
ATOM     81  C   UNL A   1      36.731  33.516  28.791  1.00  0.00     0.020 A 
ATOM     82  C   UNL A   1      35.369  31.718  29.692  1.00  0.00     0.020 A 
ATOM     83  C   UNL A   1      35.480  32.931  29.010  1.00  0.00     0.054 A 
BRANCH  83  84
ATOM     84  S   UNL A   1      34.002  33.746  28.344  1.00  0.00     0.124 S 
ATOM     85  O   UNL A   1      33.407  34.323  29.544  1.00  0.00    -0.237 OA
ATOM     86  O   UNL A   1      34.567  34.700  27.394  1.00  0.00    -0.237 OA
ATOM     87  O   UNL A   1      33.253  32.647  27.738  1.00  0.00    -0.744 OA
ENDBRANCH  83  84
ENDBRANCH  55  78
BRANCH  67  88
ATOM     88  C   UNL A   1      41.720  32.581  35.653  1.00  0.00    -0.014 A 
ATOM     89  C   UNL A   1      42.432  33.792  35.608  1.00  0.00     0.010 A 
ATOM     90  C   UNL A   1      40.880  32.317  36.750  1.00  0.00     0.010 A 
ATOM     91  C   UNL A   1      42.325  34.711  36.656  1.00  0.00     0.020 A 
ATOM     92  C   UNL A   1      40.753  33.244  37.788  1.00  0.00     0.020 A 
ATOM     93  C   UNL A   1      41.487  34.431  37.739  1.00  0.00     0.054 A 
BRANCH  93  94
ATOM     94  S   UNL A   1      41.325  35.660  39.064  1.00  0.00     0.124 S 
ATOM     95  O   UNL A   1      41.915  36.846  38.450  1.00  0.00    -0.237 OA
ATOM     96  O   UNL A   1      39.880  35.716  39.278  1.00  0.00    -0.237 OA
ATOM     97  O   UNL A   1      42.089  35.082  40.167  1.00  0.00    -0.744 OA
ENDBRANCH  93  94
ENDBRANCH  67  88
ENDBRANCH  41  42
ENDBRANCH  34  36
ENDBRANCH  33  34
ENDBRANCH  32  33
ENDBRANCH  31  32
ENDBRANCH  30  31
ENDBRANCH  29  30
ENDBRANCH   1  29
TORSDOF 25
ENDMDL
