MODEL 1
REMARK VINA RESULT:      -8.8      0.000      0.000
REMARK SMILES CC[C@H](NC(=O)Cc1c(C)c2cc(Cl)c(OC)cc2oc1=O)C(=O)OCCOCCOCCOCCOC(=O)c1ccc(-c2c3nc(c(-c4ccc(S(=O)(=O)[O-])cc4)c4ccc([nH]4)c(-c4ccc(S(=O)(=O)[O-])cc4)c4nc(c(-c5ccc(S(=O)(=O)[O-])cc5)c5ccc2[nH]5)C=C4)C=C3)cc1
REMARK SMILES IDX 30 1 29 2 28 3 27 4 26 5 25 6 23 7 24 8 3 9 2 10 1 11 4 12
REMARK SMILES IDX 5 13 6 15 7 16 8 17 9 18 21 19 10 20 11 21 20 22 22 23 12 24
REMARK SMILES IDX 19 25 13 26 18 27 14 28 15 29 16 30 17 31 31 32 32 33 33 34
REMARK SMILES IDX 34 35 35 36 36 37 37 38 38 39 39 40 40 41 41 42 99 43 42 44
REMARK SMILES IDX 98 45 43 46 44 47 45 48 92 49 46 50 97 51 91 52 93 53 47 54
REMARK SMILES IDX 96 55 90 56 89 57 48 59 78 60 59 61 77 62 60 63 63 64 76 65
REMARK SMILES IDX 94 66 61 67 62 68 75 70 95 71 64 72 49 73 50 74 58 75 51 76
REMARK SMILES IDX 57 77 52 78 53 79 54 80 55 81 56 82 79 83 80 84 88 85 81 86
REMARK SMILES IDX 87 87 82 88 83 89 84 90 85 91 86 92 65 93 66 94 74 95 67 96
REMARK SMILES IDX 73 97 68 98 69 99 70 100 71 101 72 102
REMARK H PARENT 4 14 93 58 63 69
REMARK Flexibility Score: inf
ROOT
ATOM      1  C   UNL A   1      41.448  25.983  26.899  1.00  0.00     0.188 C 
ENDROOT
BRANCH   1   2
ATOM      2  C   UNL A   1      41.060  24.223  26.811  1.00  0.00     0.188 C 
BRANCH   2   3
ATOM      3  O   UNL A   1      39.254  23.335  26.860  1.00  0.00    -0.376 OA
BRANCH   3   4
ATOM      4  C   UNL A   1      37.963  22.978  25.818  1.00  0.00     0.202 C 
BRANCH   4   5
ATOM      5  C   UNL A   1      36.309  23.090  26.099  1.00  0.00     0.261 C 
BRANCH   5   6
ATOM      6  O   UNL A   1      35.511  21.834  26.235  1.00  0.00    -0.462 OA
BRANCH   6   7
ATOM      7  C   UNL A   1      34.178  21.599  26.463  1.00  0.00     0.328 C 
ATOM      8  O   UNL A   1      33.730  21.217  27.536  1.00  0.00    -0.250 OA
BRANCH   7   9
ATOM      9  C   UNL A   1      33.296  22.321  25.340  1.00  0.00     0.192 C 
BRANCH   9  10
ATOM     10  C   UNL A   1      31.817  21.906  25.285  1.00  0.00     0.033 C 
ATOM     11  C   UNL A   1      30.877  23.091  25.379  1.00  0.00     0.007 C 
ENDBRANCH   9  10
BRANCH   9  12
ATOM     12  N   UNL A   1      33.803  22.350  23.975  1.00  0.00    -0.342 N 
ATOM     13  C   UNL A   1      33.922  23.424  23.175  1.00  0.00     0.225 C 
ATOM     14  H   UNL A   1      34.090  21.488  23.596  1.00  0.00     0.164 HD
ATOM     15  O   UNL A   1      34.010  23.243  21.959  1.00  0.00    -0.275 OA
BRANCH  13  16
ATOM     16  C   UNL A   1      34.077  24.793  23.787  1.00  0.00     0.143 C 
BRANCH  16  17
ATOM     17  C   UNL A   1      33.155  25.991  23.536  1.00  0.00     0.051 A 
ATOM     18  C   UNL A   1      32.222  26.674  22.361  1.00  0.00    -0.029 A 
ATOM     19  C   UNL A   1      32.870  26.613  25.435  1.00  0.00     0.340 A 
ATOM     20  C   UNL A   1      31.543  26.185  21.099  1.00  0.00     0.046 C 
ATOM     21  C   UNL A   1      31.158  28.190  22.713  1.00  0.00     0.023 A 
ATOM     22  O   UNL A   1      31.874  28.073  25.534  1.00  0.00    -0.422 OA
ATOM     23  O   UNL A   1      32.985  25.950  26.446  1.00  0.00    -0.246 OA
ATOM     24  C   UNL A   1      30.257  28.751  21.813  1.00  0.00     0.036 A 
ATOM     25  C   UNL A   1      31.047  28.866  24.197  1.00  0.00     0.142 A 
ATOM     26  C   UNL A   1      29.472  29.871  22.228  1.00  0.00     0.083 A 
ATOM     27  C   UNL A   1      30.359  30.001  24.547  1.00  0.00     0.095 A 
ATOM     28  Cl  UNL A   1      28.241  30.412  21.119  1.00  0.00    -0.080 Cl
ATOM     29  C   UNL A   1      29.603  30.537  23.502  1.00  0.00     0.141 A 
BRANCH  29  30
ATOM     30  O   UNL A   1      28.911  31.720  23.684  1.00  0.00    -0.495 OA
ATOM     31  C   UNL A   1      27.507  31.512  23.864  1.00  0.00     0.278 C 
ENDBRANCH  29  30
ENDBRANCH  16  17
ENDBRANCH  13  16
ENDBRANCH   9  12
ENDBRANCH   7   9
ENDBRANCH   6   7
ENDBRANCH   5   6
ENDBRANCH   4   5
ENDBRANCH   3   4
ENDBRANCH   2   3
ENDBRANCH   1   2
BRANCH   1  32
ATOM     32  O   UNL A   1      42.489  26.537  27.729  1.00  0.00    -0.377 OA
BRANCH  32  33
ATOM     33  C   UNL A   1      43.928  26.371  27.691  1.00  0.00     0.188 C 
BRANCH  33  34
ATOM     34  C   UNL A   1      44.366  25.669  29.017  1.00  0.00     0.188 C 
BRANCH  34  35
ATOM     35  O   UNL A   1      45.085  24.453  28.892  1.00  0.00    -0.376 OA
BRANCH  35  36
ATOM     36  C   UNL A   1      44.773  23.721  27.728  1.00  0.00     0.202 C 
BRANCH  36  37
ATOM     37  C   UNL A   1      45.982  23.334  26.858  1.00  0.00     0.261 C 
BRANCH  37  38
ATOM     38  O   UNL A   1      47.052  24.307  26.767  1.00  0.00    -0.460 OA
BRANCH  38  39
ATOM     39  C   UNL A   1      47.050  25.128  25.673  1.00  0.00     0.338 C 
ATOM     40  O   UNL A   1      46.756  24.810  24.533  1.00  0.00    -0.246 OA
BRANCH  39  41
ATOM     41  C   UNL A   1      47.260  26.546  26.102  1.00  0.00     0.060 A 
ATOM     42  C   UNL A   1      46.773  27.603  25.333  1.00  0.00     0.016 A 
ATOM     43  C   UNL A   1      47.920  26.822  27.315  1.00  0.00     0.016 A 
ATOM     44  C   UNL A   1      46.858  28.916  25.817  1.00  0.00     0.010 A 
ATOM     45  C   UNL A   1      48.024  28.140  27.789  1.00  0.00     0.010 A 
ATOM     46  C   UNL A   1      47.437  29.192  27.072  1.00  0.00    -0.014 A 
BRANCH  46  47
ATOM     47  C   UNL A   1      47.099  30.473  27.755  1.00  0.00     0.031 A 
ATOM     48  C   UNL A   1      47.923  31.720  27.649  1.00  0.00     0.074 A 
ATOM     49  C   UNL A   1      45.951  30.486  28.466  1.00  0.00     0.049 A 
ATOM     50  N   UNL A   1      47.623  32.928  28.058  1.00  0.00    -0.248 NA
ATOM     51  C   UNL A   1      49.246  31.612  27.018  1.00  0.00     0.031 C 
ATOM     52  C   UNL A   1      45.073  29.326  28.646  1.00  0.00     0.029 A 
ATOM     53  N   UNL A   1      45.307  31.495  29.137  1.00  0.00    -0.354 N 
ATOM     54  C   UNL A   1      48.699  33.735  27.713  1.00  0.00     0.074 A 
ATOM     55  C   UNL A   1      49.684  32.867  27.097  1.00  0.00     0.031 C 
ATOM     56  C   UNL A   1      43.985  29.698  29.333  1.00  0.00     0.029 A 
ATOM     57  C   UNL A   1      44.094  31.114  29.665  1.00  0.00     0.049 A 
ATOM     58  H   UNL A   1      45.676  32.403  29.232  1.00  0.00     0.167 HD
ATOM     59  C   UNL A   1      48.834  35.073  27.882  1.00  0.00     0.031 A 
ATOM     60  C   UNL A   1      43.152  31.821  30.320  1.00  0.00     0.031 A 
ATOM     61  C   UNL A   1      47.847  35.920  28.511  1.00  0.00     0.049 A 
ATOM     62  C   UNL A   1      43.352  33.293  30.527  1.00  0.00     0.074 A 
ATOM     63  C   UNL A   1      47.878  37.297  28.668  1.00  0.00     0.029 A 
ATOM     64  N   UNL A   1      46.665  35.485  29.095  1.00  0.00    -0.354 N 
ATOM     65  N   UNL A   1      44.333  34.052  30.105  1.00  0.00    -0.248 NA
ATOM     66  C   UNL A   1      42.315  34.007  31.283  1.00  0.00     0.031 C 
ATOM     67  C   UNL A   1      46.760  37.684  29.410  1.00  0.00     0.029 A 
ATOM     68  C   UNL A   1      45.986  36.560  29.647  1.00  0.00     0.049 A 
ATOM     69  H   UNL A   1      46.355  34.551  29.114  1.00  0.00     0.167 HD
ATOM     70  C   UNL A   1      44.018  35.341  30.522  1.00  0.00     0.074 A 
ATOM     71  C   UNL A   1      42.749  35.260  31.215  1.00  0.00     0.031 C 
ATOM     72  C   UNL A   1      44.723  36.482  30.341  1.00  0.00     0.031 A 
BRANCH  59  73
ATOM     73  C   UNL A   1      50.073  35.760  27.358  1.00  0.00    -0.014 A 
ATOM     74  C   UNL A   1      51.319  35.527  27.972  1.00  0.00     0.010 A 
ATOM     75  C   UNL A   1      49.963  36.793  26.411  1.00  0.00     0.010 A 
ATOM     76  C   UNL A   1      52.417  36.346  27.686  1.00  0.00     0.020 A 
ATOM     77  C   UNL A   1      51.065  37.598  26.105  1.00  0.00     0.020 A 
ATOM     78  C   UNL A   1      52.277  37.388  26.767  1.00  0.00     0.054 A 
BRANCH  78  79
ATOM     79  S   UNL A   1      53.689  38.490  26.469  1.00  0.00     0.124 S 
ATOM     80  O   UNL A   1      53.200  39.765  26.983  1.00  0.00    -0.237 OA
ATOM     81  O   UNL A   1      54.753  37.860  27.248  1.00  0.00    -0.237 OA
ATOM     82  O   UNL A   1      53.871  38.430  25.020  1.00  0.00    -0.744 OA
ENDBRANCH  78  79
ENDBRANCH  59  73
BRANCH  60  83
ATOM     83  C   UNL A   1      41.902  31.138  30.753  1.00  0.00    -0.014 A 
ATOM     84  C   UNL A   1      41.822  30.522  32.016  1.00  0.00     0.010 A 
ATOM     85  C   UNL A   1      40.809  31.040  29.875  1.00  0.00     0.010 A 
ATOM     86  C   UNL A   1      40.694  29.783  32.375  1.00  0.00     0.020 A 
ATOM     87  C   UNL A   1      39.663  30.329  30.243  1.00  0.00     0.020 A 
ATOM     88  C   UNL A   1      39.624  29.684  31.482  1.00  0.00     0.054 A 
BRANCH  88  89
ATOM     89  S   UNL A   1      38.175  28.703  31.960  1.00  0.00     0.124 S 
ATOM     90  O   UNL A   1      37.338  29.703  32.615  1.00  0.00    -0.237 OA
ATOM     91  O   UNL A   1      37.684  28.214  30.674  1.00  0.00    -0.237 OA
ATOM     92  O   UNL A   1      38.733  27.679  32.840  1.00  0.00    -0.744 OA
ENDBRANCH  88  89
ENDBRANCH  60  83
BRANCH  72  93
ATOM     93  C   UNL A   1      44.158  37.764  30.900  1.00  0.00    -0.014 A 
ATOM     94  C   UNL A   1      43.573  38.707  30.034  1.00  0.00     0.010 A 
ATOM     95  C   UNL A   1      44.324  38.094  32.257  1.00  0.00     0.010 A 
ATOM     96  C   UNL A   1      43.203  39.970  30.504  1.00  0.00     0.020 A 
ATOM     97  C   UNL A   1      43.925  39.345  32.737  1.00  0.00     0.020 A 
ATOM     98  C   UNL A   1      43.394  40.285  31.850  1.00  0.00     0.054 A 
BRANCH  98  99
ATOM     99  S   UNL A   1      42.950  41.945  32.433  1.00  0.00     0.124 S 
ATOM    100  O   UNL A   1      44.259  42.540  32.687  1.00  0.00    -0.237 OA
ATOM    101  O   UNL A   1      42.216  42.499  31.298  1.00  0.00    -0.237 OA
ATOM    102  O   UNL A   1      42.140  41.688  33.621  1.00  0.00    -0.744 OA
ENDBRANCH  98  99
ENDBRANCH  72  93
ENDBRANCH  46  47
ENDBRANCH  39  41
ENDBRANCH  38  39
ENDBRANCH  37  38
ENDBRANCH  36  37
ENDBRANCH  35  36
ENDBRANCH  34  35
ENDBRANCH  33  34
ENDBRANCH  32  33
ENDBRANCH   1  32
TORSDOF 28
ENDMDL
MODEL 2
REMARK VINA RESULT:      -8.3      5.639      9.861
REMARK SMILES CC[C@H](NC(=O)Cc1c(C)c2cc(Cl)c(OC)cc2oc1=O)C(=O)OCCOCCOCCOCCOC(=O)c1ccc(-c2c3nc(c(-c4ccc(S(=O)(=O)[O-])cc4)c4ccc([nH]4)c(-c4ccc(S(=O)(=O)[O-])cc4)c4nc(c(-c5ccc(S(=O)(=O)[O-])cc5)c5ccc2[nH]5)C=C4)C=C3)cc1
REMARK SMILES IDX 30 1 29 2 28 3 27 4 26 5 25 6 23 7 24 8 3 9 2 10 1 11 4 12
REMARK SMILES IDX 5 13 6 15 7 16 8 17 9 18 21 19 10 20 11 21 20 22 22 23 12 24
REMARK SMILES IDX 19 25 13 26 18 27 14 28 15 29 16 30 17 31 31 32 32 33 33 34
REMARK SMILES IDX 34 35 35 36 36 37 37 38 38 39 39 40 40 41 41 42 99 43 42 44
REMARK SMILES IDX 98 45 43 46 44 47 45 48 92 49 46 50 97 51 91 52 93 53 47 54
REMARK SMILES IDX 96 55 90 56 89 57 48 59 78 60 59 61 77 62 60 63 63 64 76 65
REMARK SMILES IDX 94 66 61 67 62 68 75 70 95 71 64 72 49 73 50 74 58 75 51 76
REMARK SMILES IDX 57 77 52 78 53 79 54 80 55 81 56 82 79 83 80 84 88 85 81 86
REMARK SMILES IDX 87 87 82 88 83 89 84 90 85 91 86 92 65 93 66 94 74 95 67 96
REMARK SMILES IDX 73 97 68 98 69 99 70 100 71 101 72 102
REMARK H PARENT 4 14 93 58 63 69
REMARK Flexibility Score: inf
ROOT
ATOM      1  C   UNL A   1      39.335  24.034  26.828  1.00  0.00     0.188 C 
ENDROOT
BRANCH   1   2
ATOM      2  C   UNL A   1      39.287  25.241  28.168  1.00  0.00     0.188 C 
BRANCH   2   3
ATOM      3  O   UNL A   1      39.162  27.246  28.043  1.00  0.00    -0.376 OA
BRANCH   3   4
ATOM      4  C   UNL A   1      39.955  28.628  28.628  1.00  0.00     0.202 C 
BRANCH   4   5
ATOM      5  C   UNL A   1      39.750  29.430  30.091  1.00  0.00     0.261 C 
BRANCH   5   6
ATOM      6  O   UNL A   1      39.151  30.800  30.088  1.00  0.00    -0.462 OA
BRANCH   6   7
ATOM      7  C   UNL A   1      39.091  31.791  31.035  1.00  0.00     0.328 C 
ATOM      8  O   UNL A   1      39.939  31.954  31.902  1.00  0.00    -0.250 OA
BRANCH   7   9
ATOM      9  C   UNL A   1      38.069  32.931  30.569  1.00  0.00     0.192 C 
BRANCH   9  10
ATOM     10  C   UNL A   1      38.647  34.352  30.489  1.00  0.00     0.033 C 
ATOM     11  C   UNL A   1      39.246  34.661  29.131  1.00  0.00     0.007 C 
ENDBRANCH   9  10
BRANCH   9  12
ATOM     12  N   UNL A   1      36.775  33.012  31.231  1.00  0.00    -0.342 N 
ATOM     13  C   UNL A   1      35.647  33.561  30.746  1.00  0.00     0.225 C 
ATOM     14  H   UNL A   1      36.718  32.621  32.133  1.00  0.00     0.164 HD
ATOM     15  O   UNL A   1      34.761  33.880  31.541  1.00  0.00    -0.275 OA
BRANCH  13  16
ATOM     16  C   UNL A   1      35.444  33.647  29.255  1.00  0.00     0.143 C 
BRANCH  16  17
ATOM     17  C   UNL A   1      34.793  32.570  28.379  1.00  0.00     0.051 A 
ATOM     18  C   UNL A   1      34.967  30.992  27.939  1.00  0.00    -0.029 A 
ATOM     19  C   UNL A   1      33.023  33.460  27.994  1.00  0.00     0.340 A 
ATOM     20  C   UNL A   1      35.642  29.772  28.531  1.00  0.00     0.046 C 
ATOM     21  C   UNL A   1      33.695  30.135  26.843  1.00  0.00     0.023 A 
ATOM     22  O   UNL A   1      31.999  32.502  26.913  1.00  0.00    -0.422 OA
ATOM     23  O   UNL A   1      32.479  34.323  28.652  1.00  0.00    -0.246 OA
ATOM     24  C   UNL A   1      33.707  28.781  26.525  1.00  0.00     0.036 A 
ATOM     25  C   UNL A   1      32.333  30.876  26.325  1.00  0.00     0.142 A 
ATOM     26  C   UNL A   1      32.650  28.249  25.725  1.00  0.00     0.083 A 
ATOM     27  C   UNL A   1      31.379  30.371  25.477  1.00  0.00     0.095 A 
ATOM     28  Cl  UNL A   1      32.629  26.518  25.514  1.00  0.00    -0.080 Cl
ATOM     29  C   UNL A   1      31.595  29.035  25.131  1.00  0.00     0.141 A 
BRANCH  29  30
ATOM     30  O   UNL A   1      30.756  28.410  24.228  1.00  0.00    -0.495 OA
ATOM     31  C   UNL A   1      30.893  28.928  22.901  1.00  0.00     0.278 C 
ENDBRANCH  29  30
ENDBRANCH  16  17
ENDBRANCH  13  16
ENDBRANCH   9  12
ENDBRANCH   7   9
ENDBRANCH   6   7
ENDBRANCH   5   6
ENDBRANCH   4   5
ENDBRANCH   3   4
ENDBRANCH   2   3
ENDBRANCH   1   2
BRANCH   1  32
ATOM     32  O   UNL A   1      39.946  22.732  26.938  1.00  0.00    -0.377 OA
BRANCH  32  33
ATOM     33  C   UNL A   1      40.716  22.128  28.005  1.00  0.00     0.188 C 
BRANCH  33  34
ATOM     34  C   UNL A   1      41.730  21.128  27.361  1.00  0.00     0.188 C 
BRANCH  34  35
ATOM     35  O   UNL A   1      42.008  21.296  25.981  1.00  0.00    -0.376 OA
BRANCH  35  36
ATOM     36  C   UNL A   1      43.381  21.396  25.681  1.00  0.00     0.202 C 
BRANCH  36  37
ATOM     37  C   UNL A   1      43.785  22.650  24.887  1.00  0.00     0.261 C 
BRANCH  37  38
ATOM     38  O   UNL A   1      45.023  23.294  25.278  1.00  0.00    -0.460 OA
BRANCH  38  39
ATOM     39  C   UNL A   1      44.980  24.646  25.480  1.00  0.00     0.338 C 
ATOM     40  O   UNL A   1      44.866  25.501  24.619  1.00  0.00    -0.246 OA
BRANCH  39  41
ATOM     41  C   UNL A   1      44.884  24.937  26.945  1.00  0.00     0.060 A 
ATOM     42  C   UNL A   1      46.022  24.923  27.751  1.00  0.00     0.016 A 
ATOM     43  C   UNL A   1      43.640  25.272  27.514  1.00  0.00     0.016 A 
ATOM     44  C   UNL A   1      45.936  25.331  29.089  1.00  0.00     0.010 A 
ATOM     45  C   UNL A   1      43.550  25.661  28.860  1.00  0.00     0.010 A 
ATOM     46  C   UNL A   1      44.710  25.754  29.642  1.00  0.00    -0.014 A 
BRANCH  46  47
ATOM     47  C   UNL A   1      44.728  26.605  30.866  1.00  0.00     0.031 A 
ATOM     48  C   UNL A   1      45.022  26.087  32.241  1.00  0.00     0.074 A 
ATOM     49  C   UNL A   1      44.505  27.924  30.679  1.00  0.00     0.049 A 
ATOM     50  N   UNL A   1      45.234  26.772  33.337  1.00  0.00    -0.248 NA
ATOM     51  C   UNL A   1      45.081  24.631  32.423  1.00  0.00     0.031 C 
ATOM     52  C   UNL A   1      44.198  28.539  29.384  1.00  0.00     0.029 A 
ATOM     53  N   UNL A   1      44.531  28.984  31.550  1.00  0.00    -0.354 N 
ATOM     54  C   UNL A   1      45.481  25.840  34.337  1.00  0.00     0.074 A 
ATOM     55  C   UNL A   1      45.349  24.533  33.724  1.00  0.00     0.031 C 
ATOM     56  C   UNL A   1      44.113  29.867  29.535  1.00  0.00     0.029 A 
ATOM     57  C   UNL A   1      44.335  30.201  30.937  1.00  0.00     0.049 A 
ATOM     58  H   UNL A   1      44.674  28.884  32.519  1.00  0.00     0.167 HD
ATOM     59  C   UNL A   1      45.804  26.065  35.634  1.00  0.00     0.031 A 
ATOM     60  C   UNL A   1      44.359  31.454  31.430  1.00  0.00     0.031 A 
ATOM     61  C   UNL A   1      45.919  27.377  36.231  1.00  0.00     0.049 A 
ATOM     62  C   UNL A   1      44.679  31.666  32.881  1.00  0.00     0.074 A 
ATOM     63  C   UNL A   1      46.303  27.695  37.524  1.00  0.00     0.029 A 
ATOM     64  N   UNL A   1      45.645  28.579  35.595  1.00  0.00    -0.354 N 
ATOM     65  N   UNL A   1      45.006  30.775  33.784  1.00  0.00    -0.248 NA
ATOM     66  C   UNL A   1      44.649  33.049  33.375  1.00  0.00     0.031 C 
ATOM     67  C   UNL A   1      46.187  29.076  37.693  1.00  0.00     0.029 A 
ATOM     68  C   UNL A   1      45.809  29.632  36.482  1.00  0.00     0.049 A 
ATOM     69  H   UNL A   1      45.374  28.670  34.654  1.00  0.00     0.167 HD
ATOM     70  C   UNL A   1      45.247  31.493  34.950  1.00  0.00     0.074 A 
ATOM     71  C   UNL A   1      45.044  32.891  34.633  1.00  0.00     0.031 C 
ATOM     72  C   UNL A   1      45.605  31.026  36.170  1.00  0.00     0.031 A 
BRANCH  59  73
ATOM     73  C   UNL A   1      46.105  24.889  36.533  1.00  0.00    -0.014 A 
ATOM     74  C   UNL A   1      47.437  24.592  36.880  1.00  0.00     0.010 A 
ATOM     75  C   UNL A   1      45.096  23.962  36.847  1.00  0.00     0.010 A 
ATOM     76  C   UNL A   1      47.761  23.369  37.478  1.00  0.00     0.020 A 
ATOM     77  C   UNL A   1      45.414  22.748  37.466  1.00  0.00     0.020 A 
ATOM     78  C   UNL A   1      46.748  22.447  37.751  1.00  0.00     0.054 A 
BRANCH  78  79
ATOM     79  S   UNL A   1      47.196  20.834  38.451  1.00  0.00     0.124 S 
ATOM     80  O   UNL A   1      48.396  20.490  37.696  1.00  0.00    -0.237 OA
ATOM     81  O   UNL A   1      47.404  21.148  39.863  1.00  0.00    -0.237 OA
ATOM     82  O   UNL A   1      46.025  20.003  38.174  1.00  0.00    -0.744 OA
ENDBRANCH  78  79
ENDBRANCH  59  73
BRANCH  60  83
ATOM     83  C   UNL A   1      44.142  32.603  30.508  1.00  0.00    -0.014 A 
ATOM     84  C   UNL A   1      42.846  32.935  30.068  1.00  0.00     0.010 A 
ATOM     85  C   UNL A   1      45.239  33.324  30.008  1.00  0.00     0.010 A 
ATOM     86  C   UNL A   1      42.656  33.935  29.113  1.00  0.00     0.020 A 
ATOM     87  C   UNL A   1      45.050  34.350  29.076  1.00  0.00     0.020 A 
ATOM     88  C   UNL A   1      43.761  34.631  28.617  1.00  0.00     0.054 A 
BRANCH  88  89
ATOM     89  S   UNL A   1      43.493  35.913  27.362  1.00  0.00     0.124 S 
ATOM     90  O   UNL A   1      44.833  36.473  27.215  1.00  0.00    -0.237 OA
ATOM     91  O   UNL A   1      43.003  35.144  26.221  1.00  0.00    -0.237 OA
ATOM     92  O   UNL A   1      42.510  36.797  27.982  1.00  0.00    -0.744 OA
ENDBRANCH  88  89
ENDBRANCH  60  83
BRANCH  72  93
ATOM     93  C   UNL A   1      45.805  32.023  37.283  1.00  0.00    -0.014 A 
ATOM     94  C   UNL A   1      44.706  32.431  38.064  1.00  0.00     0.010 A 
ATOM     95  C   UNL A   1      47.048  32.653  37.473  1.00  0.00     0.010 A 
ATOM     96  C   UNL A   1      44.836  33.477  38.981  1.00  0.00     0.020 A 
ATOM     97  C   UNL A   1      47.189  33.677  38.413  1.00  0.00     0.020 A 
ATOM     98  C   UNL A   1      46.074  34.102  39.140  1.00  0.00     0.054 A 
BRANCH  98  99
ATOM     99  S   UNL A   1      46.211  35.490  40.301  1.00  0.00     0.124 S 
ATOM    100  O   UNL A   1      47.275  36.288  39.700  1.00  0.00    -0.237 OA
ATOM    101  O   UNL A   1      44.877  36.082  40.255  1.00  0.00    -0.237 OA
ATOM    102  O   UNL A   1      46.554  34.845  41.567  1.00  0.00    -0.744 OA
ENDBRANCH  98  99
ENDBRANCH  72  93
ENDBRANCH  46  47
ENDBRANCH  39  41
ENDBRANCH  38  39
ENDBRANCH  37  38
ENDBRANCH  36  37
ENDBRANCH  35  36
ENDBRANCH  34  35
ENDBRANCH  33  34
ENDBRANCH  32  33
ENDBRANCH   1  32
TORSDOF 28
ENDMDL
MODEL 3
REMARK VINA RESULT:      -7.9      6.241     10.637
REMARK SMILES CC[C@H](NC(=O)Cc1c(C)c2cc(Cl)c(OC)cc2oc1=O)C(=O)OCCOCCOCCOCCOC(=O)c1ccc(-c2c3nc(c(-c4ccc(S(=O)(=O)[O-])cc4)c4ccc([nH]4)c(-c4ccc(S(=O)(=O)[O-])cc4)c4nc(c(-c5ccc(S(=O)(=O)[O-])cc5)c5ccc2[nH]5)C=C4)C=C3)cc1
REMARK SMILES IDX 30 1 29 2 28 3 27 4 26 5 25 6 23 7 24 8 3 9 2 10 1 11 4 12
REMARK SMILES IDX 5 13 6 15 7 16 8 17 9 18 21 19 10 20 11 21 20 22 22 23 12 24
REMARK SMILES IDX 19 25 13 26 18 27 14 28 15 29 16 30 17 31 31 32 32 33 33 34
REMARK SMILES IDX 34 35 35 36 36 37 37 38 38 39 39 40 40 41 41 42 99 43 42 44
REMARK SMILES IDX 98 45 43 46 44 47 45 48 92 49 46 50 97 51 91 52 93 53 47 54
REMARK SMILES IDX 96 55 90 56 89 57 48 59 78 60 59 61 77 62 60 63 63 64 76 65
REMARK SMILES IDX 94 66 61 67 62 68 75 70 95 71 64 72 49 73 50 74 58 75 51 76
REMARK SMILES IDX 57 77 52 78 53 79 54 80 55 81 56 82 79 83 80 84 88 85 81 86
REMARK SMILES IDX 87 87 82 88 83 89 84 90 85 91 86 92 65 93 66 94 74 95 67 96
REMARK SMILES IDX 73 97 68 98 69 99 70 100 71 101 72 102
REMARK H PARENT 4 14 93 58 63 69
REMARK Flexibility Score: inf
ROOT
ATOM      1  C   UNL A   1      39.418  24.258  27.012  1.00  0.00     0.188 C 
ENDROOT
BRANCH   1   2
ATOM      2  C   UNL A   1      39.474  25.187  28.559  1.00  0.00     0.188 C 
BRANCH   2   3
ATOM      3  O   UNL A   1      39.654  27.175  28.819  1.00  0.00    -0.376 OA
BRANCH   3   4
ATOM      4  C   UNL A   1      40.651  28.286  29.626  1.00  0.00     0.202 C 
BRANCH   4   5
ATOM      5  C   UNL A   1      40.671  28.705  31.254  1.00  0.00     0.261 C 
BRANCH   5   6
ATOM      6  O   UNL A   1      40.204  30.066  31.658  1.00  0.00    -0.462 OA
BRANCH   6   7
ATOM      7  C   UNL A   1      40.260  30.755  32.844  1.00  0.00     0.328 C 
ATOM      8  O   UNL A   1      41.181  30.658  33.643  1.00  0.00    -0.250 OA
BRANCH   7   9
ATOM      9  C   UNL A   1      39.247  31.993  32.804  1.00  0.00     0.192 C 
BRANCH   9  10
ATOM     10  C   UNL A   1      39.719  33.264  33.527  1.00  0.00     0.033 C 
ATOM     11  C   UNL A   1      39.906  34.435  32.583  1.00  0.00     0.007 C 
ENDBRANCH   9  10
BRANCH   9  12
ATOM     12  N   UNL A   1      37.856  31.762  33.169  1.00  0.00    -0.342 N 
ATOM     13  C   UNL A   1      36.764  32.262  32.566  1.00  0.00     0.225 C 
ATOM     14  H   UNL A   1      37.699  31.174  33.943  1.00  0.00     0.164 HD
ATOM     15  O   UNL A   1      35.704  32.282  33.195  1.00  0.00    -0.275 OA
BRANCH  13  16
ATOM     16  C   UNL A   1      36.831  32.657  31.113  1.00  0.00     0.143 C 
BRANCH  16  17
ATOM     17  C   UNL A   1      36.196  31.888  29.950  1.00  0.00     0.051 A 
ATOM     18  C   UNL A   1      36.288  30.446  29.156  1.00  0.00    -0.029 A 
ATOM     19  C   UNL A   1      34.556  33.023  29.639  1.00  0.00     0.340 A 
ATOM     20  C   UNL A   1      36.794  29.059  29.491  1.00  0.00     0.046 C 
ATOM     21  C   UNL A   1      35.079  30.007  27.778  1.00  0.00     0.023 A 
ATOM     22  O   UNL A   1      33.581  32.456  28.274  1.00  0.00    -0.422 OA
ATOM     23  O   UNL A   1      34.014  33.761  30.437  1.00  0.00    -0.246 OA
ATOM     24  C   UNL A   1      35.017  28.770  27.144  1.00  0.00     0.036 A 
ATOM     25  C   UNL A   1      33.846  30.986  27.340  1.00  0.00     0.142 A 
ATOM     26  C   UNL A   1      34.014  28.553  26.150  1.00  0.00     0.083 A 
ATOM     27  C   UNL A   1      32.953  30.796  26.315  1.00  0.00     0.095 A 
ATOM     28  Cl  UNL A   1      33.876  26.931  25.525  1.00  0.00    -0.080 Cl
ATOM     29  C   UNL A   1      33.097  29.562  25.676  1.00  0.00     0.141 A 
BRANCH  29  30
ATOM     30  O   UNL A   1      32.314  29.256  24.578  1.00  0.00    -0.495 OA
ATOM     31  C   UNL A   1      30.968  29.721  24.717  1.00  0.00     0.278 C 
ENDBRANCH  29  30
ENDBRANCH  16  17
ENDBRANCH  13  16
ENDBRANCH   9  12
ENDBRANCH   7   9
ENDBRANCH   6   7
ENDBRANCH   5   6
ENDBRANCH   4   5
ENDBRANCH   3   4
ENDBRANCH   2   3
ENDBRANCH   1   2
BRANCH   1  32
ATOM     32  O   UNL A   1      40.001  22.951  26.837  1.00  0.00    -0.377 OA
BRANCH  32  33
ATOM     33  C   UNL A   1      40.820  22.146  27.720  1.00  0.00     0.188 C 
BRANCH  33  34
ATOM     34  C   UNL A   1      41.891  21.413  26.849  1.00  0.00     0.188 C 
BRANCH  34  35
ATOM     35  O   UNL A   1      42.089  21.900  25.532  1.00  0.00    -0.376 OA
BRANCH  35  36
ATOM     36  C   UNL A   1      43.432  22.206  25.231  1.00  0.00     0.202 C 
BRANCH  36  37
ATOM     37  C   UNL A   1      43.684  23.655  24.780  1.00  0.00     0.261 C 
BRANCH  37  38
ATOM     38  O   UNL A   1      44.917  24.268  25.231  1.00  0.00    -0.460 OA
BRANCH  38  39
ATOM     39  C   UNL A   1      44.845  25.570  25.645  1.00  0.00     0.338 C 
ATOM     40  O   UNL A   1      44.663  26.545  24.935  1.00  0.00    -0.246 OA
BRANCH  39  41
ATOM     41  C   UNL A   1      44.812  25.626  27.140  1.00  0.00     0.060 A 
ATOM     42  C   UNL A   1      45.971  25.414  27.886  1.00  0.00     0.016 A 
ATOM     43  C   UNL A   1      43.611  25.938  27.805  1.00  0.00     0.016 A 
ATOM     44  C   UNL A   1      45.953  25.605  29.276  1.00  0.00     0.010 A 
ATOM     45  C   UNL A   1      43.587  26.108  29.199  1.00  0.00     0.010 A 
ATOM     46  C   UNL A   1      44.775  26.005  29.938  1.00  0.00    -0.014 A 
BRANCH  46  47
ATOM     47  C   UNL A   1      44.885  26.645  31.280  1.00  0.00     0.031 A 
ATOM     48  C   UNL A   1      45.229  25.902  32.535  1.00  0.00     0.074 A 
ATOM     49  C   UNL A   1      44.701  27.982  31.321  1.00  0.00     0.049 A 
ATOM     50  N   UNL A   1      45.520  26.393  33.714  1.00  0.00    -0.248 NA
ATOM     51  C   UNL A   1      45.243  24.434  32.476  1.00  0.00     0.031 C 
ATOM     52  C   UNL A   1      44.352  28.808  30.161  1.00  0.00     0.029 A 
ATOM     53  N   UNL A   1      44.810  28.885  32.349  1.00  0.00    -0.354 N 
ATOM     54  C   UNL A   1      45.783  25.303  34.535  1.00  0.00     0.074 A 
ATOM     55  C   UNL A   1      45.572  24.118  33.727  1.00  0.00     0.031 C 
ATOM     56  C   UNL A   1      44.324  30.095  30.528  1.00  0.00     0.029 A 
ATOM     57  C   UNL A   1      44.628  30.190  31.951  1.00  0.00     0.049 A 
ATOM     58  H   UNL A   1      44.998  28.625  33.279  1.00  0.00     0.167 HD
ATOM     59  C   UNL A   1      46.179  25.305  35.831  1.00  0.00     0.031 A 
ATOM     60  C   UNL A   1      44.723  31.346  32.638  1.00  0.00     0.031 A 
ATOM     61  C   UNL A   1      46.371  26.498  36.625  1.00  0.00     0.049 A 
ATOM     62  C   UNL A   1      45.123  31.309  34.084  1.00  0.00     0.074 A 
ATOM     63  C   UNL A   1      46.831  26.591  37.929  1.00  0.00     0.029 A 
ATOM     64  N   UNL A   1      46.110  27.795  36.207  1.00  0.00    -0.354 N 
ATOM     65  N   UNL A   1      45.462  30.274  34.812  1.00  0.00    -0.248 NA
ATOM     66  C   UNL A   1      45.169  32.593  34.796  1.00  0.00     0.031 C 
ATOM     67  C   UNL A   1      46.774  27.928  38.324  1.00  0.00     0.029 A 
ATOM     68  C   UNL A   1      46.357  28.684  37.242  1.00  0.00     0.049 A 
ATOM     69  H   UNL A   1      45.795  28.046  35.309  1.00  0.00     0.167 HD
ATOM     70  C   UNL A   1      45.787  30.785  36.063  1.00  0.00     0.074 A 
ATOM     71  C   UNL A   1      45.620  32.221  35.988  1.00  0.00     0.031 C 
ATOM     72  C   UNL A   1      46.189  30.116  37.170  1.00  0.00     0.031 A 
BRANCH  59  73
ATOM     73  C   UNL A   1      46.481  23.991  36.511  1.00  0.00    -0.014 A 
ATOM     74  C   UNL A   1      45.439  23.248  37.101  1.00  0.00     0.010 A 
ATOM     75  C   UNL A   1      47.812  23.608  36.753  1.00  0.00     0.010 A 
ATOM     76  C   UNL A   1      45.724  22.182  37.960  1.00  0.00     0.020 A 
ATOM     77  C   UNL A   1      48.099  22.526  37.592  1.00  0.00     0.020 A 
ATOM     78  C   UNL A   1      47.054  21.838  38.214  1.00  0.00     0.054 A 
BRANCH  78  79
ATOM     79  S   UNL A   1      47.406  20.504  39.394  1.00  0.00     0.124 S 
ATOM     80  O   UNL A   1      47.927  19.453  38.527  1.00  0.00    -0.237 OA
ATOM     81  O   UNL A   1      48.379  21.124  40.292  1.00  0.00    -0.237 OA
ATOM     82  O   UNL A   1      46.103  20.229  39.997  1.00  0.00    -0.744 OA
ENDBRANCH  78  79
ENDBRANCH  59  73
BRANCH  60  83
ATOM     83  C   UNL A   1      44.502  32.635  31.926  1.00  0.00    -0.014 A 
ATOM     84  C   UNL A   1      43.201  33.054  31.590  1.00  0.00     0.010 A 
ATOM     85  C   UNL A   1      45.598  33.413  31.517  1.00  0.00     0.010 A 
ATOM     86  C   UNL A   1      43.003  34.202  30.821  1.00  0.00     0.020 A 
ATOM     87  C   UNL A   1      45.403  34.582  30.775  1.00  0.00     0.020 A 
ATOM     88  C   UNL A   1      44.106  34.955  30.411  1.00  0.00     0.054 A 
BRANCH  88  89
ATOM     89  S   UNL A   1      43.828  36.431  29.395  1.00  0.00     0.124 S 
ATOM     90  O   UNL A   1      43.643  37.463  30.411  1.00  0.00    -0.237 OA
ATOM     91  O   UNL A   1      45.063  36.523  28.622  1.00  0.00    -0.237 OA
ATOM     92  O   UNL A   1      42.636  36.093  28.622  1.00  0.00    -0.744 OA
ENDBRANCH  88  89
ENDBRANCH  60  83
BRANCH  72  93
ATOM     93  C   UNL A   1      46.481  30.912  38.417  1.00  0.00    -0.014 A 
ATOM     94  C   UNL A   1      47.814  31.212  38.759  1.00  0.00     0.010 A 
ATOM     95  C   UNL A   1      45.453  31.249  39.315  1.00  0.00     0.010 A 
ATOM     96  C   UNL A   1      48.117  31.794  39.993  1.00  0.00     0.020 A 
ATOM     97  C   UNL A   1      45.750  31.861  40.536  1.00  0.00     0.020 A 
ATOM     98  C   UNL A   1      47.083  32.103  40.879  1.00  0.00     0.054 A 
BRANCH  98  99
ATOM     99  S   UNL A   1      47.499  32.815  42.495  1.00  0.00     0.124 S 
ATOM    100  O   UNL A   1      46.614  33.975  42.556  1.00  0.00    -0.237 OA
ATOM    101  O   UNL A   1      47.178  31.729  43.418  1.00  0.00    -0.237 OA
ATOM    102  O   UNL A   1      48.923  33.122  42.380  1.00  0.00    -0.744 OA
ENDBRANCH  98  99
ENDBRANCH  72  93
ENDBRANCH  46  47
ENDBRANCH  39  41
ENDBRANCH  38  39
ENDBRANCH  37  38
ENDBRANCH  36  37
ENDBRANCH  35  36
ENDBRANCH  34  35
ENDBRANCH  33  34
ENDBRANCH  32  33
ENDBRANCH   1  32
TORSDOF 28
ENDMDL
