MODEL 1
REMARK VINA RESULT:     -10.0      0.000      0.000
REMARK SMILES Cc1c(NC(=O)c2cccc(-c3cc4ccccc4oc3=O)c2)cccc1C(=O)OCCOCCOCCOCCOC(=O)c1ccc(-c2c3nc(c(-c4ccc(S(=O)(=O)[O-])cc4)c4ccc([nH]4)c(-c4ccc(S(=O)(=O)[O-])cc4)c4nc(c(-c5ccc(S(=O)(=O)[O-])cc5)c5ccc2[nH]5)C=C4)C=C3)cc1
REMARK SMILES IDX 36 1 35 2 34 3 33 4 32 5 31 6 30 7 28 8 29 9 27 10 1 11 2 12
REMARK SMILES IDX 3 13 24 14 26 15 25 16 4 17 5 18 6 20 7 21 8 22 23 23 9 24
REMARK SMILES IDX 11 25 10 26 12 27 13 28 21 29 14 30 20 31 22 32 15 33 19 34
REMARK SMILES IDX 16 35 18 36 17 37 37 38 38 39 39 40 40 41 41 42 42 43 43 44
REMARK SMILES IDX 44 45 45 46 46 47 104 48 47 49 103 50 48 51 49 52 50 53
REMARK SMILES IDX 97 54 51 55 102 56 96 57 98 58 52 59 101 60 95 61 94 62
REMARK SMILES IDX 53 64 83 65 64 66 82 67 65 68 68 69 81 70 99 71 66 72 67 73
REMARK SMILES IDX 80 75 100 76 69 77 54 78 55 79 63 80 56 81 62 82 57 83 58 84
REMARK SMILES IDX 59 85 60 86 61 87 84 88 85 89 93 90 86 91 92 92 87 93 88 94
REMARK SMILES IDX 89 95 90 96 91 97 70 98 71 99 79 100 72 101 78 102 73 103
REMARK SMILES IDX 74 104 75 105 76 106 77 107
REMARK H PARENT 4 19 98 63 68 74
REMARK Flexibility Score: inf
ROOT
ATOM      1  O   UNL A   1      32.892  35.175  29.940  1.00  0.00    -0.377 OA
ENDROOT
BRANCH   1   2
ATOM      2  C   UNL A   1      33.899  34.774  29.024  1.00  0.00     0.188 C 
BRANCH   2   3
ATOM      3  C   UNL A   1      33.623  33.432  28.363  1.00  0.00     0.188 C 
BRANCH   3   4
ATOM      4  O   UNL A   1      34.725  32.988  27.575  1.00  0.00    -0.376 OA
BRANCH   4   5
ATOM      5  C   UNL A   1      34.912  31.577  27.640  1.00  0.00     0.202 C 
BRANCH   5   6
ATOM      6  C   UNL A   1      33.599  30.818  27.572  1.00  0.00     0.261 C 
BRANCH   6   7
ATOM      7  O   UNL A   1      33.287  30.382  26.239  1.00  0.00    -0.460 OA
BRANCH   7   8
ATOM      8  C   UNL A   1      33.668  29.104  26.001  1.00  0.00     0.338 C 
ATOM      9  O   UNL A   1      34.421  28.425  26.649  1.00  0.00    -0.246 OA
BRANCH   8  10
ATOM     10  C   UNL A   1      32.752  28.481  25.016  1.00  0.00     0.065 A 
ATOM     11  C   UNL A   1      34.441  28.259  23.133  1.00  0.00     0.047 C 
ATOM     12  C   UNL A   1      33.060  28.052  23.701  1.00  0.00    -0.013 A 
ATOM     13  C   UNL A   1      32.017  27.447  22.947  1.00  0.00     0.045 A 
ATOM     14  C   UNL A   1      30.768  27.233  23.553  1.00  0.00     0.026 A 
ATOM     15  C   UNL A   1      31.460  28.349  25.544  1.00  0.00     0.016 A 
ATOM     16  C   UNL A   1      30.471  27.719  24.819  1.00  0.00     0.003 A 
BRANCH  13  17
ATOM     17  N   UNL A   1      32.222  27.056  21.598  1.00  0.00    -0.322 N 
ATOM     18  C   UNL A   1      32.842  25.941  21.044  1.00  0.00     0.255 C 
ATOM     19  H   UNL A   1      31.860  27.688  20.935  1.00  0.00     0.170 HD
ATOM     20  O   UNL A   1      33.137  25.939  19.848  1.00  0.00    -0.269 OA
BRANCH  18  21
ATOM     21  C   UNL A   1      33.078  24.685  21.817  1.00  0.00     0.040 A 
ATOM     22  C   UNL A   1      32.635  23.450  21.361  1.00  0.00     0.014 A 
ATOM     23  C   UNL A   1      33.679  24.745  23.072  1.00  0.00     0.022 A 
ATOM     24  C   UNL A   1      32.886  22.300  22.124  1.00  0.00     0.001 A 
ATOM     25  C   UNL A   1      33.946  23.615  23.866  1.00  0.00    -0.010 A 
ATOM     26  C   UNL A   1      33.550  22.380  23.357  1.00  0.00     0.009 A 
BRANCH  25  27
ATOM     27  C   UNL A   1      34.561  23.670  25.232  1.00  0.00     0.068 A 
ATOM     28  C   UNL A   1      34.150  24.516  26.206  1.00  0.00     0.028 A 
ATOM     29  C   UNL A   1      34.791  22.339  25.901  1.00  0.00     0.344 A 
ATOM     30  C   UNL A   1      32.793  24.107  26.608  1.00  0.00     0.018 A 
ATOM     31  O   UNL A   1      33.663  21.848  26.585  1.00  0.00    -0.422 OA
ATOM     32  O   UNL A   1      35.854  21.737  25.830  1.00  0.00    -0.246 OA
ATOM     33  C   UNL A   1      31.728  24.984  26.546  1.00  0.00     0.012 A 
ATOM     34  C   UNL A   1      32.562  22.727  26.731  1.00  0.00     0.138 A 
ATOM     35  C   UNL A   1      30.432  24.470  26.618  1.00  0.00     0.001 A 
ATOM     36  C   UNL A   1      31.276  22.212  26.813  1.00  0.00     0.048 A 
ATOM     37  C   UNL A   1      30.202  23.097  26.748  1.00  0.00     0.004 A 
ENDBRANCH  25  27
ENDBRANCH  18  21
ENDBRANCH  13  17
ENDBRANCH   8  10
ENDBRANCH   7   8
ENDBRANCH   6   7
ENDBRANCH   5   6
ENDBRANCH   4   5
ENDBRANCH   3   4
ENDBRANCH   2   3
ENDBRANCH   1   2
BRANCH   1  38
ATOM     38  C   UNL A   1      33.219  36.177  30.913  1.00  0.00     0.188 C 
BRANCH  38  39
ATOM     39  C   UNL A   1      32.875  35.910  32.368  1.00  0.00     0.188 C 
BRANCH  39  40
ATOM     40  O   UNL A   1      34.020  36.292  33.127  1.00  0.00    -0.376 OA
BRANCH  40  41
ATOM     41  C   UNL A   1      35.162  35.474  33.008  1.00  0.00     0.202 C 
BRANCH  41  42
ATOM     42  C   UNL A   1      35.269  34.586  34.224  1.00  0.00     0.261 C 
BRANCH  42  43
ATOM     43  O   UNL A   1      34.694  33.272  33.964  1.00  0.00    -0.460 OA
BRANCH  43  44
ATOM     44  C   UNL A   1      34.827  32.608  32.773  1.00  0.00     0.338 C 
ATOM     45  O   UNL A   1      33.942  32.638  31.927  1.00  0.00    -0.246 OA
BRANCH  44  46
ATOM     46  C   UNL A   1      36.197  32.145  32.393  1.00  0.00     0.060 A 
ATOM     47  C   UNL A   1      37.032  31.494  33.316  1.00  0.00     0.016 A 
ATOM     48  C   UNL A   1      36.672  32.340  31.107  1.00  0.00     0.016 A 
ATOM     49  C   UNL A   1      38.387  31.221  33.018  1.00  0.00     0.010 A 
ATOM     50  C   UNL A   1      38.029  32.168  30.851  1.00  0.00     0.010 A 
ATOM     51  C   UNL A   1      38.922  31.628  31.798  1.00  0.00    -0.014 A 
BRANCH  51  52
ATOM     52  C   UNL A   1      40.368  31.697  31.437  1.00  0.00     0.031 A 
ATOM     53  C   UNL A   1      41.143  32.947  31.806  1.00  0.00     0.074 A 
ATOM     54  C   UNL A   1      41.018  30.532  31.160  1.00  0.00     0.049 A 
ATOM     55  N   UNL A   1      42.427  33.072  31.799  1.00  0.00    -0.248 NA
ATOM     56  C   UNL A   1      40.505  34.178  32.292  1.00  0.00     0.031 C 
ATOM     57  C   UNL A   1      42.421  30.204  31.439  1.00  0.00     0.029 A 
ATOM     58  N   UNL A   1      40.565  29.326  30.649  1.00  0.00    -0.354 N 
ATOM     59  C   UNL A   1      42.787  34.204  32.522  1.00  0.00     0.074 A 
ATOM     60  C   UNL A   1      41.540  34.876  32.781  1.00  0.00     0.031 C 
ATOM     61  C   UNL A   1      42.716  28.957  31.041  1.00  0.00     0.029 A 
ATOM     62  C   UNL A   1      41.628  28.542  30.204  1.00  0.00     0.049 A 
ATOM     63  H   UNL A   1      39.618  29.058  30.607  1.00  0.00     0.167 HD
ATOM     64  C   UNL A   1      44.091  34.378  32.908  1.00  0.00     0.031 A 
ATOM     65  C   UNL A   1      41.838  28.297  28.876  1.00  0.00     0.031 A 
ATOM     66  C   UNL A   1      44.979  33.413  32.225  1.00  0.00     0.049 A 
ATOM     67  C   UNL A   1      43.034  29.128  28.372  1.00  0.00     0.074 A 
ATOM     68  C   UNL A   1      45.964  32.532  32.633  1.00  0.00     0.029 A 
ATOM     69  N   UNL A   1      44.766  33.127  30.876  1.00  0.00    -0.354 N 
ATOM     70  N   UNL A   1      43.370  30.293  28.895  1.00  0.00    -0.248 NA
ATOM     71  C   UNL A   1      44.077  28.630  27.471  1.00  0.00     0.031 C 
ATOM     72  C   UNL A   1      46.144  31.566  31.597  1.00  0.00     0.029 A 
ATOM     73  C   UNL A   1      45.383  31.952  30.499  1.00  0.00     0.049 A 
ATOM     74  H   UNL A   1      44.241  33.694  30.266  1.00  0.00     0.167 HD
ATOM     75  C   UNL A   1      44.658  30.609  28.551  1.00  0.00     0.074 A 
ATOM     76  C   UNL A   1      45.037  29.566  27.610  1.00  0.00     0.031 C 
ATOM     77  C   UNL A   1      45.448  31.589  29.092  1.00  0.00     0.031 A 
BRANCH  64  78
ATOM     78  C   UNL A   1      44.594  35.302  34.035  1.00  0.00    -0.014 A 
ATOM     79  C   UNL A   1      43.814  36.422  34.412  1.00  0.00     0.010 A 
ATOM     80  C   UNL A   1      45.842  35.206  34.693  1.00  0.00     0.010 A 
ATOM     81  C   UNL A   1      44.236  37.379  35.356  1.00  0.00     0.020 A 
ATOM     82  C   UNL A   1      46.265  36.139  35.674  1.00  0.00     0.020 A 
ATOM     83  C   UNL A   1      45.460  37.229  35.996  1.00  0.00     0.054 A 
BRANCH  83  84
ATOM     84  S   UNL A   1      45.948  38.448  37.258  1.00  0.00     0.124 S 
ATOM     85  O   UNL A   1      46.047  39.685  36.488  1.00  0.00    -0.237 OA
ATOM     86  O   UNL A   1      44.841  38.389  38.207  1.00  0.00    -0.237 OA
ATOM     87  O   UNL A   1      47.220  37.934  37.765  1.00  0.00    -0.744 OA
ENDBRANCH  83  84
ENDBRANCH  64  78
BRANCH  65  88
ATOM     88  C   UNL A   1      40.615  27.673  28.262  1.00  0.00    -0.014 A 
ATOM     89  C   UNL A   1      40.814  27.340  26.893  1.00  0.00     0.010 A 
ATOM     90  C   UNL A   1      39.838  26.782  29.035  1.00  0.00     0.010 A 
ATOM     91  C   UNL A   1      40.580  26.036  26.430  1.00  0.00     0.020 A 
ATOM     92  C   UNL A   1      39.577  25.476  28.558  1.00  0.00     0.020 A 
ATOM     93  C   UNL A   1      40.027  25.091  27.289  1.00  0.00     0.054 A 
BRANCH  93  94
ATOM     94  S   UNL A   1      40.197  23.326  26.839  1.00  0.00     0.124 S 
ATOM     95  O   UNL A   1      41.314  23.345  25.903  1.00  0.00    -0.237 OA
ATOM     96  O   UNL A   1      40.460  22.689  28.129  1.00  0.00    -0.237 OA
ATOM     97  O   UNL A   1      38.896  23.004  26.265  1.00  0.00    -0.744 OA
ENDBRANCH  93  94
ENDBRANCH  65  88
BRANCH  77  98
ATOM     98  C   UNL A   1      46.420  32.388  28.252  1.00  0.00    -0.014 A 
ATOM     99  C   UNL A   1      46.003  33.147  27.153  1.00  0.00     0.010 A 
ATOM    100  C   UNL A   1      47.749  32.591  28.714  1.00  0.00     0.010 A 
ATOM    101  C   UNL A   1      46.879  34.020  26.509  1.00  0.00     0.020 A 
ATOM    102  C   UNL A   1      48.616  33.499  28.110  1.00  0.00     0.020 A 
ATOM    103  C   UNL A   1      48.179  34.189  26.990  1.00  0.00     0.054 A 
BRANCH 103 104
ATOM    104  S   UNL A   1      49.267  35.354  26.148  1.00  0.00     0.124 S 
ATOM    105  O   UNL A   1      48.499  36.593  26.241  1.00  0.00    -0.237 OA
ATOM    106  O   UNL A   1      50.479  35.306  26.963  1.00  0.00    -0.237 OA
ATOM    107  O   UNL A   1      49.403  34.799  24.805  1.00  0.00    -0.744 OA
ENDBRANCH 103 104
ENDBRANCH  77  98
ENDBRANCH  51  52
ENDBRANCH  44  46
ENDBRANCH  43  44
ENDBRANCH  42  43
ENDBRANCH  41  42
ENDBRANCH  40  41
ENDBRANCH  39  40
ENDBRANCH  38  39
ENDBRANCH   1  38
TORSDOF 26
ENDMDL
MODEL 2
REMARK VINA RESULT:      -9.1      4.109      9.357
REMARK SMILES Cc1c(NC(=O)c2cccc(-c3cc4ccccc4oc3=O)c2)cccc1C(=O)OCCOCCOCCOCCOC(=O)c1ccc(-c2c3nc(c(-c4ccc(S(=O)(=O)[O-])cc4)c4ccc([nH]4)c(-c4ccc(S(=O)(=O)[O-])cc4)c4nc(c(-c5ccc(S(=O)(=O)[O-])cc5)c5ccc2[nH]5)C=C4)C=C3)cc1
REMARK SMILES IDX 36 1 35 2 34 3 33 4 32 5 31 6 30 7 28 8 29 9 27 10 1 11 2 12
REMARK SMILES IDX 3 13 24 14 26 15 25 16 4 17 5 18 6 20 7 21 8 22 23 23 9 24
REMARK SMILES IDX 11 25 10 26 12 27 13 28 21 29 14 30 20 31 22 32 15 33 19 34
REMARK SMILES IDX 16 35 18 36 17 37 37 38 38 39 39 40 40 41 41 42 42 43 43 44
REMARK SMILES IDX 44 45 45 46 46 47 104 48 47 49 103 50 48 51 49 52 50 53
REMARK SMILES IDX 97 54 51 55 102 56 96 57 98 58 52 59 101 60 95 61 94 62
REMARK SMILES IDX 53 64 83 65 64 66 82 67 65 68 68 69 81 70 99 71 66 72 67 73
REMARK SMILES IDX 80 75 100 76 69 77 54 78 55 79 63 80 56 81 62 82 57 83 58 84
REMARK SMILES IDX 59 85 60 86 61 87 84 88 85 89 93 90 86 91 92 92 87 93 88 94
REMARK SMILES IDX 89 95 90 96 91 97 70 98 71 99 79 100 72 101 78 102 73 103
REMARK SMILES IDX 74 104 75 105 76 106 77 107
REMARK H PARENT 4 19 98 63 68 74
REMARK Flexibility Score: inf
ROOT
ATOM      1  O   UNL A   1      33.433  30.013  26.442  1.00  0.00    -0.377 OA
ENDROOT
BRANCH   1   2
ATOM      2  C   UNL A   1      32.769  29.728  25.220  1.00  0.00     0.188 C 
BRANCH   2   3
ATOM      3  C   UNL A   1      31.407  29.077  25.403  1.00  0.00     0.188 C 
BRANCH   3   4
ATOM      4  O   UNL A   1      31.399  28.150  26.487  1.00  0.00    -0.376 OA
BRANCH   4   5
ATOM      5  C   UNL A   1      31.118  26.818  26.067  1.00  0.00     0.202 C 
BRANCH   5   6
ATOM      6  C   UNL A   1      30.342  26.775  24.763  1.00  0.00     0.261 C 
BRANCH   6   7
ATOM      7  O   UNL A   1      30.822  25.755  23.873  1.00  0.00    -0.460 OA
BRANCH   7   8
ATOM      8  C   UNL A   1      31.827  26.185  23.073  1.00  0.00     0.338 C 
ATOM      9  O   UNL A   1      31.957  27.271  22.571  1.00  0.00    -0.246 OA
BRANCH   8  10
ATOM     10  C   UNL A   1      32.978  25.257  23.167  1.00  0.00     0.065 A 
ATOM     11  C   UNL A   1      34.162  26.437  25.079  1.00  0.00     0.047 C 
ATOM     12  C   UNL A   1      34.060  25.311  24.081  1.00  0.00    -0.013 A 
ATOM     13  C   UNL A   1      35.039  24.283  24.002  1.00  0.00     0.045 A 
ATOM     14  C   UNL A   1      34.857  23.232  23.088  1.00  0.00     0.026 A 
ATOM     15  C   UNL A   1      32.893  24.250  22.195  1.00  0.00     0.016 A 
ATOM     16  C   UNL A   1      33.824  23.234  22.159  1.00  0.00     0.003 A 
BRANCH  13  17
ATOM     17  N   UNL A   1      36.191  24.304  24.831  1.00  0.00    -0.322 N 
ATOM     18  C   UNL A   1      36.829  23.297  25.549  1.00  0.00     0.255 C 
ATOM     19  H   UNL A   1      36.614  25.189  24.913  1.00  0.00     0.170 HD
ATOM     20  O   UNL A   1      37.657  23.596  26.411  1.00  0.00    -0.269 OA
BRANCH  18  21
ATOM     21  C   UNL A   1      36.634  21.847  25.249  1.00  0.00     0.040 A 
ATOM     22  C   UNL A   1      37.685  21.034  24.845  1.00  0.00     0.014 A 
ATOM     23  C   UNL A   1      35.355  21.298  25.284  1.00  0.00     0.022 A 
ATOM     24  C   UNL A   1      37.448  19.678  24.579  1.00  0.00     0.001 A 
ATOM     25  C   UNL A   1      35.078  19.943  25.024  1.00  0.00    -0.010 A 
ATOM     26  C   UNL A   1      36.160  19.134  24.683  1.00  0.00     0.009 A 
BRANCH  25  27
ATOM     27  C   UNL A   1      33.702  19.347  25.026  1.00  0.00     0.068 A 
ATOM     28  C   UNL A   1      32.908  19.302  26.122  1.00  0.00     0.028 A 
ATOM     29  C   UNL A   1      32.813  19.748  23.878  1.00  0.00     0.344 A 
ATOM     30  C   UNL A   1      32.533  20.686  26.458  1.00  0.00     0.018 A 
ATOM     31  O   UNL A   1      32.132  20.962  24.086  1.00  0.00    -0.422 OA
ATOM     32  O   UNL A   1      32.716  19.086  22.853  1.00  0.00    -0.246 OA
ATOM     33  C   UNL A   1      32.805  21.225  27.700  1.00  0.00     0.012 A 
ATOM     34  C   UNL A   1      32.202  21.528  25.383  1.00  0.00     0.138 A 
ATOM     35  C   UNL A   1      32.733  22.611  27.859  1.00  0.00     0.001 A 
ATOM     36  C   UNL A   1      32.120  22.905  25.538  1.00  0.00     0.048 A 
ATOM     37  C   UNL A   1      32.397  23.448  26.791  1.00  0.00     0.004 A 
ENDBRANCH  25  27
ENDBRANCH  18  21
ENDBRANCH  13  17
ENDBRANCH   8  10
ENDBRANCH   7   8
ENDBRANCH   6   7
ENDBRANCH   5   6
ENDBRANCH   4   5
ENDBRANCH   3   4
ENDBRANCH   2   3
ENDBRANCH   1   2
BRANCH   1  38
ATOM     38  C   UNL A   1      32.890  31.039  27.285  1.00  0.00     0.188 C 
BRANCH  38  39
ATOM     39  C   UNL A   1      33.855  31.959  28.013  1.00  0.00     0.188 C 
BRANCH  39  40
ATOM     40  O   UNL A   1      35.077  31.917  27.281  1.00  0.00    -0.376 OA
BRANCH  40  41
ATOM     41  C   UNL A   1      36.265  31.813  28.033  1.00  0.00     0.202 C 
BRANCH  41  42
ATOM     42  C   UNL A   1      35.920  31.545  29.477  1.00  0.00     0.261 C 
BRANCH  42  43
ATOM     43  O   UNL A   1      37.098  31.128  30.228  1.00  0.00    -0.460 OA
BRANCH  43  44
ATOM     44  C   UNL A   1      37.670  29.888  30.113  1.00  0.00     0.338 C 
ATOM     45  O   UNL A   1      37.008  28.868  30.259  1.00  0.00    -0.246 OA
BRANCH  44  46
ATOM     46  C   UNL A   1      39.018  29.809  29.472  1.00  0.00     0.060 A 
ATOM     47  C   UNL A   1      39.212  29.134  28.255  1.00  0.00     0.016 A 
ATOM     48  C   UNL A   1      40.114  30.416  30.063  1.00  0.00     0.016 A 
ATOM     49  C   UNL A   1      40.508  28.900  27.741  1.00  0.00     0.010 A 
ATOM     50  C   UNL A   1      41.392  30.097  29.615  1.00  0.00     0.010 A 
ATOM     51  C   UNL A   1      41.624  29.319  28.463  1.00  0.00    -0.014 A 
BRANCH  51  52
ATOM     52  C   UNL A   1      43.039  28.904  28.236  1.00  0.00     0.031 A 
ATOM     53  C   UNL A   1      43.377  27.428  28.307  1.00  0.00     0.074 A 
ATOM     54  C   UNL A   1      43.872  29.779  27.606  1.00  0.00     0.049 A 
ATOM     55  N   UNL A   1      44.471  26.880  27.897  1.00  0.00    -0.248 NA
ATOM     56  C   UNL A   1      42.442  26.410  28.805  1.00  0.00     0.031 C 
ATOM     57  C   UNL A   1      44.980  29.461  26.697  1.00  0.00     0.029 A 
ATOM     58  N   UNL A   1      43.877  31.164  27.547  1.00  0.00    -0.354 N 
ATOM     59  C   UNL A   1      44.289  25.506  27.789  1.00  0.00     0.074 A 
ATOM     60  C   UNL A   1      43.009  25.263  28.401  1.00  0.00     0.031 C 
ATOM     61  C   UNL A   1      45.577  30.576  26.252  1.00  0.00     0.029 A 
ATOM     62  C   UNL A   1      45.105  31.639  27.090  1.00  0.00     0.049 A 
ATOM     63  H   UNL A   1      43.115  31.735  27.795  1.00  0.00     0.167 HD
ATOM     64  C   UNL A   1      45.201  24.753  27.094  1.00  0.00     0.031 A 
ATOM     65  C   UNL A   1      45.972  32.305  27.909  1.00  0.00     0.031 A 
ATOM     66  C   UNL A   1      46.416  25.537  26.790  1.00  0.00     0.049 A 
ATOM     67  C   UNL A   1      47.154  31.388  28.279  1.00  0.00     0.074 A 
ATOM     68  C   UNL A   1      47.165  25.781  25.654  1.00  0.00     0.029 A 
ATOM     69  N   UNL A   1      46.935  26.394  27.763  1.00  0.00    -0.354 N 
ATOM     70  N   UNL A   1      47.047  30.074  28.350  1.00  0.00    -0.248 NA
ATOM     71  C   UNL A   1      48.556  31.811  28.327  1.00  0.00     0.031 C 
ATOM     72  C   UNL A   1      47.946  26.953  25.887  1.00  0.00     0.029 A 
ATOM     73  C   UNL A   1      47.790  27.328  27.217  1.00  0.00     0.049 A 
ATOM     74  H   UNL A   1      46.718  26.337  28.722  1.00  0.00     0.167 HD
ATOM     75  C   UNL A   1      48.289  29.497  28.298  1.00  0.00     0.074 A 
ATOM     76  C   UNL A   1      49.204  30.629  28.344  1.00  0.00     0.031 C 
ATOM     77  C   UNL A   1      48.586  28.176  28.090  1.00  0.00     0.031 A 
BRANCH  64  78
ATOM     78  C   UNL A   1      44.966  23.343  26.513  1.00  0.00    -0.014 A 
ATOM     79  C   UNL A   1      46.061  22.628  25.969  1.00  0.00     0.010 A 
ATOM     80  C   UNL A   1      43.715  22.702  26.369  1.00  0.00     0.010 A 
ATOM     81  C   UNL A   1      45.931  21.382  25.325  1.00  0.00     0.020 A 
ATOM     82  C   UNL A   1      43.572  21.429  25.758  1.00  0.00     0.020 A 
ATOM     83  C   UNL A   1      44.683  20.777  25.230  1.00  0.00     0.054 A 
BRANCH  83  84
ATOM     84  S   UNL A   1      44.557  19.137  24.449  1.00  0.00     0.124 S 
ATOM     85  O   UNL A   1      44.358  19.468  23.040  1.00  0.00    -0.237 OA
ATOM     86  O   UNL A   1      45.843  18.528  24.773  1.00  0.00    -0.237 OA
ATOM     87  O   UNL A   1      43.404  18.525  25.107  1.00  0.00    -0.744 OA
ENDBRANCH  83  84
ENDBRANCH  64  78
BRANCH  65  88
ATOM     88  C   UNL A   1      45.297  33.504  28.517  1.00  0.00    -0.014 A 
ATOM     89  C   UNL A   1      45.003  33.311  29.895  1.00  0.00     0.010 A 
ATOM     90  C   UNL A   1      45.706  34.797  28.120  1.00  0.00     0.010 A 
ATOM     91  C   UNL A   1      45.449  34.228  30.860  1.00  0.00     0.020 A 
ATOM     92  C   UNL A   1      46.129  35.733  29.093  1.00  0.00     0.020 A 
ATOM     93  C   UNL A   1      46.074  35.403  30.453  1.00  0.00     0.054 A 
BRANCH  93  94
ATOM     94  S   UNL A   1      47.068  36.313  31.690  1.00  0.00     0.124 S 
ATOM     95  O   UNL A   1      48.434  35.986  31.300  1.00  0.00    -0.237 OA
ATOM     96  O   UNL A   1      46.660  37.701  31.472  1.00  0.00    -0.237 OA
ATOM     97  O   UNL A   1      46.619  35.748  32.956  1.00  0.00    -0.744 OA
ENDBRANCH  93  94
ENDBRANCH  65  88
BRANCH  77  98
ATOM     98  C   UNL A   1      49.745  27.498  28.787  1.00  0.00    -0.014 A 
ATOM     99  C   UNL A   1      50.858  27.021  28.084  1.00  0.00     0.010 A 
ATOM    100  C   UNL A   1      49.849  27.558  30.203  1.00  0.00     0.010 A 
ATOM    101  C   UNL A   1      51.993  26.571  28.757  1.00  0.00     0.020 A 
ATOM    102  C   UNL A   1      50.999  27.159  30.882  1.00  0.00     0.020 A 
ATOM    103  C   UNL A   1      52.056  26.642  30.150  1.00  0.00     0.054 A 
BRANCH 103 104
ATOM    104  S   UNL A   1      53.556  26.081  30.977  1.00  0.00     0.124 S 
ATOM    105  O   UNL A   1      54.404  25.729  29.841  1.00  0.00    -0.237 OA
ATOM    106  O   UNL A   1      53.971  27.266  31.725  1.00  0.00    -0.237 OA
ATOM    107  O   UNL A   1      53.107  24.959  31.796  1.00  0.00    -0.744 OA
ENDBRANCH 103 104
ENDBRANCH  77  98
ENDBRANCH  51  52
ENDBRANCH  44  46
ENDBRANCH  43  44
ENDBRANCH  42  43
ENDBRANCH  41  42
ENDBRANCH  40  41
ENDBRANCH  39  40
ENDBRANCH  38  39
ENDBRANCH   1  38
TORSDOF 26
ENDMDL
MODEL 3
REMARK VINA RESULT:      -9.1      4.273      9.181
REMARK SMILES Cc1c(NC(=O)c2cccc(-c3cc4ccccc4oc3=O)c2)cccc1C(=O)OCCOCCOCCOCCOC(=O)c1ccc(-c2c3nc(c(-c4ccc(S(=O)(=O)[O-])cc4)c4ccc([nH]4)c(-c4ccc(S(=O)(=O)[O-])cc4)c4nc(c(-c5ccc(S(=O)(=O)[O-])cc5)c5ccc2[nH]5)C=C4)C=C3)cc1
REMARK SMILES IDX 36 1 35 2 34 3 33 4 32 5 31 6 30 7 28 8 29 9 27 10 1 11 2 12
REMARK SMILES IDX 3 13 24 14 26 15 25 16 4 17 5 18 6 20 7 21 8 22 23 23 9 24
REMARK SMILES IDX 11 25 10 26 12 27 13 28 21 29 14 30 20 31 22 32 15 33 19 34
REMARK SMILES IDX 16 35 18 36 17 37 37 38 38 39 39 40 40 41 41 42 42 43 43 44
REMARK SMILES IDX 44 45 45 46 46 47 104 48 47 49 103 50 48 51 49 52 50 53
REMARK SMILES IDX 97 54 51 55 102 56 96 57 98 58 52 59 101 60 95 61 94 62
REMARK SMILES IDX 53 64 83 65 64 66 82 67 65 68 68 69 81 70 99 71 66 72 67 73
REMARK SMILES IDX 80 75 100 76 69 77 54 78 55 79 63 80 56 81 62 82 57 83 58 84
REMARK SMILES IDX 59 85 60 86 61 87 84 88 85 89 93 90 86 91 92 92 87 93 88 94
REMARK SMILES IDX 89 95 90 96 91 97 70 98 71 99 79 100 72 101 78 102 73 103
REMARK SMILES IDX 74 104 75 105 76 106 77 107
REMARK H PARENT 4 19 98 63 68 74
REMARK Flexibility Score: inf
ROOT
ATOM      1  O   UNL A   1      33.701  34.501  31.055  1.00  0.00    -0.377 OA
ENDROOT
BRANCH   1   2
ATOM      2  C   UNL A   1      34.524  34.396  29.903  1.00  0.00     0.188 C 
BRANCH   2   3
ATOM      3  C   UNL A   1      33.852  33.689  28.736  1.00  0.00     0.188 C 
BRANCH   3   4
ATOM      4  O   UNL A   1      34.792  33.286  27.742  1.00  0.00    -0.376 OA
BRANCH   4   5
ATOM      5  C   UNL A   1      35.023  31.881  27.744  1.00  0.00     0.202 C 
BRANCH   5   6
ATOM      6  C   UNL A   1      33.734  31.084  27.828  1.00  0.00     0.261 C 
BRANCH   6   7
ATOM      7  O   UNL A   1      33.205  30.758  26.533  1.00  0.00    -0.460 OA
BRANCH   7   8
ATOM      8  C   UNL A   1      33.031  29.427  26.355  1.00  0.00     0.338 C 
ATOM      9  O   UNL A   1      33.117  28.555  27.181  1.00  0.00    -0.246 OA
BRANCH   8  10
ATOM     10  C   UNL A   1      32.350  29.175  25.064  1.00  0.00     0.065 A 
ATOM     11  C   UNL A   1      34.061  27.547  24.132  1.00  0.00     0.047 C 
ATOM     12  C   UNL A   1      32.764  28.307  24.023  1.00  0.00    -0.013 A 
ATOM     13  C   UNL A   1      31.923  28.204  22.881  1.00  0.00     0.045 A 
ATOM     14  C   UNL A   1      30.701  28.895  22.865  1.00  0.00     0.026 A 
ATOM     15  C   UNL A   1      31.175  29.934  24.958  1.00  0.00     0.016 A 
ATOM     16  C   UNL A   1      30.347  29.789  23.867  1.00  0.00     0.003 A 
BRANCH  13  17
ATOM     17  N   UNL A   1      32.300  27.413  21.764  1.00  0.00    -0.322 N 
ATOM     18  C   UNL A   1      32.521  26.046  21.634  1.00  0.00     0.255 C 
ATOM     19  H   UNL A   1      32.428  27.924  20.932  1.00  0.00     0.170 HD
ATOM     20  O   UNL A   1      33.098  25.614  20.634  1.00  0.00    -0.269 OA
BRANCH  18  21
ATOM     21  C   UNL A   1      31.993  25.048  22.612  1.00  0.00     0.040 A 
ATOM     22  C   UNL A   1      30.935  25.345  23.461  1.00  0.00     0.014 A 
ATOM     23  C   UNL A   1      32.622  23.814  22.753  1.00  0.00     0.022 A 
ATOM     24  C   UNL A   1      30.475  24.371  24.360  1.00  0.00     0.001 A 
ATOM     25  C   UNL A   1      32.191  22.814  23.643  1.00  0.00    -0.010 A 
ATOM     26  C   UNL A   1      31.087  23.112  24.438  1.00  0.00     0.009 A 
BRANCH  25  27
ATOM     27  C   UNL A   1      32.879  21.494  23.827  1.00  0.00     0.068 A 
ATOM     28  C   UNL A   1      34.179  21.278  23.518  1.00  0.00     0.028 A 
ATOM     29  C   UNL A   1      32.642  20.812  25.150  1.00  0.00     0.344 A 
ATOM     30  C   UNL A   1      34.998  22.069  24.452  1.00  0.00     0.018 A 
ATOM     31  O   UNL A   1      33.508  21.244  26.173  1.00  0.00    -0.422 OA
ATOM     32  O   UNL A   1      31.762  19.978  25.316  1.00  0.00    -0.246 OA
ATOM     33  C   UNL A   1      35.907  23.005  23.999  1.00  0.00     0.012 A 
ATOM     34  C   UNL A   1      34.586  22.080  25.795  1.00  0.00     0.138 A 
ATOM     35  C   UNL A   1      36.408  23.944  24.904  1.00  0.00     0.001 A 
ATOM     36  C   UNL A   1      35.089  23.005  26.700  1.00  0.00     0.048 A 
ATOM     37  C   UNL A   1      36.005  23.950  26.242  1.00  0.00     0.004 A 
ENDBRANCH  25  27
ENDBRANCH  18  21
ENDBRANCH  13  17
ENDBRANCH   8  10
ENDBRANCH   7   8
ENDBRANCH   6   7
ENDBRANCH   5   6
ENDBRANCH   4   5
ENDBRANCH   3   4
ENDBRANCH   2   3
ENDBRANCH   1   2
BRANCH   1  38
ATOM     38  C   UNL A   1      34.331  34.472  32.343  1.00  0.00     0.188 C 
BRANCH  38  39
ATOM     39  C   UNL A   1      34.332  33.165  33.117  1.00  0.00     0.188 C 
BRANCH  39  40
ATOM     40  O   UNL A   1      35.599  33.084  33.766  1.00  0.00    -0.376 OA
BRANCH  40  41
ATOM     41  C   UNL A   1      36.026  34.230  34.469  1.00  0.00     0.202 C 
BRANCH  41  42
ATOM     42  C   UNL A   1      37.393  33.975  35.054  1.00  0.00     0.261 C 
BRANCH  42  43
ATOM     43  O   UNL A   1      38.341  35.001  34.635  1.00  0.00    -0.460 OA
BRANCH  43  44
ATOM     44  C   UNL A   1      39.436  35.366  35.371  1.00  0.00     0.338 C 
ATOM     45  O   UNL A   1      39.362  36.234  36.233  1.00  0.00    -0.246 OA
BRANCH  44  46
ATOM     46  C   UNL A   1      40.620  34.455  35.341  1.00  0.00     0.060 A 
ATOM     47  C   UNL A   1      41.606  34.566  34.346  1.00  0.00     0.016 A 
ATOM     48  C   UNL A   1      40.779  33.477  36.310  1.00  0.00     0.016 A 
ATOM     49  C   UNL A   1      42.624  33.595  34.206  1.00  0.00     0.010 A 
ATOM     50  C   UNL A   1      41.715  32.467  36.109  1.00  0.00     0.010 A 
ATOM     51  C   UNL A   1      42.643  32.487  35.049  1.00  0.00    -0.014 A 
BRANCH  51  52
ATOM     52  C   UNL A   1      43.438  31.238  34.862  1.00  0.00     0.031 A 
ATOM     53  C   UNL A   1      43.000  30.260  33.788  1.00  0.00     0.074 A 
ATOM     54  C   UNL A   1      44.705  31.202  35.361  1.00  0.00     0.049 A 
ATOM     55  N   UNL A   1      43.699  29.277  33.329  1.00  0.00    -0.248 NA
ATOM     56  C   UNL A   1      41.717  30.361  33.080  1.00  0.00     0.031 C 
ATOM     57  C   UNL A   1      45.866  30.499  34.802  1.00  0.00     0.029 A 
ATOM     58  N   UNL A   1      45.290  31.857  36.433  1.00  0.00    -0.354 N 
ATOM     59  C   UNL A   1      43.142  28.832  32.135  1.00  0.00     0.074 A 
ATOM     60  C   UNL A   1      41.884  29.526  32.044  1.00  0.00     0.031 C 
ATOM     61  C   UNL A   1      46.960  30.695  35.552  1.00  0.00     0.029 A 
ATOM     62  C   UNL A   1      46.496  31.254  36.788  1.00  0.00     0.049 A 
ATOM     63  H   UNL A   1      44.904  32.643  36.884  1.00  0.00     0.167 HD
ATOM     64  C   UNL A   1      43.867  28.007  31.313  1.00  0.00     0.031 A 
ATOM     65  C   UNL A   1      46.639  30.558  37.955  1.00  0.00     0.031 A 
ATOM     66  C   UNL A   1      45.073  27.500  32.001  1.00  0.00     0.049 A 
ATOM     67  C   UNL A   1      46.671  29.045  37.662  1.00  0.00     0.074 A 
ATOM     68  C   UNL A   1      46.419  27.429  31.691  1.00  0.00     0.029 A 
ATOM     69  N   UNL A   1      44.984  27.115  33.339  1.00  0.00    -0.354 N 
ATOM     70  N   UNL A   1      46.047  28.500  36.633  1.00  0.00    -0.248 NA
ATOM     71  C   UNL A   1      47.583  28.091  38.298  1.00  0.00     0.031 C 
ATOM     72  C   UNL A   1      47.140  27.252  32.910  1.00  0.00     0.029 A 
ATOM     73  C   UNL A   1      46.225  27.057  33.938  1.00  0.00     0.049 A 
ATOM     74  H   UNL A   1      44.138  26.908  33.800  1.00  0.00     0.167 HD
ATOM     75  C   UNL A   1      46.556  27.252  36.383  1.00  0.00     0.074 A 
ATOM     76  C   UNL A   1      47.473  27.018  37.489  1.00  0.00     0.031 C 
ATOM     77  C   UNL A   1      46.359  26.482  35.268  1.00  0.00     0.031 A 
BRANCH  64  78
ATOM     78  C   UNL A   1      43.614  27.763  29.812  1.00  0.00    -0.014 A 
ATOM     79  C   UNL A   1      44.016  28.744  28.873  1.00  0.00     0.010 A 
ATOM     80  C   UNL A   1      42.910  26.670  29.255  1.00  0.00     0.010 A 
ATOM     81  C   UNL A   1      43.737  28.660  27.494  1.00  0.00     0.020 A 
ATOM     82  C   UNL A   1      42.656  26.551  27.864  1.00  0.00     0.020 A 
ATOM     83  C   UNL A   1      43.065  27.554  26.990  1.00  0.00     0.054 A 
BRANCH  83  84
ATOM     84  S   UNL A   1      42.776  27.444  25.195  1.00  0.00     0.124 S 
ATOM     85  O   UNL A   1      44.132  27.386  24.655  1.00  0.00    -0.237 OA
ATOM     86  O   UNL A   1      42.000  26.213  25.070  1.00  0.00    -0.237 OA
ATOM     87  O   UNL A   1      42.039  28.668  24.884  1.00  0.00    -0.744 OA
ENDBRANCH  83  84
ENDBRANCH  64  78
BRANCH  65  88
ATOM     88  C   UNL A   1      46.283  31.429  39.129  1.00  0.00    -0.014 A 
ATOM     89  C   UNL A   1      47.145  32.555  39.240  1.00  0.00     0.010 A 
ATOM     90  C   UNL A   1      44.922  31.625  39.450  1.00  0.00     0.010 A 
ATOM     91  C   UNL A   1      46.623  33.857  39.296  1.00  0.00     0.020 A 
ATOM     92  C   UNL A   1      44.398  32.937  39.534  1.00  0.00     0.020 A 
ATOM     93  C   UNL A   1      45.245  34.041  39.371  1.00  0.00     0.054 A 
BRANCH  93  94
ATOM     94  S   UNL A   1      44.580  35.691  38.944  1.00  0.00     0.124 S 
ATOM     95  O   UNL A   1      45.316  36.022  37.730  1.00  0.00    -0.237 OA
ATOM     96  O   UNL A   1      43.152  35.426  38.769  1.00  0.00    -0.237 OA
ATOM     97  O   UNL A   1      44.903  36.492  40.118  1.00  0.00    -0.744 OA
ENDBRANCH  93  94
ENDBRANCH  65  88
BRANCH  77  98
ATOM     98  C   UNL A   1      46.233  24.976  35.347  1.00  0.00    -0.014 A 
ATOM     99  C   UNL A   1      47.198  24.120  34.807  1.00  0.00     0.010 A 
ATOM    100  C   UNL A   1      45.254  24.396  36.200  1.00  0.00     0.010 A 
ATOM    101  C   UNL A   1      47.160  22.748  35.054  1.00  0.00     0.020 A 
ATOM    102  C   UNL A   1      45.238  23.034  36.494  1.00  0.00     0.020 A 
ATOM    103  C   UNL A   1      46.181  22.214  35.893  1.00  0.00     0.054 A 
BRANCH 103 104
ATOM    104  S   UNL A   1      46.189  20.440  36.211  1.00  0.00     0.124 S 
ATOM    105  O   UNL A   1      47.609  20.124  36.079  1.00  0.00    -0.237 OA
ATOM    106  O   UNL A   1      45.652  20.356  37.567  1.00  0.00    -0.237 OA
ATOM    107  O   UNL A   1      45.325  19.893  35.170  1.00  0.00    -0.744 OA
ENDBRANCH 103 104
ENDBRANCH  77  98
ENDBRANCH  51  52
ENDBRANCH  44  46
ENDBRANCH  43  44
ENDBRANCH  42  43
ENDBRANCH  41  42
ENDBRANCH  40  41
ENDBRANCH  39  40
ENDBRANCH  38  39
ENDBRANCH   1  38
TORSDOF 26
ENDMDL
