MODEL 1
REMARK VINA RESULT:      -8.6      0.000      0.000
REMARK SMILES COC(=O)C1=C(C)N(c2ccc(Br)cc2)C(=O)/C1=C\c1ccc(C(=O)OCCOCCOCCOCCOC(=O)c2ccc(-c3c4nc(c(-c5ccc(S(=O)(=O)[O-])cc5)c5ccc([nH]5)c(-c5ccc(S(=O)(=O)[O-])cc5)c5nc(c(-c6ccc(S(=O)(=O)[O-])cc6)c6ccc3[nH]6)C=C5)C=C4)cc2)cc1
REMARK SMILES IDX 32 1 31 2 30 3 29 4 28 5 27 6 26 7 24 8 25 9 23 10 20 11
REMARK SMILES IDX 21 12 102 13 22 14 101 15 19 16 5 17 6 18 18 19 7 20 8 21
REMARK SMILES IDX 16 22 17 23 3 24 4 25 2 26 1 27 9 28 10 29 15 30 11 31 14 32
REMARK SMILES IDX 12 33 13 34 33 35 34 36 35 37 36 38 37 39 38 40 39 41 40 42
REMARK SMILES IDX 41 43 42 44 100 45 43 46 99 47 44 48 45 49 46 50 93 51 47 52
REMARK SMILES IDX 98 53 92 54 94 55 48 56 97 57 91 58 90 59 49 61 79 62 60 63
REMARK SMILES IDX 78 64 61 65 64 66 77 67 95 68 62 69 63 70 76 72 96 73 65 74
REMARK SMILES IDX 50 75 51 76 59 77 52 78 58 79 53 80 54 81 55 82 56 83 57 84
REMARK SMILES IDX 80 85 81 86 89 87 82 88 88 89 83 90 84 91 85 92 86 93 87 94
REMARK SMILES IDX 66 95 67 96 75 97 68 98 74 99 69 100 70 101 71 102 72 103
REMARK SMILES IDX 73 104
REMARK H PARENT 94 60 64 71
REMARK Flexibility Score: inf
ROOT
ATOM      1  O   UNL A   1      46.267  26.614  26.708  1.00  0.00    -0.377 OA
ENDROOT
BRANCH   1   2
ATOM      2  C   UNL A   1      45.267  27.170  25.866  1.00  0.00     0.188 C 
BRANCH   2   3
ATOM      3  C   UNL A   1      44.087  26.304  25.369  1.00  0.00     0.188 C 
BRANCH   3   4
ATOM      4  O   UNL A   1      42.888  26.449  26.111  1.00  0.00    -0.376 OA
BRANCH   4   5
ATOM      5  C   UNL A   1      42.471  25.381  26.941  1.00  0.00     0.202 C 
BRANCH   5   6
ATOM      6  C   UNL A   1      43.034  23.985  26.637  1.00  0.00     0.261 C 
BRANCH   6   7
ATOM      7  O   UNL A   1      42.065  23.005  26.251  1.00  0.00    -0.460 OA
BRANCH   7   8
ATOM      8  C   UNL A   1      41.193  22.607  27.202  1.00  0.00     0.338 C 
ATOM      9  O   UNL A   1      41.458  22.313  28.355  1.00  0.00    -0.246 OA
BRANCH   8  10
ATOM     10  C   UNL A   1      39.818  22.796  26.679  1.00  0.00     0.060 A 
ATOM     11  C   UNL A   1      37.300  23.158  25.535  1.00  0.00    -0.025 A 
ATOM     12  C   UNL A   1      38.047  22.014  25.227  1.00  0.00     0.009 A 
ATOM     13  C   UNL A   1      37.765  24.059  26.502  1.00  0.00     0.009 A 
ATOM     14  C   UNL A   1      39.310  21.839  25.792  1.00  0.00     0.016 A 
ATOM     15  C   UNL A   1      39.026  23.881  27.072  1.00  0.00     0.016 A 
BRANCH  11  16
ATOM     16  C   UNL A   1      36.180  23.536  24.669  1.00  0.00     0.023 C 
ATOM     17  C   UNL A   1      34.033  22.834  23.539  1.00  0.00     0.092 C 
ATOM     18  C   UNL A   1      33.362  21.661  23.469  1.00  0.00     0.039 C 
ATOM     19  C   UNL A   1      35.228  22.643  24.340  1.00  0.00     0.057 C 
ATOM     20  C   UNL A   1      32.043  21.453  22.800  1.00  0.00     0.066 C 
ATOM     21  N   UNL A   1      34.014  20.686  24.228  1.00  0.00    -0.280 N 
ATOM     22  C   UNL A   1      35.190  21.209  24.800  1.00  0.00     0.263 C 
ATOM     23  O   UNL A   1      36.002  20.641  25.507  1.00  0.00    -0.268 OA
BRANCH  17  24
ATOM     24  C   UNL A   1      33.581  24.134  23.012  1.00  0.00     0.340 C 
ATOM     25  O   UNL A   1      33.744  24.512  21.863  1.00  0.00    -0.246 OA
BRANCH  24  26
ATOM     26  O   UNL A   1      33.034  24.867  24.016  1.00  0.00    -0.465 OA
ATOM     27  C   UNL A   1      31.935  25.691  23.629  1.00  0.00     0.282 C 
ENDBRANCH  24  26
ENDBRANCH  17  24
BRANCH  21  28
ATOM     28  C   UNL A   1      33.601  19.364  24.545  1.00  0.00     0.049 A 
ATOM     29  C   UNL A   1      33.918  18.316  23.664  1.00  0.00     0.028 A 
ATOM     30  C   UNL A   1      32.888  19.065  25.710  1.00  0.00     0.028 A 
ATOM     31  C   UNL A   1      33.592  16.993  23.968  1.00  0.00     0.018 A 
ATOM     32  C   UNL A   1      32.550  17.740  26.014  1.00  0.00     0.018 A 
ATOM     33  C   UNL A   1      32.919  16.711  25.150  1.00  0.00     0.018 A 
ATOM     34  Br  UNL A   1      32.511  14.918  25.587  1.00  0.00    -0.051 Br
ENDBRANCH  21  28
ENDBRANCH  11  16
ENDBRANCH   8  10
ENDBRANCH   7   8
ENDBRANCH   6   7
ENDBRANCH   5   6
ENDBRANCH   4   5
ENDBRANCH   3   4
ENDBRANCH   2   3
ENDBRANCH   1   2
BRANCH   1  35
ATOM     35  C   UNL A   1      45.940  26.210  28.033  1.00  0.00     0.188 C 
BRANCH  35  36
ATOM     36  C   UNL A   1      46.353  24.812  28.548  1.00  0.00     0.188 C 
BRANCH  36  37
ATOM     37  O   UNL A   1      45.293  24.061  29.120  1.00  0.00    -0.376 OA
BRANCH  37  38
ATOM     38  C   UNL A   1      44.614  24.641  30.220  1.00  0.00     0.202 C 
BRANCH  38  39
ATOM     39  C   UNL A   1      44.187  23.694  31.349  1.00  0.00     0.261 C 
BRANCH  39  40
ATOM     40  O   UNL A   1      44.568  24.076  32.680  1.00  0.00    -0.460 OA
BRANCH  40  41
ATOM     41  C   UNL A   1      43.647  23.954  33.660  1.00  0.00     0.338 C 
ATOM     42  O   UNL A   1      43.088  22.934  34.026  1.00  0.00    -0.246 OA
BRANCH  41  43
ATOM     43  C   UNL A   1      43.569  25.261  34.346  1.00  0.00     0.060 A 
ATOM     44  C   UNL A   1      42.656  25.440  35.395  1.00  0.00     0.016 A 
ATOM     45  C   UNL A   1      44.433  26.293  33.975  1.00  0.00     0.016 A 
ATOM     46  C   UNL A   1      42.596  26.665  36.066  1.00  0.00     0.010 A 
ATOM     47  C   UNL A   1      44.355  27.523  34.631  1.00  0.00     0.010 A 
ATOM     48  C   UNL A   1      43.422  27.723  35.663  1.00  0.00    -0.014 A 
BRANCH  48  49
ATOM     49  C   UNL A   1      43.200  29.093  36.187  1.00  0.00     0.031 A 
ATOM     50  C   UNL A   1      44.060  29.563  37.329  1.00  0.00     0.074 A 
ATOM     51  C   UNL A   1      42.245  29.893  35.681  1.00  0.00     0.049 A 
ATOM     52  N   UNL A   1      43.990  30.672  38.017  1.00  0.00    -0.248 NA
ATOM     53  C   UNL A   1      45.139  28.655  37.752  1.00  0.00     0.031 C 
ATOM     54  C   UNL A   1      41.379  29.571  34.548  1.00  0.00     0.029 A 
ATOM     55  N   UNL A   1      41.835  31.144  36.073  1.00  0.00    -0.354 N 
ATOM     56  C   UNL A   1      45.004  30.591  38.963  1.00  0.00     0.074 A 
ATOM     57  C   UNL A   1      45.659  29.315  38.777  1.00  0.00     0.031 C 
ATOM     58  C   UNL A   1      40.529  30.593  34.346  1.00  0.00     0.029 A 
ATOM     59  C   UNL A   1      40.761  31.621  35.360  1.00  0.00     0.049 A 
ATOM     60  H   UNL A   1      42.270  31.651  36.798  1.00  0.00     0.167 HD
ATOM     61  C   UNL A   1      45.359  31.498  39.904  1.00  0.00     0.031 A 
ATOM     62  C   UNL A   1      40.029  32.742  35.529  1.00  0.00     0.031 A 
ATOM     63  C   UNL A   1      44.691  32.756  40.099  1.00  0.00     0.049 A 
ATOM     64  C   UNL A   1      40.386  33.697  36.641  1.00  0.00     0.074 A 
ATOM     65  C   UNL A   1      44.985  33.751  41.013  1.00  0.00     0.029 A 
ATOM     66  N   UNL A   1      43.588  33.187  39.377  1.00  0.00    -0.354 N 
ATOM     67  N   UNL A   1      41.367  33.623  37.510  1.00  0.00    -0.248 NA
ATOM     68  C   UNL A   1      39.536  34.887  36.796  1.00  0.00     0.031 C 
ATOM     69  C   UNL A   1      44.018  34.753  40.891  1.00  0.00     0.029 A 
ATOM     70  C   UNL A   1      43.166  34.417  39.850  1.00  0.00     0.049 A 
ATOM     71  H   UNL A   1      43.167  32.691  38.639  1.00  0.00     0.167 HD
ATOM     72  C   UNL A   1      41.269  34.770  38.293  1.00  0.00     0.074 A 
ATOM     73  C   UNL A   1      40.142  35.527  37.789  1.00  0.00     0.031 C 
ATOM     74  C   UNL A   1      42.043  35.162  39.336  1.00  0.00     0.031 A 
BRANCH  61  75
ATOM     75  C   UNL A   1      46.496  31.138  40.824  1.00  0.00    -0.014 A 
ATOM     76  C   UNL A   1      47.834  31.376  40.460  1.00  0.00     0.010 A 
ATOM     77  C   UNL A   1      46.217  30.588  42.088  1.00  0.00     0.010 A 
ATOM     78  C   UNL A   1      48.874  31.036  41.330  1.00  0.00     0.020 A 
ATOM     79  C   UNL A   1      47.252  30.275  42.973  1.00  0.00     0.020 A 
ATOM     80  C   UNL A   1      48.575  30.487  42.582  1.00  0.00     0.054 A 
BRANCH  80  81
ATOM     81  S   UNL A   1      49.944  30.080  43.700  1.00  0.00     0.124 S 
ATOM     82  O   UNL A   1      50.007  31.269  44.546  1.00  0.00    -0.237 OA
ATOM     83  O   UNL A   1      49.466  28.866  44.358  1.00  0.00    -0.237 OA
ATOM     84  O   UNL A   1      51.082  29.893  42.804  1.00  0.00    -0.744 OA
ENDBRANCH  80  81
ENDBRANCH  61  75
BRANCH  62  85
ATOM     85  C   UNL A   1      38.863  33.013  34.641  1.00  0.00    -0.014 A 
ATOM     86  C   UNL A   1      37.593  32.493  34.942  1.00  0.00     0.010 A 
ATOM     87  C   UNL A   1      39.022  33.791  33.478  1.00  0.00     0.010 A 
ATOM     88  C   UNL A   1      36.507  32.732  34.091  1.00  0.00     0.020 A 
ATOM     89  C   UNL A   1      37.935  34.057  32.641  1.00  0.00     0.020 A 
ATOM     90  C   UNL A   1      36.685  33.516  32.948  1.00  0.00     0.054 A 
BRANCH  90  91
ATOM     91  S   UNL A   1      35.251  33.852  31.888  1.00  0.00     0.124 S 
ATOM     92  O   UNL A   1      35.844  33.824  30.555  1.00  0.00    -0.237 OA
ATOM     93  O   UNL A   1      34.358  32.742  32.209  1.00  0.00    -0.237 OA
ATOM     94  O   UNL A   1      34.791  35.163  32.341  1.00  0.00    -0.744 OA
ENDBRANCH  90  91
ENDBRANCH  62  85
BRANCH  74  95
ATOM     95  C   UNL A   1      41.731  36.485  39.987  1.00  0.00    -0.014 A 
ATOM     96  C   UNL A   1      42.203  37.695  39.451  1.00  0.00     0.010 A 
ATOM     97  C   UNL A   1      40.877  36.520  41.107  1.00  0.00     0.010 A 
ATOM     98  C   UNL A   1      41.844  38.914  40.034  1.00  0.00     0.020 A 
ATOM     99  C   UNL A   1      40.492  37.737  41.674  1.00  0.00     0.020 A 
ATOM    100  C   UNL A   1      40.986  38.927  41.139  1.00  0.00     0.054 A 
BRANCH 100 101
ATOM    101  S   UNL A   1      40.484  40.526  41.833  1.00  0.00     0.124 S 
ATOM    102  O   UNL A   1      39.071  40.300  42.128  1.00  0.00    -0.237 OA
ATOM    103  O   UNL A   1      41.355  40.656  42.999  1.00  0.00    -0.237 OA
ATOM    104  O   UNL A   1      40.750  41.474  40.754  1.00  0.00    -0.744 OA
ENDBRANCH 100 101
ENDBRANCH  74  95
ENDBRANCH  48  49
ENDBRANCH  41  43
ENDBRANCH  40  41
ENDBRANCH  39  40
ENDBRANCH  38  39
ENDBRANCH  37  38
ENDBRANCH  36  37
ENDBRANCH  35  36
ENDBRANCH   1  35
TORSDOF 27
ENDMDL
MODEL 2
REMARK VINA RESULT:      -8.6      6.036      9.823
REMARK SMILES COC(=O)C1=C(C)N(c2ccc(Br)cc2)C(=O)/C1=C\c1ccc(C(=O)OCCOCCOCCOCCOC(=O)c2ccc(-c3c4nc(c(-c5ccc(S(=O)(=O)[O-])cc5)c5ccc([nH]5)c(-c5ccc(S(=O)(=O)[O-])cc5)c5nc(c(-c6ccc(S(=O)(=O)[O-])cc6)c6ccc3[nH]6)C=C5)C=C4)cc2)cc1
REMARK SMILES IDX 32 1 31 2 30 3 29 4 28 5 27 6 26 7 24 8 25 9 23 10 20 11
REMARK SMILES IDX 21 12 102 13 22 14 101 15 19 16 5 17 6 18 18 19 7 20 8 21
REMARK SMILES IDX 16 22 17 23 3 24 4 25 2 26 1 27 9 28 10 29 15 30 11 31 14 32
REMARK SMILES IDX 12 33 13 34 33 35 34 36 35 37 36 38 37 39 38 40 39 41 40 42
REMARK SMILES IDX 41 43 42 44 100 45 43 46 99 47 44 48 45 49 46 50 93 51 47 52
REMARK SMILES IDX 98 53 92 54 94 55 48 56 97 57 91 58 90 59 49 61 79 62 60 63
REMARK SMILES IDX 78 64 61 65 64 66 77 67 95 68 62 69 63 70 76 72 96 73 65 74
REMARK SMILES IDX 50 75 51 76 59 77 52 78 58 79 53 80 54 81 55 82 56 83 57 84
REMARK SMILES IDX 80 85 81 86 89 87 82 88 88 89 83 90 84 91 85 92 86 93 87 94
REMARK SMILES IDX 66 95 67 96 75 97 68 98 74 99 69 100 70 101 71 102 72 103
REMARK SMILES IDX 73 104
REMARK H PARENT 94 60 64 71
REMARK Flexibility Score: inf
ROOT
ATOM      1  O   UNL A   1      42.008  23.591  27.923  1.00  0.00    -0.377 OA
ENDROOT
BRANCH   1   2
ATOM      2  C   UNL A   1      40.720  23.126  27.546  1.00  0.00     0.188 C 
BRANCH   2   3
ATOM      3  C   UNL A   1      40.549  21.747  26.871  1.00  0.00     0.188 C 
BRANCH   3   4
ATOM      4  O   UNL A   1      40.744  20.636  27.730  1.00  0.00    -0.376 OA
BRANCH   4   5
ATOM      5  C   UNL A   1      41.816  19.751  27.460  1.00  0.00     0.202 C 
BRANCH   5   6
ATOM      6  C   UNL A   1      41.758  18.942  26.157  1.00  0.00     0.261 C 
BRANCH   6   7
ATOM      7  O   UNL A   1      42.538  19.463  25.077  1.00  0.00    -0.460 OA
BRANCH   7   8
ATOM      8  C   UNL A   1      43.861  19.194  25.099  1.00  0.00     0.338 C 
ATOM      9  O   UNL A   1      44.381  18.095  25.004  1.00  0.00    -0.246 OA
BRANCH   8  10
ATOM     10  C   UNL A   1      44.597  20.479  25.034  1.00  0.00     0.060 A 
ATOM     11  C   UNL A   1      45.867  22.951  24.793  1.00  0.00    -0.025 A 
ATOM     12  C   UNL A   1      44.543  22.890  25.246  1.00  0.00     0.009 A 
ATOM     13  C   UNL A   1      46.588  21.771  24.571  1.00  0.00     0.009 A 
ATOM     14  C   UNL A   1      43.906  21.654  25.357  1.00  0.00     0.016 A 
ATOM     15  C   UNL A   1      45.952  20.533  24.688  1.00  0.00     0.016 A 
BRANCH  11  16
ATOM     16  C   UNL A   1      46.398  24.229  24.308  1.00  0.00     0.023 C 
ATOM     17  C   UNL A   1      47.748  26.302  24.816  1.00  0.00     0.092 C 
ATOM     18  C   UNL A   1      48.355  26.762  25.935  1.00  0.00     0.039 C 
ATOM     19  C   UNL A   1      47.110  25.034  25.118  1.00  0.00     0.057 C 
ATOM     20  C   UNL A   1      49.186  28.000  26.026  1.00  0.00     0.066 C 
ATOM     21  N   UNL A   1      48.209  25.843  26.977  1.00  0.00    -0.280 N 
ATOM     22  C   UNL A   1      47.440  24.740  26.559  1.00  0.00     0.263 C 
ATOM     23  O   UNL A   1      47.108  23.763  27.206  1.00  0.00    -0.268 OA
BRANCH  17  24
ATOM     24  C   UNL A   1      47.818  26.901  23.472  1.00  0.00     0.340 C 
ATOM     25  O   UNL A   1      47.061  27.763  23.056  1.00  0.00    -0.246 OA
BRANCH  24  26
ATOM     26  O   UNL A   1      48.796  26.292  22.753  1.00  0.00    -0.465 OA
ATOM     27  C   UNL A   1      50.004  27.040  22.627  1.00  0.00     0.282 C 
ENDBRANCH  24  26
ENDBRANCH  17  24
BRANCH  21  28
ATOM     28  C   UNL A   1      48.789  25.849  28.273  1.00  0.00     0.049 A 
ATOM     29  C   UNL A   1      50.154  25.547  28.417  1.00  0.00     0.028 A 
ATOM     30  C   UNL A   1      48.048  26.150  29.421  1.00  0.00     0.028 A 
ATOM     31  C   UNL A   1      50.781  25.608  29.662  1.00  0.00     0.018 A 
ATOM     32  C   UNL A   1      48.671  26.203  30.674  1.00  0.00     0.018 A 
ATOM     33  C   UNL A   1      50.036  25.948  30.785  1.00  0.00     0.018 A 
ATOM     34  Br  UNL A   1      50.888  26.072  32.467  1.00  0.00    -0.051 Br
ENDBRANCH  21  28
ENDBRANCH  11  16
ENDBRANCH   8  10
ENDBRANCH   7   8
ENDBRANCH   6   7
ENDBRANCH   5   6
ENDBRANCH   4   5
ENDBRANCH   3   4
ENDBRANCH   2   3
ENDBRANCH   1   2
BRANCH   1  35
ATOM     35  C   UNL A   1      42.228  24.979  28.149  1.00  0.00     0.188 C 
BRANCH  35  36
ATOM     36  C   UNL A   1      43.627  25.596  27.922  1.00  0.00     0.188 C 
BRANCH  36  37
ATOM     37  O   UNL A   1      44.022  25.671  26.560  1.00  0.00    -0.376 OA
BRANCH  37  38
ATOM     38  C   UNL A   1      43.562  26.787  25.819  1.00  0.00     0.202 C 
BRANCH  38  39
ATOM     39  C   UNL A   1      44.024  28.172  26.292  1.00  0.00     0.261 C 
BRANCH  39  40
ATOM     40  O   UNL A   1      45.442  28.382  26.362  1.00  0.00    -0.460 OA
BRANCH  40  41
ATOM     41  C   UNL A   1      45.915  29.611  26.058  1.00  0.00     0.338 C 
ATOM     42  O   UNL A   1      46.349  29.990  24.984  1.00  0.00    -0.246 OA
BRANCH  41  43
ATOM     43  C   UNL A   1      45.637  30.482  27.220  1.00  0.00     0.060 A 
ATOM     44  C   UNL A   1      46.638  30.699  28.178  1.00  0.00     0.016 A 
ATOM     45  C   UNL A   1      44.398  31.116  27.333  1.00  0.00     0.016 A 
ATOM     46  C   UNL A   1      46.391  31.542  29.264  1.00  0.00     0.010 A 
ATOM     47  C   UNL A   1      44.146  31.939  28.431  1.00  0.00     0.010 A 
ATOM     48  C   UNL A   1      45.132  32.139  29.414  1.00  0.00    -0.014 A 
BRANCH  48  49
ATOM     49  C   UNL A   1      44.770  32.826  30.678  1.00  0.00     0.031 A 
ATOM     50  C   UNL A   1      44.309  31.983  31.836  1.00  0.00     0.074 A 
ATOM     51  C   UNL A   1      44.826  34.165  30.792  1.00  0.00     0.049 A 
ATOM     52  N   UNL A   1      43.848  32.355  33.000  1.00  0.00    -0.248 NA
ATOM     53  C   UNL A   1      44.371  30.524  31.648  1.00  0.00     0.031 C 
ATOM     54  C   UNL A   1      45.297  35.086  29.760  1.00  0.00     0.029 A 
ATOM     55  N   UNL A   1      44.462  34.983  31.834  1.00  0.00    -0.354 N 
ATOM     56  C   UNL A   1      43.552  31.180  33.680  1.00  0.00     0.074 A 
ATOM     57  C   UNL A   1      43.863  30.084  32.790  1.00  0.00     0.031 C 
ATOM     58  C   UNL A   1      45.180  36.346  30.215  1.00  0.00     0.029 A 
ATOM     59  C   UNL A   1      44.586  36.323  31.551  1.00  0.00     0.049 A 
ATOM     60  H   UNL A   1      44.142  34.642  32.701  1.00  0.00     0.167 HD
ATOM     61  C   UNL A   1      43.065  31.027  34.934  1.00  0.00     0.031 A 
ATOM     62  C   UNL A   1      44.229  37.404  32.275  1.00  0.00     0.031 A 
ATOM     63  C   UNL A   1      42.738  32.121  35.808  1.00  0.00     0.049 A 
ATOM     64  C   UNL A   1      43.605  37.211  33.635  1.00  0.00     0.074 A 
ATOM     65  C   UNL A   1      42.256  32.071  37.103  1.00  0.00     0.029 A 
ATOM     66  N   UNL A   1      42.848  33.462  35.473  1.00  0.00    -0.354 N 
ATOM     67  N   UNL A   1      43.359  36.094  34.279  1.00  0.00    -0.248 NA
ATOM     68  C   UNL A   1      43.209  38.424  34.365  1.00  0.00     0.031 C 
ATOM     69  C   UNL A   1      42.008  33.380  37.526  1.00  0.00     0.029 A 
ATOM     70  C   UNL A   1      42.407  34.249  36.523  1.00  0.00     0.049 A 
ATOM     71  H   UNL A   1      43.188  33.804  34.614  1.00  0.00     0.167 HD
ATOM     72  C   UNL A   1      42.808  36.472  35.501  1.00  0.00     0.074 A 
ATOM     73  C   UNL A   1      42.768  37.919  35.511  1.00  0.00     0.031 C 
ATOM     74  C   UNL A   1      42.376  35.690  36.522  1.00  0.00     0.031 A 
BRANCH  61  75
ATOM     75  C   UNL A   1      42.815  29.623  35.417  1.00  0.00    -0.014 A 
ATOM     76  C   UNL A   1      41.556  29.012  35.270  1.00  0.00     0.010 A 
ATOM     77  C   UNL A   1      43.868  28.890  35.993  1.00  0.00     0.010 A 
ATOM     78  C   UNL A   1      41.346  27.707  35.725  1.00  0.00     0.020 A 
ATOM     79  C   UNL A   1      43.671  27.574  36.421  1.00  0.00     0.020 A 
ATOM     80  C   UNL A   1      42.406  26.997  36.297  1.00  0.00     0.054 A 
BRANCH  80  81
ATOM     81  S   UNL A   1      42.111  25.296  36.854  1.00  0.00     0.124 S 
ATOM     82  O   UNL A   1      42.038  24.572  35.588  1.00  0.00    -0.237 OA
ATOM     83  O   UNL A   1      43.292  25.019  37.669  1.00  0.00    -0.237 OA
ATOM     84  O   UNL A   1      40.854  25.385  37.594  1.00  0.00    -0.744 OA
ENDBRANCH  80  81
ENDBRANCH  61  75
BRANCH  62  85
ATOM     85  C   UNL A   1      44.425  38.773  31.718  1.00  0.00    -0.014 A 
ATOM     86  C   UNL A   1      43.442  39.369  30.910  1.00  0.00     0.010 A 
ATOM     87  C   UNL A   1      45.608  39.487  31.989  1.00  0.00     0.010 A 
ATOM     88  C   UNL A   1      43.642  40.645  30.371  1.00  0.00     0.020 A 
ATOM     89  C   UNL A   1      45.800  40.774  31.478  1.00  0.00     0.020 A 
ATOM     90  C   UNL A   1      44.819  41.340  30.662  1.00  0.00     0.054 A 
BRANCH  90  91
ATOM     91  S   UNL A   1      45.033  43.013  29.992  1.00  0.00     0.124 S 
ATOM     92  O   UNL A   1      44.756  42.812  28.573  1.00  0.00    -0.237 OA
ATOM     93  O   UNL A   1      44.031  43.777  30.732  1.00  0.00    -0.237 OA
ATOM     94  O   UNL A   1      46.420  43.337  30.319  1.00  0.00    -0.744 OA
ENDBRANCH  90  91
ENDBRANCH  62  85
BRANCH  74  95
ATOM     95  C   UNL A   1      41.853  36.374  37.758  1.00  0.00    -0.014 A 
ATOM     96  C   UNL A   1      42.723  36.909  38.724  1.00  0.00     0.010 A 
ATOM     97  C   UNL A   1      40.465  36.559  37.913  1.00  0.00     0.010 A 
ATOM     98  C   UNL A   1      42.216  37.598  39.829  1.00  0.00     0.020 A 
ATOM     99  C   UNL A   1      39.955  37.273  39.000  1.00  0.00     0.020 A 
ATOM    100  C   UNL A   1      40.835  37.780  39.957  1.00  0.00     0.054 A 
BRANCH 100 101
ATOM    101  S   UNL A   1      40.208  38.736  41.366  1.00  0.00     0.124 S 
ATOM    102  O   UNL A   1      39.819  37.682  42.300  1.00  0.00    -0.237 OA
ATOM    103  O   UNL A   1      41.372  39.526  41.759  1.00  0.00    -0.237 OA
ATOM    104  O   UNL A   1      39.102  39.505  40.801  1.00  0.00    -0.744 OA
ENDBRANCH 100 101
ENDBRANCH  74  95
ENDBRANCH  48  49
ENDBRANCH  41  43
ENDBRANCH  40  41
ENDBRANCH  39  40
ENDBRANCH  38  39
ENDBRANCH  37  38
ENDBRANCH  36  37
ENDBRANCH  35  36
ENDBRANCH   1  35
TORSDOF 27
ENDMDL
MODEL 3
REMARK VINA RESULT:      -8.6      5.107     12.590
REMARK SMILES COC(=O)C1=C(C)N(c2ccc(Br)cc2)C(=O)/C1=C\c1ccc(C(=O)OCCOCCOCCOCCOC(=O)c2ccc(-c3c4nc(c(-c5ccc(S(=O)(=O)[O-])cc5)c5ccc([nH]5)c(-c5ccc(S(=O)(=O)[O-])cc5)c5nc(c(-c6ccc(S(=O)(=O)[O-])cc6)c6ccc3[nH]6)C=C5)C=C4)cc2)cc1
REMARK SMILES IDX 32 1 31 2 30 3 29 4 28 5 27 6 26 7 24 8 25 9 23 10 20 11
REMARK SMILES IDX 21 12 102 13 22 14 101 15 19 16 5 17 6 18 18 19 7 20 8 21
REMARK SMILES IDX 16 22 17 23 3 24 4 25 2 26 1 27 9 28 10 29 15 30 11 31 14 32
REMARK SMILES IDX 12 33 13 34 33 35 34 36 35 37 36 38 37 39 38 40 39 41 40 42
REMARK SMILES IDX 41 43 42 44 100 45 43 46 99 47 44 48 45 49 46 50 93 51 47 52
REMARK SMILES IDX 98 53 92 54 94 55 48 56 97 57 91 58 90 59 49 61 79 62 60 63
REMARK SMILES IDX 78 64 61 65 64 66 77 67 95 68 62 69 63 70 76 72 96 73 65 74
REMARK SMILES IDX 50 75 51 76 59 77 52 78 58 79 53 80 54 81 55 82 56 83 57 84
REMARK SMILES IDX 80 85 81 86 89 87 82 88 88 89 83 90 84 91 85 92 86 93 87 94
REMARK SMILES IDX 66 95 67 96 75 97 68 98 74 99 69 100 70 101 71 102 72 103
REMARK SMILES IDX 73 104
REMARK H PARENT 94 60 64 71
REMARK Flexibility Score: inf
ROOT
ATOM      1  O   UNL A   1      36.758  32.445  33.166  1.00  0.00    -0.377 OA
ENDROOT
BRANCH   1   2
ATOM      2  C   UNL A   1      36.091  33.046  32.065  1.00  0.00     0.188 C 
BRANCH   2   3
ATOM      3  C   UNL A   1      36.892  33.775  30.963  1.00  0.00     0.188 C 
BRANCH   3   4
ATOM      4  O   UNL A   1      38.295  33.792  31.162  1.00  0.00    -0.376 OA
BRANCH   4   5
ATOM      5  C   UNL A   1      39.108  32.988  30.327  1.00  0.00     0.202 C 
BRANCH   5   6
ATOM      6  C   UNL A   1      38.582  31.595  29.955  1.00  0.00     0.261 C 
BRANCH   6   7
ATOM      7  O   UNL A   1      39.577  30.658  29.528  1.00  0.00    -0.460 OA
BRANCH   7   8
ATOM      8  C   UNL A   1      40.052  29.809  30.464  1.00  0.00     0.338 C 
ATOM      9  O   UNL A   1      39.564  29.587  31.559  1.00  0.00    -0.246 OA
BRANCH   8  10
ATOM     10  C   UNL A   1      41.151  29.019  29.858  1.00  0.00     0.060 A 
ATOM     11  C   UNL A   1      43.108  27.492  28.588  1.00  0.00    -0.025 A 
ATOM     12  C   UNL A   1      42.589  28.627  27.952  1.00  0.00     0.009 A 
ATOM     13  C   UNL A   1      42.731  27.190  29.903  1.00  0.00     0.009 A 
ATOM     14  C   UNL A   1      41.603  29.384  28.584  1.00  0.00     0.016 A 
ATOM     15  C   UNL A   1      41.748  27.951  30.538  1.00  0.00     0.016 A 
BRANCH  11  16
ATOM     16  C   UNL A   1      43.832  26.495  27.793  1.00  0.00     0.023 C 
ATOM     17  C   UNL A   1      43.718  24.388  26.405  1.00  0.00     0.092 C 
ATOM     18  C   UNL A   1      42.711  23.541  26.087  1.00  0.00     0.039 C 
ATOM     19  C   UNL A   1      43.191  25.445  27.248  1.00  0.00     0.057 C 
ATOM     20  C   UNL A   1      42.823  22.363  25.175  1.00  0.00     0.066 C 
ATOM     21  N   UNL A   1      41.507  23.995  26.630  1.00  0.00    -0.280 N 
ATOM     22  C   UNL A   1      41.714  25.172  27.376  1.00  0.00     0.263 C 
ATOM     23  O   UNL A   1      40.894  25.830  27.990  1.00  0.00    -0.268 OA
BRANCH  17  24
ATOM     24  C   UNL A   1      45.097  24.344  25.887  1.00  0.00     0.340 C 
ATOM     25  O   UNL A   1      45.450  24.807  24.815  1.00  0.00    -0.246 OA
BRANCH  24  26
ATOM     26  O   UNL A   1      45.883  23.644  26.746  1.00  0.00    -0.465 OA
ATOM     27  C   UNL A   1      46.883  24.415  27.408  1.00  0.00     0.282 C 
ENDBRANCH  24  26
ENDBRANCH  17  24
BRANCH  21  28
ATOM     28  C   UNL A   1      40.190  23.500  26.443  1.00  0.00     0.049 A 
ATOM     29  C   UNL A   1      39.119  24.407  26.367  1.00  0.00     0.028 A 
ATOM     30  C   UNL A   1      39.916  22.133  26.327  1.00  0.00     0.028 A 
ATOM     31  C   UNL A   1      37.817  23.969  26.116  1.00  0.00     0.018 A 
ATOM     32  C   UNL A   1      38.610  21.689  26.085  1.00  0.00     0.018 A 
ATOM     33  C   UNL A   1      37.572  22.610  25.964  1.00  0.00     0.018 A 
ATOM     34  Br  UNL A   1      35.819  22.015  25.583  1.00  0.00    -0.051 Br
ENDBRANCH  21  28
ENDBRANCH  11  16
ENDBRANCH   8  10
ENDBRANCH   7   8
ENDBRANCH   6   7
ENDBRANCH   5   6
ENDBRANCH   4   5
ENDBRANCH   3   4
ENDBRANCH   2   3
ENDBRANCH   1   2
BRANCH   1  35
ATOM     35  C   UNL A   1      36.565  32.955  34.482  1.00  0.00     0.188 C 
BRANCH  35  36
ATOM     36  C   UNL A   1      37.736  33.619  35.241  1.00  0.00     0.188 C 
BRANCH  36  37
ATOM     37  O   UNL A   1      37.417  34.042  36.559  1.00  0.00    -0.376 OA
BRANCH  37  38
ATOM     38  C   UNL A   1      37.283  33.032  37.543  1.00  0.00     0.202 C 
BRANCH  38  39
ATOM     39  C   UNL A   1      38.032  33.248  38.865  1.00  0.00     0.261 C 
BRANCH  39  40
ATOM     40  O   UNL A   1      39.194  32.434  39.080  1.00  0.00    -0.460 OA
BRANCH  40  41
ATOM     41  C   UNL A   1      40.393  33.053  39.160  1.00  0.00     0.338 C 
ATOM     42  O   UNL A   1      40.866  33.623  40.127  1.00  0.00    -0.246 OA
BRANCH  41  43
ATOM     43  C   UNL A   1      41.119  32.754  37.907  1.00  0.00     0.060 A 
ATOM     44  C   UNL A   1      40.449  32.116  36.853  1.00  0.00     0.016 A 
ATOM     45  C   UNL A   1      42.451  33.146  37.765  1.00  0.00     0.016 A 
ATOM     46  C   UNL A   1      41.122  31.855  35.657  1.00  0.00     0.010 A 
ATOM     47  C   UNL A   1      43.127  32.864  36.578  1.00  0.00     0.010 A 
ATOM     48  C   UNL A   1      42.474  32.197  35.526  1.00  0.00    -0.014 A 
BRANCH  48  49
ATOM     49  C   UNL A   1      43.267  31.706  34.373  1.00  0.00     0.031 A 
ATOM     50  C   UNL A   1      43.426  32.614  33.184  1.00  0.00     0.074 A 
ATOM     51  C   UNL A   1      43.814  30.477  34.367  1.00  0.00     0.049 A 
ATOM     52  N   UNL A   1      43.984  32.375  32.027  1.00  0.00    -0.248 NA
ATOM     53  C   UNL A   1      42.873  33.972  33.320  1.00  0.00     0.031 C 
ATOM     54  C   UNL A   1      43.769  29.522  35.473  1.00  0.00     0.029 A 
ATOM     55  N   UNL A   1      44.504  29.818  33.379  1.00  0.00    -0.354 N 
ATOM     56  C   UNL A   1      43.839  33.545  31.291  1.00  0.00     0.074 A 
ATOM     57  C   UNL A   1      43.120  34.484  32.123  1.00  0.00     0.031 C 
ATOM     58  C   UNL A   1      44.393  28.391  35.097  1.00  0.00     0.029 A 
ATOM     59  C   UNL A   1      44.842  28.526  33.711  1.00  0.00     0.049 A 
ATOM     60  H   UNL A   1      44.736  30.230  32.515  1.00  0.00     0.167 HD
ATOM     61  C   UNL A   1      44.267  33.814  30.035  1.00  0.00     0.031 A 
ATOM     62  C   UNL A   1      45.417  27.556  32.970  1.00  0.00     0.031 A 
ATOM     63  C   UNL A   1      44.963  32.870  29.205  1.00  0.00     0.049 A 
ATOM     64  C   UNL A   1      45.805  27.849  31.542  1.00  0.00     0.074 A 
ATOM     65  C   UNL A   1      45.454  33.051  27.924  1.00  0.00     0.029 A 
ATOM     66  N   UNL A   1      45.258  31.564  29.566  1.00  0.00    -0.354 N 
ATOM     67  N   UNL A   1      45.690  28.970  30.868  1.00  0.00    -0.248 NA
ATOM     68  C   UNL A   1      46.400  26.746  30.773  1.00  0.00     0.031 C 
ATOM     69  C   UNL A   1      45.983  31.834  27.485  1.00  0.00     0.029 A 
ATOM     70  C   UNL A   1      45.890  30.916  28.519  1.00  0.00     0.049 A 
ATOM     71  H   UNL A   1      45.046  31.157  30.437  1.00  0.00     0.167 HD
ATOM     72  C   UNL A   1      46.226  28.714  29.609  1.00  0.00     0.074 A 
ATOM     73  C   UNL A   1      46.675  27.337  29.617  1.00  0.00     0.031 C 
ATOM     74  C   UNL A   1      46.336  29.544  28.542  1.00  0.00     0.031 A 
BRANCH  61  75
ATOM     75  C   UNL A   1      43.952  35.173  29.468  1.00  0.00    -0.014 A 
ATOM     76  C   UNL A   1      42.853  35.372  28.613  1.00  0.00     0.010 A 
ATOM     77  C   UNL A   1      44.746  36.276  29.829  1.00  0.00     0.010 A 
ATOM     78  C   UNL A   1      42.578  36.642  28.099  1.00  0.00     0.020 A 
ATOM     79  C   UNL A   1      44.457  37.554  29.342  1.00  0.00     0.020 A 
ATOM     80  C   UNL A   1      43.382  37.725  28.468  1.00  0.00     0.054 A 
BRANCH  80  81
ATOM     81  S   UNL A   1      42.985  39.367  27.806  1.00  0.00     0.124 S 
ATOM     82  O   UNL A   1      43.913  40.222  28.542  1.00  0.00    -0.237 OA
ATOM     83  O   UNL A   1      43.268  39.212  26.381  1.00  0.00    -0.237 OA
ATOM     84  O   UNL A   1      41.574  39.546  28.142  1.00  0.00    -0.744 OA
ENDBRANCH  80  81
ENDBRANCH  61  75
BRANCH  62  85
ATOM     85  C   UNL A   1      45.635  26.202  33.553  1.00  0.00    -0.014 A 
ATOM     86  C   UNL A   1      44.634  25.218  33.483  1.00  0.00     0.010 A 
ATOM     87  C   UNL A   1      46.850  25.892  34.194  1.00  0.00     0.010 A 
ATOM     88  C   UNL A   1      44.837  23.956  34.053  1.00  0.00     0.020 A 
ATOM     89  C   UNL A   1      47.069  24.624  34.738  1.00  0.00     0.020 A 
ATOM     90  C   UNL A   1      46.055  23.666  34.674  1.00  0.00     0.054 A 
BRANCH  90  91
ATOM     91  S   UNL A   1      46.312  22.007  35.361  1.00  0.00     0.124 S 
ATOM     92  O   UNL A   1      47.699  21.737  34.998  1.00  0.00    -0.237 OA
ATOM     93  O   UNL A   1      46.058  22.216  36.785  1.00  0.00    -0.237 OA
ATOM     94  O   UNL A   1      45.314  21.192  34.671  1.00  0.00    -0.744 OA
ENDBRANCH  90  91
ENDBRANCH  62  85
BRANCH  74  95
ATOM     95  C   UNL A   1      46.999  29.009  27.299  1.00  0.00    -0.014 A 
ATOM     96  C   UNL A   1      48.396  28.886  27.210  1.00  0.00     0.010 A 
ATOM     97  C   UNL A   1      46.202  28.543  26.235  1.00  0.00     0.010 A 
ATOM     98  C   UNL A   1      48.985  28.324  26.073  1.00  0.00     0.020 A 
ATOM     99  C   UNL A   1      46.785  27.954  25.110  1.00  0.00     0.020 A 
ATOM    100  C   UNL A   1      48.175  27.856  25.033  1.00  0.00     0.054 A 
BRANCH 100 101
ATOM    101  S   UNL A   1      48.962  27.072  23.600  1.00  0.00     0.124 S 
ATOM    102  O   UNL A   1      48.102  25.912  23.376  1.00  0.00    -0.237 OA
ATOM    103  O   UNL A   1      48.886  28.116  22.581  1.00  0.00    -0.237 OA
ATOM    104  O   UNL A   1      50.312  26.764  24.068  1.00  0.00    -0.744 OA
ENDBRANCH 100 101
ENDBRANCH  74  95
ENDBRANCH  48  49
ENDBRANCH  41  43
ENDBRANCH  40  41
ENDBRANCH  39  40
ENDBRANCH  38  39
ENDBRANCH  37  38
ENDBRANCH  36  37
ENDBRANCH  35  36
ENDBRANCH   1  35
TORSDOF 27
ENDMDL
