MODEL 1
REMARK VINA RESULT:      -8.3      0.000      0.000
REMARK SMILES COc1cnc(SCC(=O)OCCOCCOCCOCCOC(=O)c2ccc(-c3c4nc(c(-c5ccc(S(=O)(=O)[O-])cc5)c5ccc([nH]5)c(-c5ccc(S(=O)(=O)[O-])cc5)c5nc(c(-c6ccc(S(=O)(=O)[O-])cc6)c6ccc3[nH]6)C=C5)C=C4)cc2)[nH]c1=O
REMARK SMILES IDX 17 1 16 2 15 3 14 4 13 5 12 6 11 7 9 8 10 9 8 10 7 11 6 12
REMARK SMILES IDX 3 13 4 14 87 15 5 16 86 17 88 18 2 20 1 21 18 22 19 23 20 24
REMARK SMILES IDX 21 25 22 26 23 27 24 28 25 29 26 30 27 31 85 32 28 33 84 34
REMARK SMILES IDX 29 35 30 36 31 37 78 38 32 39 83 40 77 41 79 42 33 43 82 44
REMARK SMILES IDX 76 45 75 46 34 48 64 49 45 50 63 51 46 52 49 53 62 54 80 55
REMARK SMILES IDX 47 56 48 57 61 59 81 60 50 61 35 62 36 63 44 64 37 65 43 66
REMARK SMILES IDX 38 67 39 68 40 69 41 70 42 71 65 72 66 73 74 74 67 75 73 76
REMARK SMILES IDX 68 77 69 78 70 79 71 80 72 81 51 82 52 83 60 84 53 85 59 86
REMARK SMILES IDX 54 87 55 88 56 89 57 90 58 91
REMARK H PARENT 86 19 79 47 49 58
REMARK Flexibility Score: inf
ROOT
ATOM      1  O   UNL A   1      31.700  30.433  25.559  1.00  0.00    -0.377 OA
ENDROOT
BRANCH   1   2
ATOM      2  C   UNL A   1      31.010  29.754  24.535  1.00  0.00     0.188 C 
BRANCH   2   3
ATOM      3  C   UNL A   1      31.038  28.269  24.127  1.00  0.00     0.188 C 
BRANCH   3   4
ATOM      4  O   UNL A   1      30.288  27.320  24.839  1.00  0.00    -0.376 OA
BRANCH   4   5
ATOM      5  C   UNL A   1      30.835  26.496  25.843  1.00  0.00     0.202 C 
BRANCH   5   6
ATOM      6  C   UNL A   1      30.908  24.955  25.815  1.00  0.00     0.261 C 
BRANCH   6   7
ATOM      7  O   UNL A   1      31.322  24.254  27.004  1.00  0.00    -0.463 OA
BRANCH   7   8
ATOM      8  C   UNL A   1      31.625  22.940  26.869  1.00  0.00     0.316 C 
ATOM      9  O   UNL A   1      31.001  22.192  26.117  1.00  0.00    -0.251 OA
BRANCH   8  10
ATOM     10  C   UNL A   1      32.820  22.400  27.647  1.00  0.00     0.200 C 
BRANCH  10  11
ATOM     11  S   UNL A   1      34.369  21.929  26.828  1.00  0.00    -0.076 SA
BRANCH  11  12
ATOM     12  C   UNL A   1      34.356  22.865  25.347  1.00  0.00     0.168 A 
ATOM     13  C   UNL A   1      34.021  24.536  23.175  1.00  0.00     0.202 A 
ATOM     14  C   UNL A   1      34.163  23.202  23.112  1.00  0.00     0.166 A 
ATOM     15  C   UNL A   1      34.198  25.125  24.541  1.00  0.00     0.293 A 
ATOM     16  N   UNL A   1      34.353  22.337  24.169  1.00  0.00    -0.229 NA
ATOM     17  N   UNL A   1      34.288  24.211  25.561  1.00  0.00    -0.298 N 
ATOM     18  O   UNL A   1      34.261  26.331  24.753  1.00  0.00    -0.265 OA
ATOM     19  H   UNL A   1      34.305  24.542  26.488  1.00  0.00     0.172 HD
BRANCH  13  20
ATOM     20  O   UNL A   1      33.658  25.227  22.029  1.00  0.00    -0.490 OA
ATOM     21  C   UNL A   1      32.312  25.652  21.848  1.00  0.00     0.278 C 
ENDBRANCH  13  20
ENDBRANCH  11  12
ENDBRANCH  10  11
ENDBRANCH   8  10
ENDBRANCH   7   8
ENDBRANCH   6   7
ENDBRANCH   5   6
ENDBRANCH   4   5
ENDBRANCH   3   4
ENDBRANCH   2   3
ENDBRANCH   1   2
BRANCH   1  22
ATOM     22  C   UNL A   1      31.788  29.850  26.831  1.00  0.00     0.188 C 
BRANCH  22  23
ATOM     23  C   UNL A   1      33.162  29.254  27.139  1.00  0.00     0.188 C 
BRANCH  23  24
ATOM     24  O   UNL A   1      34.236  30.096  26.747  1.00  0.00    -0.376 OA
BRANCH  24  25
ATOM     25  C   UNL A   1      34.628  31.148  27.619  1.00  0.00     0.202 C 
BRANCH  25  26
ATOM     26  C   UNL A   1      35.250  30.858  28.997  1.00  0.00     0.261 C 
BRANCH  26  27
ATOM     27  O   UNL A   1      36.179  29.781  29.089  1.00  0.00    -0.460 OA
BRANCH  27  28
ATOM     28  C   UNL A   1      36.827  29.620  30.254  1.00  0.00     0.338 C 
ATOM     29  O   UNL A   1      36.347  29.346  31.341  1.00  0.00    -0.246 OA
BRANCH  28  30
ATOM     30  C   UNL A   1      38.255  29.608  29.908  1.00  0.00     0.060 A 
ATOM     31  C   UNL A   1      38.604  29.659  28.555  1.00  0.00     0.016 A 
ATOM     32  C   UNL A   1      39.233  29.637  30.910  1.00  0.00     0.016 A 
ATOM     33  C   UNL A   1      39.943  29.719  28.194  1.00  0.00     0.010 A 
ATOM     34  C   UNL A   1      40.578  29.663  30.547  1.00  0.00     0.010 A 
ATOM     35  C   UNL A   1      40.930  29.669  29.187  1.00  0.00    -0.014 A 
BRANCH  35  36
ATOM     36  C   UNL A   1      42.314  29.379  28.769  1.00  0.00     0.031 A 
ATOM     37  C   UNL A   1      42.619  27.988  28.298  1.00  0.00     0.074 A 
ATOM     38  C   UNL A   1      43.239  30.351  28.729  1.00  0.00     0.049 A 
ATOM     39  N   UNL A   1      43.732  27.498  27.823  1.00  0.00    -0.248 NA
ATOM     40  C   UNL A   1      41.513  27.017  28.372  1.00  0.00     0.031 C 
ATOM     41  C   UNL A   1      43.017  31.743  29.119  1.00  0.00     0.029 A 
ATOM     42  N   UNL A   1      44.548  30.313  28.331  1.00  0.00    -0.354 N 
ATOM     43  C   UNL A   1      43.461  26.164  27.544  1.00  0.00     0.074 A 
ATOM     44  C   UNL A   1      42.095  25.911  27.939  1.00  0.00     0.031 C 
ATOM     45  C   UNL A   1      44.160  32.429  28.943  1.00  0.00     0.029 A 
ATOM     46  C   UNL A   1      45.194  31.516  28.462  1.00  0.00     0.049 A 
ATOM     47  H   UNL A   1      44.983  29.500  27.985  1.00  0.00     0.167 HD
ATOM     48  C   UNL A   1      44.282  25.234  27.001  1.00  0.00     0.031 A 
ATOM     49  C   UNL A   1      46.484  31.834  28.236  1.00  0.00     0.031 A 
ATOM     50  C   UNL A   1      45.652  25.501  26.655  1.00  0.00     0.049 A 
ATOM     51  C   UNL A   1      47.405  30.769  27.706  1.00  0.00     0.074 A 
ATOM     52  C   UNL A   1      46.585  24.644  26.102  1.00  0.00     0.029 A 
ATOM     53  N   UNL A   1      46.290  26.720  26.850  1.00  0.00    -0.354 N 
ATOM     54  N   UNL A   1      47.135  29.516  27.417  1.00  0.00    -0.248 NA
ATOM     55  C   UNL A   1      48.798  31.159  27.459  1.00  0.00     0.031 C 
ATOM     56  C   UNL A   1      47.806  25.323  26.032  1.00  0.00     0.029 A 
ATOM     57  C   UNL A   1      47.616  26.628  26.465  1.00  0.00     0.049 A 
ATOM     58  H   UNL A   1      45.862  27.529  27.209  1.00  0.00     0.167 HD
ATOM     59  C   UNL A   1      48.321  28.970  26.939  1.00  0.00     0.074 A 
ATOM     60  C   UNL A   1      49.302  30.038  26.958  1.00  0.00     0.031 C 
ATOM     61  C   UNL A   1      48.577  27.704  26.518  1.00  0.00     0.031 A 
BRANCH  48  62
ATOM     62  C   UNL A   1      43.725  23.844  26.829  1.00  0.00    -0.014 A 
ATOM     63  C   UNL A   1      43.323  23.360  25.569  1.00  0.00     0.010 A 
ATOM     64  C   UNL A   1      43.569  23.019  27.955  1.00  0.00     0.010 A 
ATOM     65  C   UNL A   1      42.716  22.105  25.452  1.00  0.00     0.020 A 
ATOM     66  C   UNL A   1      42.995  21.749  27.838  1.00  0.00     0.020 A 
ATOM     67  C   UNL A   1      42.549  21.311  26.590  1.00  0.00     0.054 A 
BRANCH  67  68
ATOM     68  S   UNL A   1      41.740  19.698  26.414  1.00  0.00     0.124 S 
ATOM     69  O   UNL A   1      42.295  19.218  25.151  1.00  0.00    -0.237 OA
ATOM     70  O   UNL A   1      42.187  18.985  27.608  1.00  0.00    -0.237 OA
ATOM     71  O   UNL A   1      40.316  20.025  26.384  1.00  0.00    -0.744 OA
ENDBRANCH  67  68
ENDBRANCH  48  62
BRANCH  49  72
ATOM     72  C   UNL A   1      46.958  33.212  28.536  1.00  0.00    -0.014 A 
ATOM     73  C   UNL A   1      47.536  33.530  29.777  1.00  0.00     0.010 A 
ATOM     74  C   UNL A   1      46.894  34.204  27.538  1.00  0.00     0.010 A 
ATOM     75  C   UNL A   1      48.054  34.809  30.008  1.00  0.00     0.020 A 
ATOM     76  C   UNL A   1      47.435  35.473  27.755  1.00  0.00     0.020 A 
ATOM     77  C   UNL A   1      48.013  35.767  28.989  1.00  0.00     0.054 A 
BRANCH  77  78
ATOM     78  S   UNL A   1      48.791  37.383  29.275  1.00  0.00     0.124 S 
ATOM     79  O   UNL A   1      47.693  38.303  29.004  1.00  0.00    -0.237 OA
ATOM     80  O   UNL A   1      49.207  37.284  30.673  1.00  0.00    -0.237 OA
ATOM     81  O   UNL A   1      49.888  37.411  28.310  1.00  0.00    -0.744 OA
ENDBRANCH  77  78
ENDBRANCH  49  72
BRANCH  61  82
ATOM     82  C   UNL A   1      49.973  27.412  26.032  1.00  0.00    -0.014 A 
ATOM     83  C   UNL A   1      50.308  27.509  24.670  1.00  0.00     0.010 A 
ATOM     84  C   UNL A   1      50.975  27.085  26.963  1.00  0.00     0.010 A 
ATOM     85  C   UNL A   1      51.613  27.247  24.245  1.00  0.00     0.020 A 
ATOM     86  C   UNL A   1      52.288  26.858  26.547  1.00  0.00     0.020 A 
ATOM     87  C   UNL A   1      52.594  26.923  25.186  1.00  0.00     0.054 A 
BRANCH  87  88
ATOM     88  S   UNL A   1      54.286  26.620  24.611  1.00  0.00     0.124 S 
ATOM     89  O   UNL A   1      55.073  26.951  25.796  1.00  0.00    -0.237 OA
ATOM     90  O   UNL A   1      54.253  25.205  24.252  1.00  0.00    -0.237 OA
ATOM     91  O   UNL A   1      54.441  27.539  23.486  1.00  0.00    -0.744 OA
ENDBRANCH  87  88
ENDBRANCH  61  82
ENDBRANCH  35  36
ENDBRANCH  28  30
ENDBRANCH  27  28
ENDBRANCH  26  27
ENDBRANCH  25  26
ENDBRANCH  24  25
ENDBRANCH  23  24
ENDBRANCH  22  23
ENDBRANCH   1  22
TORSDOF 26
ENDMDL
MODEL 2
REMARK VINA RESULT:      -7.9      1.575      8.498
REMARK SMILES COc1cnc(SCC(=O)OCCOCCOCCOCCOC(=O)c2ccc(-c3c4nc(c(-c5ccc(S(=O)(=O)[O-])cc5)c5ccc([nH]5)c(-c5ccc(S(=O)(=O)[O-])cc5)c5nc(c(-c6ccc(S(=O)(=O)[O-])cc6)c6ccc3[nH]6)C=C5)C=C4)cc2)[nH]c1=O
REMARK SMILES IDX 17 1 16 2 15 3 14 4 13 5 12 6 11 7 9 8 10 9 8 10 7 11 6 12
REMARK SMILES IDX 3 13 4 14 87 15 5 16 86 17 88 18 2 20 1 21 18 22 19 23 20 24
REMARK SMILES IDX 21 25 22 26 23 27 24 28 25 29 26 30 27 31 85 32 28 33 84 34
REMARK SMILES IDX 29 35 30 36 31 37 78 38 32 39 83 40 77 41 79 42 33 43 82 44
REMARK SMILES IDX 76 45 75 46 34 48 64 49 45 50 63 51 46 52 49 53 62 54 80 55
REMARK SMILES IDX 47 56 48 57 61 59 81 60 50 61 35 62 36 63 44 64 37 65 43 66
REMARK SMILES IDX 38 67 39 68 40 69 41 70 42 71 65 72 66 73 74 74 67 75 73 76
REMARK SMILES IDX 68 77 69 78 70 79 71 80 72 81 51 82 52 83 60 84 53 85 59 86
REMARK SMILES IDX 54 87 55 88 56 89 57 90 58 91
REMARK H PARENT 86 19 79 47 49 58
REMARK Flexibility Score: inf
ROOT
ATOM      1  O   UNL A   1      33.016  33.842  28.165  1.00  0.00    -0.377 OA
ENDROOT
BRANCH   1   2
ATOM      2  C   UNL A   1      32.576  32.606  27.650  1.00  0.00     0.188 C 
BRANCH   2   3
ATOM      3  C   UNL A   1      33.376  31.423  27.076  1.00  0.00     0.188 C 
BRANCH   3   4
ATOM      4  O   UNL A   1      32.898  30.109  27.204  1.00  0.00    -0.376 OA
BRANCH   4   5
ATOM      5  C   UNL A   1      31.876  29.575  26.394  1.00  0.00     0.202 C 
BRANCH   5   6
ATOM      6  C   UNL A   1      32.000  28.351  25.463  1.00  0.00     0.261 C 
BRANCH   6   7
ATOM      7  O   UNL A   1      30.925  27.394  25.422  1.00  0.00    -0.463 OA
BRANCH   7   8
ATOM      8  C   UNL A   1      30.871  26.574  24.343  1.00  0.00     0.316 C 
ATOM      9  O   UNL A   1      30.177  26.823  23.358  1.00  0.00    -0.251 OA
BRANCH   8  10
ATOM     10  C   UNL A   1      31.751  25.328  24.350  1.00  0.00     0.200 C 
BRANCH  10  11
ATOM     11  S   UNL A   1      31.087  23.683  24.731  1.00  0.00    -0.076 SA
BRANCH  11  12
ATOM     12  C   UNL A   1      32.519  22.694  24.931  1.00  0.00     0.168 A 
ATOM     13  C   UNL A   1      34.898  21.418  25.507  1.00  0.00     0.202 A 
ATOM     14  C   UNL A   1      34.424  21.653  24.273  1.00  0.00     0.166 A 
ATOM     15  C   UNL A   1      33.963  21.777  26.621  1.00  0.00     0.293 A 
ATOM     16  N   UNL A   1      33.234  22.267  23.944  1.00  0.00    -0.229 NA
ATOM     17  N   UNL A   1      32.842  22.469  26.238  1.00  0.00    -0.298 N 
ATOM     18  O   UNL A   1      34.165  21.484  27.794  1.00  0.00    -0.265 OA
ATOM     19  H   UNL A   1      32.242  22.818  26.937  1.00  0.00     0.172 HD
BRANCH  13  20
ATOM     20  O   UNL A   1      36.196  20.951  25.650  1.00  0.00    -0.490 OA
ATOM     21  C   UNL A   1      37.296  21.787  25.309  1.00  0.00     0.278 C 
ENDBRANCH  13  20
ENDBRANCH  11  12
ENDBRANCH  10  11
ENDBRANCH   8  10
ENDBRANCH   7   8
ENDBRANCH   6   7
ENDBRANCH   5   6
ENDBRANCH   4   5
ENDBRANCH   3   4
ENDBRANCH   2   3
ENDBRANCH   1   2
BRANCH   1  22
ATOM     22  C   UNL A   1      34.295  34.310  27.829  1.00  0.00     0.188 C 
BRANCH  22  23
ATOM     23  C   UNL A   1      35.267  34.336  29.009  1.00  0.00     0.188 C 
BRANCH  23  24
ATOM     24  O   UNL A   1      34.701  33.834  30.211  1.00  0.00    -0.376 OA
BRANCH  24  25
ATOM     25  C   UNL A   1      35.530  33.731  31.361  1.00  0.00     0.202 C 
BRANCH  25  26
ATOM     26  C   UNL A   1      36.617  32.647  31.472  1.00  0.00     0.261 C 
BRANCH  26  27
ATOM     27  O   UNL A   1      36.478  31.486  30.656  1.00  0.00    -0.460 OA
BRANCH  27  28
ATOM     28  C   UNL A   1      36.874  30.313  31.175  1.00  0.00     0.338 C 
ATOM     29  O   UNL A   1      36.193  29.494  31.770  1.00  0.00    -0.246 OA
BRANCH  28  30
ATOM     30  C   UNL A   1      38.242  30.108  30.678  1.00  0.00     0.060 A 
ATOM     31  C   UNL A   1      38.464  30.215  29.302  1.00  0.00     0.016 A 
ATOM     32  C   UNL A   1      39.303  29.901  31.569  1.00  0.00     0.016 A 
ATOM     33  C   UNL A   1      39.754  30.095  28.804  1.00  0.00     0.010 A 
ATOM     34  C   UNL A   1      40.592  29.746  31.066  1.00  0.00     0.010 A 
ATOM     35  C   UNL A   1      40.810  29.810  29.679  1.00  0.00    -0.014 A 
BRANCH  35  36
ATOM     36  C   UNL A   1      42.081  29.343  29.097  1.00  0.00     0.031 A 
ATOM     37  C   UNL A   1      43.217  30.321  29.038  1.00  0.00     0.074 A 
ATOM     38  C   UNL A   1      42.236  28.065  28.717  1.00  0.00     0.049 A 
ATOM     39  N   UNL A   1      44.446  30.142  28.634  1.00  0.00    -0.248 NA
ATOM     40  C   UNL A   1      42.926  31.688  29.505  1.00  0.00     0.031 C 
ATOM     41  C   UNL A   1      41.202  27.033  28.785  1.00  0.00     0.029 A 
ATOM     42  N   UNL A   1      43.329  27.418  28.206  1.00  0.00    -0.354 N 
ATOM     43  C   UNL A   1      45.072  31.372  28.795  1.00  0.00     0.074 A 
ATOM     44  C   UNL A   1      44.081  32.298  29.294  1.00  0.00     0.031 C 
ATOM     45  C   UNL A   1      41.713  25.878  28.327  1.00  0.00     0.029 A 
ATOM     46  C   UNL A   1      43.094  26.101  27.906  1.00  0.00     0.049 A 
ATOM     47  H   UNL A   1      44.200  27.858  28.068  1.00  0.00     0.167 HD
ATOM     48  C   UNL A   1      46.363  31.698  28.550  1.00  0.00     0.031 A 
ATOM     49  C   UNL A   1      43.903  25.187  27.335  1.00  0.00     0.031 A 
ATOM     50  C   UNL A   1      47.320  30.769  28.013  1.00  0.00     0.049 A 
ATOM     51  C   UNL A   1      45.313  25.585  26.995  1.00  0.00     0.074 A 
ATOM     52  C   UNL A   1      48.654  30.977  27.719  1.00  0.00     0.029 A 
ATOM     53  N   UNL A   1      47.032  29.453  27.671  1.00  0.00    -0.354 N 
ATOM     54  N   UNL A   1      45.908  26.743  27.176  1.00  0.00    -0.248 NA
ATOM     55  C   UNL A   1      46.166  24.557  26.389  1.00  0.00     0.031 C 
ATOM     56  C   UNL A   1      49.154  29.810  27.130  1.00  0.00     0.029 A 
ATOM     57  C   UNL A   1      48.154  28.848  27.131  1.00  0.00     0.049 A 
ATOM     58  H   UNL A   1      46.160  29.016  27.794  1.00  0.00     0.167 HD
ATOM     59  C   UNL A   1      47.210  26.579  26.720  1.00  0.00     0.074 A 
ATOM     60  C   UNL A   1      47.320  25.202  26.276  1.00  0.00     0.031 C 
ATOM     61  C   UNL A   1      48.225  27.480  26.675  1.00  0.00     0.031 A 
BRANCH  48  62
ATOM     62  C   UNL A   1      46.768  33.129  28.796  1.00  0.00    -0.014 A 
ATOM     63  C   UNL A   1      46.283  34.182  27.996  1.00  0.00     0.010 A 
ATOM     64  C   UNL A   1      47.681  33.421  29.823  1.00  0.00     0.010 A 
ATOM     65  C   UNL A   1      46.754  35.487  28.180  1.00  0.00     0.020 A 
ATOM     66  C   UNL A   1      48.128  34.729  30.034  1.00  0.00     0.020 A 
ATOM     67  C   UNL A   1      47.680  35.750  29.193  1.00  0.00     0.054 A 
BRANCH  67  68
ATOM     68  S   UNL A   1      48.290  37.445  29.396  1.00  0.00     0.124 S 
ATOM     69  O   UNL A   1      49.720  37.284  29.140  1.00  0.00    -0.237 OA
ATOM     70  O   UNL A   1      47.548  38.176  28.373  1.00  0.00    -0.237 OA
ATOM     71  O   UNL A   1      47.939  37.779  30.774  1.00  0.00    -0.744 OA
ENDBRANCH  67  68
ENDBRANCH  48  62
BRANCH  49  72
ATOM     72  C   UNL A   1      43.372  23.828  27.040  1.00  0.00    -0.014 A 
ATOM     73  C   UNL A   1      43.037  23.445  25.730  1.00  0.00     0.010 A 
ATOM     74  C   UNL A   1      43.267  22.881  28.077  1.00  0.00     0.010 A 
ATOM     75  C   UNL A   1      42.623  22.136  25.460  1.00  0.00     0.020 A 
ATOM     76  C   UNL A   1      42.880  21.566  27.807  1.00  0.00     0.020 A 
ATOM     77  C   UNL A   1      42.562  21.201  26.500  1.00  0.00     0.054 A 
BRANCH  77  78
ATOM     78  S   UNL A   1      42.128  19.482  26.107  1.00  0.00     0.124 S 
ATOM     79  O   UNL A   1      42.486  18.788  27.338  1.00  0.00    -0.237 OA
ATOM     80  O   UNL A   1      40.698  19.579  25.825  1.00  0.00    -0.237 OA
ATOM     81  O   UNL A   1      42.962  19.175  24.947  1.00  0.00    -0.744 OA
ENDBRANCH  77  78
ENDBRANCH  49  72
BRANCH  61  82
ATOM     82  C   UNL A   1      49.548  26.998  26.137  1.00  0.00    -0.014 A 
ATOM     83  C   UNL A   1      50.490  26.367  26.969  1.00  0.00     0.010 A 
ATOM     84  C   UNL A   1      49.827  27.132  24.764  1.00  0.00     0.010 A 
ATOM     85  C   UNL A   1      51.703  25.915  26.444  1.00  0.00     0.020 A 
ATOM     86  C   UNL A   1      51.022  26.650  24.229  1.00  0.00     0.020 A 
ATOM     87  C   UNL A   1      51.961  26.059  25.077  1.00  0.00     0.054 A 
BRANCH  87  88
ATOM     88  S   UNL A   1      53.529  25.434  24.417  1.00  0.00     0.124 S 
ATOM     89  O   UNL A   1      53.412  25.760  22.998  1.00  0.00    -0.237 OA
ATOM     90  O   UNL A   1      54.520  26.208  25.160  1.00  0.00    -0.237 OA
ATOM     91  O   UNL A   1      53.496  24.008  24.732  1.00  0.00    -0.744 OA
ENDBRANCH  87  88
ENDBRANCH  61  82
ENDBRANCH  35  36
ENDBRANCH  28  30
ENDBRANCH  27  28
ENDBRANCH  26  27
ENDBRANCH  25  26
ENDBRANCH  24  25
ENDBRANCH  23  24
ENDBRANCH  22  23
ENDBRANCH   1  22
TORSDOF 26
ENDMDL
MODEL 3
REMARK VINA RESULT:      -7.4      9.255     14.151
REMARK SMILES COc1cnc(SCC(=O)OCCOCCOCCOCCOC(=O)c2ccc(-c3c4nc(c(-c5ccc(S(=O)(=O)[O-])cc5)c5ccc([nH]5)c(-c5ccc(S(=O)(=O)[O-])cc5)c5nc(c(-c6ccc(S(=O)(=O)[O-])cc6)c6ccc3[nH]6)C=C5)C=C4)cc2)[nH]c1=O
REMARK SMILES IDX 17 1 16 2 15 3 14 4 13 5 12 6 11 7 9 8 10 9 8 10 7 11 6 12
REMARK SMILES IDX 3 13 4 14 87 15 5 16 86 17 88 18 2 20 1 21 18 22 19 23 20 24
REMARK SMILES IDX 21 25 22 26 23 27 24 28 25 29 26 30 27 31 85 32 28 33 84 34
REMARK SMILES IDX 29 35 30 36 31 37 78 38 32 39 83 40 77 41 79 42 33 43 82 44
REMARK SMILES IDX 76 45 75 46 34 48 64 49 45 50 63 51 46 52 49 53 62 54 80 55
REMARK SMILES IDX 47 56 48 57 61 59 81 60 50 61 35 62 36 63 44 64 37 65 43 66
REMARK SMILES IDX 38 67 39 68 40 69 41 70 42 71 65 72 66 73 74 74 67 75 73 76
REMARK SMILES IDX 68 77 69 78 70 79 71 80 72 81 51 82 52 83 60 84 53 85 59 86
REMARK SMILES IDX 54 87 55 88 56 89 57 90 58 91
REMARK H PARENT 86 19 79 47 49 58
REMARK Flexibility Score: inf
ROOT
ATOM      1  O   UNL A   1      33.367  34.281  32.387  1.00  0.00    -0.377 OA
ENDROOT
BRANCH   1   2
ATOM      2  C   UNL A   1      33.531  35.667  32.586  1.00  0.00     0.188 C 
BRANCH   2   3
ATOM      3  C   UNL A   1      32.931  36.862  31.823  1.00  0.00     0.188 C 
BRANCH   3   4
ATOM      4  O   UNL A   1      33.212  37.052  30.460  1.00  0.00    -0.376 OA
BRANCH   4   5
ATOM      5  C   UNL A   1      32.847  36.130  29.459  1.00  0.00     0.202 C 
BRANCH   5   6
ATOM      6  C   UNL A   1      33.788  35.123  28.764  1.00  0.00     0.261 C 
BRANCH   6   7
ATOM      7  O   UNL A   1      33.245  33.880  28.280  1.00  0.00    -0.463 OA
BRANCH   7   8
ATOM      8  C   UNL A   1      34.130  32.945  27.858  1.00  0.00     0.316 C 
ATOM      9  O   UNL A   1      35.308  33.210  27.620  1.00  0.00    -0.251 OA
BRANCH   8  10
ATOM     10  C   UNL A   1      33.640  31.506  27.729  1.00  0.00     0.200 C 
BRANCH  10  11
ATOM     11  S   UNL A   1      34.775  30.130  27.392  1.00  0.00    -0.076 SA
BRANCH  11  12
ATOM     12  C   UNL A   1      33.825  29.043  26.400  1.00  0.00     0.168 A 
ATOM     13  C   UNL A   1      32.135  27.660  24.711  1.00  0.00     0.202 A 
ATOM     14  C   UNL A   1      32.380  27.342  25.992  1.00  0.00     0.166 A 
ATOM     15  C   UNL A   1      32.968  28.781  24.169  1.00  0.00     0.293 A 
ATOM     16  N   UNL A   1      33.231  27.993  26.860  1.00  0.00    -0.229 NA
ATOM     17  N   UNL A   1      33.722  29.448  25.101  1.00  0.00    -0.298 N 
ATOM     18  O   UNL A   1      32.990  29.094  22.984  1.00  0.00    -0.265 OA
ATOM     19  H   UNL A   1      34.212  30.255  24.821  1.00  0.00     0.172 HD
BRANCH  13  20
ATOM     20  O   UNL A   1      31.114  27.004  24.040  1.00  0.00    -0.490 OA
ATOM     21  C   UNL A   1      30.324  26.033  24.717  1.00  0.00     0.278 C 
ENDBRANCH  13  20
ENDBRANCH  11  12
ENDBRANCH  10  11
ENDBRANCH   8  10
ENDBRANCH   7   8
ENDBRANCH   6   7
ENDBRANCH   5   6
ENDBRANCH   4   5
ENDBRANCH   3   4
ENDBRANCH   2   3
ENDBRANCH   1   2
BRANCH   1  22
ATOM     22  C   UNL A   1      34.439  33.418  32.655  1.00  0.00     0.188 C 
BRANCH  22  23
ATOM     23  C   UNL A   1      35.396  33.243  31.475  1.00  0.00     0.188 C 
BRANCH  23  24
ATOM     24  O   UNL A   1      35.240  31.998  30.810  1.00  0.00    -0.376 OA
BRANCH  24  25
ATOM     25  C   UNL A   1      36.407  31.280  30.430  1.00  0.00     0.202 C 
BRANCH  25  26
ATOM     26  C   UNL A   1      36.697  29.871  30.979  1.00  0.00     0.261 C 
BRANCH  26  27
ATOM     27  O   UNL A   1      36.505  29.653  32.375  1.00  0.00    -0.460 OA
BRANCH  27  28
ATOM     28  C   UNL A   1      37.537  29.151  33.071  1.00  0.00     0.338 C 
ATOM     29  O   UNL A   1      38.010  28.029  32.996  1.00  0.00    -0.246 OA
BRANCH  28  30
ATOM     30  C   UNL A   1      38.129  30.298  33.774  1.00  0.00     0.060 A 
ATOM     31  C   UNL A   1      39.424  30.159  34.283  1.00  0.00     0.016 A 
ATOM     32  C   UNL A   1      37.449  31.519  33.849  1.00  0.00     0.016 A 
ATOM     33  C   UNL A   1      40.041  31.242  34.893  1.00  0.00     0.010 A 
ATOM     34  C   UNL A   1      38.055  32.597  34.491  1.00  0.00     0.010 A 
ATOM     35  C   UNL A   1      39.339  32.445  35.042  1.00  0.00    -0.014 A 
BRANCH  35  36
ATOM     36  C   UNL A   1      39.872  33.442  35.988  1.00  0.00     0.031 A 
ATOM     37  C   UNL A   1      39.366  33.399  37.399  1.00  0.00     0.074 A 
ATOM     38  C   UNL A   1      40.839  34.295  35.616  1.00  0.00     0.049 A 
ATOM     39  N   UNL A   1      39.719  34.119  38.430  1.00  0.00    -0.248 NA
ATOM     40  C   UNL A   1      38.319  32.403  37.687  1.00  0.00     0.031 C 
ATOM     41  C   UNL A   1      41.427  34.373  34.279  1.00  0.00     0.029 A 
ATOM     42  N   UNL A   1      41.503  35.252  36.336  1.00  0.00    -0.354 N 
ATOM     43  C   UNL A   1      38.937  33.666  39.485  1.00  0.00     0.074 A 
ATOM     44  C   UNL A   1      38.065  32.639  38.964  1.00  0.00     0.031 C 
ATOM     45  C   UNL A   1      42.366  35.334  34.275  1.00  0.00     0.029 A 
ATOM     46  C   UNL A   1      42.418  35.956  35.596  1.00  0.00     0.049 A 
ATOM     47  H   UNL A   1      41.337  35.419  37.292  1.00  0.00     0.167 HD
ATOM     48  C   UNL A   1      38.951  34.069  40.777  1.00  0.00     0.031 A 
ATOM     49  C   UNL A   1      43.194  37.000  35.947  1.00  0.00     0.031 A 
ATOM     50  C   UNL A   1      39.800  35.123  41.263  1.00  0.00     0.049 A 
ATOM     51  C   UNL A   1      43.142  37.490  37.368  1.00  0.00     0.074 A 
ATOM     52  C   UNL A   1      39.905  35.626  42.546  1.00  0.00     0.029 A 
ATOM     53  N   UNL A   1      40.681  35.852  40.471  1.00  0.00    -0.354 N 
ATOM     54  N   UNL A   1      42.420  37.038  38.369  1.00  0.00    -0.248 NA
ATOM     55  C   UNL A   1      44.013  38.619  37.713  1.00  0.00     0.031 C 
ATOM     56  C   UNL A   1      40.794  36.706  42.515  1.00  0.00     0.029 A 
ATOM     57  C   UNL A   1      41.304  36.827  41.230  1.00  0.00     0.049 A 
ATOM     58  H   UNL A   1      40.837  35.698  39.513  1.00  0.00     0.167 HD
ATOM     59  C   UNL A   1      42.762  37.817  39.468  1.00  0.00     0.074 A 
ATOM     60  C   UNL A   1      43.771  38.753  39.011  1.00  0.00     0.031 C 
ATOM     61  C   UNL A   1      42.289  37.762  40.740  1.00  0.00     0.031 A 
BRANCH  48  62
ATOM     62  C   UNL A   1      37.968  33.413  41.712  1.00  0.00    -0.014 A 
ATOM     63  C   UNL A   1      36.664  33.916  41.886  1.00  0.00     0.010 A 
ATOM     64  C   UNL A   1      38.369  32.292  42.459  1.00  0.00     0.010 A 
ATOM     65  C   UNL A   1      35.806  33.350  42.834  1.00  0.00     0.020 A 
ATOM     66  C   UNL A   1      37.502  31.701  43.383  1.00  0.00     0.020 A 
ATOM     67  C   UNL A   1      36.234  32.250  43.583  1.00  0.00     0.054 A 
BRANCH  67  68
ATOM     68  S   UNL A   1      35.111  31.550  44.822  1.00  0.00     0.124 S 
ATOM     69  O   UNL A   1      35.340  32.426  45.968  1.00  0.00    -0.237 OA
ATOM     70  O   UNL A   1      33.805  31.683  44.180  1.00  0.00    -0.237 OA
ATOM     71  O   UNL A   1      35.584  30.177  44.984  1.00  0.00    -0.744 OA
ENDBRANCH  67  68
ENDBRANCH  48  62
BRANCH  49  72
ATOM     72  C   UNL A   1      44.056  37.644  34.919  1.00  0.00    -0.014 A 
ATOM     73  C   UNL A   1      43.587  38.717  34.142  1.00  0.00     0.010 A 
ATOM     74  C   UNL A   1      45.392  37.223  34.766  1.00  0.00     0.010 A 
ATOM     75  C   UNL A   1      44.440  39.366  33.243  1.00  0.00     0.020 A 
ATOM     76  C   UNL A   1      46.255  37.887  33.890  1.00  0.00     0.020 A 
ATOM     77  C   UNL A   1      45.773  38.955  33.134  1.00  0.00     0.054 A 
BRANCH  77  78
ATOM     78  S   UNL A   1      46.889  39.883  32.043  1.00  0.00     0.124 S 
ATOM     79  O   UNL A   1      47.615  38.813  31.367  1.00  0.00    -0.237 OA
ATOM     80  O   UNL A   1      45.955  40.640  31.214  1.00  0.00    -0.237 OA
ATOM     81  O   UNL A   1      47.680  40.690  32.970  1.00  0.00    -0.744 OA
ENDBRANCH  77  78
ENDBRANCH  49  72
BRANCH  61  82
ATOM     82  C   UNL A   1      42.871  38.737  41.731  1.00  0.00    -0.014 A 
ATOM     83  C   UNL A   1      44.032  38.431  42.463  1.00  0.00     0.010 A 
ATOM     84  C   UNL A   1      42.273  40.001  41.891  1.00  0.00     0.010 A 
ATOM     85  C   UNL A   1      44.561  39.358  43.365  1.00  0.00     0.020 A 
ATOM     86  C   UNL A   1      42.818  40.942  42.764  1.00  0.00     0.020 A 
ATOM     87  C   UNL A   1      43.951  40.607  43.510  1.00  0.00     0.054 A 
BRANCH  87  88
ATOM     88  S   UNL A   1      44.677  41.803  44.662  1.00  0.00     0.124 S 
ATOM     89  O   UNL A   1      43.532  42.652  44.981  1.00  0.00    -0.237 OA
ATOM     90  O   UNL A   1      45.151  40.950  45.750  1.00  0.00    -0.237 OA
ATOM     91  O   UNL A   1      45.730  42.446  43.880  1.00  0.00    -0.744 OA
ENDBRANCH  87  88
ENDBRANCH  61  82
ENDBRANCH  35  36
ENDBRANCH  28  30
ENDBRANCH  27  28
ENDBRANCH  26  27
ENDBRANCH  25  26
ENDBRANCH  24  25
ENDBRANCH  23  24
ENDBRANCH  22  23
ENDBRANCH   1  22
TORSDOF 26
ENDMDL
