MODEL 1
REMARK VINA RESULT:      -8.2      0.000      0.000
REMARK SMILES CC(C)[C@](C)(CC(=O)NC#N)C(=O)OCCOCCOCCOCCOC(=O)c1ccc(-c2c3nc(c(-c4ccc(S(=O)(=O)[O-])cc4)c4ccc([nH]4)c(-c4ccc(S(=O)(=O)[O-])cc4)c4nc(c(-c5ccc(S(=O)(=O)[O-])cc5)c5ccc2[nH]5)C=C4)C=C3)cc1
REMARK SMILES IDX 20 1 19 2 18 3 17 4 16 5 15 6 14 7 12 8 13 9 4 10 5 11 2 12
REMARK SMILES IDX 1 13 3 14 6 15 7 16 8 17 9 18 10 20 11 21 21 22 22 23 23 24
REMARK SMILES IDX 24 25 25 26 26 27 27 28 28 29 29 30 30 31 88 32 31 33 87 34
REMARK SMILES IDX 32 35 33 36 34 37 81 38 35 39 86 40 80 41 82 42 36 43 85 44
REMARK SMILES IDX 79 45 78 46 37 48 67 49 48 50 66 51 49 52 52 53 65 54 83 55
REMARK SMILES IDX 50 56 51 57 64 59 84 60 53 61 38 62 39 63 47 64 40 65 46 66
REMARK SMILES IDX 41 67 42 68 43 69 44 70 45 71 68 72 69 73 77 74 70 75 76 76
REMARK SMILES IDX 71 77 72 78 73 79 74 80 75 81 54 82 55 83 63 84 56 85 62 86
REMARK SMILES IDX 57 87 58 88 59 89 60 90 61 91
REMARK H PARENT 9 19 82 47 52 58
REMARK Flexibility Score: inf
ROOT
ATOM      1  O   UNL A   1      36.127  23.197  24.152  1.00  0.00    -0.377 OA
ENDROOT
BRANCH   1   2
ATOM      2  C   UNL A   1      34.974  22.719  24.809  1.00  0.00     0.188 C 
BRANCH   2   3
ATOM      3  C   UNL A   1      34.839  22.517  26.314  1.00  0.00     0.188 C 
BRANCH   3   4
ATOM      4  O   UNL A   1      33.522  22.370  26.774  1.00  0.00    -0.376 OA
BRANCH   4   5
ATOM      5  C   UNL A   1      32.422  22.111  25.930  1.00  0.00     0.202 C 
BRANCH   5   6
ATOM      6  C   UNL A   1      31.319  23.127  25.536  1.00  0.00     0.261 C 
BRANCH   6   7
ATOM      7  O   UNL A   1      31.571  24.155  24.559  1.00  0.00    -0.463 OA
BRANCH   7   8
ATOM      8  C   UNL A   1      30.932  25.323  24.803  1.00  0.00     0.312 C 
ATOM      9  O   UNL A   1      29.954  25.378  25.547  1.00  0.00    -0.252 OA
BRANCH   8  10
ATOM     10  C   UNL A   1      31.516  26.599  24.101  1.00  0.00     0.076 C 
ATOM     11  C   UNL A   1      31.085  26.429  22.636  1.00  0.00     0.024 C 
BRANCH  10  12
ATOM     12  C   UNL A   1      33.091  26.486  24.271  1.00  0.00     0.000 C 
ATOM     13  C   UNL A   1      33.909  27.544  23.515  1.00  0.00     0.008 C 
ATOM     14  C   UNL A   1      33.560  26.502  25.737  1.00  0.00     0.008 C 
ENDBRANCH  10  12
BRANCH  10  15
ATOM     15  C   UNL A   1      31.136  28.029  24.661  1.00  0.00     0.119 C 
BRANCH  15  16
ATOM     16  C   UNL A   1      30.419  29.205  23.969  1.00  0.00     0.234 C 
ATOM     17  O   UNL A   1      29.666  28.971  23.014  1.00  0.00    -0.274 OA
ATOM     18  N   UNL A   1      30.405  30.490  24.389  1.00  0.00    -0.263 N 
ATOM     19  H   UNL A   1      29.931  31.057  23.741  1.00  0.00     0.182 HD
BRANCH  18  20
ATOM     20  C   UNL A   1      30.841  31.220  25.414  1.00  0.00     0.183 C 
ATOM     21  N   UNL A   1      31.265  31.899  26.254  1.00  0.00    -0.172 NA
ENDBRANCH  18  20
ENDBRANCH  15  16
ENDBRANCH  10  15
ENDBRANCH   8  10
ENDBRANCH   7   8
ENDBRANCH   6   7
ENDBRANCH   5   6
ENDBRANCH   4   5
ENDBRANCH   3   4
ENDBRANCH   2   3
ENDBRANCH   1   2
BRANCH   1  22
ATOM     22  C   UNL A   1      37.316  23.384  24.881  1.00  0.00     0.188 C 
BRANCH  22  23
ATOM     23  C   UNL A   1      38.062  22.073  25.160  1.00  0.00     0.188 C 
BRANCH  23  24
ATOM     24  O   UNL A   1      38.540  21.792  26.467  1.00  0.00    -0.376 OA
BRANCH  24  25
ATOM     25  C   UNL A   1      39.838  22.171  26.890  1.00  0.00     0.202 C 
BRANCH  25  26
ATOM     26  C   UNL A   1      40.701  23.264  26.230  1.00  0.00     0.261 C 
BRANCH  26  27
ATOM     27  O   UNL A   1      40.227  24.609  26.236  1.00  0.00    -0.460 OA
BRANCH  27  28
ATOM     28  C   UNL A   1      41.180  25.560  26.124  1.00  0.00     0.338 C 
ATOM     29  O   UNL A   1      41.798  25.869  25.123  1.00  0.00    -0.246 OA
BRANCH  28  30
ATOM     30  C   UNL A   1      41.237  26.301  27.400  1.00  0.00     0.060 A 
ATOM     31  C   UNL A   1      40.253  26.057  28.369  1.00  0.00     0.016 A 
ATOM     32  C   UNL A   1      42.235  27.249  27.624  1.00  0.00     0.016 A 
ATOM     33  C   UNL A   1      40.245  26.780  29.555  1.00  0.00     0.010 A 
ATOM     34  C   UNL A   1      42.203  28.005  28.797  1.00  0.00     0.010 A 
ATOM     35  C   UNL A   1      41.185  27.796  29.746  1.00  0.00    -0.014 A 
BRANCH  35  36
ATOM     36  C   UNL A   1      40.964  28.775  30.830  1.00  0.00     0.031 A 
ATOM     37  C   UNL A   1      41.855  28.706  32.039  1.00  0.00     0.074 A 
ATOM     38  C   UNL A   1      40.025  29.729  30.717  1.00  0.00     0.049 A 
ATOM     39  N   UNL A   1      41.825  29.421  33.130  1.00  0.00    -0.248 NA
ATOM     40  C   UNL A   1      42.922  27.690  32.012  1.00  0.00     0.031 C 
ATOM     41  C   UNL A   1      39.160  29.931  29.555  1.00  0.00     0.029 A 
ATOM     42  N   UNL A   1      39.645  30.707  31.598  1.00  0.00    -0.354 N 
ATOM     43  C   UNL A   1      42.849  28.929  33.931  1.00  0.00     0.074 A 
ATOM     44  C   UNL A   1      43.466  27.838  33.211  1.00  0.00     0.031 C 
ATOM     45  C   UNL A   1      38.341  30.969  29.801  1.00  0.00     0.029 A 
ATOM     46  C   UNL A   1      38.594  31.470  31.150  1.00  0.00     0.049 A 
ATOM     47  H   UNL A   1      40.083  30.850  32.469  1.00  0.00     0.167 HD
ATOM     48  C   UNL A   1      43.236  29.349  35.157  1.00  0.00     0.031 A 
ATOM     49  C   UNL A   1      37.899  32.441  31.774  1.00  0.00     0.031 A 
ATOM     50  C   UNL A   1      42.600  30.429  35.865  1.00  0.00     0.049 A 
ATOM     51  C   UNL A   1      38.290  32.830  33.177  1.00  0.00     0.074 A 
ATOM     52  C   UNL A   1      42.921  30.949  37.105  1.00  0.00     0.029 A 
ATOM     53  N   UNL A   1      41.506  31.145  35.400  1.00  0.00    -0.354 N 
ATOM     54  N   UNL A   1      39.272  32.371  33.918  1.00  0.00    -0.248 NA
ATOM     55  C   UNL A   1      37.486  33.875  33.824  1.00  0.00     0.031 C 
ATOM     56  C   UNL A   1      41.971  31.922  37.427  1.00  0.00     0.029 A 
ATOM     57  C   UNL A   1      41.113  32.076  36.348  1.00  0.00     0.049 A 
ATOM     58  H   UNL A   1      41.072  31.012  34.527  1.00  0.00     0.167 HD
ATOM     59  C   UNL A   1      39.224  33.097  35.104  1.00  0.00     0.074 A 
ATOM     60  C   UNL A   1      38.127  34.035  34.972  1.00  0.00     0.031 C 
ATOM     61  C   UNL A   1      40.018  33.002  36.200  1.00  0.00     0.031 A 
BRANCH  48  62
ATOM     62  C   UNL A   1      44.358  28.606  35.832  1.00  0.00    -0.014 A 
ATOM     63  C   UNL A   1      44.121  27.480  36.641  1.00  0.00     0.010 A 
ATOM     64  C   UNL A   1      45.686  29.022  35.618  1.00  0.00     0.010 A 
ATOM     65  C   UNL A   1      45.185  26.808  37.250  1.00  0.00     0.020 A 
ATOM     66  C   UNL A   1      46.755  28.333  36.196  1.00  0.00     0.020 A 
ATOM     67  C   UNL A   1      46.496  27.238  37.020  1.00  0.00     0.054 A 
BRANCH  67  68
ATOM     68  S   UNL A   1      47.858  26.323  37.794  1.00  0.00     0.124 S 
ATOM     69  O   UNL A   1      47.150  25.235  38.464  1.00  0.00    -0.237 OA
ATOM     70  O   UNL A   1      48.670  25.931  36.645  1.00  0.00    -0.237 OA
ATOM     71  O   UNL A   1      48.474  27.304  38.684  1.00  0.00    -0.744 OA
ENDBRANCH  67  68
ENDBRANCH  48  62
BRANCH  49  72
ATOM     72  C   UNL A   1      36.752  33.098  31.088  1.00  0.00    -0.014 A 
ATOM     73  C   UNL A   1      35.440  32.931  31.565  1.00  0.00     0.010 A 
ATOM     74  C   UNL A   1      36.966  33.892  29.947  1.00  0.00     0.010 A 
ATOM     75  C   UNL A   1      34.363  33.531  30.904  1.00  0.00     0.020 A 
ATOM     76  C   UNL A   1      35.898  34.524  29.304  1.00  0.00     0.020 A 
ATOM     77  C   UNL A   1      34.602  34.330  29.781  1.00  0.00     0.054 A 
BRANCH  77  78
ATOM     78  S   UNL A   1      33.194  35.140  28.974  1.00  0.00     0.124 S 
ATOM     79  O   UNL A   1      32.748  34.115  28.035  1.00  0.00    -0.237 OA
ATOM     80  O   UNL A   1      32.299  35.401  30.099  1.00  0.00    -0.237 OA
ATOM     81  O   UNL A   1      33.784  36.330  28.368  1.00  0.00    -0.744 OA
ENDBRANCH  77  78
ENDBRANCH  49  72
BRANCH  61  82
ATOM     82  C   UNL A   1      39.767  33.968  37.330  1.00  0.00    -0.014 A 
ATOM     83  C   UNL A   1      39.006  33.607  38.456  1.00  0.00     0.010 A 
ATOM     84  C   UNL A   1      40.356  35.246  37.284  1.00  0.00     0.010 A 
ATOM     85  C   UNL A   1      38.810  34.517  39.498  1.00  0.00     0.020 A 
ATOM     86  C   UNL A   1      40.195  36.145  38.342  1.00  0.00     0.020 A 
ATOM     87  C   UNL A   1      39.410  35.779  39.435  1.00  0.00     0.054 A 
BRANCH  87  88
ATOM     88  S   UNL A   1      39.177  36.923  40.822  1.00  0.00     0.124 S 
ATOM     89  O   UNL A   1      38.374  37.981  40.213  1.00  0.00    -0.237 OA
ATOM     90  O   UNL A   1      38.483  36.094  41.804  1.00  0.00    -0.237 OA
ATOM     91  O   UNL A   1      40.538  37.308  41.189  1.00  0.00    -0.744 OA
ENDBRANCH  87  88
ENDBRANCH  61  82
ENDBRANCH  35  36
ENDBRANCH  28  30
ENDBRANCH  27  28
ENDBRANCH  26  27
ENDBRANCH  25  26
ENDBRANCH  24  25
ENDBRANCH  23  24
ENDBRANCH  22  23
ENDBRANCH   1  22
TORSDOF 27
ENDMDL
MODEL 2
REMARK VINA RESULT:      -7.9      5.431      7.104
REMARK SMILES CC(C)[C@](C)(CC(=O)NC#N)C(=O)OCCOCCOCCOCCOC(=O)c1ccc(-c2c3nc(c(-c4ccc(S(=O)(=O)[O-])cc4)c4ccc([nH]4)c(-c4ccc(S(=O)(=O)[O-])cc4)c4nc(c(-c5ccc(S(=O)(=O)[O-])cc5)c5ccc2[nH]5)C=C4)C=C3)cc1
REMARK SMILES IDX 20 1 19 2 18 3 17 4 16 5 15 6 14 7 12 8 13 9 4 10 5 11 2 12
REMARK SMILES IDX 1 13 3 14 6 15 7 16 8 17 9 18 10 20 11 21 21 22 22 23 23 24
REMARK SMILES IDX 24 25 25 26 26 27 27 28 28 29 29 30 30 31 88 32 31 33 87 34
REMARK SMILES IDX 32 35 33 36 34 37 81 38 35 39 86 40 80 41 82 42 36 43 85 44
REMARK SMILES IDX 79 45 78 46 37 48 67 49 48 50 66 51 49 52 52 53 65 54 83 55
REMARK SMILES IDX 50 56 51 57 64 59 84 60 53 61 38 62 39 63 47 64 40 65 46 66
REMARK SMILES IDX 41 67 42 68 43 69 44 70 45 71 68 72 69 73 77 74 70 75 76 76
REMARK SMILES IDX 71 77 72 78 73 79 74 80 75 81 54 82 55 83 63 84 56 85 62 86
REMARK SMILES IDX 57 87 58 88 59 89 60 90 61 91
REMARK H PARENT 9 19 82 47 52 58
REMARK Flexibility Score: inf
ROOT
ATOM      1  O   UNL A   1      35.025  23.546  24.006  1.00  0.00    -0.377 OA
ENDROOT
BRANCH   1   2
ATOM      2  C   UNL A   1      34.026  24.371  24.564  1.00  0.00     0.188 C 
BRANCH   2   3
ATOM      3  C   UNL A   1      34.200  25.256  25.792  1.00  0.00     0.188 C 
BRANCH   3   4
ATOM      4  O   UNL A   1      33.084  26.041  26.117  1.00  0.00    -0.376 OA
BRANCH   4   5
ATOM      5  C   UNL A   1      31.831  25.507  26.480  1.00  0.00     0.202 C 
BRANCH   5   6
ATOM      6  C   UNL A   1      30.498  25.712  25.714  1.00  0.00     0.261 C 
BRANCH   6   7
ATOM      7  O   UNL A   1      30.462  25.722  24.275  1.00  0.00    -0.463 OA
BRANCH   7   8
ATOM      8  C   UNL A   1      30.162  26.925  23.734  1.00  0.00     0.312 C 
ATOM      9  O   UNL A   1      29.009  27.356  23.720  1.00  0.00    -0.252 OA
BRANCH   8  10
ATOM     10  C   UNL A   1      31.362  27.745  23.143  1.00  0.00     0.076 C 
ATOM     11  C   UNL A   1      30.686  28.701  22.148  1.00  0.00     0.024 C 
BRANCH  10  12
ATOM     12  C   UNL A   1      32.278  26.676  22.408  1.00  0.00     0.000 C 
ATOM     13  C   UNL A   1      31.697  26.101  21.107  1.00  0.00     0.008 C 
ATOM     14  C   UNL A   1      33.696  27.183  22.095  1.00  0.00     0.008 C 
ENDBRANCH  10  12
BRANCH  10  15
ATOM     15  C   UNL A   1      32.330  28.517  24.129  1.00  0.00     0.119 C 
BRANCH  15  16
ATOM     16  C   UNL A   1      32.014  29.595  25.185  1.00  0.00     0.234 C 
ATOM     17  O   UNL A   1      30.907  30.149  25.166  1.00  0.00    -0.274 OA
ATOM     18  N   UNL A   1      32.780  29.914  26.252  1.00  0.00    -0.263 N 
ATOM     19  H   UNL A   1      32.390  30.676  26.737  1.00  0.00     0.182 HD
BRANCH  18  20
ATOM     20  C   UNL A   1      33.902  29.511  26.845  1.00  0.00     0.183 C 
ATOM     21  N   UNL A   1      34.885  29.101  27.305  1.00  0.00    -0.172 NA
ENDBRANCH  18  20
ENDBRANCH  15  16
ENDBRANCH  10  15
ENDBRANCH   8  10
ENDBRANCH   7   8
ENDBRANCH   6   7
ENDBRANCH   5   6
ENDBRANCH   4   5
ENDBRANCH   3   4
ENDBRANCH   2   3
ENDBRANCH   1   2
BRANCH   1  22
ATOM     22  C   UNL A   1      36.133  23.168  24.788  1.00  0.00     0.188 C 
BRANCH  22  23
ATOM     23  C   UNL A   1      37.018  22.118  24.104  1.00  0.00     0.188 C 
BRANCH  23  24
ATOM     24  O   UNL A   1      37.099  20.804  24.635  1.00  0.00    -0.376 OA
BRANCH  24  25
ATOM     25  C   UNL A   1      38.233  20.352  25.354  1.00  0.00     0.202 C 
BRANCH  25  26
ATOM     26  C   UNL A   1      39.256  21.264  26.060  1.00  0.00     0.261 C 
BRANCH  26  27
ATOM     27  O   UNL A   1      40.646  21.031  25.844  1.00  0.00    -0.460 OA
BRANCH  27  28
ATOM     28  C   UNL A   1      41.421  21.080  26.950  1.00  0.00     0.338 C 
ATOM     29  O   UNL A   1      42.021  20.158  27.470  1.00  0.00    -0.246 OA
BRANCH  28  30
ATOM     30  C   UNL A   1      41.566  22.495  27.344  1.00  0.00     0.060 A 
ATOM     31  C   UNL A   1      41.304  23.492  26.393  1.00  0.00     0.016 A 
ATOM     32  C   UNL A   1      41.985  22.832  28.631  1.00  0.00     0.016 A 
ATOM     33  C   UNL A   1      41.488  24.831  26.715  1.00  0.00     0.010 A 
ATOM     34  C   UNL A   1      42.209  24.175  28.942  1.00  0.00     0.010 A 
ATOM     35  C   UNL A   1      41.997  25.171  27.971  1.00  0.00    -0.014 A 
BRANCH  35  36
ATOM     36  C   UNL A   1      42.511  26.540  28.183  1.00  0.00     0.031 A 
ATOM     37  C   UNL A   1      43.953  26.813  27.865  1.00  0.00     0.074 A 
ATOM     38  C   UNL A   1      41.697  27.524  28.603  1.00  0.00     0.049 A 
ATOM     39  N   UNL A   1      44.639  27.914  28.012  1.00  0.00    -0.248 NA
ATOM     40  C   UNL A   1      44.728  25.689  27.309  1.00  0.00     0.031 C 
ATOM     41  C   UNL A   1      40.266  27.384  28.867  1.00  0.00     0.029 A 
ATOM     42  N   UNL A   1      41.967  28.838  28.881  1.00  0.00    -0.354 N 
ATOM     43  C   UNL A   1      45.929  27.612  27.591  1.00  0.00     0.074 A 
ATOM     44  C   UNL A   1      45.938  26.219  27.206  1.00  0.00     0.031 C 
ATOM     45  C   UNL A   1      39.783  28.570  29.279  1.00  0.00     0.029 A 
ATOM     46  C   UNL A   1      40.879  29.534  29.350  1.00  0.00     0.049 A 
ATOM     47  H   UNL A   1      42.855  29.246  28.757  1.00  0.00     0.167 HD
ATOM     48  C   UNL A   1      47.008  28.426  27.533  1.00  0.00     0.031 A 
ATOM     49  C   UNL A   1      40.790  30.796  29.812  1.00  0.00     0.031 A 
ATOM     50  C   UNL A   1      46.985  29.808  27.933  1.00  0.00     0.049 A 
ATOM     51  C   UNL A   1      42.027  31.656  29.825  1.00  0.00     0.074 A 
ATOM     52  C   UNL A   1      48.016  30.729  27.901  1.00  0.00     0.029 A 
ATOM     53  N   UNL A   1      45.877  30.464  28.451  1.00  0.00    -0.354 N 
ATOM     54  N   UNL A   1      43.238  31.367  29.407  1.00  0.00    -0.248 NA
ATOM     55  C   UNL A   1      41.885  33.016  30.362  1.00  0.00     0.031 C 
ATOM     56  C   UNL A   1      47.555  31.917  28.476  1.00  0.00     0.029 A 
ATOM     57  C   UNL A   1      46.210  31.767  28.781  1.00  0.00     0.049 A 
ATOM     58  H   UNL A   1      44.985  30.063  28.567  1.00  0.00     0.167 HD
ATOM     59  C   UNL A   1      43.991  32.522  29.598  1.00  0.00     0.074 A 
ATOM     60  C   UNL A   1      43.095  33.515  30.154  1.00  0.00     0.031 C 
ATOM     61  C   UNL A   1      45.303  32.743  29.333  1.00  0.00     0.031 A 
BRANCH  48  62
ATOM     62  C   UNL A   1      48.314  27.830  27.075  1.00  0.00    -0.014 A 
ATOM     63  C   UNL A   1      48.734  27.906  25.735  1.00  0.00     0.010 A 
ATOM     64  C   UNL A   1      49.156  27.213  28.019  1.00  0.00     0.010 A 
ATOM     65  C   UNL A   1      49.954  27.347  25.342  1.00  0.00     0.020 A 
ATOM     66  C   UNL A   1      50.393  26.684  27.638  1.00  0.00     0.020 A 
ATOM     67  C   UNL A   1      50.776  26.742  26.298  1.00  0.00     0.054 A 
BRANCH  67  68
ATOM     68  S   UNL A   1      52.369  26.059  25.765  1.00  0.00     0.124 S 
ATOM     69  O   UNL A   1      52.396  26.421  24.350  1.00  0.00    -0.237 OA
ATOM     70  O   UNL A   1      53.320  26.772  26.614  1.00  0.00    -0.237 OA
ATOM     71  O   UNL A   1      52.244  24.629  26.038  1.00  0.00    -0.744 OA
ENDBRANCH  67  68
ENDBRANCH  48  62
BRANCH  49  72
ATOM     72  C   UNL A   1      39.490  31.316  30.320  1.00  0.00    -0.014 A 
ATOM     73  C   UNL A   1      38.559  31.903  29.444  1.00  0.00     0.010 A 
ATOM     74  C   UNL A   1      39.177  31.230  31.689  1.00  0.00     0.010 A 
ATOM     75  C   UNL A   1      37.351  32.410  29.930  1.00  0.00     0.020 A 
ATOM     76  C   UNL A   1      37.954  31.702  32.174  1.00  0.00     0.020 A 
ATOM     77  C   UNL A   1      37.053  32.299  31.293  1.00  0.00     0.054 A 
BRANCH  77  78
ATOM     78  S   UNL A   1      35.455  32.917  31.889  1.00  0.00     0.124 S 
ATOM     79  O   UNL A   1      35.394  32.357  33.235  1.00  0.00    -0.237 OA
ATOM     80  O   UNL A   1      35.633  34.365  31.811  1.00  0.00    -0.237 OA
ATOM     81  O   UNL A   1      34.497  32.363  30.936  1.00  0.00    -0.744 OA
ENDBRANCH  77  78
ENDBRANCH  49  72
BRANCH  61  82
ATOM     82  C   UNL A   1      45.844  34.127  29.592  1.00  0.00    -0.014 A 
ATOM     83  C   UNL A   1      45.795  35.135  28.613  1.00  0.00     0.010 A 
ATOM     84  C   UNL A   1      46.360  34.435  30.866  1.00  0.00     0.010 A 
ATOM     85  C   UNL A   1      46.284  36.414  28.892  1.00  0.00     0.020 A 
ATOM     86  C   UNL A   1      46.813  35.723  31.160  1.00  0.00     0.020 A 
ATOM     87  C   UNL A   1      46.785  36.701  30.165  1.00  0.00     0.054 A 
BRANCH  87  88
ATOM     88  S   UNL A   1      47.370  38.381  30.512  1.00  0.00     0.124 S 
ATOM     89  O   UNL A   1      46.693  39.159  29.478  1.00  0.00    -0.237 OA
ATOM     90  O   UNL A   1      46.898  38.606  31.877  1.00  0.00    -0.237 OA
ATOM     91  O   UNL A   1      48.820  38.282  30.368  1.00  0.00    -0.744 OA
ENDBRANCH  87  88
ENDBRANCH  61  82
ENDBRANCH  35  36
ENDBRANCH  28  30
ENDBRANCH  27  28
ENDBRANCH  26  27
ENDBRANCH  25  26
ENDBRANCH  24  25
ENDBRANCH  23  24
ENDBRANCH  22  23
ENDBRANCH   1  22
TORSDOF 27
ENDMDL
MODEL 3
REMARK VINA RESULT:      -7.7      5.190      6.790
REMARK SMILES CC(C)[C@](C)(CC(=O)NC#N)C(=O)OCCOCCOCCOCCOC(=O)c1ccc(-c2c3nc(c(-c4ccc(S(=O)(=O)[O-])cc4)c4ccc([nH]4)c(-c4ccc(S(=O)(=O)[O-])cc4)c4nc(c(-c5ccc(S(=O)(=O)[O-])cc5)c5ccc2[nH]5)C=C4)C=C3)cc1
REMARK SMILES IDX 20 1 19 2 18 3 17 4 16 5 15 6 14 7 12 8 13 9 4 10 5 11 2 12
REMARK SMILES IDX 1 13 3 14 6 15 7 16 8 17 9 18 10 20 11 21 21 22 22 23 23 24
REMARK SMILES IDX 24 25 25 26 26 27 27 28 28 29 29 30 30 31 88 32 31 33 87 34
REMARK SMILES IDX 32 35 33 36 34 37 81 38 35 39 86 40 80 41 82 42 36 43 85 44
REMARK SMILES IDX 79 45 78 46 37 48 67 49 48 50 66 51 49 52 52 53 65 54 83 55
REMARK SMILES IDX 50 56 51 57 64 59 84 60 53 61 38 62 39 63 47 64 40 65 46 66
REMARK SMILES IDX 41 67 42 68 43 69 44 70 45 71 68 72 69 73 77 74 70 75 76 76
REMARK SMILES IDX 71 77 72 78 73 79 74 80 75 81 54 82 55 83 63 84 56 85 62 86
REMARK SMILES IDX 57 87 58 88 59 89 60 90 61 91
REMARK H PARENT 9 19 82 47 52 58
REMARK Flexibility Score: inf
ROOT
ATOM      1  O   UNL A   1      34.216  25.436  25.119  1.00  0.00    -0.377 OA
ENDROOT
BRANCH   1   2
ATOM      2  C   UNL A   1      33.990  26.497  26.021  1.00  0.00     0.188 C 
BRANCH   2   3
ATOM      3  C   UNL A   1      32.692  26.746  26.779  1.00  0.00     0.188 C 
BRANCH   3   4
ATOM      4  O   UNL A   1      32.631  27.970  27.460  1.00  0.00    -0.376 OA
BRANCH   4   5
ATOM      5  C   UNL A   1      31.836  29.058  27.045  1.00  0.00     0.202 C 
BRANCH   5   6
ATOM      6  C   UNL A   1      32.183  30.060  25.914  1.00  0.00     0.261 C 
BRANCH   6   7
ATOM      7  O   UNL A   1      31.498  30.017  24.648  1.00  0.00    -0.463 OA
BRANCH   7   8
ATOM      8  C   UNL A   1      31.919  29.033  23.821  1.00  0.00     0.312 C 
ATOM      9  O   UNL A   1      33.089  28.651  23.818  1.00  0.00    -0.252 OA
BRANCH   8  10
ATOM     10  C   UNL A   1      30.835  28.397  22.881  1.00  0.00     0.076 C 
ATOM     11  C   UNL A   1      30.335  29.592  22.054  1.00  0.00     0.024 C 
BRANCH  10  12
ATOM     12  C   UNL A   1      29.712  27.840  23.855  1.00  0.00     0.000 C 
ATOM     13  C   UNL A   1      28.318  27.685  23.227  1.00  0.00     0.008 C 
ATOM     14  C   UNL A   1      30.072  26.497  24.514  1.00  0.00     0.008 C 
ENDBRANCH  10  12
BRANCH  10  15
ATOM     15  C   UNL A   1      31.234  27.175  21.959  1.00  0.00     0.119 C 
BRANCH  15  16
ATOM     16  C   UNL A   1      32.574  26.423  21.836  1.00  0.00     0.234 C 
ATOM     17  O   UNL A   1      33.572  27.035  21.433  1.00  0.00    -0.274 OA
ATOM     18  N   UNL A   1      32.826  25.166  22.266  1.00  0.00    -0.263 N 
ATOM     19  H   UNL A   1      33.737  24.894  22.013  1.00  0.00     0.182 HD
BRANCH  18  20
ATOM     20  C   UNL A   1      32.214  24.185  22.926  1.00  0.00     0.183 C 
ATOM     21  N   UNL A   1      31.622  23.333  23.446  1.00  0.00    -0.172 NA
ENDBRANCH  18  20
ENDBRANCH  15  16
ENDBRANCH  10  15
ENDBRANCH   8  10
ENDBRANCH   7   8
ENDBRANCH   6   7
ENDBRANCH   5   6
ENDBRANCH   4   5
ENDBRANCH   3   4
ENDBRANCH   2   3
ENDBRANCH   1   2
BRANCH   1  22
ATOM     22  C   UNL A   1      34.972  24.322  25.530  1.00  0.00     0.188 C 
BRANCH  22  23
ATOM     23  C   UNL A   1      35.965  23.845  24.463  1.00  0.00     0.188 C 
BRANCH  23  24
ATOM     24  O   UNL A   1      35.983  22.481  24.069  1.00  0.00    -0.376 OA
BRANCH  24  25
ATOM     25  C   UNL A   1      37.118  21.655  24.272  1.00  0.00     0.202 C 
BRANCH  25  26
ATOM     26  C   UNL A   1      37.894  21.526  25.597  1.00  0.00     0.261 C 
BRANCH  26  27
ATOM     27  O   UNL A   1      38.890  22.499  25.907  1.00  0.00    -0.460 OA
BRANCH  27  28
ATOM     28  C   UNL A   1      39.727  22.171  26.915  1.00  0.00     0.338 C 
ATOM     29  O   UNL A   1      40.128  21.060  27.208  1.00  0.00    -0.246 OA
BRANCH  28  30
ATOM     30  C   UNL A   1      40.225  23.422  27.520  1.00  0.00     0.060 A 
ATOM     31  C   UNL A   1      39.346  24.507  27.653  1.00  0.00     0.016 A 
ATOM     32  C   UNL A   1      41.556  23.532  27.925  1.00  0.00     0.016 A 
ATOM     33  C   UNL A   1      39.800  25.716  28.163  1.00  0.00     0.010 A 
ATOM     34  C   UNL A   1      42.021  24.760  28.399  1.00  0.00     0.010 A 
ATOM     35  C   UNL A   1      41.152  25.863  28.482  1.00  0.00    -0.014 A 
BRANCH  35  36
ATOM     36  C   UNL A   1      41.690  27.223  28.690  1.00  0.00     0.031 A 
ATOM     37  C   UNL A   1      43.159  27.445  28.466  1.00  0.00     0.074 A 
ATOM     38  C   UNL A   1      40.879  28.242  29.024  1.00  0.00     0.049 A 
ATOM     39  N   UNL A   1      43.866  28.531  28.628  1.00  0.00    -0.248 NA
ATOM     40  C   UNL A   1      43.936  26.283  27.998  1.00  0.00     0.031 C 
ATOM     41  C   UNL A   1      39.430  28.150  29.191  1.00  0.00     0.029 A 
ATOM     42  N   UNL A   1      41.169  29.556  29.282  1.00  0.00    -0.354 N 
ATOM     43  C   UNL A   1      45.172  28.180  28.308  1.00  0.00     0.074 A 
ATOM     44  C   UNL A   1      45.165  26.776  27.965  1.00  0.00     0.031 C 
ATOM     45  C   UNL A   1      38.956  29.361  29.533  1.00  0.00     0.029 A 
ATOM     46  C   UNL A   1      40.072  30.296  29.653  1.00  0.00     0.049 A 
ATOM     47  H   UNL A   1      42.076  29.934  29.208  1.00  0.00     0.167 HD
ATOM     48  C   UNL A   1      46.277  28.961  28.302  1.00  0.00     0.031 A 
ATOM     49  C   UNL A   1      39.990  31.574  30.071  1.00  0.00     0.031 A 
ATOM     50  C   UNL A   1      46.267  30.355  28.660  1.00  0.00     0.049 A 
ATOM     51  C   UNL A   1      41.249  32.399  30.145  1.00  0.00     0.074 A 
ATOM     52  C   UNL A   1      47.325  31.245  28.674  1.00  0.00     0.029 A 
ATOM     53  N   UNL A   1      45.147  31.057  29.079  1.00  0.00    -0.354 N 
ATOM     54  N   UNL A   1      42.477  32.063  29.822  1.00  0.00    -0.248 NA
ATOM     55  C   UNL A   1      41.110  33.778  30.632  1.00  0.00     0.031 C 
ATOM     56  C   UNL A   1      46.862  32.462  29.181  1.00  0.00     0.029 A 
ATOM     57  C   UNL A   1      45.495  32.360  29.394  1.00  0.00     0.049 A 
ATOM     58  H   UNL A   1      44.237  30.685  29.145  1.00  0.00     0.167 HD
ATOM     59  C   UNL A   1      43.249  33.202  30.032  1.00  0.00     0.074 A 
ATOM     60  C   UNL A   1      42.347  34.236  30.494  1.00  0.00     0.031 C 
ATOM     61  C   UNL A   1      44.582  33.377  29.853  1.00  0.00     0.031 A 
BRANCH  48  62
ATOM     62  C   UNL A   1      47.592  28.314  27.954  1.00  0.00    -0.014 A 
ATOM     63  C   UNL A   1      48.294  27.519  28.877  1.00  0.00     0.010 A 
ATOM     64  C   UNL A   1      48.116  28.477  26.658  1.00  0.00     0.010 A 
ATOM     65  C   UNL A   1      49.511  26.928  28.522  1.00  0.00     0.020 A 
ATOM     66  C   UNL A   1      49.314  27.859  26.287  1.00  0.00     0.020 A 
ATOM     67  C   UNL A   1      50.010  27.100  27.227  1.00  0.00     0.054 A 
BRANCH  67  68
ATOM     68  S   UNL A   1      51.572  26.290  26.784  1.00  0.00     0.124 S 
ATOM     69  O   UNL A   1      51.881  26.911  25.499  1.00  0.00    -0.237 OA
ATOM     70  O   UNL A   1      52.448  26.666  27.891  1.00  0.00    -0.237 OA
ATOM     71  O   UNL A   1      51.224  24.873  26.722  1.00  0.00    -0.744 OA
ENDBRANCH  67  68
ENDBRANCH  48  62
BRANCH  49  72
ATOM     72  C   UNL A   1      38.674  32.145  30.471  1.00  0.00    -0.014 A 
ATOM     73  C   UNL A   1      37.817  32.716  29.513  1.00  0.00     0.010 A 
ATOM     74  C   UNL A   1      38.272  32.125  31.820  1.00  0.00     0.010 A 
ATOM     75  C   UNL A   1      36.594  33.272  29.898  1.00  0.00     0.020 A 
ATOM     76  C   UNL A   1      37.034  32.646  32.204  1.00  0.00     0.020 A 
ATOM     77  C   UNL A   1      36.207  33.226  31.242  1.00  0.00     0.054 A 
BRANCH  77  78
ATOM     78  S   UNL A   1      34.591  33.906  31.707  1.00  0.00     0.124 S 
ATOM     79  O   UNL A   1      33.891  32.724  32.198  1.00  0.00    -0.237 OA
ATOM     80  O   UNL A   1      34.950  34.898  32.719  1.00  0.00    -0.237 OA
ATOM     81  O   UNL A   1      34.080  34.461  30.456  1.00  0.00    -0.744 OA
ENDBRANCH  77  78
ENDBRANCH  49  72
BRANCH  61  82
ATOM     82  C   UNL A   1      45.146  34.753  30.110  1.00  0.00    -0.014 A 
ATOM     83  C   UNL A   1      45.541  35.161  31.396  1.00  0.00     0.010 A 
ATOM     84  C   UNL A   1      45.334  35.631  29.025  1.00  0.00     0.010 A 
ATOM     85  C   UNL A   1      46.081  36.435  31.597  1.00  0.00     0.020 A 
ATOM     86  C   UNL A   1      45.910  36.889  29.216  1.00  0.00     0.020 A 
ATOM     87  C   UNL A   1      46.266  37.288  30.505  1.00  0.00     0.054 A 
BRANCH  87  88
ATOM     88  S   UNL A   1      47.011  38.916  30.788  1.00  0.00     0.124 S 
ATOM     89  O   UNL A   1      46.872  39.548  29.479  1.00  0.00    -0.237 OA
ATOM     90  O   UNL A   1      46.169  39.470  31.846  1.00  0.00    -0.237 OA
ATOM     91  O   UNL A   1      48.382  38.607  31.188  1.00  0.00    -0.744 OA
ENDBRANCH  87  88
ENDBRANCH  61  82
ENDBRANCH  35  36
ENDBRANCH  28  30
ENDBRANCH  27  28
ENDBRANCH  26  27
ENDBRANCH  25  26
ENDBRANCH  24  25
ENDBRANCH  23  24
ENDBRANCH  22  23
ENDBRANCH   1  22
TORSDOF 27
ENDMDL
