MODEL 1
REMARK VINA RESULT:      -9.0      0.000      0.000
REMARK SMILES CCCc1cc2c(cc1Cl)C=C(C(=O)OCCOCCOCCOCCOC(=O)c1ccc(-c3c4nc(c(-c5ccc(S(=O)(=O)[O-])cc5)c5ccc([nH]5)c(-c5ccc(S(=O)(=O)[O-])cc5)c5nc(c(-c6ccc(S(=O)(=O)[O-])cc6)c6ccc3[nH]6)C=C5)C=C4)cc1)[C@H](C(F)(F)F)O2
REMARK SMILES IDX 22 1 21 2 20 3 19 4 18 5 17 6 16 7 15 8 13 9 14 10 12 11
REMARK SMILES IDX 4 12 5 13 9 14 6 15 8 16 10 17 7 18 95 19 11 20 90 21 3 22
REMARK SMILES IDX 2 23 1 24 91 25 92 26 93 27 94 28 23 29 24 30 25 31 26 32
REMARK SMILES IDX 27 33 28 34 29 35 30 36 31 37 89 38 32 39 88 40 33 41 34 42
REMARK SMILES IDX 35 43 82 44 36 45 87 46 81 47 83 48 37 49 86 50 80 51 79 52
REMARK SMILES IDX 38 54 68 55 49 56 67 57 50 58 53 59 66 60 84 61 51 62 52 63
REMARK SMILES IDX 65 65 85 66 54 67 39 68 40 69 48 70 41 71 47 72 42 73 43 74
REMARK SMILES IDX 44 75 45 76 46 77 69 78 70 79 78 80 71 81 77 82 72 83 73 84
REMARK SMILES IDX 74 85 75 86 76 87 55 88 56 89 64 90 57 91 63 92 58 93 59 94
REMARK SMILES IDX 60 95 61 96 62 97
REMARK H PARENT 83 53 53 64
REMARK Flexibility Score: inf
ROOT
ATOM      1  C   UNL A   1      33.298  27.963  26.731  1.00  0.00     0.188 C 
ENDROOT
BRANCH   1   2
ATOM      2  O   UNL A   1      32.421  26.837  26.683  1.00  0.00    -0.377 OA
BRANCH   2   3
ATOM      3  C   UNL A   1      31.032  27.040  26.494  1.00  0.00     0.188 C 
BRANCH   3   4
ATOM      4  C   UNL A   1      30.389  26.274  25.333  1.00  0.00     0.188 C 
BRANCH   4   5
ATOM      5  O   UNL A   1      30.291  24.865  25.430  1.00  0.00    -0.376 OA
BRANCH   5   6
ATOM      6  C   UNL A   1      30.092  24.259  26.706  1.00  0.00     0.202 C 
BRANCH   6   7
ATOM      7  C   UNL A   1      30.738  22.907  27.068  1.00  0.00     0.261 C 
BRANCH   7   8
ATOM      8  O   UNL A   1      31.950  23.006  27.842  1.00  0.00    -0.460 OA
BRANCH   8   9
ATOM      9  C   UNL A   1      33.041  22.438  27.284  1.00  0.00     0.338 C 
ATOM     10  O   UNL A   1      33.793  21.637  27.821  1.00  0.00    -0.246 OA
BRANCH   9  11
ATOM     11  C   UNL A   1      33.141  22.741  25.846  1.00  0.00     0.087 C 
ATOM     12  C   UNL A   1      32.812  25.524  21.640  1.00  0.00    -0.026 A 
ATOM     13  C   UNL A   1      32.358  24.245  22.041  1.00  0.00     0.052 A 
ATOM     14  C   UNL A   1      33.567  26.258  22.569  1.00  0.00     0.045 A 
ATOM     15  C   UNL A   1      32.652  23.718  23.301  1.00  0.00     0.128 A 
ATOM     16  C   UNL A   1      33.893  25.712  23.820  1.00  0.00     0.032 A 
ATOM     17  Cl  UNL A   1      34.069  27.892  22.324  1.00  0.00    -0.084 Cl
ATOM     18  C   UNL A   1      33.424  24.451  24.195  1.00  0.00     0.019 A 
ATOM     19  O   UNL A   1      32.065  22.525  23.624  1.00  0.00    -0.475 OA
ATOM     20  C   UNL A   1      33.585  23.974  25.557  1.00  0.00     0.027 C 
ATOM     21  C   UNL A   1      32.537  21.826  24.819  1.00  0.00     0.316 C 
BRANCH  12  22
ATOM     22  C   UNL A   1      32.320  26.015  20.291  1.00  0.00     0.037 C 
BRANCH  22  23
ATOM     23  C   UNL A   1      32.610  25.234  19.005  1.00  0.00     0.001 C 
ATOM     24  C   UNL A   1      31.499  25.296  17.969  1.00  0.00     0.004 C 
ENDBRANCH  22  23
ENDBRANCH  12  22
BRANCH  21  25
ATOM     25  C   UNL A   1      33.445  20.665  24.385  1.00  0.00     0.430 C 
ATOM     26  F   UNL A   1      33.534  19.732  25.370  1.00  0.00    -0.167 F 
ATOM     27  F   UNL A   1      32.980  20.024  23.289  1.00  0.00    -0.167 F 
ATOM     28  F   UNL A   1      34.708  21.076  24.135  1.00  0.00    -0.167 F 
ENDBRANCH  21  25
ENDBRANCH   9  11
ENDBRANCH   8   9
ENDBRANCH   7   8
ENDBRANCH   6   7
ENDBRANCH   5   6
ENDBRANCH   4   5
ENDBRANCH   3   4
ENDBRANCH   2   3
ENDBRANCH   1   2
BRANCH   1  29
ATOM     29  C   UNL A   1      32.843  29.288  26.102  1.00  0.00     0.188 C 
BRANCH  29  30
ATOM     30  O   UNL A   1      32.342  30.308  26.972  1.00  0.00    -0.376 OA
BRANCH  30  31
ATOM     31  C   UNL A   1      31.418  31.261  26.451  1.00  0.00     0.202 C 
BRANCH  31  32
ATOM     32  C   UNL A   1      31.734  32.708  26.813  1.00  0.00     0.261 C 
BRANCH  32  33
ATOM     33  O   UNL A   1      33.047  32.820  27.377  1.00  0.00    -0.460 OA
BRANCH  33  34
ATOM     34  C   UNL A   1      33.255  33.900  28.171  1.00  0.00     0.338 C 
ATOM     35  O   UNL A   1      32.592  34.913  28.228  1.00  0.00    -0.246 OA
BRANCH  34  36
ATOM     36  C   UNL A   1      34.345  33.572  29.112  1.00  0.00     0.060 A 
ATOM     37  C   UNL A   1      34.117  32.749  30.218  1.00  0.00     0.016 A 
ATOM     38  C   UNL A   1      35.622  34.085  28.856  1.00  0.00     0.016 A 
ATOM     39  C   UNL A   1      35.184  32.404  31.046  1.00  0.00     0.010 A 
ATOM     40  C   UNL A   1      36.688  33.740  29.685  1.00  0.00     0.010 A 
ATOM     41  C   UNL A   1      36.480  32.871  30.764  1.00  0.00    -0.014 A 
BRANCH  41  42
ATOM     42  C   UNL A   1      37.641  32.280  31.467  1.00  0.00     0.031 A 
ATOM     43  C   UNL A   1      38.447  31.171  30.869  1.00  0.00     0.074 A 
ATOM     44  C   UNL A   1      37.940  32.771  32.687  1.00  0.00     0.049 A 
ATOM     45  N   UNL A   1      39.517  30.597  31.351  1.00  0.00    -0.248 NA
ATOM     46  C   UNL A   1      38.004  30.636  29.573  1.00  0.00     0.031 C 
ATOM     47  C   UNL A   1      37.199  33.845  33.356  1.00  0.00     0.029 A 
ATOM     48  N   UNL A   1      38.937  32.454  33.571  1.00  0.00    -0.354 N 
ATOM     49  C   UNL A   1      39.894  29.647  30.411  1.00  0.00     0.074 A 
ATOM     50  C   UNL A   1      38.908  29.688  29.351  1.00  0.00     0.031 C 
ATOM     51  C   UNL A   1      37.789  34.121  34.526  1.00  0.00     0.029 A 
ATOM     52  C   UNL A   1      38.920  33.218  34.715  1.00  0.00     0.049 A 
ATOM     53  H   UNL A   1      39.602  31.747  33.404  1.00  0.00     0.167 HD
ATOM     54  C   UNL A   1      40.978  28.836  30.433  1.00  0.00     0.031 A 
ATOM     55  C   UNL A   1      39.723  33.200  35.798  1.00  0.00     0.031 A 
ATOM     56  C   UNL A   1      41.937  28.807  31.509  1.00  0.00     0.049 A 
ATOM     57  C   UNL A   1      40.879  32.241  35.822  1.00  0.00     0.074 A 
ATOM     58  C   UNL A   1      43.090  28.047  31.603  1.00  0.00     0.029 A 
ATOM     59  N   UNL A   1      41.860  29.555  32.677  1.00  0.00    -0.354 N 
ATOM     60  N   UNL A   1      41.271  31.408  34.887  1.00  0.00    -0.248 NA
ATOM     61  C   UNL A   1      41.708  32.220  37.035  1.00  0.00     0.031 C 
ATOM     62  C   UNL A   1      43.660  28.269  32.857  1.00  0.00     0.029 A 
ATOM     63  C   UNL A   1      42.917  29.236  33.513  1.00  0.00     0.049 A 
ATOM     64  H   UNL A   1      41.157  30.215  32.879  1.00  0.00     0.167 HD
ATOM     65  C   UNL A   1      42.398  30.773  35.392  1.00  0.00     0.074 A 
ATOM     66  C   UNL A   1      42.643  31.337  36.704  1.00  0.00     0.031 C 
ATOM     67  C   UNL A   1      43.154  29.805  34.820  1.00  0.00     0.031 A 
BRANCH  54  68
ATOM     68  C   UNL A   1      41.226  27.921  29.260  1.00  0.00    -0.014 A 
ATOM     69  C   UNL A   1      40.755  26.594  29.291  1.00  0.00     0.010 A 
ATOM     70  C   UNL A   1      42.078  28.317  28.214  1.00  0.00     0.010 A 
ATOM     71  C   UNL A   1      41.170  25.670  28.330  1.00  0.00     0.020 A 
ATOM     72  C   UNL A   1      42.471  27.403  27.231  1.00  0.00     0.020 A 
ATOM     73  C   UNL A   1      42.039  26.077  27.313  1.00  0.00     0.054 A 
BRANCH  73  74
ATOM     74  S   UNL A   1      42.625  24.846  26.117  1.00  0.00     0.124 S 
ATOM     75  O   UNL A   1      42.952  25.669  24.958  1.00  0.00    -0.237 OA
ATOM     76  O   UNL A   1      43.763  24.248  26.810  1.00  0.00    -0.237 OA
ATOM     77  O   UNL A   1      41.475  23.958  25.948  1.00  0.00    -0.744 OA
ENDBRANCH  73  74
ENDBRANCH  54  68
BRANCH  55  78
ATOM     78  C   UNL A   1      39.464  34.155  36.912  1.00  0.00    -0.014 A 
ATOM     79  C   UNL A   1      39.991  35.461  36.869  1.00  0.00     0.010 A 
ATOM     80  C   UNL A   1      38.773  33.737  38.062  1.00  0.00     0.010 A 
ATOM     81  C   UNL A   1      39.889  36.306  37.977  1.00  0.00     0.020 A 
ATOM     82  C   UNL A   1      38.635  34.594  39.159  1.00  0.00     0.020 A 
ATOM     83  C   UNL A   1      39.223  35.861  39.121  1.00  0.00     0.054 A 
BRANCH  83  84
ATOM     84  S   UNL A   1      39.155  36.955  40.566  1.00  0.00     0.124 S 
ATOM     85  O   UNL A   1      38.373  38.077  40.054  1.00  0.00    -0.237 OA
ATOM     86  O   UNL A   1      38.487  36.122  41.563  1.00  0.00    -0.237 OA
ATOM     87  O   UNL A   1      40.559  37.247  40.841  1.00  0.00    -0.744 OA
ENDBRANCH  83  84
ENDBRANCH  55  78
BRANCH  67  88
ATOM     88  C   UNL A   1      44.320  29.253  35.600  1.00  0.00    -0.014 A 
ATOM     89  C   UNL A   1      44.102  28.273  36.588  1.00  0.00     0.010 A 
ATOM     90  C   UNL A   1      45.597  29.827  35.477  1.00  0.00     0.010 A 
ATOM     91  C   UNL A   1      45.120  27.928  37.481  1.00  0.00     0.020 A 
ATOM     92  C   UNL A   1      46.628  29.458  36.346  1.00  0.00     0.020 A 
ATOM     93  C   UNL A   1      46.372  28.538  37.365  1.00  0.00     0.054 A 
BRANCH  93  94
ATOM     94  S   UNL A   1      47.649  28.147  38.592  1.00  0.00     0.124 S 
ATOM     95  O   UNL A   1      47.563  29.287  39.500  1.00  0.00    -0.237 OA
ATOM     96  O   UNL A   1      47.189  26.872  39.135  1.00  0.00    -0.237 OA
ATOM     97  O   UNL A   1      48.876  28.072  37.801  1.00  0.00    -0.744 OA
ENDBRANCH  93  94
ENDBRANCH  67  88
ENDBRANCH  41  42
ENDBRANCH  34  36
ENDBRANCH  33  34
ENDBRANCH  32  33
ENDBRANCH  31  32
ENDBRANCH  30  31
ENDBRANCH  29  30
ENDBRANCH   1  29
TORSDOF 26
ENDMDL
MODEL 2
REMARK VINA RESULT:      -8.8      0.522      7.788
REMARK SMILES CCCc1cc2c(cc1Cl)C=C(C(=O)OCCOCCOCCOCCOC(=O)c1ccc(-c3c4nc(c(-c5ccc(S(=O)(=O)[O-])cc5)c5ccc([nH]5)c(-c5ccc(S(=O)(=O)[O-])cc5)c5nc(c(-c6ccc(S(=O)(=O)[O-])cc6)c6ccc3[nH]6)C=C5)C=C4)cc1)[C@H](C(F)(F)F)O2
REMARK SMILES IDX 22 1 21 2 20 3 19 4 18 5 17 6 16 7 15 8 13 9 14 10 12 11
REMARK SMILES IDX 4 12 5 13 9 14 6 15 8 16 10 17 7 18 95 19 11 20 90 21 3 22
REMARK SMILES IDX 2 23 1 24 91 25 92 26 93 27 94 28 23 29 24 30 25 31 26 32
REMARK SMILES IDX 27 33 28 34 29 35 30 36 31 37 89 38 32 39 88 40 33 41 34 42
REMARK SMILES IDX 35 43 82 44 36 45 87 46 81 47 83 48 37 49 86 50 80 51 79 52
REMARK SMILES IDX 38 54 68 55 49 56 67 57 50 58 53 59 66 60 84 61 51 62 52 63
REMARK SMILES IDX 65 65 85 66 54 67 39 68 40 69 48 70 41 71 47 72 42 73 43 74
REMARK SMILES IDX 44 75 45 76 46 77 69 78 70 79 78 80 71 81 77 82 72 83 73 84
REMARK SMILES IDX 74 85 75 86 76 87 55 88 56 89 64 90 57 91 63 92 58 93 59 94
REMARK SMILES IDX 60 95 61 96 62 97
REMARK H PARENT 83 53 53 64
REMARK Flexibility Score: inf
ROOT
ATOM      1  C   UNL A   1      33.236  28.141  26.815  1.00  0.00     0.188 C 
ENDROOT
BRANCH   1   2
ATOM      2  O   UNL A   1      32.433  26.990  26.547  1.00  0.00    -0.377 OA
BRANCH   2   3
ATOM      3  C   UNL A   1      31.038  27.139  26.361  1.00  0.00     0.188 C 
BRANCH   3   4
ATOM      4  C   UNL A   1      30.441  26.440  25.135  1.00  0.00     0.188 C 
BRANCH   4   5
ATOM      5  O   UNL A   1      30.137  25.061  25.230  1.00  0.00    -0.376 OA
BRANCH   5   6
ATOM      6  C   UNL A   1      29.849  24.489  26.505  1.00  0.00     0.202 C 
BRANCH   6   7
ATOM      7  C   UNL A   1      30.464  23.145  26.944  1.00  0.00     0.261 C 
BRANCH   7   8
ATOM      8  O   UNL A   1      31.654  23.262  27.750  1.00  0.00    -0.460 OA
BRANCH   8   9
ATOM      9  C   UNL A   1      32.743  22.623  27.269  1.00  0.00     0.338 C 
ATOM     10  O   UNL A   1      33.427  21.808  27.872  1.00  0.00    -0.246 OA
BRANCH   9  11
ATOM     11  C   UNL A   1      32.929  22.866  25.829  1.00  0.00     0.087 C 
ATOM     12  C   UNL A   1      32.877  25.481  21.503  1.00  0.00    -0.026 A 
ATOM     13  C   UNL A   1      32.385  24.223  21.928  1.00  0.00     0.052 A 
ATOM     14  C   UNL A   1      33.585  26.244  22.445  1.00  0.00     0.045 A 
ATOM     15  C   UNL A   1      32.599  23.744  23.223  1.00  0.00     0.128 A 
ATOM     16  C   UNL A   1      33.833  25.745  23.734  1.00  0.00     0.032 A 
ATOM     17  Cl  UNL A   1      34.121  27.862  22.165  1.00  0.00    -0.084 Cl
ATOM     18  C   UNL A   1      33.327  24.506  24.131  1.00  0.00     0.019 A 
ATOM     19  O   UNL A   1      31.980  22.571  23.558  1.00  0.00    -0.475 OA
ATOM     20  C   UNL A   1      33.403  24.082  25.517  1.00  0.00     0.027 C 
ATOM     21  C   UNL A   1      32.374  21.916  24.806  1.00  0.00     0.316 C 
BRANCH  12  22
ATOM     22  C   UNL A   1      32.470  25.921  20.110  1.00  0.00     0.037 C 
BRANCH  22  23
ATOM     23  C   UNL A   1      32.231  24.903  18.990  1.00  0.00     0.001 C 
ATOM     24  C   UNL A   1      31.557  25.475  17.753  1.00  0.00     0.004 C 
ENDBRANCH  22  23
ENDBRANCH  12  22
BRANCH  21  25
ATOM     25  C   UNL A   1      33.292  20.731  24.472  1.00  0.00     0.430 C 
ATOM     26  F   UNL A   1      34.596  21.113  24.495  1.00  0.00    -0.167 F 
ATOM     27  F   UNL A   1      33.172  19.716  25.358  1.00  0.00    -0.167 F 
ATOM     28  F   UNL A   1      33.060  20.244  23.233  1.00  0.00    -0.167 F 
ENDBRANCH  21  25
ENDBRANCH   9  11
ENDBRANCH   8   9
ENDBRANCH   7   8
ENDBRANCH   6   7
ENDBRANCH   5   6
ENDBRANCH   4   5
ENDBRANCH   3   4
ENDBRANCH   2   3
ENDBRANCH   1   2
BRANCH   1  29
ATOM     29  C   UNL A   1      32.819  29.494  26.219  1.00  0.00     0.188 C 
BRANCH  29  30
ATOM     30  O   UNL A   1      32.198  30.447  27.088  1.00  0.00    -0.376 OA
BRANCH  30  31
ATOM     31  C   UNL A   1      31.438  31.506  26.511  1.00  0.00     0.202 C 
BRANCH  31  32
ATOM     32  C   UNL A   1      31.868  32.902  26.950  1.00  0.00     0.261 C 
BRANCH  32  33
ATOM     33  O   UNL A   1      33.029  32.841  27.788  1.00  0.00    -0.460 OA
BRANCH  33  34
ATOM     34  C   UNL A   1      33.371  33.999  28.403  1.00  0.00     0.338 C 
ATOM     35  O   UNL A   1      32.824  35.077  28.307  1.00  0.00    -0.246 OA
BRANCH  34  36
ATOM     36  C   UNL A   1      34.440  33.701  29.378  1.00  0.00     0.060 A 
ATOM     37  C   UNL A   1      34.208  32.850  30.462  1.00  0.00     0.016 A 
ATOM     38  C   UNL A   1      35.702  34.271  29.176  1.00  0.00     0.016 A 
ATOM     39  C   UNL A   1      35.259  32.536  31.323  1.00  0.00     0.010 A 
ATOM     40  C   UNL A   1      36.753  33.957  30.037  1.00  0.00     0.010 A 
ATOM     41  C   UNL A   1      36.543  33.061  31.094  1.00  0.00    -0.014 A 
BRANCH  41  42
ATOM     42  C   UNL A   1      37.702  32.507  31.830  1.00  0.00     0.031 A 
ATOM     43  C   UNL A   1      38.128  33.048  33.157  1.00  0.00     0.074 A 
ATOM     44  C   UNL A   1      38.380  31.498  31.246  1.00  0.00     0.049 A 
ATOM     45  N   UNL A   1      39.090  32.626  33.933  1.00  0.00    -0.248 NA
ATOM     46  C   UNL A   1      37.388  34.204  33.685  1.00  0.00     0.031 C 
ATOM     47  C   UNL A   1      38.045  30.915  29.943  1.00  0.00     0.029 A 
ATOM     48  N   UNL A   1      39.468  30.777  31.663  1.00  0.00    -0.354 N 
ATOM     49  C   UNL A   1      39.063  33.446  35.054  1.00  0.00     0.074 A 
ATOM     50  C   UNL A   1      38.017  34.423  34.834  1.00  0.00     0.031 C 
ATOM     51  C   UNL A   1      38.885  29.904  29.686  1.00  0.00     0.029 A 
ATOM     52  C   UNL A   1      39.846  29.793  30.779  1.00  0.00     0.049 A 
ATOM     53  H   UNL A   1      39.934  30.946  32.514  1.00  0.00     0.167 HD
ATOM     54  C   UNL A   1      39.831  33.365  36.165  1.00  0.00     0.031 A 
ATOM     55  C   UNL A   1      40.853  28.898  30.836  1.00  0.00     0.031 A 
ATOM     56  C   UNL A   1      40.874  32.387  36.351  1.00  0.00     0.049 A 
ATOM     57  C   UNL A   1      41.731  28.878  32.054  1.00  0.00     0.074 A 
ATOM     58  C   UNL A   1      41.680  32.202  37.461  1.00  0.00     0.029 A 
ATOM     59  N   UNL A   1      41.267  31.441  35.414  1.00  0.00    -0.354 N 
ATOM     60  N   UNL A   1      41.638  29.605  33.143  1.00  0.00    -0.248 NA
ATOM     61  C   UNL A   1      42.842  27.917  32.064  1.00  0.00     0.031 C 
ATOM     62  C   UNL A   1      42.612  31.207  37.163  1.00  0.00     0.029 A 
ATOM     63  C   UNL A   1      42.334  30.705  35.903  1.00  0.00     0.049 A 
ATOM     64  H   UNL A   1      40.848  31.313  34.531  1.00  0.00     0.167 HD
ATOM     65  C   UNL A   1      42.667  29.182  33.972  1.00  0.00     0.074 A 
ATOM     66  C   UNL A   1      43.356  28.116  33.273  1.00  0.00     0.031 C 
ATOM     67  C   UNL A   1      43.014  29.643  35.198  1.00  0.00     0.031 A 
BRANCH  54  68
ATOM     68  C   UNL A   1      39.577  34.329  37.297  1.00  0.00    -0.014 A 
ATOM     69  C   UNL A   1      40.268  35.556  37.344  1.00  0.00     0.010 A 
ATOM     70  C   UNL A   1      38.797  33.945  38.401  1.00  0.00     0.010 A 
ATOM     71  C   UNL A   1      40.225  36.353  38.490  1.00  0.00     0.020 A 
ATOM     72  C   UNL A   1      38.725  34.754  39.539  1.00  0.00     0.020 A 
ATOM     73  C   UNL A   1      39.464  35.939  39.588  1.00  0.00     0.054 A 
BRANCH  73  74
ATOM     74  S   UNL A   1      39.479  36.950  41.094  1.00  0.00     0.124 S 
ATOM     75  O   UNL A   1      38.630  36.178  41.995  1.00  0.00    -0.237 OA
ATOM     76  O   UNL A   1      40.899  36.985  41.437  1.00  0.00    -0.237 OA
ATOM     77  O   UNL A   1      38.924  38.229  40.653  1.00  0.00    -0.744 OA
ENDBRANCH  73  74
ENDBRANCH  54  68
BRANCH  55  78
ATOM     78  C   UNL A   1      41.035  27.935  29.714  1.00  0.00    -0.014 A 
ATOM     79  C   UNL A   1      41.913  28.232  28.653  1.00  0.00     0.010 A 
ATOM     80  C   UNL A   1      40.263  26.762  29.650  1.00  0.00     0.010 A 
ATOM     81  C   UNL A   1      41.968  27.412  27.524  1.00  0.00     0.020 A 
ATOM     82  C   UNL A   1      40.344  25.918  28.538  1.00  0.00     0.020 A 
ATOM     83  C   UNL A   1      41.171  26.267  27.468  1.00  0.00     0.054 A 
BRANCH  83  84
ATOM     84  S   UNL A   1      41.218  25.250  25.966  1.00  0.00     0.124 S 
ATOM     85  O   UNL A   1      41.989  24.093  26.413  1.00  0.00    -0.237 OA
ATOM     86  O   UNL A   1      39.802  25.003  25.707  1.00  0.00    -0.237 OA
ATOM     87  O   UNL A   1      41.887  26.108  24.992  1.00  0.00    -0.744 OA
ENDBRANCH  83  84
ENDBRANCH  55  78
BRANCH  67  88
ATOM     88  C   UNL A   1      44.208  29.029  35.884  1.00  0.00    -0.014 A 
ATOM     89  C   UNL A   1      44.034  27.932  36.749  1.00  0.00     0.010 A 
ATOM     90  C   UNL A   1      45.469  29.645  35.807  1.00  0.00     0.010 A 
ATOM     91  C   UNL A   1      45.078  27.507  37.575  1.00  0.00     0.020 A 
ATOM     92  C   UNL A   1      46.527  29.200  36.604  1.00  0.00     0.020 A 
ATOM     93  C   UNL A   1      46.313  28.157  37.509  1.00  0.00     0.054 A 
BRANCH  93  94
ATOM     94  S   UNL A   1      47.625  27.652  38.655  1.00  0.00     0.124 S 
ATOM     95  O   UNL A   1      47.298  28.419  39.855  1.00  0.00    -0.237 OA
ATOM     96  O   UNL A   1      47.423  26.209  38.755  1.00  0.00    -0.237 OA
ATOM     97  O   UNL A   1      48.853  28.057  37.973  1.00  0.00    -0.744 OA
ENDBRANCH  93  94
ENDBRANCH  67  88
ENDBRANCH  41  42
ENDBRANCH  34  36
ENDBRANCH  33  34
ENDBRANCH  32  33
ENDBRANCH  31  32
ENDBRANCH  30  31
ENDBRANCH  29  30
ENDBRANCH   1  29
TORSDOF 26
ENDMDL
MODEL 3
REMARK VINA RESULT:      -7.8      5.233      6.969
REMARK SMILES CCCc1cc2c(cc1Cl)C=C(C(=O)OCCOCCOCCOCCOC(=O)c1ccc(-c3c4nc(c(-c5ccc(S(=O)(=O)[O-])cc5)c5ccc([nH]5)c(-c5ccc(S(=O)(=O)[O-])cc5)c5nc(c(-c6ccc(S(=O)(=O)[O-])cc6)c6ccc3[nH]6)C=C5)C=C4)cc1)[C@H](C(F)(F)F)O2
REMARK SMILES IDX 22 1 21 2 20 3 19 4 18 5 17 6 16 7 15 8 13 9 14 10 12 11
REMARK SMILES IDX 4 12 5 13 9 14 6 15 8 16 10 17 7 18 95 19 11 20 90 21 3 22
REMARK SMILES IDX 2 23 1 24 91 25 92 26 93 27 94 28 23 29 24 30 25 31 26 32
REMARK SMILES IDX 27 33 28 34 29 35 30 36 31 37 89 38 32 39 88 40 33 41 34 42
REMARK SMILES IDX 35 43 82 44 36 45 87 46 81 47 83 48 37 49 86 50 80 51 79 52
REMARK SMILES IDX 38 54 68 55 49 56 67 57 50 58 53 59 66 60 84 61 51 62 52 63
REMARK SMILES IDX 65 65 85 66 54 67 39 68 40 69 48 70 41 71 47 72 42 73 43 74
REMARK SMILES IDX 44 75 45 76 46 77 69 78 70 79 78 80 71 81 77 82 72 83 73 84
REMARK SMILES IDX 74 85 75 86 76 87 55 88 56 89 64 90 57 91 63 92 58 93 59 94
REMARK SMILES IDX 60 95 61 96 62 97
REMARK H PARENT 83 53 53 64
REMARK Flexibility Score: inf
ROOT
ATOM      1  C   UNL A   1      33.651  28.249  26.876  1.00  0.00     0.188 C 
ENDROOT
BRANCH   1   2
ATOM      2  O   UNL A   1      32.789  27.173  26.504  1.00  0.00    -0.377 OA
BRANCH   2   3
ATOM      3  C   UNL A   1      31.387  27.325  26.632  1.00  0.00     0.188 C 
BRANCH   3   4
ATOM      4  C   UNL A   1      30.535  26.700  25.523  1.00  0.00     0.188 C 
BRANCH   4   5
ATOM      5  O   UNL A   1      30.466  25.288  25.443  1.00  0.00    -0.376 OA
BRANCH   5   6
ATOM      6  C   UNL A   1      30.151  24.532  26.611  1.00  0.00     0.202 C 
BRANCH   6   7
ATOM      7  C   UNL A   1      30.792  23.156  26.879  1.00  0.00     0.261 C 
BRANCH   7   8
ATOM      8  O   UNL A   1      31.897  23.177  27.805  1.00  0.00    -0.460 OA
BRANCH   8   9
ATOM      9  C   UNL A   1      33.055  22.662  27.336  1.00  0.00     0.338 C 
ATOM     10  O   UNL A   1      33.824  21.937  27.950  1.00  0.00    -0.246 OA
BRANCH   9  11
ATOM     11  C   UNL A   1      33.221  22.912  25.894  1.00  0.00     0.087 C 
ATOM     12  C   UNL A   1      32.997  25.506  21.562  1.00  0.00    -0.026 A 
ATOM     13  C   UNL A   1      32.582  24.223  21.992  1.00  0.00     0.052 A 
ATOM     14  C   UNL A   1      33.663  26.312  22.499  1.00  0.00     0.045 A 
ATOM     15  C   UNL A   1      32.828  23.762  23.287  1.00  0.00     0.128 A 
ATOM     16  C   UNL A   1      33.944  25.833  23.787  1.00  0.00     0.032 A 
ATOM     17  Cl  UNL A   1      34.101  27.958  22.212  1.00  0.00    -0.084 Cl
ATOM     18  C   UNL A   1      33.514  24.567  24.190  1.00  0.00     0.019 A 
ATOM     19  O   UNL A   1      32.281  22.555  23.628  1.00  0.00    -0.475 OA
ATOM     20  C   UNL A   1      33.621  24.153  25.577  1.00  0.00     0.027 C 
ATOM     21  C   UNL A   1      32.718  21.928  24.876  1.00  0.00     0.316 C 
BRANCH  12  22
ATOM     22  C   UNL A   1      32.558  25.918  20.169  1.00  0.00     0.037 C 
BRANCH  22  23
ATOM     23  C   UNL A   1      32.163  24.875  19.117  1.00  0.00     0.001 C 
ATOM     24  C   UNL A   1      31.712  25.463  17.789  1.00  0.00     0.004 C 
ENDBRANCH  22  23
ENDBRANCH  12  22
BRANCH  21  25
ATOM     25  C   UNL A   1      33.703  20.798  24.541  1.00  0.00     0.430 C 
ATOM     26  F   UNL A   1      34.934  21.302  24.260  1.00  0.00    -0.167 F 
ATOM     27  F   UNL A   1      33.867  19.931  25.567  1.00  0.00    -0.167 F 
ATOM     28  F   UNL A   1      33.320  20.098  23.450  1.00  0.00    -0.167 F 
ENDBRANCH  21  25
ENDBRANCH   9  11
ENDBRANCH   8   9
ENDBRANCH   7   8
ENDBRANCH   6   7
ENDBRANCH   5   6
ENDBRANCH   4   5
ENDBRANCH   3   4
ENDBRANCH   2   3
ENDBRANCH   1   2
BRANCH   1  29
ATOM     29  C   UNL A   1      33.302  29.674  26.423  1.00  0.00     0.188 C 
BRANCH  29  30
ATOM     30  O   UNL A   1      33.101  30.669  27.432  1.00  0.00    -0.376 OA
BRANCH  30  31
ATOM     31  C   UNL A   1      32.285  31.798  27.128  1.00  0.00     0.202 C 
BRANCH  31  32
ATOM     32  C   UNL A   1      32.900  33.141  27.506  1.00  0.00     0.261 C 
BRANCH  32  33
ATOM     33  O   UNL A   1      34.209  32.966  28.063  1.00  0.00    -0.460 OA
BRANCH  33  34
ATOM     34  C   UNL A   1      34.448  33.631  29.220  1.00  0.00     0.338 C 
ATOM     35  O   UNL A   1      33.650  34.237  29.903  1.00  0.00    -0.246 OA
BRANCH  34  36
ATOM     36  C   UNL A   1      35.838  33.349  29.631  1.00  0.00     0.060 A 
ATOM     37  C   UNL A   1      36.720  32.682  28.776  1.00  0.00     0.016 A 
ATOM     38  C   UNL A   1      36.263  33.789  30.890  1.00  0.00     0.016 A 
ATOM     39  C   UNL A   1      38.045  32.495  29.169  1.00  0.00     0.010 A 
ATOM     40  C   UNL A   1      37.587  33.601  31.283  1.00  0.00     0.010 A 
ATOM     41  C   UNL A   1      38.492  32.984  30.409  1.00  0.00    -0.014 A 
BRANCH  41  42
ATOM     42  C   UNL A   1      39.943  33.036  30.696  1.00  0.00     0.031 A 
ATOM     43  C   UNL A   1      40.823  34.103  30.127  1.00  0.00     0.074 A 
ATOM     44  C   UNL A   1      40.453  32.067  31.483  1.00  0.00     0.049 A 
ATOM     45  N   UNL A   1      42.098  34.298  30.337  1.00  0.00    -0.248 NA
ATOM     46  C   UNL A   1      40.205  35.072  29.210  1.00  0.00     0.031 C 
ATOM     47  C   UNL A   1      39.671  30.976  32.072  1.00  0.00     0.029 A 
ATOM     48  N   UNL A   1      41.727  31.845  31.936  1.00  0.00    -0.354 N 
ATOM     49  C   UNL A   1      42.436  35.425  29.598  1.00  0.00     0.074 A 
ATOM     50  C   UNL A   1      41.241  35.842  28.896  1.00  0.00     0.031 C 
ATOM     51  C   UNL A   1      40.473  30.224  32.836  1.00  0.00     0.029 A 
ATOM     52  C   UNL A   1      41.834  30.747  32.758  1.00  0.00     0.049 A 
ATOM     53  H   UNL A   1      42.493  32.416  31.696  1.00  0.00     0.167 HD
ATOM     54  C   UNL A   1      43.633  36.055  29.539  1.00  0.00     0.031 A 
ATOM     55  C   UNL A   1      42.904  30.216  33.383  1.00  0.00     0.031 A 
ATOM     56  C   UNL A   1      44.811  35.608  30.241  1.00  0.00     0.049 A 
ATOM     57  C   UNL A   1      44.234  30.900  33.243  1.00  0.00     0.074 A 
ATOM     58  C   UNL A   1      46.060  36.204  30.273  1.00  0.00     0.029 A 
ATOM     59  N   UNL A   1      44.897  34.463  31.021  1.00  0.00    -0.354 N 
ATOM     60  N   UNL A   1      44.518  32.014  32.609  1.00  0.00    -0.248 NA
ATOM     61  C   UNL A   1      45.385  30.271  33.904  1.00  0.00     0.031 C 
ATOM     62  C   UNL A   1      46.920  35.377  30.997  1.00  0.00     0.029 A 
ATOM     63  C   UNL A   1      46.190  34.311  31.496  1.00  0.00     0.049 A 
ATOM     64  H   UNL A   1      44.150  33.849  31.208  1.00  0.00     0.167 HD
ATOM     65  C   UNL A   1      45.876  32.226  32.805  1.00  0.00     0.074 A 
ATOM     66  C   UNL A   1      46.353  31.142  33.639  1.00  0.00     0.031 C 
ATOM     67  C   UNL A   1      46.656  33.226  32.329  1.00  0.00     0.031 A 
BRANCH  54  68
ATOM     68  C   UNL A   1      43.752  37.313  28.716  1.00  0.00    -0.014 A 
ATOM     69  C   UNL A   1      44.248  37.248  27.399  1.00  0.00     0.010 A 
ATOM     70  C   UNL A   1      43.548  38.573  29.305  1.00  0.00     0.010 A 
ATOM     71  C   UNL A   1      44.585  38.414  26.708  1.00  0.00     0.020 A 
ATOM     72  C   UNL A   1      43.854  39.745  28.605  1.00  0.00     0.020 A 
ATOM     73  C   UNL A   1      44.399  39.656  27.322  1.00  0.00     0.054 A 
BRANCH  73  74
ATOM     74  S   UNL A   1      44.910  41.154  26.437  1.00  0.00     0.124 S 
ATOM     75  O   UNL A   1      46.365  41.091  26.532  1.00  0.00    -0.237 OA
ATOM     76  O   UNL A   1      44.354  40.939  25.103  1.00  0.00    -0.237 OA
ATOM     77  O   UNL A   1      44.280  42.233  27.197  1.00  0.00    -0.744 OA
ENDBRANCH  73  74
ENDBRANCH  54  68
BRANCH  55  78
ATOM     78  C   UNL A   1      42.726  28.998  34.222  1.00  0.00    -0.014 A 
ATOM     79  C   UNL A   1      42.955  27.717  33.680  1.00  0.00     0.010 A 
ATOM     80  C   UNL A   1      42.238  29.103  35.536  1.00  0.00     0.010 A 
ATOM     81  C   UNL A   1      42.637  26.569  34.409  1.00  0.00     0.020 A 
ATOM     82  C   UNL A   1      41.955  27.956  36.283  1.00  0.00     0.020 A 
ATOM     83  C   UNL A   1      42.125  26.696  35.702  1.00  0.00     0.054 A 
BRANCH  83  84
ATOM     84  S   UNL A   1      41.666  25.192  36.606  1.00  0.00     0.124 S 
ATOM     85  O   UNL A   1      41.400  24.258  35.515  1.00  0.00    -0.237 OA
ATOM     86  O   UNL A   1      42.865  24.917  37.393  1.00  0.00    -0.237 OA
ATOM     87  O   UNL A   1      40.496  25.600  37.378  1.00  0.00    -0.744 OA
ENDBRANCH  83  84
ENDBRANCH  55  78
BRANCH  67  88
ATOM     88  C   UNL A   1      48.126  33.210  32.663  1.00  0.00    -0.014 A 
ATOM     89  C   UNL A   1      48.602  33.938  33.770  1.00  0.00     0.010 A 
ATOM     90  C   UNL A   1      49.051  32.620  31.784  1.00  0.00     0.010 A 
ATOM     91  C   UNL A   1      49.974  34.134  33.953  1.00  0.00     0.020 A 
ATOM     92  C   UNL A   1      50.425  32.783  31.984  1.00  0.00     0.020 A 
ATOM     93  C   UNL A   1      50.875  33.570  33.047  1.00  0.00     0.054 A 
BRANCH  93  94
ATOM     94  S   UNL A   1      52.644  33.916  33.249  1.00  0.00     0.124 S 
ATOM     95  O   UNL A   1      52.694  35.367  33.095  1.00  0.00    -0.237 OA
ATOM     96  O   UNL A   1      52.916  33.415  34.593  1.00  0.00    -0.237 OA
ATOM     97  O   UNL A   1      53.269  33.153  32.170  1.00  0.00    -0.744 OA
ENDBRANCH  93  94
ENDBRANCH  67  88
ENDBRANCH  41  42
ENDBRANCH  34  36
ENDBRANCH  33  34
ENDBRANCH  32  33
ENDBRANCH  31  32
ENDBRANCH  30  31
ENDBRANCH  29  30
ENDBRANCH   1  29
TORSDOF 26
ENDMDL
