MODEL 1
REMARK VINA RESULT:      -7.0      0.000      0.000
REMARK SMILES Cc1cccc(C(=O)Nc2cc(C(=O)OCCOCCOCCOCCOC(=O)c3ccc(-c4c5nc(c(-c6ccc(S(=O)(=O)[O-])cc6)c6ccc([nH]6)c(-c6ccc(S(=O)(=O)[O-])cc6)c6nc(c(-c7ccc(S(=O)(=O)[O-])cc7)c7ccc4[nH]7)C=C6)C=C5)cc3)ccc2N2CC[NH+](CC(=O)NC(C)(C)C)CC2)c1
REMARK SMILES IDX 20 1 19 2 18 3 17 4 16 5 15 6 13 7 14 8 12 9 10 10 11 11
REMARK SMILES IDX 92 12 91 13 90 14 9 15 7 16 8 17 6 19 1 20 2 21 3 22 107 23
REMARK SMILES IDX 4 24 5 25 93 26 94 27 106 28 95 29 105 30 96 31 97 33 98 34
REMARK SMILES IDX 99 35 100 36 101 38 102 39 103 40 104 41 21 42 22 43 23 44
REMARK SMILES IDX 24 45 25 46 26 47 27 48 28 49 29 50 30 51 31 52 89 53 32 54
REMARK SMILES IDX 88 55 33 56 34 57 35 58 82 59 36 60 87 61 81 62 83 63 37 64
REMARK SMILES IDX 86 65 80 66 79 67 38 69 68 70 49 71 67 72 50 73 53 74 66 75
REMARK SMILES IDX 84 76 51 77 52 78 65 80 85 81 54 82 39 83 40 84 48 85 41 86
REMARK SMILES IDX 47 87 42 88 43 89 44 90 45 91 46 92 69 93 70 94 78 95 71 96
REMARK SMILES IDX 77 97 72 98 73 99 74 100 75 101 76 102 55 103 56 104 64 105
REMARK SMILES IDX 57 106 63 107 58 108 59 109 60 110 61 111 62 112
REMARK H PARENT 9 18 96 32 100 37 83 68 53 79
REMARK Flexibility Score: inf
ROOT
ATOM      1  C   UNL A   1      46.565  30.305  27.595  1.00  0.00     0.188 C 
ENDROOT
BRANCH   1   2
ATOM      2  C   UNL A   1      48.109  30.948  27.625  1.00  0.00     0.188 C 
BRANCH   2   3
ATOM      3  O   UNL A   1      48.938  32.414  28.233  1.00  0.00    -0.376 OA
BRANCH   3   4
ATOM      4  C   UNL A   1      50.465  32.787  29.029  1.00  0.00     0.202 C 
BRANCH   4   5
ATOM      5  C   UNL A   1      51.131  34.451  29.610  1.00  0.00     0.261 C 
BRANCH   5   6
ATOM      6  O   UNL A   1      50.341  36.067  29.357  1.00  0.00    -0.460 OA
BRANCH   6   7
ATOM      7  C   UNL A   1      49.090  36.816  29.109  1.00  0.00     0.338 C 
ATOM      8  O   UNL A   1      48.682  37.141  27.987  1.00  0.00    -0.246 OA
BRANCH   7   9
ATOM      9  C   UNL A   1      48.018  37.342  30.175  1.00  0.00     0.062 A 
ATOM     10  C   UNL A   1      46.709  37.320  32.282  1.00  0.00     0.065 A 
ATOM     11  C   UNL A   1      47.390  36.699  31.247  1.00  0.00     0.044 A 
ATOM     12  C   UNL A   1      46.241  38.619  32.109  1.00  0.00     0.061 A 
ATOM     13  C   UNL A   1      46.653  39.281  30.950  1.00  0.00     0.029 A 
ATOM     14  C   UNL A   1      47.571  38.676  30.046  1.00  0.00     0.018 A 
BRANCH  10  15
ATOM     15  N   UNL A   1      46.419  36.617  33.481  1.00  0.00    -0.320 N 
ATOM     16  C   UNL A   1      46.438  35.253  33.779  1.00  0.00     0.255 C 
ATOM     17  O   UNL A   1      46.320  34.933  34.968  1.00  0.00    -0.269 OA
ATOM     18  H   UNL A   1      46.159  37.192  34.236  1.00  0.00     0.170 HD
BRANCH  16  19
ATOM     19  C   UNL A   1      46.726  34.140  32.814  1.00  0.00     0.040 A 
ATOM     20  C   UNL A   1      45.009  31.961  30.269  1.00  0.00     0.044 C 
ATOM     21  C   UNL A   1      46.116  32.560  31.068  1.00  0.00    -0.050 A 
ATOM     22  C   UNL A   1      47.343  31.907  31.188  1.00  0.00     0.003 A 
ATOM     23  C   UNL A   1      45.834  33.696  31.842  1.00  0.00     0.017 A 
ATOM     24  C   UNL A   1      48.298  32.410  32.062  1.00  0.00     0.001 A 
ATOM     25  C   UNL A   1      47.990  33.516  32.868  1.00  0.00     0.014 A 
ENDBRANCH  16  19
ENDBRANCH  10  15
BRANCH  12  26
ATOM     26  N   UNL A   1      45.529  39.204  33.152  1.00  0.00    -0.359 N 
ATOM     27  C   UNL A   1      44.101  39.520  33.076  1.00  0.00     0.178 C 
ATOM     28  C   UNL A   1      46.329  40.234  33.806  1.00  0.00     0.178 C 
ATOM     29  C   UNL A   1      43.582  40.069  34.448  1.00  0.00     0.284 C 
ATOM     30  C   UNL A   1      45.821  40.487  35.222  1.00  0.00     0.284 C 
ATOM     31  N   UNL A   1      44.446  40.985  35.238  1.00  0.00    -0.324 N 
ATOM     32  H   UNL A   1      44.073  40.959  36.187  1.00  0.00     0.348 HD
BRANCH  31  33
ATOM     33  C   UNL A   1      44.348  42.429  34.938  1.00  0.00     0.363 C 
BRANCH  33  34
ATOM     34  C   UNL A   1      43.136  42.898  34.137  1.00  0.00     0.275 C 
ATOM     35  O   UNL A   1      42.030  42.956  34.693  1.00  0.00    -0.268 OA
ATOM     36  N   UNL A   1      43.163  43.286  32.830  1.00  0.00    -0.347 N 
ATOM     37  H   UNL A   1      42.291  43.666  32.576  1.00  0.00     0.164 HD
BRANCH  36  38
ATOM     38  C   UNL A   1      44.090  43.323  31.657  1.00  0.00     0.032 C 
ATOM     39  C   UNL A   1      43.848  44.546  30.748  1.00  0.00     0.034 C 
ATOM     40  C   UNL A   1      45.508  43.512  32.238  1.00  0.00     0.034 C 
ATOM     41  C   UNL A   1      44.095  42.052  30.806  1.00  0.00     0.034 C 
ENDBRANCH  36  38
ENDBRANCH  33  34
ENDBRANCH  31  33
ENDBRANCH  12  26
ENDBRANCH   7   9
ENDBRANCH   6   7
ENDBRANCH   5   6
ENDBRANCH   4   5
ENDBRANCH   3   4
ENDBRANCH   2   3
ENDBRANCH   1   2
BRANCH   1  42
ATOM     42  O   UNL A   1      45.508  30.425  26.639  1.00  0.00    -0.377 OA
BRANCH  42  43
ATOM     43  C   UNL A   1      44.409  31.325  26.707  1.00  0.00     0.188 C 
BRANCH  43  44
ATOM     44  C   UNL A   1      44.592  32.765  26.279  1.00  0.00     0.188 C 
BRANCH  44  45
ATOM     45  O   UNL A   1      43.990  33.618  27.241  1.00  0.00    -0.376 OA
BRANCH  45  46
ATOM     46  C   UNL A   1      44.832  34.650  27.720  1.00  0.00     0.202 C 
BRANCH  46  47
ATOM     47  C   UNL A   1      44.069  35.942  28.034  1.00  0.00     0.261 C 
BRANCH  47  48
ATOM     48  O   UNL A   1      42.895  35.676  28.833  1.00  0.00    -0.460 OA
BRANCH  48  49
ATOM     49  C   UNL A   1      43.031  35.856  30.182  1.00  0.00     0.338 C 
ATOM     50  O   UNL A   1      43.589  36.838  30.675  1.00  0.00    -0.246 OA
BRANCH  49  51
ATOM     51  C   UNL A   1      42.350  34.759  30.910  1.00  0.00     0.060 A 
ATOM     52  C   UNL A   1      42.435  34.457  32.259  1.00  0.00     0.016 A 
ATOM     53  C   UNL A   1      41.579  33.905  30.194  1.00  0.00     0.016 A 
ATOM     54  C   UNL A   1      42.142  33.128  32.763  1.00  0.00     0.010 A 
ATOM     55  C   UNL A   1      41.276  32.654  30.747  1.00  0.00     0.010 A 
ATOM     56  C   UNL A   1      41.840  32.026  31.941  1.00  0.00    -0.014 A 
BRANCH  56  57
ATOM     57  C   UNL A   1      42.154  30.218  32.332  1.00  0.00     0.031 A 
ATOM     58  C   UNL A   1      43.937  29.454  32.838  1.00  0.00     0.074 A 
ATOM     59  C   UNL A   1      40.965  29.495  31.947  1.00  0.00     0.049 A 
ATOM     60  N   UNL A   1      44.653  28.622  32.014  1.00  0.00    -0.248 NA
ATOM     61  C   UNL A   1      45.287  29.924  33.648  1.00  0.00     0.031 C 
ATOM     62  C   UNL A   1      40.551  28.066  31.924  1.00  0.00     0.029 A 
ATOM     63  N   UNL A   1      39.819  29.959  31.256  1.00  0.00    -0.354 N 
ATOM     64  C   UNL A   1      45.954  28.304  32.244  1.00  0.00     0.074 A 
ATOM     65  C   UNL A   1      46.366  29.303  33.142  1.00  0.00     0.031 C 
ATOM     66  C   UNL A   1      39.355  27.786  31.432  1.00  0.00     0.029 A 
ATOM     67  C   UNL A   1      39.071  28.915  30.671  1.00  0.00     0.049 A 
ATOM     68  H   UNL A   1      39.571  30.908  31.190  1.00  0.00     0.167 HD
ATOM     69  C   UNL A   1      46.574  27.206  31.717  1.00  0.00     0.031 A 
ATOM     70  C   UNL A   1      39.014  28.678  29.336  1.00  0.00     0.031 A 
ATOM     71  C   UNL A   1      45.656  26.195  31.158  1.00  0.00     0.049 A 
ATOM     72  C   UNL A   1      39.992  27.592  28.770  1.00  0.00     0.074 A 
ATOM     73  C   UNL A   1      45.218  24.987  31.671  1.00  0.00     0.029 A 
ATOM     74  N   UNL A   1      44.857  26.412  30.031  1.00  0.00    -0.354 N 
ATOM     75  N   UNL A   1      41.114  27.146  29.329  1.00  0.00    -0.248 NA
ATOM     76  C   UNL A   1      39.721  26.889  27.522  1.00  0.00     0.031 C 
ATOM     77  C   UNL A   1      44.114  24.548  30.901  1.00  0.00     0.029 A 
ATOM     78  C   UNL A   1      43.776  25.516  29.956  1.00  0.00     0.049 A 
ATOM     79  H   UNL A   1      45.031  27.115  29.365  1.00  0.00     0.167 HD
ATOM     80  C   UNL A   1      41.705  26.151  28.560  1.00  0.00     0.074 A 
ATOM     81  C   UNL A   1      40.774  26.054  27.429  1.00  0.00     0.031 C 
ATOM     82  C   UNL A   1      42.868  25.424  28.784  1.00  0.00     0.031 A 
BRANCH  69  83
ATOM     83  C   UNL A   1      48.001  26.941  32.168  1.00  0.00    -0.014 A 
ATOM     84  C   UNL A   1      48.275  26.108  33.268  1.00  0.00     0.010 A 
ATOM     85  C   UNL A   1      49.106  27.609  31.591  1.00  0.00     0.010 A 
ATOM     86  C   UNL A   1      49.551  26.044  33.850  1.00  0.00     0.020 A 
ATOM     87  C   UNL A   1      50.381  27.581  32.185  1.00  0.00     0.020 A 
ATOM     88  C   UNL A   1      50.589  26.813  33.329  1.00  0.00     0.054 A 
BRANCH  88  89
ATOM     89  S   UNL A   1      52.185  26.827  34.196  1.00  0.00     0.124 S 
ATOM     90  O   UNL A   1      52.900  27.915  33.532  1.00  0.00    -0.237 OA
ATOM     91  O   UNL A   1      51.792  27.087  35.578  1.00  0.00    -0.237 OA
ATOM     92  O   UNL A   1      52.730  25.494  33.947  1.00  0.00    -0.744 OA
ENDBRANCH  88  89
ENDBRANCH  69  83
BRANCH  70  93
ATOM     93  C   UNL A   1      38.071  29.704  28.798  1.00  0.00    -0.014 A 
ATOM     94  C   UNL A   1      36.697  29.512  29.161  1.00  0.00     0.010 A 
ATOM     95  C   UNL A   1      38.546  31.018  28.697  1.00  0.00     0.010 A 
ATOM     96  C   UNL A   1      35.945  30.562  29.704  1.00  0.00     0.020 A 
ATOM     97  C   UNL A   1      37.768  32.082  29.193  1.00  0.00     0.020 A 
ATOM     98  C   UNL A   1      36.516  31.829  29.774  1.00  0.00     0.054 A 
BRANCH  98  99
ATOM     99  S   UNL A   1      35.702  33.074  30.826  1.00  0.00     0.124 S 
ATOM    100  O   UNL A   1      36.643  33.239  31.929  1.00  0.00    -0.237 OA
ATOM    101  O   UNL A   1      35.606  34.210  29.908  1.00  0.00    -0.237 OA
ATOM    102  O   UNL A   1      34.438  32.434  31.172  1.00  0.00    -0.744 OA
ENDBRANCH  98  99
ENDBRANCH  70  93
BRANCH  82 103
ATOM    103  C   UNL A   1      43.322  24.344  27.816  1.00  0.00    -0.014 A 
ATOM    104  C   UNL A   1      42.658  23.124  27.622  1.00  0.00     0.010 A 
ATOM    105  C   UNL A   1      44.584  24.506  27.194  1.00  0.00     0.010 A 
ATOM    106  C   UNL A   1      43.172  22.167  26.733  1.00  0.00     0.020 A 
ATOM    107  C   UNL A   1      45.130  23.539  26.357  1.00  0.00     0.020 A 
ATOM    108  C   UNL A   1      44.393  22.395  26.090  1.00  0.00     0.054 A 
BRANCH 108 109
ATOM    109  S   UNL A   1      45.020  21.191  24.897  1.00  0.00     0.124 S 
ATOM    110  O   UNL A   1      44.304  21.544  23.674  1.00  0.00    -0.237 OA
ATOM    111  O   UNL A   1      46.449  21.494  24.898  1.00  0.00    -0.237 OA
ATOM    112  O   UNL A   1      44.655  19.902  25.477  1.00  0.00    -0.744 OA
ENDBRANCH 108 109
ENDBRANCH  82 103
ENDBRANCH  56  57
ENDBRANCH  49  51
ENDBRANCH  48  49
ENDBRANCH  47  48
ENDBRANCH  46  47
ENDBRANCH  45  46
ENDBRANCH  44  45
ENDBRANCH  43  44
ENDBRANCH  42  43
ENDBRANCH   1  42
TORSDOF 29
ENDMDL
MODEL 2
REMARK VINA RESULT:      -6.9      1.545      2.496
REMARK SMILES Cc1cccc(C(=O)Nc2cc(C(=O)OCCOCCOCCOCCOC(=O)c3ccc(-c4c5nc(c(-c6ccc(S(=O)(=O)[O-])cc6)c6ccc([nH]6)c(-c6ccc(S(=O)(=O)[O-])cc6)c6nc(c(-c7ccc(S(=O)(=O)[O-])cc7)c7ccc4[nH]7)C=C6)C=C5)cc3)ccc2N2CC[NH+](CC(=O)NC(C)(C)C)CC2)c1
REMARK SMILES IDX 20 1 19 2 18 3 17 4 16 5 15 6 13 7 14 8 12 9 10 10 11 11
REMARK SMILES IDX 92 12 91 13 90 14 9 15 7 16 8 17 6 19 1 20 2 21 3 22 107 23
REMARK SMILES IDX 4 24 5 25 93 26 94 27 106 28 95 29 105 30 96 31 97 33 98 34
REMARK SMILES IDX 99 35 100 36 101 38 102 39 103 40 104 41 21 42 22 43 23 44
REMARK SMILES IDX 24 45 25 46 26 47 27 48 28 49 29 50 30 51 31 52 89 53 32 54
REMARK SMILES IDX 88 55 33 56 34 57 35 58 82 59 36 60 87 61 81 62 83 63 37 64
REMARK SMILES IDX 86 65 80 66 79 67 38 69 68 70 49 71 67 72 50 73 53 74 66 75
REMARK SMILES IDX 84 76 51 77 52 78 65 80 85 81 54 82 39 83 40 84 48 85 41 86
REMARK SMILES IDX 47 87 42 88 43 89 44 90 45 91 46 92 69 93 70 94 78 95 71 96
REMARK SMILES IDX 77 97 72 98 73 99 74 100 75 101 76 102 55 103 56 104 64 105
REMARK SMILES IDX 57 106 63 107 58 108 59 109 60 110 61 111 62 112
REMARK H PARENT 9 18 96 32 100 37 83 68 53 79
REMARK Flexibility Score: inf
ROOT
ATOM      1  C   UNL A   1      46.639  30.295  27.810  1.00  0.00     0.188 C 
ENDROOT
BRANCH   1   2
ATOM      2  C   UNL A   1      48.005  31.218  27.529  1.00  0.00     0.188 C 
BRANCH   2   3
ATOM      3  O   UNL A   1      48.483  32.944  27.551  1.00  0.00    -0.376 OA
BRANCH   3   4
ATOM      4  C   UNL A   1      49.897  33.877  28.034  1.00  0.00     0.202 C 
BRANCH   4   5
ATOM      5  C   UNL A   1      50.146  35.745  28.045  1.00  0.00     0.261 C 
BRANCH   5   6
ATOM      6  O   UNL A   1      49.025  36.978  27.323  1.00  0.00    -0.460 OA
BRANCH   6   7
ATOM      7  C   UNL A   1      47.628  37.385  27.055  1.00  0.00     0.338 C 
ATOM      8  O   UNL A   1      47.001  37.091  26.030  1.00  0.00    -0.246 OA
BRANCH   7   9
ATOM      9  C   UNL A   1      46.646  38.243  27.983  1.00  0.00     0.062 A 
ATOM     10  C   UNL A   1      45.817  39.249  30.093  1.00  0.00     0.065 A 
ATOM     11  C   UNL A   1      46.475  38.266  29.372  1.00  0.00     0.044 A 
ATOM     12  C   UNL A   1      44.911  40.082  29.443  1.00  0.00     0.061 A 
ATOM     13  C   UNL A   1      44.861  39.984  28.051  1.00  0.00     0.029 A 
ATOM     14  C   UNL A   1      45.756  39.134  27.343  1.00  0.00     0.018 A 
BRANCH  10  15
ATOM     15  N   UNL A   1      46.000  39.361  31.497  1.00  0.00    -0.320 N 
ATOM     16  C   UNL A   1      46.439  38.437  32.446  1.00  0.00     0.255 C 
ATOM     17  O   UNL A   1      46.682  38.865  33.581  1.00  0.00    -0.269 OA
ATOM     18  H   UNL A   1      45.778  40.246  31.865  1.00  0.00     0.170 HD
BRANCH  16  19
ATOM     19  C   UNL A   1      46.778  36.997  32.190  1.00  0.00     0.040 A 
ATOM     20  C   UNL A   1      49.740  34.755  31.580  1.00  0.00     0.044 C 
ATOM     21  C   UNL A   1      48.325  35.156  31.826  1.00  0.00    -0.050 A 
ATOM     22  C   UNL A   1      47.274  34.296  31.505  1.00  0.00     0.003 A 
ATOM     23  C   UNL A   1      48.070  36.481  32.212  1.00  0.00     0.017 A 
ATOM     24  C   UNL A   1      45.968  34.755  31.600  1.00  0.00     0.001 A 
ATOM     25  C   UNL A   1      45.723  36.095  31.938  1.00  0.00     0.014 A 
ENDBRANCH  16  19
ENDBRANCH  10  15
BRANCH  12  26
ATOM     26  N   UNL A   1      44.237  41.036  30.200  1.00  0.00    -0.359 N 
ATOM     27  C   UNL A   1      44.915  42.013  31.056  1.00  0.00     0.178 C 
ATOM     28  C   UNL A   1      43.033  40.464  30.794  1.00  0.00     0.178 C 
ATOM     29  C   UNL A   1      43.882  43.009  31.684  1.00  0.00     0.284 C 
ATOM     30  C   UNL A   1      42.036  41.564  31.145  1.00  0.00     0.284 C 
ATOM     31  N   UNL A   1      42.564  42.496  32.141  1.00  0.00    -0.324 N 
ATOM     32  H   UNL A   1      41.962  43.317  32.209  1.00  0.00     0.348 HD
BRANCH  31  33
ATOM     33  C   UNL A   1      42.485  41.975  33.522  1.00  0.00     0.363 C 
BRANCH  33  34
ATOM     34  C   UNL A   1      42.571  42.989  34.660  1.00  0.00     0.275 C 
ATOM     35  O   UNL A   1      41.849  43.996  34.628  1.00  0.00    -0.268 OA
ATOM     36  N   UNL A   1      43.383  42.876  35.750  1.00  0.00    -0.347 N 
ATOM     37  H   UNL A   1      43.166  43.582  36.402  1.00  0.00     0.164 HD
BRANCH  36  38
ATOM     38  C   UNL A   1      44.495  42.027  36.276  1.00  0.00     0.032 C 
ATOM     39  C   UNL A   1      44.437  40.579  35.744  1.00  0.00     0.034 C 
ATOM     40  C   UNL A   1      45.798  42.626  35.705  1.00  0.00     0.034 C 
ATOM     41  C   UNL A   1      44.615  42.002  37.801  1.00  0.00     0.034 C 
ENDBRANCH  36  38
ENDBRANCH  33  34
ENDBRANCH  31  33
ENDBRANCH  12  26
ENDBRANCH   7   9
ENDBRANCH   6   7
ENDBRANCH   5   6
ENDBRANCH   4   5
ENDBRANCH   3   4
ENDBRANCH   2   3
ENDBRANCH   1   2
BRANCH   1  42
ATOM     42  O   UNL A   1      45.422  30.156  27.072  1.00  0.00    -0.377 OA
BRANCH  42  43
ATOM     43  C   UNL A   1      44.321  31.055  27.085  1.00  0.00     0.188 C 
BRANCH  43  44
ATOM     44  C   UNL A   1      44.412  32.362  26.327  1.00  0.00     0.188 C 
BRANCH  44  45
ATOM     45  O   UNL A   1      43.891  33.407  27.132  1.00  0.00    -0.376 OA
BRANCH  45  46
ATOM     46  C   UNL A   1      44.638  34.609  27.094  1.00  0.00     0.202 C 
BRANCH  46  47
ATOM     47  C   UNL A   1      43.752  35.858  27.017  1.00  0.00     0.261 C 
BRANCH  47  48
ATOM     48  O   UNL A   1      42.547  35.694  27.797  1.00  0.00    -0.460 OA
BRANCH  48  49
ATOM     49  C   UNL A   1      42.605  36.124  29.094  1.00  0.00     0.338 C 
ATOM     50  O   UNL A   1      42.957  37.262  29.408  1.00  0.00    -0.246 OA
BRANCH  49  51
ATOM     51  C   UNL A   1      42.117  35.058  30.002  1.00  0.00     0.060 A 
ATOM     52  C   UNL A   1      42.392  34.903  31.350  1.00  0.00     0.016 A 
ATOM     53  C   UNL A   1      41.343  34.079  29.473  1.00  0.00     0.016 A 
ATOM     54  C   UNL A   1      42.280  33.614  32.008  1.00  0.00     0.010 A 
ATOM     55  C   UNL A   1      41.221  32.873  30.174  1.00  0.00     0.010 A 
ATOM     56  C   UNL A   1      41.979  32.414  31.337  1.00  0.00    -0.014 A 
BRANCH  56  57
ATOM     57  C   UNL A   1      42.495  30.685  31.849  1.00  0.00     0.031 A 
ATOM     58  C   UNL A   1      44.395  30.070  32.034  1.00  0.00     0.074 A 
ATOM     59  C   UNL A   1      41.307  29.867  31.815  1.00  0.00     0.049 A 
ATOM     60  N   UNL A   1      44.978  29.176  31.172  1.00  0.00    -0.248 NA
ATOM     61  C   UNL A   1      45.849  30.698  32.473  1.00  0.00     0.031 C 
ATOM     62  C   UNL A   1      40.999  28.429  32.043  1.00  0.00     0.029 A 
ATOM     63  N   UNL A   1      40.011  30.189  31.344  1.00  0.00    -0.354 N 
ATOM     64  C   UNL A   1      46.316  28.948  31.146  1.00  0.00     0.074 A 
ATOM     65  C   UNL A   1      46.838  30.069  31.815  1.00  0.00     0.031 C 
ATOM     66  C   UNL A   1      39.749  28.036  31.858  1.00  0.00     0.029 A 
ATOM     67  C   UNL A   1      39.232  29.048  31.057  1.00  0.00     0.049 A 
ATOM     68  H   UNL A   1      39.687  31.111  31.230  1.00  0.00     0.167 HD
ATOM     69  C   UNL A   1      46.887  27.823  30.622  1.00  0.00     0.031 A 
ATOM     70  C   UNL A   1      38.910  28.645  29.802  1.00  0.00     0.031 A 
ATOM     71  C   UNL A   1      45.946  26.710  30.393  1.00  0.00     0.049 A 
ATOM     72  C   UNL A   1      39.820  27.542  29.160  1.00  0.00     0.074 A 
ATOM     73  C   UNL A   1      45.713  25.556  31.120  1.00  0.00     0.029 A 
ATOM     74  N   UNL A   1      44.913  26.749  29.451  1.00  0.00    -0.354 N 
ATOM     75  N   UNL A   1      41.064  27.221  29.507  1.00  0.00    -0.248 NA
ATOM     76  C   UNL A   1      39.342  26.679  28.088  1.00  0.00     0.031 C 
ATOM     77  C   UNL A   1      44.505  24.976  30.664  1.00  0.00     0.029 A 
ATOM     78  C   UNL A   1      43.907  25.803  29.714  1.00  0.00     0.049 A 
ATOM     79  H   UNL A   1      44.892  27.372  28.689  1.00  0.00     0.167 HD
ATOM     80  C   UNL A   1      41.548  26.166  28.743  1.00  0.00     0.074 A 
ATOM     81  C   UNL A   1      40.408  25.888  27.861  1.00  0.00     0.031 C 
ATOM     82  C   UNL A   1      42.780  25.526  28.786  1.00  0.00     0.031 A 
BRANCH  69  83
ATOM     83  C   UNL A   1      48.393  27.680  30.777  1.00  0.00    -0.014 A 
ATOM     84  C   UNL A   1      49.210  28.800  31.019  1.00  0.00     0.010 A 
ATOM     85  C   UNL A   1      49.055  26.449  30.563  1.00  0.00     0.010 A 
ATOM     86  C   UNL A   1      50.608  28.732  30.921  1.00  0.00     0.020 A 
ATOM     87  C   UNL A   1      50.454  26.374  30.429  1.00  0.00     0.020 A 
ATOM     88  C   UNL A   1      51.222  27.527  30.587  1.00  0.00     0.054 A 
BRANCH  88  89
ATOM     89  S   UNL A   1      53.018  27.506  30.317  1.00  0.00     0.124 S 
ATOM     90  O   UNL A   1      53.276  28.839  29.777  1.00  0.00    -0.237 OA
ATOM     91  O   UNL A   1      53.536  27.263  31.660  1.00  0.00    -0.237 OA
ATOM     92  O   UNL A   1      53.216  26.412  29.368  1.00  0.00    -0.744 OA
ENDBRANCH  88  89
ENDBRANCH  69  83
BRANCH  70  93
ATOM     93  C   UNL A   1      37.805  29.553  29.372  1.00  0.00    -0.014 A 
ATOM     94  C   UNL A   1      36.683  29.606  30.265  1.00  0.00     0.010 A 
ATOM     95  C   UNL A   1      38.166  30.730  28.703  1.00  0.00     0.010 A 
ATOM     96  C   UNL A   1      36.170  30.834  30.702  1.00  0.00     0.020 A 
ATOM     97  C   UNL A   1      37.611  31.960  29.106  1.00  0.00     0.020 A 
ATOM     98  C   UNL A   1      36.689  32.006  30.161  1.00  0.00     0.054 A 
BRANCH  98  99
ATOM     99  S   UNL A   1      36.310  33.575  31.007  1.00  0.00     0.124 S 
ATOM    100  O   UNL A   1      35.359  34.215  30.104  1.00  0.00    -0.237 OA
ATOM    101  O   UNL A   1      35.750  33.095  32.271  1.00  0.00    -0.237 OA
ATOM    102  O   UNL A   1      37.616  34.219  31.101  1.00  0.00    -0.744 OA
ENDBRANCH  98  99
ENDBRANCH  70  93
BRANCH  82 103
ATOM    103  C   UNL A   1      43.095  24.355  27.870  1.00  0.00    -0.014 A 
ATOM    104  C   UNL A   1      42.685  23.034  28.101  1.00  0.00     0.010 A 
ATOM    105  C   UNL A   1      43.998  24.579  26.802  1.00  0.00     0.010 A 
ATOM    106  C   UNL A   1      43.054  22.009  27.218  1.00  0.00     0.020 A 
ATOM    107  C   UNL A   1      44.417  23.560  25.955  1.00  0.00     0.020 A 
ATOM    108  C   UNL A   1      43.899  22.286  26.138  1.00  0.00     0.054 A 
BRANCH 108 109
ATOM    109  S   UNL A   1      44.320  20.978  24.965  1.00  0.00     0.124 S 
ATOM    110  O   UNL A   1      43.212  20.037  25.117  1.00  0.00    -0.237 OA
ATOM    111  O   UNL A   1      44.350  21.713  23.703  1.00  0.00    -0.237 OA
ATOM    112  O   UNL A   1      45.614  20.491  25.435  1.00  0.00    -0.744 OA
ENDBRANCH 108 109
ENDBRANCH  82 103
ENDBRANCH  56  57
ENDBRANCH  49  51
ENDBRANCH  48  49
ENDBRANCH  47  48
ENDBRANCH  46  47
ENDBRANCH  45  46
ENDBRANCH  44  45
ENDBRANCH  43  44
ENDBRANCH  42  43
ENDBRANCH   1  42
TORSDOF 29
ENDMDL
MODEL 3
REMARK VINA RESULT:      -6.3      4.312     10.495
REMARK SMILES Cc1cccc(C(=O)Nc2cc(C(=O)OCCOCCOCCOCCOC(=O)c3ccc(-c4c5nc(c(-c6ccc(S(=O)(=O)[O-])cc6)c6ccc([nH]6)c(-c6ccc(S(=O)(=O)[O-])cc6)c6nc(c(-c7ccc(S(=O)(=O)[O-])cc7)c7ccc4[nH]7)C=C6)C=C5)cc3)ccc2N2CC[NH+](CC(=O)NC(C)(C)C)CC2)c1
REMARK SMILES IDX 20 1 19 2 18 3 17 4 16 5 15 6 13 7 14 8 12 9 10 10 11 11
REMARK SMILES IDX 92 12 91 13 90 14 9 15 7 16 8 17 6 19 1 20 2 21 3 22 107 23
REMARK SMILES IDX 4 24 5 25 93 26 94 27 106 28 95 29 105 30 96 31 97 33 98 34
REMARK SMILES IDX 99 35 100 36 101 38 102 39 103 40 104 41 21 42 22 43 23 44
REMARK SMILES IDX 24 45 25 46 26 47 27 48 28 49 29 50 30 51 31 52 89 53 32 54
REMARK SMILES IDX 88 55 33 56 34 57 35 58 82 59 36 60 87 61 81 62 83 63 37 64
REMARK SMILES IDX 86 65 80 66 79 67 38 69 68 70 49 71 67 72 50 73 53 74 66 75
REMARK SMILES IDX 84 76 51 77 52 78 65 80 85 81 54 82 39 83 40 84 48 85 41 86
REMARK SMILES IDX 47 87 42 88 43 89 44 90 45 91 46 92 69 93 70 94 78 95 71 96
REMARK SMILES IDX 77 97 72 98 73 99 74 100 75 101 76 102 55 103 56 104 64 105
REMARK SMILES IDX 57 106 63 107 58 108 59 109 60 110 61 111 62 112
REMARK H PARENT 9 18 96 32 100 37 83 68 53 79
REMARK Flexibility Score: inf
ROOT
ATOM      1  C   UNL A   1      39.077  23.974  27.722  1.00  0.00     0.188 C 
ENDROOT
BRANCH   1   2
ATOM      2  C   UNL A   1      39.454  25.403  26.939  1.00  0.00     0.188 C 
BRANCH   2   3
ATOM      3  O   UNL A   1      40.771  26.618  26.929  1.00  0.00    -0.376 OA
BRANCH   3   4
ATOM      4  C   UNL A   1      40.927  28.342  27.251  1.00  0.00     0.202 C 
BRANCH   4   5
ATOM      5  C   UNL A   1      39.925  29.432  28.418  1.00  0.00     0.261 C 
BRANCH   5   6
ATOM      6  O   UNL A   1      40.600  30.609  29.625  1.00  0.00    -0.460 OA
BRANCH   6   7
ATOM      7  C   UNL A   1      41.803  31.167  30.283  1.00  0.00     0.338 C 
ATOM      8  O   UNL A   1      42.961  30.987  29.886  1.00  0.00    -0.246 OA
BRANCH   7   9
ATOM      9  C   UNL A   1      41.885  32.095  31.584  1.00  0.00     0.062 A 
ATOM     10  C   UNL A   1      42.456  34.120  32.897  1.00  0.00     0.065 A 
ATOM     11  C   UNL A   1      42.671  33.217  31.869  1.00  0.00     0.044 A 
ATOM     12  C   UNL A   1      41.676  33.742  33.986  1.00  0.00     0.061 A 
ATOM     13  C   UNL A   1      41.006  32.521  33.879  1.00  0.00     0.029 A 
ATOM     14  C   UNL A   1      41.060  31.757  32.680  1.00  0.00     0.018 A 
BRANCH  10  15
ATOM     15  N   UNL A   1      43.087  35.392  32.887  1.00  0.00    -0.320 N 
ATOM     16  C   UNL A   1      44.391  35.777  33.200  1.00  0.00     0.255 C 
ATOM     17  O   UNL A   1      44.720  36.937  32.921  1.00  0.00    -0.269 OA
ATOM     18  H   UNL A   1      42.501  36.132  32.609  1.00  0.00     0.170 HD
BRANCH  16  19
ATOM     19  C   UNL A   1      45.479  34.882  33.718  1.00  0.00     0.040 A 
ATOM     20  C   UNL A   1      47.421  34.159  36.862  1.00  0.00     0.044 C 
ATOM     21  C   UNL A   1      46.936  34.009  35.460  1.00  0.00    -0.050 A 
ATOM     22  C   UNL A   1      47.677  33.291  34.522  1.00  0.00     0.003 A 
ATOM     23  C   UNL A   1      45.817  34.758  35.062  1.00  0.00     0.017 A 
ATOM     24  C   UNL A   1      47.280  33.299  33.191  1.00  0.00     0.001 A 
ATOM     25  C   UNL A   1      46.192  34.089  32.794  1.00  0.00     0.014 A 
ENDBRANCH  16  19
ENDBRANCH  10  15
BRANCH  12  26
ATOM     26  N   UNL A   1      41.507  34.656  35.022  1.00  0.00    -0.359 N 
ATOM     27  C   UNL A   1      42.269  34.609  36.272  1.00  0.00     0.178 C 
ATOM     28  C   UNL A   1      40.094  34.975  35.202  1.00  0.00     0.178 C 
ATOM     29  C   UNL A   1      41.920  35.837  37.179  1.00  0.00     0.284 C 
ATOM     30  C   UNL A   1      39.935  36.317  35.908  1.00  0.00     0.284 C 
ATOM     31  N   UNL A   1      40.513  36.310  37.252  1.00  0.00    -0.324 N 
ATOM     32  H   UNL A   1      40.564  37.260  37.618  1.00  0.00     0.348 HD
BRANCH  31  33
ATOM     33  C   UNL A   1      39.637  35.668  38.257  1.00  0.00     0.363 C 
BRANCH  33  34
ATOM     34  C   UNL A   1      39.081  36.554  39.369  1.00  0.00     0.275 C 
ATOM     35  O   UNL A   1      38.972  37.773  39.174  1.00  0.00    -0.268 OA
ATOM     36  N   UNL A   1      38.666  36.109  40.590  1.00  0.00    -0.347 N 
ATOM     37  H   UNL A   1      38.230  36.843  41.082  1.00  0.00     0.164 HD
BRANCH  36  38
ATOM     38  C   UNL A   1      38.657  34.868  41.423  1.00  0.00     0.032 C 
ATOM     39  C   UNL A   1      38.257  33.615  40.615  1.00  0.00     0.034 C 
ATOM     40  C   UNL A   1      40.121  34.631  41.855  1.00  0.00     0.034 C 
ATOM     41  C   UNL A   1      37.800  34.951  42.687  1.00  0.00     0.034 C 
ENDBRANCH  36  38
ENDBRANCH  33  34
ENDBRANCH  31  33
ENDBRANCH  12  26
ENDBRANCH   7   9
ENDBRANCH   6   7
ENDBRANCH   5   6
ENDBRANCH   4   5
ENDBRANCH   3   4
ENDBRANCH   2   3
ENDBRANCH   1   2
BRANCH   1  42
ATOM     42  O   UNL A   1      39.100  22.616  27.275  1.00  0.00    -0.377 OA
BRANCH  42  43
ATOM     43  C   UNL A   1      39.738  22.125  26.104  1.00  0.00     0.188 C 
BRANCH  43  44
ATOM     44  C   UNL A   1      39.302  20.803  25.510  1.00  0.00     0.188 C 
BRANCH  44  45
ATOM     45  O   UNL A   1      40.199  19.785  25.926  1.00  0.00    -0.376 OA
BRANCH  45  46
ATOM     46  C   UNL A   1      41.361  20.257  26.582  1.00  0.00     0.202 C 
BRANCH  46  47
ATOM     47  C   UNL A   1      42.636  20.054  25.754  1.00  0.00     0.261 C 
BRANCH  47  48
ATOM     48  O   UNL A   1      43.637  21.042  26.083  1.00  0.00    -0.460 OA
BRANCH  48  49
ATOM     49  C   UNL A   1      43.452  22.288  25.550  1.00  0.00     0.338 C 
ATOM     50  O   UNL A   1      43.204  22.477  24.358  1.00  0.00    -0.246 OA
BRANCH  49  51
ATOM     51  C   UNL A   1      43.519  23.312  26.621  1.00  0.00     0.060 A 
ATOM     52  C   UNL A   1      43.905  24.636  26.503  1.00  0.00     0.016 A 
ATOM     53  C   UNL A   1      43.211  22.929  27.884  1.00  0.00     0.016 A 
ATOM     54  C   UNL A   1      44.393  25.392  27.642  1.00  0.00     0.010 A 
ATOM     55  C   UNL A   1      43.657  23.723  28.949  1.00  0.00     0.010 A 
ATOM     56  C   UNL A   1      44.600  24.840  28.920  1.00  0.00    -0.014 A 
BRANCH  56  57
ATOM     57  C   UNL A   1      45.835  25.423  30.206  1.00  0.00     0.031 A 
ATOM     58  C   UNL A   1      45.346  26.291  31.946  1.00  0.00     0.074 A 
ATOM     59  C   UNL A   1      47.138  25.365  29.589  1.00  0.00     0.049 A 
ATOM     60  N   UNL A   1      45.582  27.617  32.211  1.00  0.00    -0.248 NA
ATOM     61  C   UNL A   1      44.136  26.215  33.057  1.00  0.00     0.031 C 
ATOM     62  C   UNL A   1      48.524  25.723  29.997  1.00  0.00     0.029 A 
ATOM     63  N   UNL A   1      47.481  25.093  28.242  1.00  0.00    -0.354 N 
ATOM     64  C   UNL A   1      45.038  28.259  33.277  1.00  0.00     0.074 A 
ATOM     65  C   UNL A   1      43.979  27.412  33.647  1.00  0.00     0.031 C 
ATOM     66  C   UNL A   1      49.483  25.567  29.099  1.00  0.00     0.029 A 
ATOM     67  C   UNL A   1      48.774  25.545  27.903  1.00  0.00     0.049 A 
ATOM     68  H   UNL A   1      46.881  24.637  27.610  1.00  0.00     0.167 HD
ATOM     69  C   UNL A   1      45.539  29.415  33.806  1.00  0.00     0.031 A 
ATOM     70  C   UNL A   1      49.019  26.609  27.098  1.00  0.00     0.031 A 
ATOM     71  C   UNL A   1      46.909  29.745  33.368  1.00  0.00     0.049 A 
ATOM     72  C   UNL A   1      49.293  27.981  27.806  1.00  0.00     0.074 A 
ATOM     73  C   UNL A   1      48.125  29.601  34.012  1.00  0.00     0.029 A 
ATOM     74  N   UNL A   1      47.242  30.080  32.053  1.00  0.00    -0.354 N 
ATOM     75  N   UNL A   1      48.953  28.331  29.044  1.00  0.00    -0.248 NA
ATOM     76  C   UNL A   1      50.036  29.049  27.151  1.00  0.00     0.031 C 
ATOM     77  C   UNL A   1      49.158  29.765  33.059  1.00  0.00     0.029 A 
ATOM     78  C   UNL A   1      48.613  29.915  31.785  1.00  0.00     0.049 A 
ATOM     79  H   UNL A   1      46.590  30.398  31.387  1.00  0.00     0.167 HD
ATOM     80  C   UNL A   1      49.395  29.613  29.348  1.00  0.00     0.074 A 
ATOM     81  C   UNL A   1      50.058  30.006  28.098  1.00  0.00     0.031 C 
ATOM     82  C   UNL A   1      49.259  30.348  30.519  1.00  0.00     0.031 A 
BRANCH  69  83
ATOM     83  C   UNL A   1      44.872  29.939  35.068  1.00  0.00    -0.014 A 
ATOM     84  C   UNL A   1      44.225  31.188  35.085  1.00  0.00     0.010 A 
ATOM     85  C   UNL A   1      44.974  29.264  36.306  1.00  0.00     0.010 A 
ATOM     86  C   UNL A   1      43.821  31.797  36.284  1.00  0.00     0.020 A 
ATOM     87  C   UNL A   1      44.605  29.877  37.517  1.00  0.00     0.020 A 
ATOM     88  C   UNL A   1      44.050  31.155  37.499  1.00  0.00     0.054 A 
BRANCH  88  89
ATOM     89  S   UNL A   1      43.658  32.034  39.039  1.00  0.00     0.124 S 
ATOM     90  O   UNL A   1      44.521  33.211  38.965  1.00  0.00    -0.237 OA
ATOM     91  O   UNL A   1      42.228  32.296  38.898  1.00  0.00    -0.237 OA
ATOM     92  O   UNL A   1      44.013  31.078  40.087  1.00  0.00    -0.744 OA
ENDBRANCH  88  89
ENDBRANCH  69  83
BRANCH  70  93
ATOM     93  C   UNL A   1      48.789  26.109  25.709  1.00  0.00    -0.014 A 
ATOM     94  C   UNL A   1      47.481  26.371  25.182  1.00  0.00     0.010 A 
ATOM     95  C   UNL A   1      49.874  26.153  24.825  1.00  0.00     0.010 A 
ATOM     96  C   UNL A   1      47.321  26.959  23.920  1.00  0.00     0.020 A 
ATOM     97  C   UNL A   1      49.703  26.695  23.536  1.00  0.00     0.020 A 
ATOM     98  C   UNL A   1      48.448  27.175  23.133  1.00  0.00     0.054 A 
BRANCH  98  99
ATOM     99  S   UNL A   1      48.285  28.282  21.696  1.00  0.00     0.124 S 
ATOM    100  O   UNL A   1      49.598  28.915  21.617  1.00  0.00    -0.237 OA
ATOM    101  O   UNL A   1      47.983  27.328  20.628  1.00  0.00    -0.237 OA
ATOM    102  O   UNL A   1      47.188  29.162  22.084  1.00  0.00    -0.744 OA
ENDBRANCH  98  99
ENDBRANCH  70  93
BRANCH  82 103
ATOM    103  C   UNL A   1      49.855  31.740  30.651  1.00  0.00    -0.014 A 
ATOM    104  C   UNL A   1      49.204  32.921  30.267  1.00  0.00     0.010 A 
ATOM    105  C   UNL A   1      51.216  31.839  31.031  1.00  0.00     0.010 A 
ATOM    106  C   UNL A   1      49.848  34.162  30.391  1.00  0.00     0.020 A 
ATOM    107  C   UNL A   1      51.881  33.058  31.101  1.00  0.00     0.020 A 
ATOM    108  C   UNL A   1      51.175  34.220  30.831  1.00  0.00     0.054 A 
BRANCH 108 109
ATOM    109  S   UNL A   1      51.980  35.823  31.051  1.00  0.00     0.124 S 
ATOM    110  O   UNL A   1      52.904  35.879  29.922  1.00  0.00    -0.237 OA
ATOM    111  O   UNL A   1      50.842  36.735  30.978  1.00  0.00    -0.237 OA
ATOM    112  O   UNL A   1      52.612  35.718  32.363  1.00  0.00    -0.744 OA
ENDBRANCH 108 109
ENDBRANCH  82 103
ENDBRANCH  56  57
ENDBRANCH  49  51
ENDBRANCH  48  49
ENDBRANCH  47  48
ENDBRANCH  46  47
ENDBRANCH  45  46
ENDBRANCH  44  45
ENDBRANCH  43  44
ENDBRANCH  42  43
ENDBRANCH   1  42
TORSDOF 29
ENDMDL
