MODEL 1
REMARK VINA RESULT:      -9.2      0.000      0.000
REMARK SMILES O=C(OCCOCCOCCOCCOC(=O)[C@H]1CC[C@H]2CCCC[C@@H]2[N@H+]1[C@@H]1CCCSC1)c1ccc(-c2c3nc(c(-c4ccc(S(=O)(=O)[O-])cc4)c4ccc([nH]4)c(-c4ccc(S(=O)(=O)[O-])cc4)c4nc(c(-c5ccc(S(=O)(=O)[O-])cc5)c5ccc2[nH]5)C=C4)C=C3)cc1
REMARK SMILES IDX 8 1 7 2 6 3 5 4 4 5 3 6 2 7 1 8 34 9 35 10 93 11 36 12 92 13
REMARK SMILES IDX 37 14 38 15 39 16 86 17 40 18 91 19 85 20 87 21 41 22 90 23
REMARK SMILES IDX 84 24 83 25 42 27 72 28 53 29 71 30 54 31 57 32 70 33 88 34
REMARK SMILES IDX 55 35 56 36 69 38 89 39 58 40 43 41 44 42 52 43 45 44 51 45
REMARK SMILES IDX 46 46 47 47 48 48 49 49 50 50 73 51 74 52 82 53 75 54 81 55
REMARK SMILES IDX 76 56 77 57 78 58 79 59 80 60 59 61 60 62 68 63 61 64 67 65
REMARK SMILES IDX 62 66 63 67 64 68 65 69 66 70 9 71 10 72 11 73 12 74 13 75
REMARK SMILES IDX 14 76 15 77 16 78 17 79 18 80 19 81 27 82 20 83 26 84 21 86
REMARK SMILES IDX 25 87 22 88 24 89 23 90 28 91 29 92 33 93 30 94 32 95 31 96
REMARK H PARENT 87 26 57 37 27 85
REMARK Flexibility Score: inf
ROOT
ATOM      1  C   UNL A   1      33.059  27.456  26.262  1.00  0.00     0.188 C 
ENDROOT
BRANCH   1   2
ATOM      2  C   UNL A   1      31.950  27.485  27.314  1.00  0.00     0.188 C 
BRANCH   2   3
ATOM      3  O   UNL A   1      31.523  28.818  27.554  1.00  0.00    -0.376 OA
BRANCH   3   4
ATOM      4  C   UNL A   1      31.744  29.795  26.545  1.00  0.00     0.202 C 
BRANCH   4   5
ATOM      5  C   UNL A   1      32.559  31.010  26.973  1.00  0.00     0.261 C 
BRANCH   5   6
ATOM      6  O   UNL A   1      33.958  30.744  27.175  1.00  0.00    -0.460 OA
BRANCH   6   7
ATOM      7  C   UNL A   1      34.728  31.026  28.255  1.00  0.00     0.338 C 
ATOM      8  O   UNL A   1      34.265  31.743  29.141  1.00  0.00    -0.246 OA
BRANCH   7   9
ATOM      9  C   UNL A   1      36.101  30.482  28.443  1.00  0.00     0.060 A 
ATOM     10  C   UNL A   1      36.603  30.029  29.655  1.00  0.00     0.016 A 
ATOM     11  C   UNL A   1      36.903  30.315  27.306  1.00  0.00     0.016 A 
ATOM     12  C   UNL A   1      37.897  29.582  29.798  1.00  0.00     0.010 A 
ATOM     13  C   UNL A   1      38.188  29.769  27.416  1.00  0.00     0.010 A 
ATOM     14  C   UNL A   1      38.698  29.442  28.678  1.00  0.00    -0.014 A 
BRANCH  14  15
ATOM     15  C   UNL A   1      40.105  29.097  28.926  1.00  0.00     0.031 A 
ATOM     16  C   UNL A   1      40.928  30.083  29.696  1.00  0.00     0.074 A 
ATOM     17  C   UNL A   1      40.539  27.850  28.661  1.00  0.00     0.049 A 
ATOM     18  N   UNL A   1      42.188  30.027  30.019  1.00  0.00    -0.248 NA
ATOM     19  C   UNL A   1      40.233  31.290  30.185  1.00  0.00     0.031 C 
ATOM     20  C   UNL A   1      39.726  26.773  28.079  1.00  0.00     0.029 A 
ATOM     21  N   UNL A   1      41.747  27.254  28.896  1.00  0.00    -0.354 N 
ATOM     22  C   UNL A   1      42.445  31.202  30.712  1.00  0.00     0.074 A 
ATOM     23  C   UNL A   1      41.217  31.959  30.763  1.00  0.00     0.031 C 
ATOM     24  C   UNL A   1      40.450  25.643  28.037  1.00  0.00     0.029 A 
ATOM     25  C   UNL A   1      41.799  25.940  28.495  1.00  0.00     0.049 A 
ATOM     26  H   UNL A   1      42.507  27.722  29.313  1.00  0.00     0.167 HD
ATOM     27  C   UNL A   1      43.615  31.607  31.251  1.00  0.00     0.031 A 
ATOM     28  C   UNL A   1      42.846  25.093  28.458  1.00  0.00     0.031 A 
ATOM     29  C   UNL A   1      44.813  30.821  31.175  1.00  0.00     0.049 A 
ATOM     30  C   UNL A   1      44.170  25.623  28.939  1.00  0.00     0.074 A 
ATOM     31  C   UNL A   1      46.091  31.145  31.585  1.00  0.00     0.029 A 
ATOM     32  N   UNL A   1      44.866  29.532  30.655  1.00  0.00    -0.354 N 
ATOM     33  N   UNL A   1      44.439  26.787  29.490  1.00  0.00    -0.248 NA
ATOM     34  C   UNL A   1      45.332  24.745  28.778  1.00  0.00     0.031 C 
ATOM     35  C   UNL A   1      46.927  30.072  31.263  1.00  0.00     0.029 A 
ATOM     36  C   UNL A   1      46.159  29.053  30.715  1.00  0.00     0.049 A 
ATOM     37  H   UNL A   1      44.095  29.035  30.297  1.00  0.00     0.167 HD
ATOM     38  C   UNL A   1      45.801  26.775  29.754  1.00  0.00     0.074 A 
ATOM     39  C   UNL A   1      46.290  25.475  29.333  1.00  0.00     0.031 C 
ATOM     40  C   UNL A   1      46.587  27.746  30.282  1.00  0.00     0.031 A 
BRANCH  27  41
ATOM     41  C   UNL A   1      43.653  32.974  31.874  1.00  0.00    -0.014 A 
ATOM     42  C   UNL A   1      43.550  33.154  33.265  1.00  0.00     0.010 A 
ATOM     43  C   UNL A   1      43.777  34.101  31.044  1.00  0.00     0.010 A 
ATOM     44  C   UNL A   1      43.552  34.441  33.812  1.00  0.00     0.020 A 
ATOM     45  C   UNL A   1      43.803  35.388  31.587  1.00  0.00     0.020 A 
ATOM     46  C   UNL A   1      43.680  35.550  32.969  1.00  0.00     0.054 A 
BRANCH  46  47
ATOM     47  S   UNL A   1      43.721  37.205  33.708  1.00  0.00     0.124 S 
ATOM     48  O   UNL A   1      43.863  38.059  32.530  1.00  0.00    -0.237 OA
ATOM     49  O   UNL A   1      42.429  37.282  34.386  1.00  0.00    -0.237 OA
ATOM     50  O   UNL A   1      44.883  37.165  34.591  1.00  0.00    -0.744 OA
ENDBRANCH  46  47
ENDBRANCH  27  41
BRANCH  28  51
ATOM     51  C   UNL A   1      42.715  23.735  27.856  1.00  0.00    -0.014 A 
ATOM     52  C   UNL A   1      42.650  23.549  26.464  1.00  0.00     0.010 A 
ATOM     53  C   UNL A   1      42.609  22.604  28.692  1.00  0.00     0.010 A 
ATOM     54  C   UNL A   1      42.435  22.274  25.926  1.00  0.00     0.020 A 
ATOM     55  C   UNL A   1      42.432  21.325  28.158  1.00  0.00     0.020 A 
ATOM     56  C   UNL A   1      42.322  21.172  26.777  1.00  0.00     0.054 A 
BRANCH  56  57
ATOM     57  S   UNL A   1      42.028  19.529  26.064  1.00  0.00     0.124 S 
ATOM     58  O   UNL A   1      42.347  18.652  27.185  1.00  0.00    -0.237 OA
ATOM     59  O   UNL A   1      40.618  19.593  25.691  1.00  0.00    -0.237 OA
ATOM     60  O   UNL A   1      42.959  19.472  24.940  1.00  0.00    -0.744 OA
ENDBRANCH  56  57
ENDBRANCH  28  51
BRANCH  40  61
ATOM     61  C   UNL A   1      48.039  27.410  30.460  1.00  0.00    -0.014 A 
ATOM     62  C   UNL A   1      48.475  26.633  31.547  1.00  0.00     0.010 A 
ATOM     63  C   UNL A   1      48.967  27.845  29.498  1.00  0.00     0.010 A 
ATOM     64  C   UNL A   1      49.829  26.331  31.691  1.00  0.00     0.020 A 
ATOM     65  C   UNL A   1      50.315  27.514  29.620  1.00  0.00     0.020 A 
ATOM     66  C   UNL A   1      50.740  26.776  30.727  1.00  0.00     0.054 A 
BRANCH  66  67
ATOM     67  S   UNL A   1      52.488  26.343  30.918  1.00  0.00     0.124 S 
ATOM     68  O   UNL A   1      52.907  26.156  29.531  1.00  0.00    -0.237 OA
ATOM     69  O   UNL A   1      53.038  27.518  31.589  1.00  0.00    -0.237 OA
ATOM     70  O   UNL A   1      52.457  25.127  31.729  1.00  0.00    -0.744 OA
ENDBRANCH  66  67
ENDBRANCH  40  61
ENDBRANCH  14  15
ENDBRANCH   7   9
ENDBRANCH   6   7
ENDBRANCH   5   6
ENDBRANCH   4   5
ENDBRANCH   3   4
ENDBRANCH   2   3
ENDBRANCH   1   2
BRANCH   1  71
ATOM     71  O   UNL A   1      32.737  26.722  25.078  1.00  0.00    -0.377 OA
BRANCH  71  72
ATOM     72  C   UNL A   1      33.831  26.427  24.205  1.00  0.00     0.188 C 
BRANCH  72  73
ATOM     73  C   UNL A   1      33.556  25.845  22.800  1.00  0.00     0.188 C 
BRANCH  73  74
ATOM     74  O   UNL A   1      32.226  26.054  22.340  1.00  0.00    -0.376 OA
BRANCH  74  75
ATOM     75  C   UNL A   1      31.366  24.917  22.393  1.00  0.00     0.202 C 
BRANCH  75  76
ATOM     76  C   UNL A   1      30.528  24.705  23.674  1.00  0.00     0.261 C 
BRANCH  76  77
ATOM     77  O   UNL A   1      30.473  23.335  24.105  1.00  0.00    -0.459 OA
BRANCH  77  78
ATOM     78  C   UNL A   1      30.911  23.008  25.347  1.00  0.00     0.365 C 
ATOM     79  O   UNL A   1      30.188  22.562  26.234  1.00  0.00    -0.245 OA
BRANCH  78  80
ATOM     80  C   UNL A   1      32.445  23.239  25.468  1.00  0.00     0.295 C 
ATOM     81  C   UNL A   1      32.850  23.413  26.935  1.00  0.00     0.078 C 
ATOM     82  N   UNL A   1      33.280  22.304  24.631  1.00  0.00    -0.317 N 
ATOM     83  C   UNL A   1      34.344  23.219  27.183  1.00  0.00     0.016 C 
ATOM     84  C   UNL A   1      34.739  22.428  24.837  1.00  0.00     0.188 C 
ATOM     85  H   UNL A   1      33.125  22.662  23.688  1.00  0.00     0.349 HD
ATOM     86  C   UNL A   1      35.159  23.451  25.913  1.00  0.00     0.048 C 
ATOM     87  C   UNL A   1      35.493  22.775  23.531  1.00  0.00     0.065 C 
ATOM     88  C   UNL A   1      36.665  23.305  26.182  1.00  0.00     0.010 C 
ATOM     89  C   UNL A   1      37.007  22.674  23.740  1.00  0.00     0.006 C 
ATOM     90  C   UNL A   1      37.493  23.520  24.915  1.00  0.00     0.001 C 
BRANCH  82  91
ATOM     91  C   UNL A   1      32.790  20.901  24.532  1.00  0.00     0.195 C 
ATOM     92  C   UNL A   1      33.543  19.953  25.481  1.00  0.00     0.067 C 
ATOM     93  C   UNL A   1      32.790  20.341  23.082  1.00  0.00     0.134 C 
ATOM     94  C   UNL A   1      32.879  18.585  25.566  1.00  0.00     0.017 C 
ATOM     95  S   UNL A   1      32.059  18.676  22.930  1.00  0.00    -0.156 SA
ATOM     96  C   UNL A   1      32.964  17.829  24.254  1.00  0.00     0.070 C 
ENDBRANCH  82  91
ENDBRANCH  78  80
ENDBRANCH  77  78
ENDBRANCH  76  77
ENDBRANCH  75  76
ENDBRANCH  74  75
ENDBRANCH  73  74
ENDBRANCH  72  73
ENDBRANCH  71  72
ENDBRANCH   1  71
TORSDOF 24
ENDMDL
MODEL 2
REMARK VINA RESULT:      -9.1      3.510      8.294
REMARK SMILES O=C(OCCOCCOCCOCCOC(=O)[C@H]1CC[C@H]2CCCC[C@@H]2[N@H+]1[C@@H]1CCCSC1)c1ccc(-c2c3nc(c(-c4ccc(S(=O)(=O)[O-])cc4)c4ccc([nH]4)c(-c4ccc(S(=O)(=O)[O-])cc4)c4nc(c(-c5ccc(S(=O)(=O)[O-])cc5)c5ccc2[nH]5)C=C4)C=C3)cc1
REMARK SMILES IDX 8 1 7 2 6 3 5 4 4 5 3 6 2 7 1 8 34 9 35 10 93 11 36 12 92 13
REMARK SMILES IDX 37 14 38 15 39 16 86 17 40 18 91 19 85 20 87 21 41 22 90 23
REMARK SMILES IDX 84 24 83 25 42 27 72 28 53 29 71 30 54 31 57 32 70 33 88 34
REMARK SMILES IDX 55 35 56 36 69 38 89 39 58 40 43 41 44 42 52 43 45 44 51 45
REMARK SMILES IDX 46 46 47 47 48 48 49 49 50 50 73 51 74 52 82 53 75 54 81 55
REMARK SMILES IDX 76 56 77 57 78 58 79 59 80 60 59 61 60 62 68 63 61 64 67 65
REMARK SMILES IDX 62 66 63 67 64 68 65 69 66 70 9 71 10 72 11 73 12 74 13 75
REMARK SMILES IDX 14 76 15 77 16 78 17 79 18 80 19 81 27 82 20 83 26 84 21 86
REMARK SMILES IDX 25 87 22 88 24 89 23 90 28 91 29 92 33 93 30 94 32 95 31 96
REMARK H PARENT 87 26 57 37 27 85
REMARK Flexibility Score: inf
ROOT
ATOM      1  C   UNL A   1      33.128  26.684  25.613  1.00  0.00     0.188 C 
ENDROOT
BRANCH   1   2
ATOM      2  C   UNL A   1      31.743  27.284  25.374  1.00  0.00     0.188 C 
BRANCH   2   3
ATOM      3  O   UNL A   1      31.503  28.361  26.267  1.00  0.00    -0.376 OA
BRANCH   3   4
ATOM      4  C   UNL A   1      32.049  29.637  25.958  1.00  0.00     0.202 C 
BRANCH   4   5
ATOM      5  C   UNL A   1      32.602  30.421  27.142  1.00  0.00     0.261 C 
BRANCH   5   6
ATOM      6  O   UNL A   1      33.844  31.095  26.878  1.00  0.00    -0.460 OA
BRANCH   6   7
ATOM      7  C   UNL A   1      34.592  31.855  27.717  1.00  0.00     0.338 C 
ATOM      8  O   UNL A   1      34.259  33.022  27.914  1.00  0.00    -0.246 OA
BRANCH   7   9
ATOM      9  C   UNL A   1      35.784  31.336  28.442  1.00  0.00     0.060 A 
ATOM     10  C   UNL A   1      35.874  30.063  28.988  1.00  0.00     0.016 A 
ATOM     11  C   UNL A   1      36.930  32.142  28.486  1.00  0.00     0.016 A 
ATOM     12  C   UNL A   1      36.974  29.640  29.698  1.00  0.00     0.010 A 
ATOM     13  C   UNL A   1      38.095  31.690  29.119  1.00  0.00     0.010 A 
ATOM     14  C   UNL A   1      38.097  30.447  29.763  1.00  0.00    -0.014 A 
BRANCH  14  15
ATOM     15  C   UNL A   1      39.173  29.992  30.654  1.00  0.00     0.031 A 
ATOM     16  C   UNL A   1      40.156  29.009  30.097  1.00  0.00     0.074 A 
ATOM     17  C   UNL A   1      39.371  30.618  31.830  1.00  0.00     0.049 A 
ATOM     18  N   UNL A   1      41.170  28.439  30.683  1.00  0.00    -0.248 NA
ATOM     19  C   UNL A   1      39.986  28.630  28.681  1.00  0.00     0.031 C 
ATOM     20  C   UNL A   1      38.553  31.723  32.352  1.00  0.00     0.029 A 
ATOM     21  N   UNL A   1      40.348  30.464  32.773  1.00  0.00    -0.354 N 
ATOM     22  C   UNL A   1      41.733  27.608  29.723  1.00  0.00     0.074 A 
ATOM     23  C   UNL A   1      40.951  27.740  28.517  1.00  0.00     0.031 C 
ATOM     24  C   UNL A   1      39.087  32.165  33.501  1.00  0.00     0.029 A 
ATOM     25  C   UNL A   1      40.219  31.316  33.844  1.00  0.00     0.049 A 
ATOM     26  H   UNL A   1      41.075  29.804  32.693  1.00  0.00     0.167 HD
ATOM     27  C   UNL A   1      42.809  26.803  29.853  1.00  0.00     0.031 A 
ATOM     28  C   UNL A   1      40.913  31.361  34.997  1.00  0.00     0.031 A 
ATOM     29  C   UNL A   1      43.556  26.704  31.074  1.00  0.00     0.049 A 
ATOM     30  C   UNL A   1      42.020  30.355  35.165  1.00  0.00     0.074 A 
ATOM     31  C   UNL A   1      44.603  25.860  31.384  1.00  0.00     0.029 A 
ATOM     32  N   UNL A   1      43.329  27.499  32.192  1.00  0.00    -0.354 N 
ATOM     33  N   UNL A   1      42.479  29.482  34.294  1.00  0.00    -0.248 NA
ATOM     34  C   UNL A   1      42.690  30.319  36.469  1.00  0.00     0.031 C 
ATOM     35  C   UNL A   1      44.975  26.109  32.708  1.00  0.00     0.029 A 
ATOM     36  C   UNL A   1      44.204  27.153  33.202  1.00  0.00     0.049 A 
ATOM     37  H   UNL A   1      42.645  28.205  32.253  1.00  0.00     0.167 HD
ATOM     38  C   UNL A   1      43.500  28.802  34.941  1.00  0.00     0.074 A 
ATOM     39  C   UNL A   1      43.614  29.390  36.263  1.00  0.00     0.031 C 
ATOM     40  C   UNL A   1      44.271  27.778  34.499  1.00  0.00     0.031 A 
BRANCH  27  41
ATOM     41  C   UNL A   1      43.162  25.929  28.684  1.00  0.00    -0.014 A 
ATOM     42  C   UNL A   1      42.597  24.651  28.519  1.00  0.00     0.010 A 
ATOM     43  C   UNL A   1      44.093  26.393  27.738  1.00  0.00     0.010 A 
ATOM     44  C   UNL A   1      42.974  23.847  27.439  1.00  0.00     0.020 A 
ATOM     45  C   UNL A   1      44.455  25.603  26.644  1.00  0.00     0.020 A 
ATOM     46  C   UNL A   1      43.899  24.329  26.508  1.00  0.00     0.054 A 
BRANCH  46  47
ATOM     47  S   UNL A   1      44.339  23.281  25.095  1.00  0.00     0.124 S 
ATOM     48  O   UNL A   1      45.284  24.129  24.372  1.00  0.00    -0.237 OA
ATOM     49  O   UNL A   1      44.918  22.105  25.740  1.00  0.00    -0.237 OA
ATOM     50  O   UNL A   1      43.064  23.053  24.419  1.00  0.00    -0.744 OA
ENDBRANCH  46  47
ENDBRANCH  27  41
BRANCH  28  51
ATOM     51  C   UNL A   1      40.521  32.288  36.097  1.00  0.00    -0.014 A 
ATOM     52  C   UNL A   1      41.322  33.386  36.457  1.00  0.00     0.010 A 
ATOM     53  C   UNL A   1      39.343  32.045  36.833  1.00  0.00     0.010 A 
ATOM     54  C   UNL A   1      40.979  34.188  37.552  1.00  0.00     0.020 A 
ATOM     55  C   UNL A   1      38.977  32.865  37.903  1.00  0.00     0.020 A 
ATOM     56  C   UNL A   1      39.813  33.918  38.272  1.00  0.00     0.054 A 
BRANCH  56  57
ATOM     57  S   UNL A   1      39.391  34.959  39.698  1.00  0.00     0.124 S 
ATOM     58  O   UNL A   1      39.219  36.268  39.076  1.00  0.00    -0.237 OA
ATOM     59  O   UNL A   1      38.172  34.330  40.199  1.00  0.00    -0.237 OA
ATOM     60  O   UNL A   1      40.554  34.828  40.573  1.00  0.00    -0.744 OA
ENDBRANCH  56  57
ENDBRANCH  28  51
BRANCH  40  61
ATOM     61  C   UNL A   1      45.318  27.269  35.447  1.00  0.00    -0.014 A 
ATOM     62  C   UNL A   1      46.605  27.832  35.477  1.00  0.00     0.010 A 
ATOM     63  C   UNL A   1      44.987  26.241  36.348  1.00  0.00     0.010 A 
ATOM     64  C   UNL A   1      47.560  27.344  36.368  1.00  0.00     0.020 A 
ATOM     65  C   UNL A   1      45.928  25.777  37.264  1.00  0.00     0.020 A 
ATOM     66  C   UNL A   1      47.215  26.318  37.255  1.00  0.00     0.054 A 
BRANCH  66  67
ATOM     67  S   UNL A   1      48.463  25.726  38.425  1.00  0.00     0.124 S 
ATOM     68  O   UNL A   1      48.495  24.294  38.134  1.00  0.00    -0.237 OA
ATOM     69  O   UNL A   1      49.654  26.475  38.031  1.00  0.00    -0.237 OA
ATOM     70  O   UNL A   1      47.913  26.084  39.730  1.00  0.00    -0.744 OA
ENDBRANCH  66  67
ENDBRANCH  40  61
ENDBRANCH  14  15
ENDBRANCH   7   9
ENDBRANCH   6   7
ENDBRANCH   5   6
ENDBRANCH   4   5
ENDBRANCH   3   4
ENDBRANCH   2   3
ENDBRANCH   1   2
BRANCH   1  71
ATOM     71  O   UNL A   1      33.944  26.584  24.443  1.00  0.00    -0.377 OA
BRANCH  71  72
ATOM     72  C   UNL A   1      33.503  27.329  23.304  1.00  0.00     0.188 C 
BRANCH  72  73
ATOM     73  C   UNL A   1      33.111  26.587  22.006  1.00  0.00     0.188 C 
BRANCH  73  74
ATOM     74  O   UNL A   1      31.776  26.097  22.004  1.00  0.00    -0.376 OA
BRANCH  74  75
ATOM     75  C   UNL A   1      31.594  24.787  22.539  1.00  0.00     0.202 C 
BRANCH  75  76
ATOM     76  C   UNL A   1      30.538  24.603  23.652  1.00  0.00     0.261 C 
BRANCH  76  77
ATOM     77  O   UNL A   1      30.436  23.252  24.130  1.00  0.00    -0.459 OA
BRANCH  77  78
ATOM     78  C   UNL A   1      30.854  22.954  25.387  1.00  0.00     0.365 C 
ATOM     79  O   UNL A   1      30.118  22.522  26.270  1.00  0.00    -0.245 OA
BRANCH  78  80
ATOM     80  C   UNL A   1      32.384  23.197  25.530  1.00  0.00     0.295 C 
ATOM     81  C   UNL A   1      32.773  23.336  27.005  1.00  0.00     0.078 C 
ATOM     82  N   UNL A   1      33.238  22.294  24.677  1.00  0.00    -0.317 N 
ATOM     83  C   UNL A   1      34.266  23.150  27.263  1.00  0.00     0.016 C 
ATOM     84  C   UNL A   1      34.693  22.427  24.901  1.00  0.00     0.188 C 
ATOM     85  H   UNL A   1      33.088  22.676  23.742  1.00  0.00     0.349 HD
ATOM     86  C   UNL A   1      35.091  23.425  26.008  1.00  0.00     0.048 C 
ATOM     87  C   UNL A   1      35.456  22.817  23.613  1.00  0.00     0.065 C 
ATOM     88  C   UNL A   1      36.596  23.287  26.289  1.00  0.00     0.010 C 
ATOM     89  C   UNL A   1      36.970  22.726  23.834  1.00  0.00     0.006 C 
ATOM     90  C   UNL A   1      37.434  23.545  25.037  1.00  0.00     0.001 C 
BRANCH  82  91
ATOM     91  C   UNL A   1      32.763  20.889  24.534  1.00  0.00     0.195 C 
ATOM     92  C   UNL A   1      33.465  19.935  25.516  1.00  0.00     0.067 C 
ATOM     93  C   UNL A   1      32.851  20.345  23.081  1.00  0.00     0.134 C 
ATOM     94  C   UNL A   1      32.807  18.563  25.548  1.00  0.00     0.017 C 
ATOM     95  S   UNL A   1      32.142  18.677  22.869  1.00  0.00    -0.156 SA
ATOM     96  C   UNL A   1      32.973  17.821  24.235  1.00  0.00     0.070 C 
ENDBRANCH  82  91
ENDBRANCH  78  80
ENDBRANCH  77  78
ENDBRANCH  76  77
ENDBRANCH  75  76
ENDBRANCH  74  75
ENDBRANCH  73  74
ENDBRANCH  72  73
ENDBRANCH  71  72
ENDBRANCH   1  71
TORSDOF 24
ENDMDL
MODEL 3
REMARK VINA RESULT:      -9.1      3.017      8.694
REMARK SMILES O=C(OCCOCCOCCOCCOC(=O)[C@H]1CC[C@H]2CCCC[C@@H]2[N@H+]1[C@@H]1CCCSC1)c1ccc(-c2c3nc(c(-c4ccc(S(=O)(=O)[O-])cc4)c4ccc([nH]4)c(-c4ccc(S(=O)(=O)[O-])cc4)c4nc(c(-c5ccc(S(=O)(=O)[O-])cc5)c5ccc2[nH]5)C=C4)C=C3)cc1
REMARK SMILES IDX 8 1 7 2 6 3 5 4 4 5 3 6 2 7 1 8 34 9 35 10 93 11 36 12 92 13
REMARK SMILES IDX 37 14 38 15 39 16 86 17 40 18 91 19 85 20 87 21 41 22 90 23
REMARK SMILES IDX 84 24 83 25 42 27 72 28 53 29 71 30 54 31 57 32 70 33 88 34
REMARK SMILES IDX 55 35 56 36 69 38 89 39 58 40 43 41 44 42 52 43 45 44 51 45
REMARK SMILES IDX 46 46 47 47 48 48 49 49 50 50 73 51 74 52 82 53 75 54 81 55
REMARK SMILES IDX 76 56 77 57 78 58 79 59 80 60 59 61 60 62 68 63 61 64 67 65
REMARK SMILES IDX 62 66 63 67 64 68 65 69 66 70 9 71 10 72 11 73 12 74 13 75
REMARK SMILES IDX 14 76 15 77 16 78 17 79 18 80 19 81 27 82 20 83 26 84 21 86
REMARK SMILES IDX 25 87 22 88 24 89 23 90 28 91 29 92 33 93 30 94 32 95 31 96
REMARK H PARENT 87 26 57 37 27 85
REMARK Flexibility Score: inf
ROOT
ATOM      1  C   UNL A   1      33.161  28.757  23.755  1.00  0.00     0.188 C 
ENDROOT
BRANCH   1   2
ATOM      2  C   UNL A   1      32.724  29.415  25.063  1.00  0.00     0.188 C 
BRANCH   2   3
ATOM      3  O   UNL A   1      33.549  28.990  26.137  1.00  0.00    -0.376 OA
BRANCH   3   4
ATOM      4  C   UNL A   1      34.024  29.965  27.057  1.00  0.00     0.202 C 
BRANCH   4   5
ATOM      5  C   UNL A   1      35.501  29.862  27.421  1.00  0.00     0.261 C 
BRANCH   5   6
ATOM      6  O   UNL A   1      35.807  30.246  28.772  1.00  0.00    -0.460 OA
BRANCH   6   7
ATOM      7  C   UNL A   1      36.705  29.698  29.628  1.00  0.00     0.338 C 
ATOM      8  O   UNL A   1      36.304  29.256  30.703  1.00  0.00    -0.246 OA
BRANCH   7   9
ATOM      9  C   UNL A   1      38.156  29.573  29.318  1.00  0.00     0.060 A 
ATOM     10  C   UNL A   1      38.684  29.579  28.034  1.00  0.00     0.016 A 
ATOM     11  C   UNL A   1      39.058  29.557  30.389  1.00  0.00     0.016 A 
ATOM     12  C   UNL A   1      40.026  29.407  27.786  1.00  0.00     0.010 A 
ATOM     13  C   UNL A   1      40.438  29.483  30.157  1.00  0.00     0.010 A 
ATOM     14  C   UNL A   1      40.916  29.365  28.847  1.00  0.00    -0.014 A 
BRANCH  14  15
ATOM     15  C   UNL A   1      42.309  29.038  28.512  1.00  0.00     0.031 A 
ATOM     16  C   UNL A   1      42.601  27.634  28.082  1.00  0.00     0.074 A 
ATOM     17  C   UNL A   1      43.212  30.030  28.387  1.00  0.00     0.049 A 
ATOM     18  N   UNL A   1      43.741  27.092  27.762  1.00  0.00    -0.248 NA
ATOM     19  C   UNL A   1      41.447  26.718  27.979  1.00  0.00     0.031 C 
ATOM     20  C   UNL A   1      42.941  31.458  28.611  1.00  0.00     0.029 A 
ATOM     21  N   UNL A   1      44.518  30.006  27.988  1.00  0.00    -0.354 N 
ATOM     22  C   UNL A   1      43.450  25.768  27.460  1.00  0.00     0.074 A 
ATOM     23  C   UNL A   1      42.030  25.580  27.636  1.00  0.00     0.031 C 
ATOM     24  C   UNL A   1      44.040  32.169  28.310  1.00  0.00     0.029 A 
ATOM     25  C   UNL A   1      45.112  31.246  27.970  1.00  0.00     0.049 A 
ATOM     26  H   UNL A   1      44.990  29.178  27.736  1.00  0.00     0.167 HD
ATOM     27  C   UNL A   1      44.307  24.799  27.075  1.00  0.00     0.031 A 
ATOM     28  C   UNL A   1      46.398  31.581  27.753  1.00  0.00     0.031 A 
ATOM     29  C   UNL A   1      45.714  25.032  26.914  1.00  0.00     0.049 A 
ATOM     30  C   UNL A   1      47.356  30.457  27.462  1.00  0.00     0.074 A 
ATOM     31  C   UNL A   1      46.716  24.127  26.628  1.00  0.00     0.029 A 
ATOM     32  N   UNL A   1      46.312  26.283  27.018  1.00  0.00    -0.354 N 
ATOM     33  N   UNL A   1      47.097  29.179  27.292  1.00  0.00    -0.248 NA
ATOM     34  C   UNL A   1      48.775  30.808  27.354  1.00  0.00     0.031 C 
ATOM     35  C   UNL A   1      47.928  24.823  26.612  1.00  0.00     0.029 A 
ATOM     36  C   UNL A   1      47.674  26.172  26.821  1.00  0.00     0.049 A 
ATOM     37  H   UNL A   1      45.835  27.123  27.205  1.00  0.00     0.167 HD
ATOM     38  C   UNL A   1      48.321  28.574  27.043  1.00  0.00     0.074 A 
ATOM     39  C   UNL A   1      49.313  29.634  27.051  1.00  0.00     0.031 C 
ATOM     40  C   UNL A   1      48.612  27.265  26.839  1.00  0.00     0.031 A 
BRANCH  27  41
ATOM     41  C   UNL A   1      43.750  23.415  26.897  1.00  0.00    -0.014 A 
ATOM     42  C   UNL A   1      43.186  22.702  27.970  1.00  0.00     0.010 A 
ATOM     43  C   UNL A   1      43.810  22.811  25.629  1.00  0.00     0.010 A 
ATOM     44  C   UNL A   1      42.708  21.402  27.779  1.00  0.00     0.020 A 
ATOM     45  C   UNL A   1      43.313  21.521  25.428  1.00  0.00     0.020 A 
ATOM     46  C   UNL A   1      42.774  20.820  26.509  1.00  0.00     0.054 A 
BRANCH  46  47
ATOM     47  S   UNL A   1      42.111  19.148  26.282  1.00  0.00     0.124 S 
ATOM     48  O   UNL A   1      42.184  18.606  27.637  1.00  0.00    -0.237 OA
ATOM     49  O   UNL A   1      40.762  19.407  25.782  1.00  0.00    -0.237 OA
ATOM     50  O   UNL A   1      43.023  18.540  25.317  1.00  0.00    -0.744 OA
ENDBRANCH  46  47
ENDBRANCH  27  41
BRANCH  28  51
ATOM     51  C   UNL A   1      46.864  32.989  27.913  1.00  0.00    -0.014 A 
ATOM     52  C   UNL A   1      46.948  33.866  26.818  1.00  0.00     0.010 A 
ATOM     53  C   UNL A   1      47.276  33.451  29.180  1.00  0.00     0.010 A 
ATOM     54  C   UNL A   1      47.475  35.154  26.977  1.00  0.00     0.020 A 
ATOM     55  C   UNL A   1      47.768  34.748  29.350  1.00  0.00     0.020 A 
ATOM     56  C   UNL A   1      47.888  35.583  28.241  1.00  0.00     0.054 A 
BRANCH  56  57
ATOM     57  S   UNL A   1      48.582  37.250  28.426  1.00  0.00     0.124 S 
ATOM     58  O   UNL A   1      49.941  36.962  28.873  1.00  0.00    -0.237 OA
ATOM     59  O   UNL A   1      48.462  37.795  27.076  1.00  0.00    -0.237 OA
ATOM     60  O   UNL A   1      47.714  37.875  29.421  1.00  0.00    -0.744 OA
ENDBRANCH  56  57
ENDBRANCH  28  51
BRANCH  40  61
ATOM     61  C   UNL A   1      50.052  26.933  26.573  1.00  0.00    -0.014 A 
ATOM     62  C   UNL A   1      50.541  26.825  25.260  1.00  0.00     0.010 A 
ATOM     63  C   UNL A   1      50.931  26.771  27.659  1.00  0.00     0.010 A 
ATOM     64  C   UNL A   1      51.883  26.517  25.037  1.00  0.00     0.020 A 
ATOM     65  C   UNL A   1      52.279  26.499  27.439  1.00  0.00     0.020 A 
ATOM     66  C   UNL A   1      52.743  26.355  26.129  1.00  0.00     0.054 A 
BRANCH  66  67
ATOM     67  S   UNL A   1      54.488  25.989  25.814  1.00  0.00     0.124 S 
ATOM     68  O   UNL A   1      54.409  25.137  24.630  1.00  0.00    -0.237 OA
ATOM     69  O   UNL A   1      55.059  27.317  25.598  1.00  0.00    -0.237 OA
ATOM     70  O   UNL A   1      54.929  25.320  27.036  1.00  0.00    -0.744 OA
ENDBRANCH  66  67
ENDBRANCH  40  61
ENDBRANCH  14  15
ENDBRANCH   7   9
ENDBRANCH   6   7
ENDBRANCH   5   6
ENDBRANCH   4   5
ENDBRANCH   3   4
ENDBRANCH   2   3
ENDBRANCH   1   2
BRANCH   1  71
ATOM     71  O   UNL A   1      32.275  28.973  22.654  1.00  0.00    -0.377 OA
BRANCH  71  72
ATOM     72  C   UNL A   1      30.925  29.307  22.990  1.00  0.00     0.188 C 
BRANCH  72  73
ATOM     73  C   UNL A   1      29.821  28.229  22.894  1.00  0.00     0.188 C 
BRANCH  73  74
ATOM     74  O   UNL A   1      29.715  27.408  24.050  1.00  0.00    -0.376 OA
BRANCH  74  75
ATOM     75  C   UNL A   1      30.219  26.080  23.917  1.00  0.00     0.202 C 
BRANCH  75  76
ATOM     76  C   UNL A   1      30.271  25.197  25.184  1.00  0.00     0.261 C 
BRANCH  76  77
ATOM     77  O   UNL A   1      31.598  24.778  25.540  1.00  0.00    -0.459 OA
BRANCH  77  78
ATOM     78  C   UNL A   1      32.453  24.370  24.569  1.00  0.00     0.365 C 
ATOM     79  O   UNL A   1      33.265  25.108  24.015  1.00  0.00    -0.245 OA
BRANCH  78  80
ATOM     80  C   UNL A   1      32.285  22.849  24.292  1.00  0.00     0.295 C 
ATOM     81  C   UNL A   1      31.961  22.602  22.815  1.00  0.00     0.078 C 
ATOM     82  N   UNL A   1      33.352  21.984  24.914  1.00  0.00    -0.317 N 
ATOM     83  C   UNL A   1      32.198  21.161  22.371  1.00  0.00     0.016 C 
ATOM     84  C   UNL A   1      33.277  20.553  24.550  1.00  0.00     0.188 C 
ATOM     85  H   UNL A   1      33.099  22.009  25.903  1.00  0.00     0.349 HD
ATOM     86  C   UNL A   1      32.156  20.194  23.552  1.00  0.00     0.048 C 
ATOM     87  C   UNL A   1      33.123  19.636  25.787  1.00  0.00     0.065 C 
ATOM     88  C   UNL A   1      32.344  18.740  23.090  1.00  0.00     0.010 C 
ATOM     89  C   UNL A   1      33.272  18.164  25.389  1.00  0.00     0.006 C 
ATOM     90  C   UNL A   1      32.319  17.763  24.265  1.00  0.00     0.001 C 
BRANCH  82  91
ATOM     91  C   UNL A   1      34.731  22.547  24.916  1.00  0.00     0.195 C 
ATOM     92  C   UNL A   1      35.748  21.596  24.260  1.00  0.00     0.067 C 
ATOM     93  C   UNL A   1      35.222  22.992  26.322  1.00  0.00     0.134 C 
ATOM     94  C   UNL A   1      37.095  22.270  24.033  1.00  0.00     0.017 C 
ATOM     95  S   UNL A   1      36.852  23.811  26.313  1.00  0.00    -0.156 SA
ATOM     96  C   UNL A   1      37.791  22.603  25.340  1.00  0.00     0.070 C 
ENDBRANCH  82  91
ENDBRANCH  78  80
ENDBRANCH  77  78
ENDBRANCH  76  77
ENDBRANCH  75  76
ENDBRANCH  74  75
ENDBRANCH  73  74
ENDBRANCH  72  73
ENDBRANCH  71  72
ENDBRANCH   1  71
TORSDOF 24
ENDMDL
