MODEL 1
REMARK VINA RESULT:      -7.6      0.000      0.000
REMARK SMILES C[C@H]1[C@H](C(=O)OCCOCCOCCOCCOC(=O)c2ccc(-c3c4nc(c(-c5ccc(S(=O)(=O)[O-])cc5)c5ccc([nH]5)c(-c5ccc(S(=O)(=O)[O-])cc5)c5nc(c(-c6ccc(S(=O)(=O)[O-])cc6)c6ccc3[nH]6)C=C5)C=C4)cc2)CC[N@@H+]1Cc1nnnn1-c1ccccc1
REMARK SMILES IDX 12 1 11 2 10 3 9 4 8 5 7 6 6 7 4 8 5 9 3 10 1 11 2 12 83 13
REMARK SMILES IDX 81 14 82 15 84 17 85 18 86 19 89 20 87 21 88 22 90 23 91 24
REMARK SMILES IDX 95 25 92 26 94 27 93 28 13 29 14 30 15 31 16 32 17 33 18 34
REMARK SMILES IDX 19 35 20 36 21 37 22 38 80 39 23 40 79 41 24 42 25 43 26 44
REMARK SMILES IDX 73 45 27 46 78 47 72 48 74 49 28 50 77 51 71 52 70 53 29 55
REMARK SMILES IDX 59 56 40 57 58 58 41 59 44 60 57 61 75 62 42 63 43 64 56 66
REMARK SMILES IDX 76 67 45 68 30 69 31 70 39 71 32 72 38 73 33 74 34 75 35 76
REMARK SMILES IDX 36 77 37 78 60 79 61 80 69 81 62 82 68 83 63 84 64 85 65 86
REMARK SMILES IDX 66 87 67 88 46 89 47 90 55 91 48 92 54 93 49 94 50 95 51 96
REMARK SMILES IDX 52 97 53 98
REMARK H PARENT 83 16 74 54 44 65
REMARK Flexibility Score: inf
ROOT
ATOM      1  O   UNL A   1      37.232  33.244  31.081  1.00  0.00    -0.377 OA
ENDROOT
BRANCH   1   2
ATOM      2  C   UNL A   1      36.816  33.256  29.745  1.00  0.00     0.188 C 
BRANCH   2   3
ATOM      3  C   UNL A   1      35.387  33.630  29.350  1.00  0.00     0.188 C 
BRANCH   3   4
ATOM      4  O   UNL A   1      34.430  32.627  29.059  1.00  0.00    -0.376 OA
BRANCH   4   5
ATOM      5  C   UNL A   1      34.437  31.882  27.851  1.00  0.00     0.202 C 
BRANCH   5   6
ATOM      6  C   UNL A   1      33.902  30.442  27.748  1.00  0.00     0.261 C 
BRANCH   6   7
ATOM      7  O   UNL A   1      32.769  30.252  26.878  1.00  0.00    -0.463 OA
BRANCH   7   8
ATOM      8  C   UNL A   1      32.923  29.416  25.835  1.00  0.00     0.315 C 
ATOM      9  O   UNL A   1      33.926  29.392  25.125  1.00  0.00    -0.252 OA
BRANCH   8  10
ATOM     10  C   UNL A   1      31.766  28.449  25.579  1.00  0.00     0.162 C 
ATOM     11  C   UNL A   1      30.381  27.463  23.707  1.00  0.00     0.076 C 
ATOM     12  C   UNL A   1      31.742  27.405  24.444  1.00  0.00     0.195 C 
ATOM     13  N   UNL A   1      31.785  26.082  25.066  1.00  0.00    -0.326 N 
ATOM     14  C   UNL A   1      31.542  27.640  26.848  1.00  0.00     0.083 C 
ATOM     15  C   UNL A   1      31.259  26.216  26.408  1.00  0.00     0.263 C 
ATOM     16  H   UNL A   1      31.167  25.430  24.581  1.00  0.00     0.348 HD
BRANCH  13  17
ATOM     17  C   UNL A   1      32.989  25.277  24.819  1.00  0.00     0.343 C 
BRANCH  17  18
ATOM     18  C   UNL A   1      33.131  24.578  23.507  1.00  0.00     0.210 A 
ATOM     19  N   UNL A   1      32.433  24.841  22.415  1.00  0.00    -0.107 NA
ATOM     20  N   UNL A   1      34.054  23.597  23.189  1.00  0.00    -0.192 N 
ATOM     21  N   UNL A   1      32.990  24.094  21.413  1.00  0.00    -0.023 NA
ATOM     22  N   UNL A   1      34.040  23.416  21.852  1.00  0.00    -0.040 NA
BRANCH  20  23
ATOM     23  C   UNL A   1      35.011  22.983  24.017  1.00  0.00     0.069 A 
ATOM     24  C   UNL A   1      34.643  22.620  25.318  1.00  0.00     0.028 A 
ATOM     25  C   UNL A   1      36.250  22.600  23.494  1.00  0.00     0.028 A 
ATOM     26  C   UNL A   1      35.446  21.723  26.021  1.00  0.00     0.002 A 
ATOM     27  C   UNL A   1      37.068  21.740  24.224  1.00  0.00     0.002 A 
ATOM     28  C   UNL A   1      36.645  21.268  25.467  1.00  0.00     0.000 A 
ENDBRANCH  20  23
ENDBRANCH  17  18
ENDBRANCH  13  17
ENDBRANCH   8  10
ENDBRANCH   7   8
ENDBRANCH   6   7
ENDBRANCH   5   6
ENDBRANCH   4   5
ENDBRANCH   3   4
ENDBRANCH   2   3
ENDBRANCH   1   2
BRANCH   1  29
ATOM     29  C   UNL A   1      38.417  32.519  31.299  1.00  0.00     0.188 C 
BRANCH  29  30
ATOM     30  C   UNL A   1      38.442  31.285  30.410  1.00  0.00     0.188 C 
BRANCH  30  31
ATOM     31  O   UNL A   1      37.581  30.200  30.711  1.00  0.00    -0.376 OA
BRANCH  31  32
ATOM     32  C   UNL A   1      37.867  29.201  31.680  1.00  0.00     0.202 C 
BRANCH  32  33
ATOM     33  C   UNL A   1      38.423  29.402  33.112  1.00  0.00     0.261 C 
BRANCH  33  34
ATOM     34  O   UNL A   1      39.617  30.153  33.319  1.00  0.00    -0.460 OA
BRANCH  34  35
ATOM     35  C   UNL A   1      40.563  29.572  34.078  1.00  0.00     0.338 C 
ATOM     36  O   UNL A   1      40.394  28.947  35.112  1.00  0.00    -0.246 OA
BRANCH  35  37
ATOM     37  C   UNL A   1      41.843  29.659  33.342  1.00  0.00     0.060 A 
ATOM     38  C   UNL A   1      41.854  30.346  32.123  1.00  0.00     0.016 A 
ATOM     39  C   UNL A   1      43.016  29.085  33.844  1.00  0.00     0.016 A 
ATOM     40  C   UNL A   1      43.020  30.412  31.371  1.00  0.00     0.010 A 
ATOM     41  C   UNL A   1      44.180  29.118  33.069  1.00  0.00     0.010 A 
ATOM     42  C   UNL A   1      44.166  29.737  31.807  1.00  0.00    -0.014 A 
BRANCH  42  43
ATOM     43  C   UNL A   1      45.217  29.450  30.804  1.00  0.00     0.031 A 
ATOM     44  C   UNL A   1      45.022  28.251  29.913  1.00  0.00     0.074 A 
ATOM     45  C   UNL A   1      46.254  30.284  30.614  1.00  0.00     0.049 A 
ATOM     46  N   UNL A   1      45.752  27.832  28.913  1.00  0.00    -0.248 NA
ATOM     47  C   UNL A   1      43.837  27.418  30.182  1.00  0.00     0.031 C 
ATOM     48  C   UNL A   1      46.511  31.506  31.374  1.00  0.00     0.029 A 
ATOM     49  N   UNL A   1      47.278  30.231  29.701  1.00  0.00    -0.354 N 
ATOM     50  C   UNL A   1      45.117  26.689  28.438  1.00  0.00     0.074 A 
ATOM     51  C   UNL A   1      43.966  26.459  29.280  1.00  0.00     0.031 C 
ATOM     52  C   UNL A   1      47.624  32.090  30.893  1.00  0.00     0.029 A 
ATOM     53  C   UNL A   1      48.167  31.271  29.809  1.00  0.00     0.049 A 
ATOM     54  H   UNL A   1      47.365  29.514  29.032  1.00  0.00     0.167 HD
ATOM     55  C   UNL A   1      45.454  25.907  27.388  1.00  0.00     0.031 A 
ATOM     56  C   UNL A   1      49.296  31.525  29.118  1.00  0.00     0.031 A 
ATOM     57  C   UNL A   1      46.610  26.132  26.563  1.00  0.00     0.049 A 
ATOM     58  C   UNL A   1      49.696  30.594  28.000  1.00  0.00     0.074 A 
ATOM     59  C   UNL A   1      47.044  25.400  25.471  1.00  0.00     0.029 A 
ATOM     60  N   UNL A   1      47.519  27.163  26.741  1.00  0.00    -0.354 N 
ATOM     61  N   UNL A   1      49.076  29.527  27.551  1.00  0.00    -0.248 NA
ATOM     62  C   UNL A   1      50.938  30.914  27.284  1.00  0.00     0.031 C 
ATOM     63  C   UNL A   1      48.252  25.951  25.032  1.00  0.00     0.029 A 
ATOM     64  C   UNL A   1      48.529  27.071  25.799  1.00  0.00     0.049 A 
ATOM     65  H   UNL A   1      47.456  27.858  27.436  1.00  0.00     0.167 HD
ATOM     66  C   UNL A   1      49.838  29.068  26.480  1.00  0.00     0.074 A 
ATOM     67  C   UNL A   1      50.951  29.985  26.339  1.00  0.00     0.031 C 
ATOM     68  C   UNL A   1      49.634  27.990  25.679  1.00  0.00     0.031 A 
BRANCH  55  69
ATOM     69  C   UNL A   1      44.584  24.711  27.105  1.00  0.00    -0.014 A 
ATOM     70  C   UNL A   1      43.522  24.776  26.183  1.00  0.00     0.010 A 
ATOM     71  C   UNL A   1      44.846  23.493  27.758  1.00  0.00     0.010 A 
ATOM     72  C   UNL A   1      42.718  23.656  25.950  1.00  0.00     0.020 A 
ATOM     73  C   UNL A   1      44.065  22.364  27.505  1.00  0.00     0.020 A 
ATOM     74  C   UNL A   1      42.995  22.456  26.613  1.00  0.00     0.054 A 
BRANCH  74  75
ATOM     75  S   UNL A   1      41.954  21.012  26.271  1.00  0.00     0.124 S 
ATOM     76  O   UNL A   1      41.796  20.431  27.603  1.00  0.00    -0.237 OA
ATOM     77  O   UNL A   1      40.750  21.612  25.702  1.00  0.00    -0.237 OA
ATOM     78  O   UNL A   1      42.753  20.220  25.339  1.00  0.00    -0.744 OA
ENDBRANCH  74  75
ENDBRANCH  55  69
BRANCH  56  79
ATOM     79  C   UNL A   1      50.137  32.703  29.467  1.00  0.00    -0.014 A 
ATOM     80  C   UNL A   1      51.153  32.610  30.435  1.00  0.00     0.010 A 
ATOM     81  C   UNL A   1      49.913  33.941  28.834  1.00  0.00     0.010 A 
ATOM     82  C   UNL A   1      51.912  33.734  30.778  1.00  0.00     0.020 A 
ATOM     83  C   UNL A   1      50.690  35.058  29.151  1.00  0.00     0.020 A 
ATOM     84  C   UNL A   1      51.677  34.950  30.131  1.00  0.00     0.054 A 
BRANCH  84  85
ATOM     85  S   UNL A   1      52.703  36.384  30.561  1.00  0.00     0.124 S 
ATOM     86  O   UNL A   1      53.079  36.894  29.246  1.00  0.00    -0.237 OA
ATOM     87  O   UNL A   1      51.776  37.218  31.321  1.00  0.00    -0.237 OA
ATOM     88  O   UNL A   1      53.792  35.804  31.342  1.00  0.00    -0.744 OA
ENDBRANCH  84  85
ENDBRANCH  56  79
BRANCH  68  89
ATOM     89  C   UNL A   1      50.610  27.768  24.552  1.00  0.00    -0.014 A 
ATOM     90  C   UNL A   1      50.455  28.402  23.306  1.00  0.00     0.010 A 
ATOM     91  C   UNL A   1      51.724  26.932  24.758  1.00  0.00     0.010 A 
ATOM     92  C   UNL A   1      51.365  28.161  22.272  1.00  0.00     0.020 A 
ATOM     93  C   UNL A   1      52.656  26.718  23.740  1.00  0.00     0.020 A 
ATOM     94  C   UNL A   1      52.457  27.317  22.495  1.00  0.00     0.054 A 
BRANCH  94  95
ATOM     95  S   UNL A   1      53.630  27.030  21.142  1.00  0.00     0.124 S 
ATOM     96  O   UNL A   1      53.796  28.374  20.595  1.00  0.00    -0.237 OA
ATOM     97  O   UNL A   1      54.793  26.486  21.836  1.00  0.00    -0.237 OA
ATOM     98  O   UNL A   1      52.932  26.086  20.272  1.00  0.00    -0.744 OA
ENDBRANCH  94  95
ENDBRANCH  68  89
ENDBRANCH  42  43
ENDBRANCH  35  37
ENDBRANCH  34  35
ENDBRANCH  33  34
ENDBRANCH  32  33
ENDBRANCH  31  32
ENDBRANCH  30  31
ENDBRANCH  29  30
ENDBRANCH   1  29
TORSDOF 26
ENDMDL
MODEL 2
REMARK VINA RESULT:      -7.6      7.376     12.647
REMARK SMILES C[C@H]1[C@H](C(=O)OCCOCCOCCOCCOC(=O)c2ccc(-c3c4nc(c(-c5ccc(S(=O)(=O)[O-])cc5)c5ccc([nH]5)c(-c5ccc(S(=O)(=O)[O-])cc5)c5nc(c(-c6ccc(S(=O)(=O)[O-])cc6)c6ccc3[nH]6)C=C5)C=C4)cc2)CC[N@@H+]1Cc1nnnn1-c1ccccc1
REMARK SMILES IDX 12 1 11 2 10 3 9 4 8 5 7 6 6 7 4 8 5 9 3 10 1 11 2 12 83 13
REMARK SMILES IDX 81 14 82 15 84 17 85 18 86 19 89 20 87 21 88 22 90 23 91 24
REMARK SMILES IDX 95 25 92 26 94 27 93 28 13 29 14 30 15 31 16 32 17 33 18 34
REMARK SMILES IDX 19 35 20 36 21 37 22 38 80 39 23 40 79 41 24 42 25 43 26 44
REMARK SMILES IDX 73 45 27 46 78 47 72 48 74 49 28 50 77 51 71 52 70 53 29 55
REMARK SMILES IDX 59 56 40 57 58 58 41 59 44 60 57 61 75 62 42 63 43 64 56 66
REMARK SMILES IDX 76 67 45 68 30 69 31 70 39 71 32 72 38 73 33 74 34 75 35 76
REMARK SMILES IDX 36 77 37 78 60 79 61 80 69 81 62 82 68 83 63 84 64 85 65 86
REMARK SMILES IDX 66 87 67 88 46 89 47 90 55 91 48 92 54 93 49 94 50 95 51 96
REMARK SMILES IDX 52 97 53 98
REMARK H PARENT 83 16 74 54 44 65
REMARK Flexibility Score: inf
ROOT
ATOM      1  O   UNL A   1      34.291  32.197  28.349  1.00  0.00    -0.377 OA
ENDROOT
BRANCH   1   2
ATOM      2  C   UNL A   1      35.637  32.099  27.977  1.00  0.00     0.188 C 
BRANCH   2   3
ATOM      3  C   UNL A   1      36.766  32.236  28.998  1.00  0.00     0.188 C 
BRANCH   3   4
ATOM      4  O   UNL A   1      37.490  33.449  29.118  1.00  0.00    -0.376 OA
BRANCH   4   5
ATOM      5  C   UNL A   1      38.786  33.519  29.691  1.00  0.00     0.202 C 
BRANCH   5   6
ATOM      6  C   UNL A   1      39.712  34.738  29.529  1.00  0.00     0.261 C 
BRANCH   6   7
ATOM      7  O   UNL A   1      41.024  34.613  30.110  1.00  0.00    -0.463 OA
BRANCH   7   8
ATOM      8  C   UNL A   1      42.079  34.909  29.327  1.00  0.00     0.315 C 
ATOM      9  O   UNL A   1      42.054  35.769  28.449  1.00  0.00    -0.252 OA
BRANCH   8  10
ATOM     10  C   UNL A   1      43.358  34.117  29.605  1.00  0.00     0.162 C 
ATOM     11  C   UNL A   1      45.866  34.232  29.310  1.00  0.00     0.076 C 
ATOM     12  C   UNL A   1      44.663  34.737  30.143  1.00  0.00     0.195 C 
ATOM     13  N   UNL A   1      44.879  34.204  31.488  1.00  0.00    -0.326 N 
ATOM     14  C   UNL A   1      43.020  33.014  30.597  1.00  0.00     0.083 C 
ATOM     15  C   UNL A   1      44.182  32.937  31.569  1.00  0.00     0.263 C 
ATOM     16  H   UNL A   1      45.865  33.998  31.646  1.00  0.00     0.348 HD
BRANCH  13  17
ATOM     17  C   UNL A   1      44.800  35.164  32.598  1.00  0.00     0.343 C 
BRANCH  17  18
ATOM     18  C   UNL A   1      43.553  35.213  33.418  1.00  0.00     0.210 A 
ATOM     19  N   UNL A   1      42.376  35.649  33.005  1.00  0.00    -0.107 NA
ATOM     20  N   UNL A   1      43.398  34.750  34.713  1.00  0.00    -0.192 N 
ATOM     21  N   UNL A   1      41.487  35.366  34.006  1.00  0.00    -0.023 NA
ATOM     22  N   UNL A   1      42.080  34.726  35.002  1.00  0.00    -0.040 NA
BRANCH  20  23
ATOM     23  C   UNL A   1      44.363  34.199  35.576  1.00  0.00     0.069 A 
ATOM     24  C   UNL A   1      45.232  33.221  35.079  1.00  0.00     0.028 A 
ATOM     25  C   UNL A   1      44.551  34.738  36.854  1.00  0.00     0.028 A 
ATOM     26  C   UNL A   1      46.389  32.919  35.796  1.00  0.00     0.002 A 
ATOM     27  C   UNL A   1      45.687  34.393  37.583  1.00  0.00     0.002 A 
ATOM     28  C   UNL A   1      46.625  33.519  37.035  1.00  0.00     0.000 A 
ENDBRANCH  20  23
ENDBRANCH  17  18
ENDBRANCH  13  17
ENDBRANCH   8  10
ENDBRANCH   7   8
ENDBRANCH   6   7
ENDBRANCH   5   6
ENDBRANCH   4   5
ENDBRANCH   3   4
ENDBRANCH   2   3
ENDBRANCH   1   2
BRANCH   1  29
ATOM     29  C   UNL A   1      33.574  33.171  27.630  1.00  0.00     0.188 C 
BRANCH  29  30
ATOM     30  C   UNL A   1      34.137  34.553  27.925  1.00  0.00     0.188 C 
BRANCH  30  31
ATOM     31  O   UNL A   1      34.341  34.941  29.274  1.00  0.00    -0.376 OA
BRANCH  31  32
ATOM     32  C   UNL A   1      33.373  34.787  30.302  1.00  0.00     0.202 C 
BRANCH  32  33
ATOM     33  C   UNL A   1      32.836  35.873  31.268  1.00  0.00     0.261 C 
BRANCH  33  34
ATOM     34  O   UNL A   1      32.975  35.711  32.677  1.00  0.00    -0.460 OA
BRANCH  34  35
ATOM     35  C   UNL A   1      34.019  36.337  33.250  1.00  0.00     0.338 C 
ATOM     36  O   UNL A   1      34.040  37.473  33.694  1.00  0.00    -0.246 OA
BRANCH  35  37
ATOM     37  C   UNL A   1      35.097  35.340  33.423  1.00  0.00     0.060 A 
ATOM     38  C   UNL A   1      34.939  34.368  34.417  1.00  0.00     0.016 A 
ATOM     39  C   UNL A   1      36.242  35.353  32.618  1.00  0.00     0.016 A 
ATOM     40  C   UNL A   1      35.948  33.441  34.651  1.00  0.00     0.010 A 
ATOM     41  C   UNL A   1      37.272  34.444  32.879  1.00  0.00     0.010 A 
ATOM     42  C   UNL A   1      37.146  33.522  33.932  1.00  0.00    -0.014 A 
BRANCH  42  43
ATOM     43  C   UNL A   1      38.333  32.840  34.497  1.00  0.00     0.031 A 
ATOM     44  C   UNL A   1      38.973  31.756  33.668  1.00  0.00     0.074 A 
ATOM     45  C   UNL A   1      38.891  33.240  35.652  1.00  0.00     0.049 A 
ATOM     46  N   UNL A   1      40.058  31.065  33.901  1.00  0.00    -0.248 NA
ATOM     47  C   UNL A   1      38.303  31.413  32.402  1.00  0.00     0.031 C 
ATOM     48  C   UNL A   1      38.394  34.318  36.506  1.00  0.00     0.029 A 
ATOM     49  N   UNL A   1      40.016  32.789  36.295  1.00  0.00    -0.354 N 
ATOM     50  C   UNL A   1      40.196  30.208  32.815  1.00  0.00     0.074 A 
ATOM     51  C   UNL A   1      39.068  30.437  31.943  1.00  0.00     0.031 C 
ATOM     52  C   UNL A   1      39.216  34.446  37.564  1.00  0.00     0.029 A 
ATOM     53  C   UNL A   1      40.279  33.446  37.472  1.00  0.00     0.049 A 
ATOM     54  H   UNL A   1      40.581  32.063  35.945  1.00  0.00     0.167 HD
ATOM     55  C   UNL A   1      41.181  29.317  32.559  1.00  0.00     0.031 A 
ATOM     56  C   UNL A   1      41.261  33.253  38.374  1.00  0.00     0.031 A 
ATOM     57  C   UNL A   1      42.294  29.082  33.438  1.00  0.00     0.049 A 
ATOM     58  C   UNL A   1      42.305  32.198  38.106  1.00  0.00     0.074 A 
ATOM     59  C   UNL A   1      43.349  28.201  33.275  1.00  0.00     0.029 A 
ATOM     60  N   UNL A   1      42.494  29.726  34.650  1.00  0.00    -0.354 N 
ATOM     61  N   UNL A   1      42.434  31.406  37.066  1.00  0.00    -0.248 NA
ATOM     62  C   UNL A   1      43.349  32.024  39.126  1.00  0.00     0.031 C 
ATOM     63  C   UNL A   1      44.151  28.267  34.419  1.00  0.00     0.029 A 
ATOM     64  C   UNL A   1      43.638  29.242  35.259  1.00  0.00     0.049 A 
ATOM     65  H   UNL A   1      41.907  30.424  35.022  1.00  0.00     0.167 HD
ATOM     66  C   UNL A   1      43.590  30.664  37.294  1.00  0.00     0.074 A 
ATOM     67  C   UNL A   1      44.131  31.116  38.559  1.00  0.00     0.031 C 
ATOM     68  C   UNL A   1      44.158  29.700  36.524  1.00  0.00     0.031 A 
BRANCH  55  69
ATOM     69  C   UNL A   1      41.069  28.500  31.298  1.00  0.00    -0.014 A 
ATOM     70  C   UNL A   1      39.860  27.882  30.928  1.00  0.00     0.010 A 
ATOM     71  C   UNL A   1      42.189  28.366  30.458  1.00  0.00     0.010 A 
ATOM     72  C   UNL A   1      39.785  27.116  29.761  1.00  0.00     0.020 A 
ATOM     73  C   UNL A   1      42.110  27.627  29.276  1.00  0.00     0.020 A 
ATOM     74  C   UNL A   1      40.912  26.993  28.942  1.00  0.00     0.054 A 
BRANCH  74  75
ATOM     75  S   UNL A   1      40.779  26.016  27.420  1.00  0.00     0.124 S 
ATOM     76  O   UNL A   1      40.226  26.992  26.483  1.00  0.00    -0.237 OA
ATOM     77  O   UNL A   1      42.164  25.623  27.171  1.00  0.00    -0.237 OA
ATOM     78  O   UNL A   1      39.880  24.925  27.784  1.00  0.00    -0.744 OA
ENDBRANCH  74  75
ENDBRANCH  55  69
BRANCH  56  79
ATOM     79  C   UNL A   1      41.300  34.065  39.622  1.00  0.00    -0.014 A 
ATOM     80  C   UNL A   1      40.608  33.658  40.776  1.00  0.00     0.010 A 
ATOM     81  C   UNL A   1      42.027  35.271  39.655  1.00  0.00     0.010 A 
ATOM     82  C   UNL A   1      40.625  34.449  41.930  1.00  0.00     0.020 A 
ATOM     83  C   UNL A   1      42.072  36.047  40.815  1.00  0.00     0.020 A 
ATOM     84  C   UNL A   1      41.360  35.638  41.942  1.00  0.00     0.054 A 
BRANCH  84  85
ATOM     85  S   UNL A   1      41.403  36.625  43.464  1.00  0.00     0.124 S 
ATOM     86  O   UNL A   1      39.984  36.790  43.760  1.00  0.00    -0.237 OA
ATOM     87  O   UNL A   1      42.145  35.761  44.379  1.00  0.00    -0.237 OA
ATOM     88  O   UNL A   1      42.104  37.843  43.063  1.00  0.00    -0.744 OA
ENDBRANCH  84  85
ENDBRANCH  56  79
BRANCH  68  89
ATOM     89  C   UNL A   1      45.454  29.101  37.008  1.00  0.00    -0.014 A 
ATOM     90  C   UNL A   1      46.700  29.631  36.626  1.00  0.00     0.010 A 
ATOM     91  C   UNL A   1      45.420  28.003  37.889  1.00  0.00     0.010 A 
ATOM     92  C   UNL A   1      47.886  29.041  37.073  1.00  0.00     0.020 A 
ATOM     93  C   UNL A   1      46.602  27.434  38.368  1.00  0.00     0.020 A 
ATOM     94  C   UNL A   1      47.829  27.944  37.938  1.00  0.00     0.054 A 
BRANCH  94  95
ATOM     95  S   UNL A   1      49.382  27.204  38.513  1.00  0.00     0.124 S 
ATOM     96  O   UNL A   1      50.125  28.376  38.969  1.00  0.00    -0.237 OA
ATOM     97  O   UNL A   1      48.933  26.297  39.566  1.00  0.00    -0.237 OA
ATOM     98  O   UNL A   1      49.918  26.550  37.322  1.00  0.00    -0.744 OA
ENDBRANCH  94  95
ENDBRANCH  68  89
ENDBRANCH  42  43
ENDBRANCH  35  37
ENDBRANCH  34  35
ENDBRANCH  33  34
ENDBRANCH  32  33
ENDBRANCH  31  32
ENDBRANCH  30  31
ENDBRANCH  29  30
ENDBRANCH   1  29
TORSDOF 26
ENDMDL
MODEL 3
REMARK VINA RESULT:      -7.2      6.111     12.740
REMARK SMILES C[C@H]1[C@H](C(=O)OCCOCCOCCOCCOC(=O)c2ccc(-c3c4nc(c(-c5ccc(S(=O)(=O)[O-])cc5)c5ccc([nH]5)c(-c5ccc(S(=O)(=O)[O-])cc5)c5nc(c(-c6ccc(S(=O)(=O)[O-])cc6)c6ccc3[nH]6)C=C5)C=C4)cc2)CC[N@@H+]1Cc1nnnn1-c1ccccc1
REMARK SMILES IDX 12 1 11 2 10 3 9 4 8 5 7 6 6 7 4 8 5 9 3 10 1 11 2 12 83 13
REMARK SMILES IDX 81 14 82 15 84 17 85 18 86 19 89 20 87 21 88 22 90 23 91 24
REMARK SMILES IDX 95 25 92 26 94 27 93 28 13 29 14 30 15 31 16 32 17 33 18 34
REMARK SMILES IDX 19 35 20 36 21 37 22 38 80 39 23 40 79 41 24 42 25 43 26 44
REMARK SMILES IDX 73 45 27 46 78 47 72 48 74 49 28 50 77 51 71 52 70 53 29 55
REMARK SMILES IDX 59 56 40 57 58 58 41 59 44 60 57 61 75 62 42 63 43 64 56 66
REMARK SMILES IDX 76 67 45 68 30 69 31 70 39 71 32 72 38 73 33 74 34 75 35 76
REMARK SMILES IDX 36 77 37 78 60 79 61 80 69 81 62 82 68 83 63 84 64 85 65 86
REMARK SMILES IDX 66 87 67 88 46 89 47 90 55 91 48 92 54 93 49 94 50 95 51 96
REMARK SMILES IDX 52 97 53 98
REMARK H PARENT 83 16 74 54 44 65
REMARK Flexibility Score: inf
ROOT
ATOM      1  O   UNL A   1      55.126  28.356  36.346  1.00  0.00    -0.377 OA
ENDROOT
BRANCH   1   2
ATOM      2  C   UNL A   1      53.745  28.477  36.151  1.00  0.00     0.188 C 
BRANCH   2   3
ATOM      3  C   UNL A   1      52.918  29.531  36.887  1.00  0.00     0.188 C 
BRANCH   3   4
ATOM      4  O   UNL A   1      51.521  29.365  37.059  1.00  0.00    -0.376 OA
BRANCH   4   5
ATOM      5  C   UNL A   1      50.801  29.952  38.131  1.00  0.00     0.202 C 
BRANCH   5   6
ATOM      6  C   UNL A   1      49.494  29.361  38.690  1.00  0.00     0.261 C 
BRANCH   6   7
ATOM      7  O   UNL A   1      48.312  29.583  37.896  1.00  0.00    -0.463 OA
BRANCH   7   8
ATOM      8  C   UNL A   1      47.882  28.564  37.129  1.00  0.00     0.315 C 
ATOM      9  O   UNL A   1      48.009  28.531  35.907  1.00  0.00    -0.252 OA
BRANCH   8  10
ATOM     10  C   UNL A   1      47.226  27.400  37.874  1.00  0.00     0.162 C 
ATOM     11  C   UNL A   1      45.802  26.890  39.901  1.00  0.00     0.076 C 
ATOM     12  C   UNL A   1      45.796  27.433  38.451  1.00  0.00     0.195 C 
ATOM     13  N   UNL A   1      44.993  26.478  37.688  1.00  0.00    -0.326 N 
ATOM     14  C   UNL A   1      47.239  26.188  36.953  1.00  0.00     0.083 C 
ATOM     15  C   UNL A   1      45.901  25.496  37.132  1.00  0.00     0.263 C 
ATOM     16  H   UNL A   1      44.357  25.965  38.298  1.00  0.00     0.348 HD
BRANCH  13  17
ATOM     17  C   UNL A   1      43.912  27.035  36.864  1.00  0.00     0.343 C 
BRANCH  17  18
ATOM     18  C   UNL A   1      42.565  26.391  36.915  1.00  0.00     0.210 A 
ATOM     19  N   UNL A   1      41.605  26.679  37.776  1.00  0.00    -0.107 NA
ATOM     20  N   UNL A   1      42.070  25.444  36.035  1.00  0.00    -0.192 N 
ATOM     21  N   UNL A   1      40.499  25.984  37.368  1.00  0.00    -0.023 NA
ATOM     22  N   UNL A   1      40.744  25.314  36.252  1.00  0.00    -0.040 NA
BRANCH  20  23
ATOM     23  C   UNL A   1      42.715  24.820  34.952  1.00  0.00     0.069 A 
ATOM     24  C   UNL A   1      43.553  25.588  34.135  1.00  0.00     0.028 A 
ATOM     25  C   UNL A   1      42.645  23.432  34.797  1.00  0.00     0.028 A 
ATOM     26  C   UNL A   1      44.450  24.938  33.288  1.00  0.00     0.002 A 
ATOM     27  C   UNL A   1      43.513  22.795  33.913  1.00  0.00     0.002 A 
ATOM     28  C   UNL A   1      44.444  23.544  33.193  1.00  0.00     0.000 A 
ENDBRANCH  20  23
ENDBRANCH  17  18
ENDBRANCH  13  17
ENDBRANCH   8  10
ENDBRANCH   7   8
ENDBRANCH   6   7
ENDBRANCH   5   6
ENDBRANCH   4   5
ENDBRANCH   3   4
ENDBRANCH   2   3
ENDBRANCH   1   2
BRANCH   1  29
ATOM     29  C   UNL A   1      55.805  27.792  35.251  1.00  0.00     0.188 C 
BRANCH  29  30
ATOM     30  C   UNL A   1      54.910  26.782  34.549  1.00  0.00     0.188 C 
BRANCH  30  31
ATOM     31  O   UNL A   1      54.808  25.469  35.073  1.00  0.00    -0.376 OA
BRANCH  31  32
ATOM     32  C   UNL A   1      53.588  24.753  35.197  1.00  0.00     0.202 C 
BRANCH  32  33
ATOM     33  C   UNL A   1      52.796  24.029  34.079  1.00  0.00     0.261 C 
BRANCH  33  34
ATOM     34  O   UNL A   1      52.075  24.782  33.107  1.00  0.00    -0.460 OA
BRANCH  34  35
ATOM     35  C   UNL A   1      51.034  24.163  32.524  1.00  0.00     0.338 C 
ATOM     36  O   UNL A   1      50.886  22.961  32.371  1.00  0.00    -0.246 OA
BRANCH  35  37
ATOM     37  C   UNL A   1      49.996  25.183  32.261  1.00  0.00     0.060 A 
ATOM     38  C   UNL A   1      48.987  25.353  33.215  1.00  0.00     0.016 A 
ATOM     39  C   UNL A   1      50.018  25.967  31.102  1.00  0.00     0.016 A 
ATOM     40  C   UNL A   1      47.961  26.263  32.990  1.00  0.00     0.010 A 
ATOM     41  C   UNL A   1      48.966  26.856  30.858  1.00  0.00     0.010 A 
ATOM     42  C   UNL A   1      47.909  26.964  31.779  1.00  0.00    -0.014 A 
BRANCH  42  43
ATOM     43  C   UNL A   1      46.612  27.561  31.386  1.00  0.00     0.031 A 
ATOM     44  C   UNL A   1      45.660  26.701  30.596  1.00  0.00     0.074 A 
ATOM     45  C   UNL A   1      46.244  28.783  31.809  1.00  0.00     0.049 A 
ATOM     46  N   UNL A   1      44.441  26.960  30.200  1.00  0.00    -0.248 NA
ATOM     47  C   UNL A   1      46.146  25.365  30.210  1.00  0.00     0.031 C 
ATOM     48  C   UNL A   1      47.057  29.678  32.629  1.00  0.00     0.029 A 
ATOM     49  N   UNL A   1      45.072  29.471  31.615  1.00  0.00    -0.354 N 
ATOM     50  C   UNL A   1      44.020  25.824  29.518  1.00  0.00     0.074 A 
ATOM     51  C   UNL A   1      45.123  24.890  29.520  1.00  0.00     0.031 C 
ATOM     52  C   UNL A   1      46.356  30.802  32.870  1.00  0.00     0.029 A 
ATOM     53  C   UNL A   1      45.058  30.711  32.202  1.00  0.00     0.049 A 
ATOM     54  H   UNL A   1      44.315  29.109  31.101  1.00  0.00     0.167 HD
ATOM     55  C   UNL A   1      42.819  25.573  28.950  1.00  0.00     0.031 A 
ATOM     56  C   UNL A   1      44.108  31.667  32.192  1.00  0.00     0.031 A 
ATOM     57  C   UNL A   1      41.730  26.513  28.936  1.00  0.00     0.049 A 
ATOM     58  C   UNL A   1      42.804  31.397  31.484  1.00  0.00     0.074 A 
ATOM     59  C   UNL A   1      40.469  26.360  28.388  1.00  0.00     0.029 A 
ATOM     60  N   UNL A   1      41.775  27.782  29.491  1.00  0.00    -0.354 N 
ATOM     61  N   UNL A   1      42.413  30.311  30.857  1.00  0.00    -0.248 NA
ATOM     62  C   UNL A   1      41.807  32.475  31.498  1.00  0.00     0.031 C 
ATOM     63  C   UNL A   1      39.775  27.563  28.555  1.00  0.00     0.029 A 
ATOM     64  C   UNL A   1      40.575  28.436  29.274  1.00  0.00     0.049 A 
ATOM     65  H   UNL A   1      42.548  28.162  29.969  1.00  0.00     0.167 HD
ATOM     66  C   UNL A   1      41.112  30.566  30.431  1.00  0.00     0.074 A 
ATOM     67  C   UNL A   1      40.779  31.900  30.889  1.00  0.00     0.031 C 
ATOM     68  C   UNL A   1      40.264  29.768  29.731  1.00  0.00     0.031 A 
BRANCH  55  69
ATOM     69  C   UNL A   1      42.640  24.248  28.257  1.00  0.00    -0.014 A 
ATOM     70  C   UNL A   1      43.058  24.052  26.927  1.00  0.00     0.010 A 
ATOM     71  C   UNL A   1      42.063  23.173  28.956  1.00  0.00     0.010 A 
ATOM     72  C   UNL A   1      42.867  22.817  26.300  1.00  0.00     0.020 A 
ATOM     73  C   UNL A   1      41.898  21.929  28.343  1.00  0.00     0.020 A 
ATOM     74  C   UNL A   1      42.287  21.762  27.013  1.00  0.00     0.054 A 
BRANCH  74  75
ATOM     75  S   UNL A   1      42.077  20.163  26.185  1.00  0.00     0.124 S 
ATOM     76  O   UNL A   1      42.990  20.289  25.050  1.00  0.00    -0.237 OA
ATOM     77  O   UNL A   1      42.485  19.213  27.216  1.00  0.00    -0.237 OA
ATOM     78  O   UNL A   1      40.658  20.134  25.840  1.00  0.00    -0.744 OA
ENDBRANCH  74  75
ENDBRANCH  55  69
BRANCH  56  79
ATOM     79  C   UNL A   1      44.355  32.974  32.863  1.00  0.00    -0.014 A 
ATOM     80  C   UNL A   1      44.806  34.090  32.137  1.00  0.00     0.010 A 
ATOM     81  C   UNL A   1      44.150  33.103  34.251  1.00  0.00     0.010 A 
ATOM     82  C   UNL A   1      45.067  35.301  32.786  1.00  0.00     0.020 A 
ATOM     83  C   UNL A   1      44.380  34.320  34.897  1.00  0.00     0.020 A 
ATOM     84  C   UNL A   1      44.850  35.409  34.162  1.00  0.00     0.054 A 
BRANCH  84  85
ATOM     85  S   UNL A   1      45.153  37.002  34.976  1.00  0.00     0.124 S 
ATOM     86  O   UNL A   1      44.000  37.116  35.862  1.00  0.00    -0.237 OA
ATOM     87  O   UNL A   1      46.437  36.779  35.636  1.00  0.00    -0.237 OA
ATOM     88  O   UNL A   1      45.188  37.952  33.868  1.00  0.00    -0.744 OA
ENDBRANCH  84  85
ENDBRANCH  56  79
BRANCH  68  89
ATOM     89  C   UNL A   1      38.881  30.299  29.455  1.00  0.00    -0.014 A 
ATOM     90  C   UNL A   1      37.737  29.495  29.610  1.00  0.00     0.010 A 
ATOM     91  C   UNL A   1      38.723  31.642  29.062  1.00  0.00     0.010 A 
ATOM     92  C   UNL A   1      36.468  30.008  29.326  1.00  0.00     0.020 A 
ATOM     93  C   UNL A   1      37.454  32.170  28.813  1.00  0.00     0.020 A 
ATOM     94  C   UNL A   1      36.336  31.341  28.926  1.00  0.00     0.054 A 
BRANCH  94  95
ATOM     95  S   UNL A   1      34.678  31.987  28.574  1.00  0.00     0.124 S 
ATOM     96  O   UNL A   1      34.227  32.402  29.901  1.00  0.00    -0.237 OA
ATOM     97  O   UNL A   1      34.948  33.071  27.635  1.00  0.00    -0.237 OA
ATOM     98  O   UNL A   1      33.971  30.840  28.007  1.00  0.00    -0.744 OA
ENDBRANCH  94  95
ENDBRANCH  68  89
ENDBRANCH  42  43
ENDBRANCH  35  37
ENDBRANCH  34  35
ENDBRANCH  33  34
ENDBRANCH  32  33
ENDBRANCH  31  32
ENDBRANCH  30  31
ENDBRANCH  29  30
ENDBRANCH   1  29
TORSDOF 26
ENDMDL
