MODEL 1
REMARK VINA RESULT:      -9.6      0.000      0.000
REMARK SMILES O=C(OCCOCCOCCOCCOC(=O)[C@@H]1CS[C@@H](c2cc(Br)ccc2O)[NH2+]1)c1ccc(-c2c3nc(c(-c4ccc(S(=O)(=O)[O-])cc4)c4ccc([nH]4)c(-c4ccc(S(=O)(=O)[O-])cc4)c4nc(c(-c5ccc(S(=O)(=O)[O-])cc5)c5ccc2[nH]5)C=C4)C=C3)cc1
REMARK SMILES IDX 8 1 7 2 6 3 5 4 4 5 3 6 2 7 1 8 31 9 32 10 90 11 33 12 89 13
REMARK SMILES IDX 34 14 35 15 36 16 83 17 37 18 88 19 82 20 84 21 38 22 87 23
REMARK SMILES IDX 81 24 80 25 39 27 69 28 50 29 68 30 51 31 54 32 67 33 85 34
REMARK SMILES IDX 52 35 53 36 66 38 86 39 55 40 40 41 41 42 49 43 42 44 48 45
REMARK SMILES IDX 43 46 44 47 45 48 46 49 47 50 70 51 71 52 79 53 72 54 78 55
REMARK SMILES IDX 73 56 74 57 75 58 76 59 77 60 56 61 57 62 65 63 58 64 64 65
REMARK SMILES IDX 59 66 60 67 61 68 62 69 63 70 9 71 10 72 11 73 12 74 13 75
REMARK SMILES IDX 14 76 15 77 16 78 17 79 18 80 19 81 30 82 20 83 21 84 22 87
REMARK SMILES IDX 23 88 28 89 24 90 27 91 25 92 26 93 29 94
REMARK H PARENT 84 26 54 37 30 85 30 86 29 95
REMARK Flexibility Score: inf
ROOT
ATOM      1  C   UNL A   1      33.864  24.154  26.113  1.00  0.00     0.188 C 
ENDROOT
BRANCH   1   2
ATOM      2  C   UNL A   1      35.298  23.781  25.791  1.00  0.00     0.188 C 
BRANCH   2   3
ATOM      3  O   UNL A   1      35.339  22.573  25.045  1.00  0.00    -0.376 OA
BRANCH   3   4
ATOM      4  C   UNL A   1      36.037  21.472  25.619  1.00  0.00     0.202 C 
BRANCH   4   5
ATOM      5  C   UNL A   1      37.494  21.324  25.188  1.00  0.00     0.261 C 
BRANCH   5   6
ATOM      6  O   UNL A   1      38.290  22.504  25.379  1.00  0.00    -0.460 OA
BRANCH   6   7
ATOM      7  C   UNL A   1      39.246  22.752  26.307  1.00  0.00     0.338 C 
ATOM      8  O   UNL A   1      39.927  21.805  26.702  1.00  0.00    -0.246 OA
BRANCH   7   9
ATOM      9  C   UNL A   1      39.525  24.096  26.896  1.00  0.00     0.060 A 
ATOM     10  C   UNL A   1      40.137  25.154  26.232  1.00  0.00     0.016 A 
ATOM     11  C   UNL A   1      39.040  24.340  28.191  1.00  0.00     0.016 A 
ATOM     12  C   UNL A   1      40.327  26.388  26.815  1.00  0.00     0.010 A 
ATOM     13  C   UNL A   1      39.213  25.589  28.796  1.00  0.00     0.010 A 
ATOM     14  C   UNL A   1      39.888  26.603  28.109  1.00  0.00    -0.014 A 
BRANCH  14  15
ATOM     15  C   UNL A   1      40.381  27.823  28.756  1.00  0.00     0.031 A 
ATOM     16  C   UNL A   1      41.843  27.876  29.067  1.00  0.00     0.074 A 
ATOM     17  C   UNL A   1      39.583  28.901  28.844  1.00  0.00     0.049 A 
ATOM     18  N   UNL A   1      42.523  28.803  29.677  1.00  0.00    -0.248 NA
ATOM     19  C   UNL A   1      42.657  26.730  28.613  1.00  0.00     0.031 C 
ATOM     20  C   UNL A   1      38.200  28.975  28.357  1.00  0.00     0.029 A 
ATOM     21  N   UNL A   1      39.831  30.153  29.331  1.00  0.00    -0.354 N 
ATOM     22  C   UNL A   1      43.828  28.329  29.730  1.00  0.00     0.074 A 
ATOM     23  C   UNL A   1      43.854  27.041  29.081  1.00  0.00     0.031 C 
ATOM     24  C   UNL A   1      37.728  30.214  28.563  1.00  0.00     0.029 A 
ATOM     25  C   UNL A   1      38.740  30.987  29.271  1.00  0.00     0.049 A 
ATOM     26  H   UNL A   1      40.705  30.431  29.688  1.00  0.00     0.167 HD
ATOM     27  C   UNL A   1      44.898  28.925  30.298  1.00  0.00     0.031 A 
ATOM     28  C   UNL A   1      38.576  32.218  29.790  1.00  0.00     0.031 A 
ATOM     29  C   UNL A   1      44.813  30.208  30.934  1.00  0.00     0.049 A 
ATOM     30  C   UNL A   1      39.747  32.810  30.527  1.00  0.00     0.074 A 
ATOM     31  C   UNL A   1      45.787  30.901  31.620  1.00  0.00     0.029 A 
ATOM     32  N   UNL A   1      43.664  30.992  30.952  1.00  0.00    -0.354 N 
ATOM     33  N   UNL A   1      40.956  32.315  30.678  1.00  0.00    -0.248 NA
ATOM     34  C   UNL A   1      39.536  34.107  31.175  1.00  0.00     0.031 C 
ATOM     35  C   UNL A   1      45.209  32.078  32.108  1.00  0.00     0.029 A 
ATOM     36  C   UNL A   1      43.895  32.153  31.660  1.00  0.00     0.049 A 
ATOM     37  H   UNL A   1      42.811  30.753  30.522  1.00  0.00     0.167 HD
ATOM     38  C   UNL A   1      41.659  33.250  31.425  1.00  0.00     0.074 A 
ATOM     39  C   UNL A   1      40.742  34.349  31.674  1.00  0.00     0.031 C 
ATOM     40  C   UNL A   1      42.939  33.212  31.871  1.00  0.00     0.031 A 
BRANCH  27  41
ATOM     41  C   UNL A   1      46.177  28.138  30.346  1.00  0.00    -0.014 A 
ATOM     42  C   UNL A   1      46.383  27.100  31.272  1.00  0.00     0.010 A 
ATOM     43  C   UNL A   1      47.216  28.481  29.461  1.00  0.00     0.010 A 
ATOM     44  C   UNL A   1      47.616  26.441  31.334  1.00  0.00     0.020 A 
ATOM     45  C   UNL A   1      48.439  27.808  29.499  1.00  0.00     0.020 A 
ATOM     46  C   UNL A   1      48.636  26.802  30.446  1.00  0.00     0.054 A 
BRANCH  46  47
ATOM     47  S   UNL A   1      50.216  25.916  30.534  1.00  0.00     0.124 S 
ATOM     48  O   UNL A   1      51.175  26.976  30.244  1.00  0.00    -0.237 OA
ATOM     49  O   UNL A   1      50.226  25.414  31.902  1.00  0.00    -0.237 OA
ATOM     50  O   UNL A   1      50.095  24.887  29.496  1.00  0.00    -0.744 OA
ENDBRANCH  46  47
ENDBRANCH  27  41
BRANCH  28  51
ATOM     51  C   UNL A   1      37.254  32.901  29.711  1.00  0.00    -0.014 A 
ATOM     52  C   UNL A   1      36.280  32.728  30.708  1.00  0.00     0.010 A 
ATOM     53  C   UNL A   1      36.964  33.747  28.621  1.00  0.00     0.010 A 
ATOM     54  C   UNL A   1      35.039  33.370  30.608  1.00  0.00     0.020 A 
ATOM     55  C   UNL A   1      35.741  34.417  28.533  1.00  0.00     0.020 A 
ATOM     56  C   UNL A   1      34.779  34.212  29.522  1.00  0.00     0.054 A 
BRANCH  56  57
ATOM     57  S   UNL A   1      33.177  35.062  29.432  1.00  0.00     0.124 S 
ATOM     58  O   UNL A   1      33.565  36.391  28.969  1.00  0.00    -0.237 OA
ATOM     59  O   UNL A   1      32.442  34.244  28.470  1.00  0.00    -0.237 OA
ATOM     60  O   UNL A   1      32.678  34.998  30.804  1.00  0.00    -0.744 OA
ENDBRANCH  56  57
ENDBRANCH  28  51
BRANCH  40  61
ATOM     61  C   UNL A   1      43.425  34.412  32.631  1.00  0.00    -0.014 A 
ATOM     62  C   UNL A   1      43.371  34.457  34.034  1.00  0.00     0.010 A 
ATOM     63  C   UNL A   1      44.016  35.474  31.922  1.00  0.00     0.010 A 
ATOM     64  C   UNL A   1      43.874  35.564  34.716  1.00  0.00     0.020 A 
ATOM     65  C   UNL A   1      44.552  36.566  32.603  1.00  0.00     0.020 A 
ATOM     66  C   UNL A   1      44.465  36.609  33.997  1.00  0.00     0.054 A 
BRANCH  66  67
ATOM     67  S   UNL A   1      45.163  38.008  34.910  1.00  0.00     0.124 S 
ATOM     68  O   UNL A   1      43.966  38.627  35.474  1.00  0.00    -0.237 OA
ATOM     69  O   UNL A   1      46.046  37.353  35.871  1.00  0.00    -0.237 OA
ATOM     70  O   UNL A   1      45.842  38.791  33.880  1.00  0.00    -0.744 OA
ENDBRANCH  66  67
ENDBRANCH  40  61
ENDBRANCH  14  15
ENDBRANCH   7   9
ENDBRANCH   6   7
ENDBRANCH   5   6
ENDBRANCH   4   5
ENDBRANCH   3   4
ENDBRANCH   2   3
ENDBRANCH   1   2
BRANCH   1  71
ATOM     71  O   UNL A   1      33.236  23.248  27.010  1.00  0.00    -0.377 OA
BRANCH  71  72
ATOM     72  C   UNL A   1      31.821  23.106  26.942  1.00  0.00     0.188 C 
BRANCH  72  73
ATOM     73  C   UNL A   1      31.140  22.763  25.609  1.00  0.00     0.188 C 
BRANCH  73  74
ATOM     74  O   UNL A   1      31.880  21.904  24.758  1.00  0.00    -0.376 OA
BRANCH  74  75
ATOM     75  C   UNL A   1      31.947  22.347  23.403  1.00  0.00     0.202 C 
BRANCH  75  76
ATOM     76  C   UNL A   1      31.458  23.784  23.124  1.00  0.00     0.261 C 
BRANCH  76  77
ATOM     77  O   UNL A   1      32.153  24.498  22.078  1.00  0.00    -0.459 OA
BRANCH  77  78
ATOM     78  C   UNL A   1      33.250  25.217  22.395  1.00  0.00     0.365 C 
ATOM     79  O   UNL A   1      34.373  24.726  22.478  1.00  0.00    -0.245 OA
BRANCH  78  80
ATOM     80  C   UNL A   1      33.023  26.739  22.538  1.00  0.00     0.304 C 
ATOM     81  C   UNL A   1      33.431  27.238  23.911  1.00  0.00     0.153 C 
ATOM     82  N   UNL A   1      31.685  27.304  22.233  1.00  0.00    -0.319 N 
ATOM     83  S   UNL A   1      31.880  27.453  24.838  1.00  0.00    -0.087 SA
ATOM     84  C   UNL A   1      30.801  27.181  23.390  1.00  0.00     0.278 C 
ATOM     85  H   UNL A   1      31.279  26.799  21.445  1.00  0.00     0.348 HD
ATOM     86  H   UNL A   1      31.789  28.292  22.002  1.00  0.00     0.348 HD
BRANCH  84  87
ATOM     87  C   UNL A   1      29.600  28.129  23.269  1.00  0.00     0.063 A 
ATOM     88  C   UNL A   1      29.718  29.489  22.921  1.00  0.00     0.030 A 
ATOM     89  C   UNL A   1      28.290  27.643  23.440  1.00  0.00     0.125 A 
ATOM     90  C   UNL A   1      28.585  30.307  22.791  1.00  0.00     0.018 A 
ATOM     91  C   UNL A   1      27.154  28.443  23.264  1.00  0.00     0.048 A 
ATOM     92  Br  UNL A   1      28.794  32.150  22.416  1.00  0.00    -0.051 Br
ATOM     93  C   UNL A   1      27.304  29.789  22.950  1.00  0.00     0.019 A 
BRANCH  89  94
ATOM     94  O   UNL A   1      28.095  26.356  23.842  1.00  0.00    -0.507 OA
ATOM     95  H   UNL A   1      28.762  25.714  23.698  1.00  0.00     0.293 HD
ENDBRANCH  89  94
ENDBRANCH  84  87
ENDBRANCH  78  80
ENDBRANCH  77  78
ENDBRANCH  76  77
ENDBRANCH  75  76
ENDBRANCH  74  75
ENDBRANCH  73  74
ENDBRANCH  72  73
ENDBRANCH  71  72
ENDBRANCH   1  71
TORSDOF 25
ENDMDL
MODEL 2
REMARK VINA RESULT:      -9.2      3.203      8.800
REMARK SMILES O=C(OCCOCCOCCOCCOC(=O)[C@@H]1CS[C@@H](c2cc(Br)ccc2O)[NH2+]1)c1ccc(-c2c3nc(c(-c4ccc(S(=O)(=O)[O-])cc4)c4ccc([nH]4)c(-c4ccc(S(=O)(=O)[O-])cc4)c4nc(c(-c5ccc(S(=O)(=O)[O-])cc5)c5ccc2[nH]5)C=C4)C=C3)cc1
REMARK SMILES IDX 8 1 7 2 6 3 5 4 4 5 3 6 2 7 1 8 31 9 32 10 90 11 33 12 89 13
REMARK SMILES IDX 34 14 35 15 36 16 83 17 37 18 88 19 82 20 84 21 38 22 87 23
REMARK SMILES IDX 81 24 80 25 39 27 69 28 50 29 68 30 51 31 54 32 67 33 85 34
REMARK SMILES IDX 52 35 53 36 66 38 86 39 55 40 40 41 41 42 49 43 42 44 48 45
REMARK SMILES IDX 43 46 44 47 45 48 46 49 47 50 70 51 71 52 79 53 72 54 78 55
REMARK SMILES IDX 73 56 74 57 75 58 76 59 77 60 56 61 57 62 65 63 58 64 64 65
REMARK SMILES IDX 59 66 60 67 61 68 62 69 63 70 9 71 10 72 11 73 12 74 13 75
REMARK SMILES IDX 14 76 15 77 16 78 17 79 18 80 19 81 30 82 20 83 21 84 22 87
REMARK SMILES IDX 23 88 28 89 24 90 27 91 25 92 26 93 29 94
REMARK H PARENT 84 26 54 37 30 85 30 86 29 95
REMARK Flexibility Score: inf
ROOT
ATOM      1  C   UNL A   1      35.639  23.071  25.216  1.00  0.00     0.188 C 
ENDROOT
BRANCH   1   2
ATOM      2  C   UNL A   1      35.979  21.906  24.306  1.00  0.00     0.188 C 
BRANCH   2   3
ATOM      3  O   UNL A   1      37.386  21.728  24.235  1.00  0.00    -0.376 OA
BRANCH   3   4
ATOM      4  C   UNL A   1      37.945  20.634  24.956  1.00  0.00     0.202 C 
BRANCH   4   5
ATOM      5  C   UNL A   1      38.974  21.007  26.019  1.00  0.00     0.261 C 
BRANCH   5   6
ATOM      6  O   UNL A   1      40.122  20.146  26.060  1.00  0.00    -0.460 OA
BRANCH   6   7
ATOM      7  C   UNL A   1      41.419  20.456  26.297  1.00  0.00     0.338 C 
ATOM      8  O   UNL A   1      42.248  19.546  26.251  1.00  0.00    -0.246 OA
BRANCH   7   9
ATOM      9  C   UNL A   1      41.916  21.827  26.623  1.00  0.00     0.060 A 
ATOM     10  C   UNL A   1      41.895  22.917  25.758  1.00  0.00     0.016 A 
ATOM     11  C   UNL A   1      42.344  22.056  27.940  1.00  0.00     0.016 A 
ATOM     12  C   UNL A   1      42.327  24.170  26.131  1.00  0.00     0.010 A 
ATOM     13  C   UNL A   1      42.776  23.324  28.342  1.00  0.00     0.010 A 
ATOM     14  C   UNL A   1      42.792  24.374  27.418  1.00  0.00    -0.014 A 
BRANCH  14  15
ATOM     15  C   UNL A   1      43.499  25.638  27.649  1.00  0.00     0.031 A 
ATOM     16  C   UNL A   1      42.727  26.726  28.327  1.00  0.00     0.074 A 
ATOM     17  C   UNL A   1      44.828  25.705  27.457  1.00  0.00     0.049 A 
ATOM     18  N   UNL A   1      43.090  27.945  28.602  1.00  0.00    -0.248 NA
ATOM     19  C   UNL A   1      41.360  26.388  28.773  1.00  0.00     0.031 C 
ATOM     20  C   UNL A   1      45.674  24.598  26.996  1.00  0.00     0.029 A 
ATOM     21  N   UNL A   1      45.705  26.730  27.666  1.00  0.00    -0.354 N 
ATOM     22  C   UNL A   1      41.982  28.534  29.198  1.00  0.00     0.074 A 
ATOM     23  C   UNL A   1      40.937  27.542  29.261  1.00  0.00     0.031 C 
ATOM     24  C   UNL A   1      46.953  25.006  26.968  1.00  0.00     0.029 A 
ATOM     25  C   UNL A   1      46.999  26.419  27.323  1.00  0.00     0.049 A 
ATOM     26  H   UNL A   1      45.438  27.606  28.029  1.00  0.00     0.167 HD
ATOM     27  C   UNL A   1      41.859  29.807  29.631  1.00  0.00     0.031 A 
ATOM     28  C   UNL A   1      48.080  27.217  27.253  1.00  0.00     0.031 A 
ATOM     29  C   UNL A   1      42.933  30.754  29.541  1.00  0.00     0.049 A 
ATOM     30  C   UNL A   1      47.887  28.663  27.622  1.00  0.00     0.074 A 
ATOM     31  C   UNL A   1      42.935  32.095  29.862  1.00  0.00     0.029 A 
ATOM     32  N   UNL A   1      44.211  30.440  29.090  1.00  0.00    -0.354 N 
ATOM     33  N   UNL A   1      46.806  29.254  28.083  1.00  0.00    -0.248 NA
ATOM     34  C   UNL A   1      49.040  29.551  27.452  1.00  0.00     0.031 C 
ATOM     35  C   UNL A   1      44.197  32.607  29.545  1.00  0.00     0.029 A 
ATOM     36  C   UNL A   1      45.005  31.568  29.099  1.00  0.00     0.049 A 
ATOM     37  H   UNL A   1      44.504  29.545  28.805  1.00  0.00     0.167 HD
ATOM     38  C   UNL A   1      47.153  30.584  28.275  1.00  0.00     0.074 A 
ATOM     39  C   UNL A   1      48.552  30.701  27.901  1.00  0.00     0.031 C 
ATOM     40  C   UNL A   1      46.395  31.619  28.715  1.00  0.00     0.031 A 
BRANCH  27  41
ATOM     41  C   UNL A   1      40.504  30.241  30.113  1.00  0.00    -0.014 A 
ATOM     42  C   UNL A   1      39.443  30.502  29.227  1.00  0.00     0.010 A 
ATOM     43  C   UNL A   1      40.304  30.430  31.493  1.00  0.00     0.010 A 
ATOM     44  C   UNL A   1      38.218  30.976  29.710  1.00  0.00     0.020 A 
ATOM     45  C   UNL A   1      39.075  30.876  31.983  1.00  0.00     0.020 A 
ATOM     46  C   UNL A   1      38.044  31.160  31.086  1.00  0.00     0.054 A 
BRANCH  46  47
ATOM     47  S   UNL A   1      36.439  31.755  31.685  1.00  0.00     0.124 S 
ATOM     48  O   UNL A   1      35.800  30.518  32.121  1.00  0.00    -0.237 OA
ATOM     49  O   UNL A   1      36.816  32.679  32.748  1.00  0.00    -0.237 OA
ATOM     50  O   UNL A   1      35.838  32.380  30.503  1.00  0.00    -0.744 OA
ENDBRANCH  46  47
ENDBRANCH  27  41
BRANCH  28  51
ATOM     51  C   UNL A   1      49.375  26.692  26.734  1.00  0.00    -0.014 A 
ATOM     52  C   UNL A   1      50.330  26.122  27.592  1.00  0.00     0.010 A 
ATOM     53  C   UNL A   1      49.658  26.756  25.355  1.00  0.00     0.010 A 
ATOM     54  C   UNL A   1      51.546  25.644  27.085  1.00  0.00     0.020 A 
ATOM     55  C   UNL A   1      50.854  26.251  24.839  1.00  0.00     0.020 A 
ATOM     56  C   UNL A   1      51.798  25.711  25.711  1.00  0.00     0.054 A 
BRANCH  56  57
ATOM     57  S   UNL A   1      53.365  25.054  25.072  1.00  0.00     0.124 S 
ATOM     58  O   UNL A   1      54.340  25.679  25.960  1.00  0.00    -0.237 OA
ATOM     59  O   UNL A   1      53.191  23.613  25.235  1.00  0.00    -0.237 OA
ATOM     60  O   UNL A   1      53.392  25.518  23.687  1.00  0.00    -0.744 OA
ENDBRANCH  56  57
ENDBRANCH  28  51
BRANCH  40  61
ATOM     61  C   UNL A   1      47.080  32.947  28.854  1.00  0.00    -0.014 A 
ATOM     62  C   UNL A   1      47.179  33.833  27.768  1.00  0.00     0.010 A 
ATOM     63  C   UNL A   1      47.561  33.337  30.117  1.00  0.00     0.010 A 
ATOM     64  C   UNL A   1      47.778  35.080  27.937  1.00  0.00     0.020 A 
ATOM     65  C   UNL A   1      48.127  34.598  30.298  1.00  0.00     0.020 A 
ATOM     66  C   UNL A   1      48.244  35.456  29.202  1.00  0.00     0.054 A 
BRANCH  66  67
ATOM     67  S   UNL A   1      48.966  37.104  29.409  1.00  0.00     0.124 S 
ATOM     68  O   UNL A   1      50.371  36.790  29.652  1.00  0.00    -0.237 OA
ATOM     69  O   UNL A   1      48.675  37.742  28.127  1.00  0.00    -0.237 OA
ATOM     70  O   UNL A   1      48.244  37.658  30.552  1.00  0.00    -0.744 OA
ENDBRANCH  66  67
ENDBRANCH  40  61
ENDBRANCH  14  15
ENDBRANCH   7   9
ENDBRANCH   6   7
ENDBRANCH   5   6
ENDBRANCH   4   5
ENDBRANCH   3   4
ENDBRANCH   2   3
ENDBRANCH   1   2
BRANCH   1  71
ATOM     71  O   UNL A   1      34.963  22.679  26.403  1.00  0.00    -0.377 OA
BRANCH  71  72
ATOM     72  C   UNL A   1      33.540  22.683  26.400  1.00  0.00     0.188 C 
BRANCH  72  73
ATOM     73  C   UNL A   1      32.764  21.625  25.599  1.00  0.00     0.188 C 
BRANCH  73  74
ATOM     74  O   UNL A   1      31.538  22.070  25.043  1.00  0.00    -0.376 OA
BRANCH  74  75
ATOM     75  C   UNL A   1      31.607  23.367  24.452  1.00  0.00     0.202 C 
BRANCH  75  76
ATOM     76  C   UNL A   1      32.405  23.481  23.135  1.00  0.00     0.261 C 
BRANCH  76  77
ATOM     77  O   UNL A   1      33.313  24.601  23.040  1.00  0.00    -0.459 OA
BRANCH  77  78
ATOM     78  C   UNL A   1      33.242  25.409  21.960  1.00  0.00     0.365 C 
ATOM     79  O   UNL A   1      33.277  24.990  20.806  1.00  0.00    -0.245 OA
BRANCH  78  80
ATOM     80  C   UNL A   1      32.996  26.903  22.269  1.00  0.00     0.304 C 
ATOM     81  C   UNL A   1      33.401  27.255  23.687  1.00  0.00     0.153 C 
ATOM     82  N   UNL A   1      31.649  27.480  22.029  1.00  0.00    -0.319 N 
ATOM     83  S   UNL A   1      31.850  27.346  24.634  1.00  0.00    -0.087 SA
ATOM     84  C   UNL A   1      30.771  27.220  23.167  1.00  0.00     0.278 C 
ATOM     85  H   UNL A   1      31.248  27.058  21.191  1.00  0.00     0.348 HD
ATOM     86  H   UNL A   1      31.739  28.489  21.907  1.00  0.00     0.348 HD
BRANCH  84  87
ATOM     87  C   UNL A   1      29.556  28.158  23.152  1.00  0.00     0.063 A 
ATOM     88  C   UNL A   1      29.638  29.525  22.817  1.00  0.00     0.030 A 
ATOM     89  C   UNL A   1      28.267  27.659  23.414  1.00  0.00     0.125 A 
ATOM     90  C   UNL A   1      28.492  30.334  22.786  1.00  0.00     0.018 A 
ATOM     91  C   UNL A   1      27.115  28.452  23.337  1.00  0.00     0.048 A 
ATOM     92  Br  UNL A   1      28.658  32.184  22.425  1.00  0.00    -0.051 Br
ATOM     93  C   UNL A   1      27.231  29.803  23.033  1.00  0.00     0.019 A 
BRANCH  89  94
ATOM     94  O   UNL A   1      28.113  26.364  23.809  1.00  0.00    -0.507 OA
ATOM     95  H   UNL A   1      27.258  25.980  23.834  1.00  0.00     0.293 HD
ENDBRANCH  89  94
ENDBRANCH  84  87
ENDBRANCH  78  80
ENDBRANCH  77  78
ENDBRANCH  76  77
ENDBRANCH  75  76
ENDBRANCH  74  75
ENDBRANCH  73  74
ENDBRANCH  72  73
ENDBRANCH  71  72
ENDBRANCH   1  71
TORSDOF 25
ENDMDL
MODEL 3
REMARK VINA RESULT:      -9.0      1.779      2.461
REMARK SMILES O=C(OCCOCCOCCOCCOC(=O)[C@@H]1CS[C@@H](c2cc(Br)ccc2O)[NH2+]1)c1ccc(-c2c3nc(c(-c4ccc(S(=O)(=O)[O-])cc4)c4ccc([nH]4)c(-c4ccc(S(=O)(=O)[O-])cc4)c4nc(c(-c5ccc(S(=O)(=O)[O-])cc5)c5ccc2[nH]5)C=C4)C=C3)cc1
REMARK SMILES IDX 8 1 7 2 6 3 5 4 4 5 3 6 2 7 1 8 31 9 32 10 90 11 33 12 89 13
REMARK SMILES IDX 34 14 35 15 36 16 83 17 37 18 88 19 82 20 84 21 38 22 87 23
REMARK SMILES IDX 81 24 80 25 39 27 69 28 50 29 68 30 51 31 54 32 67 33 85 34
REMARK SMILES IDX 52 35 53 36 66 38 86 39 55 40 40 41 41 42 49 43 42 44 48 45
REMARK SMILES IDX 43 46 44 47 45 48 46 49 47 50 70 51 71 52 79 53 72 54 78 55
REMARK SMILES IDX 73 56 74 57 75 58 76 59 77 60 56 61 57 62 65 63 58 64 64 65
REMARK SMILES IDX 59 66 60 67 61 68 62 69 63 70 9 71 10 72 11 73 12 74 13 75
REMARK SMILES IDX 14 76 15 77 16 78 17 79 18 80 19 81 30 82 20 83 21 84 22 87
REMARK SMILES IDX 23 88 28 89 24 90 27 91 25 92 26 93 29 94
REMARK H PARENT 84 26 54 37 30 85 30 86 29 95
REMARK Flexibility Score: inf
ROOT
ATOM      1  C   UNL A   1      35.272  22.727  25.723  1.00  0.00     0.188 C 
ENDROOT
BRANCH   1   2
ATOM      2  C   UNL A   1      35.831  22.051  24.486  1.00  0.00     0.188 C 
BRANCH   2   3
ATOM      3  O   UNL A   1      37.238  22.238  24.413  1.00  0.00    -0.376 OA
BRANCH   3   4
ATOM      4  C   UNL A   1      38.043  21.511  25.335  1.00  0.00     0.202 C 
BRANCH   4   5
ATOM      5  C   UNL A   1      39.010  22.353  26.164  1.00  0.00     0.261 C 
BRANCH   5   6
ATOM      6  O   UNL A   1      40.371  21.894  26.132  1.00  0.00    -0.460 OA
BRANCH   6   7
ATOM      7  C   UNL A   1      41.516  22.612  26.029  1.00  0.00     0.338 C 
ATOM      8  O   UNL A   1      42.457  22.111  25.413  1.00  0.00    -0.246 OA
BRANCH   7   9
ATOM      9  C   UNL A   1      41.721  23.967  26.622  1.00  0.00     0.060 A 
ATOM     10  C   UNL A   1      41.676  25.168  25.920  1.00  0.00     0.016 A 
ATOM     11  C   UNL A   1      41.871  24.040  28.016  1.00  0.00     0.016 A 
ATOM     12  C   UNL A   1      41.830  26.393  26.532  1.00  0.00     0.010 A 
ATOM     13  C   UNL A   1      42.016  25.274  28.658  1.00  0.00     0.010 A 
ATOM     14  C   UNL A   1      42.024  26.449  27.900  1.00  0.00    -0.014 A 
BRANCH  14  15
ATOM     15  C   UNL A   1      42.467  27.744  28.429  1.00  0.00     0.031 A 
ATOM     16  C   UNL A   1      43.929  28.048  28.327  1.00  0.00     0.074 A 
ATOM     17  C   UNL A   1      41.557  28.672  28.771  1.00  0.00     0.049 A 
ATOM     18  N   UNL A   1      44.587  29.084  28.757  1.00  0.00    -0.248 NA
ATOM     19  C   UNL A   1      44.764  27.051  27.625  1.00  0.00     0.031 C 
ATOM     20  C   UNL A   1      40.101  28.504  28.687  1.00  0.00     0.029 A 
ATOM     21  N   UNL A   1      41.718  29.954  29.214  1.00  0.00    -0.354 N 
ATOM     22  C   UNL A   1      45.915  28.839  28.432  1.00  0.00     0.074 A 
ATOM     23  C   UNL A   1      45.974  27.566  27.756  1.00  0.00     0.031 C 
ATOM     24  C   UNL A   1      39.506  29.648  29.058  1.00  0.00     0.029 A 
ATOM     25  C   UNL A   1      40.532  30.590  29.487  1.00  0.00     0.049 A 
ATOM     26  H   UNL A   1      42.599  30.381  29.326  1.00  0.00     0.167 HD
ATOM     27  C   UNL A   1      46.986  29.615  28.704  1.00  0.00     0.031 A 
ATOM     28  C   UNL A   1      40.316  31.782  30.073  1.00  0.00     0.031 A 
ATOM     29  C   UNL A   1      46.868  30.873  29.383  1.00  0.00     0.049 A 
ATOM     30  C   UNL A   1      41.529  32.573  30.480  1.00  0.00     0.074 A 
ATOM     31  C   UNL A   1      47.865  31.731  29.798  1.00  0.00     0.029 A 
ATOM     32  N   UNL A   1      45.656  31.451  29.744  1.00  0.00    -0.354 N 
ATOM     33  N   UNL A   1      42.797  32.292  30.274  1.00  0.00    -0.248 NA
ATOM     34  C   UNL A   1      41.294  33.824  31.205  1.00  0.00     0.031 C 
ATOM     35  C   UNL A   1      47.258  32.798  30.467  1.00  0.00     0.029 A 
ATOM     36  C   UNL A   1      45.878  32.643  30.401  1.00  0.00     0.049 A 
ATOM     37  H   UNL A   1      44.770  31.065  29.558  1.00  0.00     0.167 HD
ATOM     38  C   UNL A   1      43.514  33.343  30.830  1.00  0.00     0.074 A 
ATOM     39  C   UNL A   1      42.533  34.273  31.361  1.00  0.00     0.031 C 
ATOM     40  C   UNL A   1      44.856  33.528  30.905  1.00  0.00     0.031 A 
BRANCH  27  41
ATOM     41  C   UNL A   1      48.341  29.058  28.369  1.00  0.00    -0.014 A 
ATOM     42  C   UNL A   1      48.921  29.216  27.097  1.00  0.00     0.010 A 
ATOM     43  C   UNL A   1      49.031  28.321  29.349  1.00  0.00     0.010 A 
ATOM     44  C   UNL A   1      50.152  28.618  26.803  1.00  0.00     0.020 A 
ATOM     45  C   UNL A   1      50.272  27.746  29.069  1.00  0.00     0.020 A 
ATOM     46  C   UNL A   1      50.818  27.886  27.792  1.00  0.00     0.054 A 
BRANCH  46  47
ATOM     47  S   UNL A   1      52.422  27.141  27.388  1.00  0.00     0.124 S 
ATOM     48  O   UNL A   1      53.292  28.311  27.327  1.00  0.00    -0.237 OA
ATOM     49  O   UNL A   1      52.650  26.243  28.513  1.00  0.00    -0.237 OA
ATOM     50  O   UNL A   1      52.181  26.479  26.103  1.00  0.00    -0.744 OA
ENDBRANCH  46  47
ENDBRANCH  27  41
BRANCH  28  51
ATOM     51  C   UNL A   1      38.929  32.230  30.385  1.00  0.00    -0.014 A 
ATOM     52  C   UNL A   1      38.140  32.889  29.428  1.00  0.00     0.010 A 
ATOM     53  C   UNL A   1      38.383  31.990  31.662  1.00  0.00     0.010 A 
ATOM     54  C   UNL A   1      36.842  33.312  29.746  1.00  0.00     0.020 A 
ATOM     55  C   UNL A   1      37.078  32.380  31.975  1.00  0.00     0.020 A 
ATOM     56  C   UNL A   1      36.320  33.052  31.017  1.00  0.00     0.054 A 
BRANCH  56  57
ATOM     57  S   UNL A   1      34.624  33.579  31.395  1.00  0.00     0.124 S 
ATOM     58  O   UNL A   1      34.152  32.491  32.245  1.00  0.00    -0.237 OA
ATOM     59  O   UNL A   1      34.836  34.860  32.063  1.00  0.00    -0.237 OA
ATOM     60  O   UNL A   1      33.992  33.667  30.081  1.00  0.00    -0.744 OA
ENDBRANCH  56  57
ENDBRANCH  28  51
BRANCH  40  61
ATOM     61  C   UNL A   1      45.327  34.803  31.543  1.00  0.00    -0.014 A 
ATOM     62  C   UNL A   1      45.492  35.976  30.789  1.00  0.00     0.010 A 
ATOM     63  C   UNL A   1      45.529  34.834  32.934  1.00  0.00     0.010 A 
ATOM     64  C   UNL A   1      45.884  37.159  31.416  1.00  0.00     0.020 A 
ATOM     65  C   UNL A   1      45.886  36.023  33.569  1.00  0.00     0.020 A 
ATOM     66  C   UNL A   1      46.074  37.175  32.802  1.00  0.00     0.054 A 
BRANCH  66  67
ATOM     67  S   UNL A   1      46.526  38.737  33.600  1.00  0.00     0.124 S 
ATOM     68  O   UNL A   1      45.275  39.487  33.525  1.00  0.00    -0.237 OA
ATOM     69  O   UNL A   1      46.924  38.308  34.937  1.00  0.00    -0.237 OA
ATOM     70  O   UNL A   1      47.611  39.250  32.767  1.00  0.00    -0.744 OA
ENDBRANCH  66  67
ENDBRANCH  40  61
ENDBRANCH  14  15
ENDBRANCH   7   9
ENDBRANCH   6   7
ENDBRANCH   5   6
ENDBRANCH   4   5
ENDBRANCH   3   4
ENDBRANCH   2   3
ENDBRANCH   1   2
BRANCH   1  71
ATOM     71  O   UNL A   1      34.447  21.873  26.505  1.00  0.00    -0.377 OA
BRANCH  71  72
ATOM     72  C   UNL A   1      33.038  22.065  26.452  1.00  0.00     0.188 C 
BRANCH  72  73
ATOM     73  C   UNL A   1      32.232  21.548  25.251  1.00  0.00     0.188 C 
BRANCH  73  74
ATOM     74  O   UNL A   1      31.205  22.413  24.797  1.00  0.00    -0.376 OA
BRANCH  74  75
ATOM     75  C   UNL A   1      31.680  23.657  24.285  1.00  0.00     0.202 C 
BRANCH  75  76
ATOM     76  C   UNL A   1      32.653  23.583  23.089  1.00  0.00     0.261 C 
BRANCH  76  77
ATOM     77  O   UNL A   1      33.542  24.710  22.925  1.00  0.00    -0.459 OA
BRANCH  77  78
ATOM     78  C   UNL A   1      33.297  25.596  21.936  1.00  0.00     0.365 C 
ATOM     79  O   UNL A   1      33.197  25.273  20.755  1.00  0.00    -0.245 OA
BRANCH  78  80
ATOM     80  C   UNL A   1      33.031  27.046  22.399  1.00  0.00     0.304 C 
ATOM     81  C   UNL A   1      33.338  27.226  23.873  1.00  0.00     0.153 C 
ATOM     82  N   UNL A   1      31.704  27.658  22.138  1.00  0.00    -0.319 N 
ATOM     83  S   UNL A   1      31.726  27.220  24.717  1.00  0.00    -0.087 SA
ATOM     84  C   UNL A   1      30.749  27.274  23.175  1.00  0.00     0.278 C 
ATOM     85  H   UNL A   1      31.360  27.341  21.232  1.00  0.00     0.348 HD
ATOM     86  H   UNL A   1      31.802  28.674  22.141  1.00  0.00     0.348 HD
BRANCH  84  87
ATOM     87  C   UNL A   1      29.539  28.218  23.189  1.00  0.00     0.063 A 
ATOM     88  C   UNL A   1      29.633  29.602  22.935  1.00  0.00     0.030 A 
ATOM     89  C   UNL A   1      28.242  27.711  23.393  1.00  0.00     0.125 A 
ATOM     90  C   UNL A   1      28.491  30.418  22.926  1.00  0.00     0.018 A 
ATOM     91  C   UNL A   1      27.096  28.513  23.336  1.00  0.00     0.048 A 
ATOM     92  Br  UNL A   1      28.673  32.285  22.677  1.00  0.00    -0.051 Br
ATOM     93  C   UNL A   1      27.223  29.879  23.114  1.00  0.00     0.019 A 
BRANCH  89  94
ATOM     94  O   UNL A   1      28.075  26.396  23.708  1.00  0.00    -0.507 OA
ATOM     95  H   UNL A   1      27.660  26.157  24.514  1.00  0.00     0.293 HD
ENDBRANCH  89  94
ENDBRANCH  84  87
ENDBRANCH  78  80
ENDBRANCH  77  78
ENDBRANCH  76  77
ENDBRANCH  75  76
ENDBRANCH  74  75
ENDBRANCH  73  74
ENDBRANCH  72  73
ENDBRANCH  71  72
ENDBRANCH   1  71
TORSDOF 25
ENDMDL
