MODEL 1
REMARK VINA RESULT:      -8.7      0.000      0.000
REMARK SMILES Cc1c(Cc2nc(C(C)(C)C)cs2)cccc1C(=O)OCCOCCOCCOCCOC(=O)c1ccc(-c2c3nc(c(-c4ccc(S(=O)(=O)[O-])cc4)c4ccc([nH]4)c(-c4ccc(S(=O)(=O)[O-])cc4)c4nc(c(-c5ccc(S(=O)(=O)[O-])cc5)c5ccc2[nH]5)C=C4)C=C3)cc1
REMARK SMILES IDX 26 1 25 2 24 3 23 4 22 5 21 6 20 7 18 8 19 9 17 10 1 11 2 12
REMARK SMILES IDX 3 13 14 14 16 15 15 16 4 17 5 18 6 19 13 20 7 21 12 22 8 23
REMARK SMILES IDX 9 24 10 25 11 26 27 27 28 28 29 29 30 30 31 31 32 32 33 33
REMARK SMILES IDX 34 34 35 35 36 36 94 37 37 38 93 39 38 40 39 41 40 42 87 43
REMARK SMILES IDX 41 44 92 45 86 46 88 47 42 48 91 49 85 50 84 51 43 53 73 54
REMARK SMILES IDX 54 55 72 56 55 57 58 58 71 59 89 60 56 61 57 62 70 64 90 65
REMARK SMILES IDX 59 66 44 67 45 68 53 69 46 70 52 71 47 72 48 73 49 74 50 75
REMARK SMILES IDX 51 76 74 77 75 78 83 79 76 80 82 81 77 82 78 83 79 84 80 85
REMARK SMILES IDX 81 86 60 87 61 88 69 89 62 90 68 91 63 92 64 93 65 94 66 95
REMARK SMILES IDX 67 96
REMARK H PARENT 88 52 58 63
REMARK Flexibility Score: inf
ROOT
ATOM      1  O   UNL A   1      35.460  35.526  33.346  1.00  0.00    -0.377 OA
ENDROOT
BRANCH   1   2
ATOM      2  C   UNL A   1      34.321  36.355  33.500  1.00  0.00     0.188 C 
BRANCH   2   3
ATOM      3  C   UNL A   1      33.746  37.120  32.293  1.00  0.00     0.188 C 
BRANCH   3   4
ATOM      4  O   UNL A   1      32.425  36.894  31.832  1.00  0.00    -0.376 OA
BRANCH   4   5
ATOM      5  C   UNL A   1      32.322  36.082  30.667  1.00  0.00     0.202 C 
BRANCH   5   6
ATOM      6  C   UNL A   1      33.604  35.523  30.073  1.00  0.00     0.261 C 
BRANCH   6   7
ATOM      7  O   UNL A   1      33.286  34.281  29.460  1.00  0.00    -0.460 OA
BRANCH   7   8
ATOM      8  C   UNL A   1      34.109  33.903  28.474  1.00  0.00     0.338 C 
ATOM      9  O   UNL A   1      35.256  34.249  28.306  1.00  0.00    -0.246 OA
BRANCH   8  10
ATOM     10  C   UNL A   1      33.498  32.707  27.835  1.00  0.00     0.063 A 
ATOM     11  C   UNL A   1      35.560  31.155  27.876  1.00  0.00     0.045 C 
ATOM     12  C   UNL A   1      34.109  31.451  27.606  1.00  0.00    -0.033 A 
ATOM     13  C   UNL A   1      33.302  30.415  27.088  1.00  0.00    -0.037 A 
ATOM     14  C   UNL A   1      32.011  30.710  26.603  1.00  0.00     0.004 A 
ATOM     15  C   UNL A   1      32.212  32.975  27.334  1.00  0.00     0.016 A 
ATOM     16  C   UNL A   1      31.488  31.993  26.682  1.00  0.00     0.001 A 
BRANCH  13  17
ATOM     17  C   UNL A   1      33.680  28.946  27.266  1.00  0.00     0.103 C 
BRANCH  17  18
ATOM     18  C   UNL A   1      33.120  28.178  26.102  1.00  0.00     0.097 A 
ATOM     19  N   UNL A   1      32.193  27.260  26.254  1.00  0.00    -0.245 NA
ATOM     20  S   UNL A   1      33.778  28.285  24.522  1.00  0.00    -0.127 S 
ATOM     21  C   UNL A   1      32.189  26.398  25.176  1.00  0.00     0.057 A 
ATOM     22  C   UNL A   1      32.926  26.854  24.095  1.00  0.00     0.091 A 
BRANCH  21  23
ATOM     23  C   UNL A   1      31.398  25.111  25.312  1.00  0.00     0.005 C 
ATOM     24  C   UNL A   1      32.170  24.129  26.203  1.00  0.00     0.017 C 
ATOM     25  C   UNL A   1      30.003  25.377  25.910  1.00  0.00     0.017 C 
ATOM     26  C   UNL A   1      31.182  24.458  23.925  1.00  0.00     0.017 C 
ENDBRANCH  21  23
ENDBRANCH  17  18
ENDBRANCH  13  17
ENDBRANCH   8  10
ENDBRANCH   7   8
ENDBRANCH   6   7
ENDBRANCH   5   6
ENDBRANCH   4   5
ENDBRANCH   3   4
ENDBRANCH   2   3
ENDBRANCH   1   2
BRANCH   1  27
ATOM     27  C   UNL A   1      35.332  34.131  33.640  1.00  0.00     0.188 C 
BRANCH  27  28
ATOM     28  C   UNL A   1      33.989  33.460  33.407  1.00  0.00     0.188 C 
BRANCH  28  29
ATOM     29  O   UNL A   1      34.137  32.658  32.234  1.00  0.00    -0.376 OA
BRANCH  29  30
ATOM     30  C   UNL A   1      35.428  32.614  31.661  1.00  0.00     0.202 C 
BRANCH  30  31
ATOM     31  C   UNL A   1      35.878  31.211  31.255  1.00  0.00     0.261 C 
BRANCH  31  32
ATOM     32  O   UNL A   1      36.623  30.535  32.303  1.00  0.00    -0.460 OA
BRANCH  32  33
ATOM     33  C   UNL A   1      37.978  30.368  32.198  1.00  0.00     0.338 C 
ATOM     34  O   UNL A   1      38.511  29.917  31.196  1.00  0.00    -0.246 OA
BRANCH  33  35
ATOM     35  C   UNL A   1      38.749  31.086  33.251  1.00  0.00     0.060 A 
ATOM     36  C   UNL A   1      39.433  30.429  34.285  1.00  0.00     0.016 A 
ATOM     37  C   UNL A   1      38.784  32.465  33.213  1.00  0.00     0.016 A 
ATOM     38  C   UNL A   1      39.951  31.146  35.386  1.00  0.00     0.010 A 
ATOM     39  C   UNL A   1      39.241  33.158  34.315  1.00  0.00     0.010 A 
ATOM     40  C   UNL A   1      39.784  32.525  35.446  1.00  0.00    -0.014 A 
BRANCH  40  41
ATOM     41  C   UNL A   1      40.036  33.405  36.613  1.00  0.00     0.031 A 
ATOM     42  C   UNL A   1      38.964  33.495  37.675  1.00  0.00     0.074 A 
ATOM     43  C   UNL A   1      41.318  33.765  36.905  1.00  0.00     0.049 A 
ATOM     44  N   UNL A   1      39.127  33.984  38.855  1.00  0.00    -0.248 NA
ATOM     45  C   UNL A   1      37.615  32.939  37.527  1.00  0.00     0.031 C 
ATOM     46  C   UNL A   1      41.866  34.092  38.227  1.00  0.00     0.029 A 
ATOM     47  N   UNL A   1      42.463  33.839  36.130  1.00  0.00    -0.354 N 
ATOM     48  C   UNL A   1      38.119  33.530  39.686  1.00  0.00     0.074 A 
ATOM     49  C   UNL A   1      37.169  32.920  38.792  1.00  0.00     0.031 C 
ATOM     50  C   UNL A   1      43.154  34.454  38.149  1.00  0.00     0.029 A 
ATOM     51  C   UNL A   1      43.421  34.644  36.750  1.00  0.00     0.049 A 
ATOM     52  H   UNL A   1      42.583  33.388  35.264  1.00  0.00     0.167 HD
ATOM     53  C   UNL A   1      38.284  33.638  41.042  1.00  0.00     0.031 A 
ATOM     54  C   UNL A   1      43.760  35.869  36.252  1.00  0.00     0.031 A 
ATOM     55  C   UNL A   1      39.475  34.457  41.364  1.00  0.00     0.049 A 
ATOM     56  C   UNL A   1      43.187  36.931  37.214  1.00  0.00     0.074 A 
ATOM     57  C   UNL A   1      40.618  34.265  42.118  1.00  0.00     0.029 A 
ATOM     58  N   UNL A   1      39.686  35.651  40.664  1.00  0.00    -0.354 N 
ATOM     59  N   UNL A   1      42.048  36.787  37.868  1.00  0.00    -0.248 NA
ATOM     60  C   UNL A   1      44.010  38.002  37.786  1.00  0.00     0.031 C 
ATOM     61  C   UNL A   1      41.582  35.237  41.700  1.00  0.00     0.029 A 
ATOM     62  C   UNL A   1      41.000  36.074  40.752  1.00  0.00     0.049 A 
ATOM     63  H   UNL A   1      38.984  36.130  40.169  1.00  0.00     0.167 HD
ATOM     64  C   UNL A   1      42.097  37.526  39.029  1.00  0.00     0.074 A 
ATOM     65  C   UNL A   1      43.309  38.329  38.888  1.00  0.00     0.031 C 
ATOM     66  C   UNL A   1      41.387  37.367  40.195  1.00  0.00     0.031 A 
BRANCH  53  67
ATOM     67  C   UNL A   1      37.486  32.889  42.118  1.00  0.00    -0.014 A 
ATOM     68  C   UNL A   1      37.784  33.120  43.481  1.00  0.00     0.010 A 
ATOM     69  C   UNL A   1      36.501  31.902  41.883  1.00  0.00     0.010 A 
ATOM     70  C   UNL A   1      37.155  32.429  44.536  1.00  0.00     0.020 A 
ATOM     71  C   UNL A   1      35.837  31.220  42.935  1.00  0.00     0.020 A 
ATOM     72  C   UNL A   1      36.173  31.486  44.260  1.00  0.00     0.054 A 
BRANCH  72  73
ATOM     73  S   UNL A   1      35.340  30.652  45.645  1.00  0.00     0.124 S 
ATOM     74  O   UNL A   1      35.420  31.647  46.712  1.00  0.00    -0.237 OA
ATOM     75  O   UNL A   1      34.001  30.410  45.115  1.00  0.00    -0.237 OA
ATOM     76  O   UNL A   1      36.142  29.450  45.863  1.00  0.00    -0.744 OA
ENDBRANCH  72  73
ENDBRANCH  53  67
BRANCH  54  77
ATOM     77  C   UNL A   1      43.980  35.781  34.766  1.00  0.00    -0.014 A 
ATOM     78  C   UNL A   1      44.980  34.837  34.399  1.00  0.00     0.010 A 
ATOM     79  C   UNL A   1      42.912  35.972  33.866  1.00  0.00     0.010 A 
ATOM     80  C   UNL A   1      44.776  33.932  33.346  1.00  0.00     0.020 A 
ATOM     81  C   UNL A   1      42.717  35.069  32.792  1.00  0.00     0.020 A 
ATOM     82  C   UNL A   1      43.613  34.012  32.587  1.00  0.00     0.054 A 
BRANCH  82  83
ATOM     83  S   UNL A   1      43.175  32.577  31.540  1.00  0.00     0.124 S 
ATOM     84  O   UNL A   1      42.173  31.893  32.345  1.00  0.00    -0.237 OA
ATOM     85  O   UNL A   1      42.683  33.213  30.318  1.00  0.00    -0.237 OA
ATOM     86  O   UNL A   1      44.443  31.875  31.385  1.00  0.00    -0.744 OA
ENDBRANCH  82  83
ENDBRANCH  54  77
BRANCH  66  87
ATOM     87  C   UNL A   1      40.888  38.584  40.938  1.00  0.00    -0.014 A 
ATOM     88  C   UNL A   1      41.541  39.076  42.075  1.00  0.00     0.010 A 
ATOM     89  C   UNL A   1      39.878  39.395  40.361  1.00  0.00     0.010 A 
ATOM     90  C   UNL A   1      41.172  40.292  42.642  1.00  0.00     0.020 A 
ATOM     91  C   UNL A   1      39.540  40.638  40.887  1.00  0.00     0.020 A 
ATOM     92  C   UNL A   1      40.174  41.064  42.045  1.00  0.00     0.054 A 
BRANCH  92  93
ATOM     93  S   UNL A   1      39.748  42.645  42.794  1.00  0.00     0.124 S 
ATOM     94  O   UNL A   1      41.069  43.217  43.040  1.00  0.00    -0.237 OA
ATOM     95  O   UNL A   1      38.968  43.297  41.743  1.00  0.00    -0.237 OA
ATOM     96  O   UNL A   1      38.991  42.275  43.987  1.00  0.00    -0.744 OA
ENDBRANCH  92  93
ENDBRANCH  66  87
ENDBRANCH  40  41
ENDBRANCH  33  35
ENDBRANCH  32  33
ENDBRANCH  31  32
ENDBRANCH  30  31
ENDBRANCH  29  30
ENDBRANCH  28  29
ENDBRANCH  27  28
ENDBRANCH   1  27
TORSDOF 26
ENDMDL
MODEL 2
REMARK VINA RESULT:      -8.2      6.775     11.730
REMARK SMILES Cc1c(Cc2nc(C(C)(C)C)cs2)cccc1C(=O)OCCOCCOCCOCCOC(=O)c1ccc(-c2c3nc(c(-c4ccc(S(=O)(=O)[O-])cc4)c4ccc([nH]4)c(-c4ccc(S(=O)(=O)[O-])cc4)c4nc(c(-c5ccc(S(=O)(=O)[O-])cc5)c5ccc2[nH]5)C=C4)C=C3)cc1
REMARK SMILES IDX 26 1 25 2 24 3 23 4 22 5 21 6 20 7 18 8 19 9 17 10 1 11 2 12
REMARK SMILES IDX 3 13 14 14 16 15 15 16 4 17 5 18 6 19 13 20 7 21 12 22 8 23
REMARK SMILES IDX 9 24 10 25 11 26 27 27 28 28 29 29 30 30 31 31 32 32 33 33
REMARK SMILES IDX 34 34 35 35 36 36 94 37 37 38 93 39 38 40 39 41 40 42 87 43
REMARK SMILES IDX 41 44 92 45 86 46 88 47 42 48 91 49 85 50 84 51 43 53 73 54
REMARK SMILES IDX 54 55 72 56 55 57 58 58 71 59 89 60 56 61 57 62 70 64 90 65
REMARK SMILES IDX 59 66 44 67 45 68 53 69 46 70 52 71 47 72 48 73 49 74 50 75
REMARK SMILES IDX 51 76 74 77 75 78 83 79 76 80 82 81 77 82 78 83 79 84 80 85
REMARK SMILES IDX 81 86 60 87 61 88 69 89 62 90 68 91 63 92 64 93 65 94 66 95
REMARK SMILES IDX 67 96
REMARK H PARENT 88 52 58 63
REMARK Flexibility Score: inf
ROOT
ATOM      1  O   UNL A   1      34.420  32.683  28.018  1.00  0.00    -0.377 OA
ENDROOT
BRANCH   1   2
ATOM      2  C   UNL A   1      33.334  31.867  27.617  1.00  0.00     0.188 C 
BRANCH   2   3
ATOM      3  C   UNL A   1      33.572  30.399  27.213  1.00  0.00     0.188 C 
BRANCH   3   4
ATOM      4  O   UNL A   1      33.183  29.906  25.943  1.00  0.00    -0.376 OA
BRANCH   4   5
ATOM      5  C   UNL A   1      31.799  29.596  25.814  1.00  0.00     0.202 C 
BRANCH   5   6
ATOM      6  C   UNL A   1      31.204  29.559  24.416  1.00  0.00     0.261 C 
BRANCH   6   7
ATOM      7  O   UNL A   1      30.624  28.275  24.231  1.00  0.00    -0.460 OA
BRANCH   7   8
ATOM      8  C   UNL A   1      30.528  27.870  22.958  1.00  0.00     0.338 C 
ATOM      9  O   UNL A   1      30.218  28.540  21.999  1.00  0.00    -0.246 OA
BRANCH   8  10
ATOM     10  C   UNL A   1      31.221  26.558  22.867  1.00  0.00     0.063 A 
ATOM     11  C   UNL A   1      29.890  25.294  24.681  1.00  0.00     0.045 C 
ATOM     12  C   UNL A   1      30.920  25.377  23.587  1.00  0.00    -0.033 A 
ATOM     13  C   UNL A   1      31.637  24.207  23.255  1.00  0.00    -0.037 A 
ATOM     14  C   UNL A   1      32.763  24.293  22.411  1.00  0.00     0.004 A 
ATOM     15  C   UNL A   1      32.355  26.616  22.038  1.00  0.00     0.016 A 
ATOM     16  C   UNL A   1      33.148  25.500  21.844  1.00  0.00     0.001 A 
BRANCH  13  17
ATOM     17  C   UNL A   1      31.088  22.818  23.575  1.00  0.00     0.103 C 
BRANCH  17  18
ATOM     18  C   UNL A   1      32.217  21.986  24.114  1.00  0.00     0.097 A 
ATOM     19  N   UNL A   1      32.454  20.768  23.679  1.00  0.00    -0.245 NA
ATOM     20  S   UNL A   1      33.153  22.463  25.469  1.00  0.00    -0.127 S 
ATOM     21  C   UNL A   1      33.187  20.061  24.610  1.00  0.00     0.057 A 
ATOM     22  C   UNL A   1      33.733  20.851  25.608  1.00  0.00     0.091 A 
BRANCH  21  23
ATOM     23  C   UNL A   1      33.299  18.561  24.418  1.00  0.00     0.005 C 
ATOM     24  C   UNL A   1      32.619  18.161  23.101  1.00  0.00     0.017 C 
ATOM     25  C   UNL A   1      34.773  18.111  24.405  1.00  0.00     0.017 C 
ATOM     26  C   UNL A   1      32.605  17.812  25.582  1.00  0.00     0.017 C 
ENDBRANCH  21  23
ENDBRANCH  17  18
ENDBRANCH  13  17
ENDBRANCH   8  10
ENDBRANCH   7   8
ENDBRANCH   6   7
ENDBRANCH   5   6
ENDBRANCH   4   5
ENDBRANCH   3   4
ENDBRANCH   2   3
ENDBRANCH   1   2
BRANCH   1  27
ATOM     27  C   UNL A   1      34.737  32.758  29.413  1.00  0.00     0.188 C 
BRANCH  27  28
ATOM     28  C   UNL A   1      36.131  33.203  29.818  1.00  0.00     0.188 C 
BRANCH  28  29
ATOM     29  O   UNL A   1      36.218  33.020  31.232  1.00  0.00    -0.376 OA
BRANCH  29  30
ATOM     30  C   UNL A   1      35.650  31.833  31.749  1.00  0.00     0.202 C 
BRANCH  30  31
ATOM     31  C   UNL A   1      36.668  30.727  32.021  1.00  0.00     0.261 C 
BRANCH  31  32
ATOM     32  O   UNL A   1      36.337  29.481  31.352  1.00  0.00    -0.460 OA
BRANCH  32  33
ATOM     33  C   UNL A   1      36.689  29.278  30.043  1.00  0.00     0.338 C 
ATOM     34  O   UNL A   1      35.934  29.515  29.113  1.00  0.00    -0.246 OA
BRANCH  33  35
ATOM     35  C   UNL A   1      38.151  29.074  29.846  1.00  0.00     0.060 A 
ATOM     36  C   UNL A   1      38.963  28.396  30.767  1.00  0.00     0.016 A 
ATOM     37  C   UNL A   1      38.736  29.584  28.705  1.00  0.00     0.016 A 
ATOM     38  C   UNL A   1      40.371  28.427  30.658  1.00  0.00     0.010 A 
ATOM     39  C   UNL A   1      40.112  29.661  28.631  1.00  0.00     0.010 A 
ATOM     40  C   UNL A   1      40.962  29.138  29.619  1.00  0.00    -0.014 A 
BRANCH  40  41
ATOM     41  C   UNL A   1      42.398  29.485  29.478  1.00  0.00     0.031 A 
ATOM     42  C   UNL A   1      42.881  30.764  30.123  1.00  0.00     0.074 A 
ATOM     43  C   UNL A   1      43.287  28.504  29.158  1.00  0.00     0.049 A 
ATOM     44  N   UNL A   1      44.115  31.072  30.327  1.00  0.00    -0.248 NA
ATOM     45  C   UNL A   1      41.993  31.782  30.695  1.00  0.00     0.031 C 
ATOM     46  C   UNL A   1      44.708  28.445  29.518  1.00  0.00     0.029 A 
ATOM     47  N   UNL A   1      43.136  27.284  28.520  1.00  0.00    -0.354 N 
ATOM     48  C   UNL A   1      44.191  32.060  31.291  1.00  0.00     0.074 A 
ATOM     49  C   UNL A   1      42.831  32.506  31.452  1.00  0.00     0.031 C 
ATOM     50  C   UNL A   1      45.304  27.364  28.996  1.00  0.00     0.029 A 
ATOM     51  C   UNL A   1      44.367  26.823  28.050  1.00  0.00     0.049 A 
ATOM     52  H   UNL A   1      42.280  26.809  28.414  1.00  0.00     0.167 HD
ATOM     53  C   UNL A   1      45.393  32.290  31.907  1.00  0.00     0.031 A 
ATOM     54  C   UNL A   1      44.654  26.776  26.716  1.00  0.00     0.031 A 
ATOM     55  C   UNL A   1      46.481  31.545  31.232  1.00  0.00     0.049 A 
ATOM     56  C   UNL A   1      45.690  27.882  26.428  1.00  0.00     0.074 A 
ATOM     57  C   UNL A   1      47.438  30.633  31.638  1.00  0.00     0.029 A 
ATOM     58  N   UNL A   1      46.541  31.554  29.834  1.00  0.00    -0.354 N 
ATOM     59  N   UNL A   1      45.714  29.044  27.058  1.00  0.00    -0.248 NA
ATOM     60  C   UNL A   1      46.953  27.617  25.730  1.00  0.00     0.031 C 
ATOM     61  C   UNL A   1      47.913  29.955  30.470  1.00  0.00     0.029 A 
ATOM     62  C   UNL A   1      47.308  30.511  29.346  1.00  0.00     0.049 A 
ATOM     63  H   UNL A   1      46.092  32.220  29.266  1.00  0.00     0.167 HD
ATOM     64  C   UNL A   1      47.003  29.530  27.060  1.00  0.00     0.074 A 
ATOM     65  C   UNL A   1      47.719  28.642  26.147  1.00  0.00     0.031 C 
ATOM     66  C   UNL A   1      47.596  30.426  27.917  1.00  0.00     0.031 A 
BRANCH  53  67
ATOM     67  C   UNL A   1      45.612  33.056  33.219  1.00  0.00    -0.014 A 
ATOM     68  C   UNL A   1      45.867  32.329  34.405  1.00  0.00     0.010 A 
ATOM     69  C   UNL A   1      45.508  34.456  33.390  1.00  0.00     0.010 A 
ATOM     70  C   UNL A   1      46.011  32.939  35.668  1.00  0.00     0.020 A 
ATOM     71  C   UNL A   1      45.681  35.087  34.648  1.00  0.00     0.020 A 
ATOM     72  C   UNL A   1      45.928  34.321  35.784  1.00  0.00     0.054 A 
BRANCH  72  73
ATOM     73  S   UNL A   1      46.174  35.082  37.418  1.00  0.00     0.124 S 
ATOM     74  O   UNL A   1      47.624  35.017  37.586  1.00  0.00    -0.237 OA
ATOM     75  O   UNL A   1      45.626  36.423  37.232  1.00  0.00    -0.237 OA
ATOM     76  O   UNL A   1      45.410  34.225  38.322  1.00  0.00    -0.744 OA
ENDBRANCH  72  73
ENDBRANCH  53  67
BRANCH  54  77
ATOM     77  C   UNL A   1      43.504  26.167  25.960  1.00  0.00    -0.014 A 
ATOM     78  C   UNL A   1      43.392  24.760  26.141  1.00  0.00     0.010 A 
ATOM     79  C   UNL A   1      42.308  26.889  25.762  1.00  0.00     0.010 A 
ATOM     80  C   UNL A   1      42.152  24.154  26.399  1.00  0.00     0.020 A 
ATOM     81  C   UNL A   1      41.056  26.272  26.004  1.00  0.00     0.020 A 
ATOM     82  C   UNL A   1      40.995  24.928  26.393  1.00  0.00     0.054 A 
BRANCH  82  83
ATOM     83  S   UNL A   1      39.491  24.220  27.156  1.00  0.00     0.124 S 
ATOM     84  O   UNL A   1      39.922  22.877  27.518  1.00  0.00    -0.237 OA
ATOM     85  O   UNL A   1      39.242  25.131  28.273  1.00  0.00    -0.237 OA
ATOM     86  O   UNL A   1      38.504  24.296  26.086  1.00  0.00    -0.744 OA
ENDBRANCH  82  83
ENDBRANCH  54  77
BRANCH  66  87
ATOM     87  C   UNL A   1      48.556  31.458  27.373  1.00  0.00    -0.014 A 
ATOM     88  C   UNL A   1      49.911  31.172  27.166  1.00  0.00     0.010 A 
ATOM     89  C   UNL A   1      48.054  32.672  26.838  1.00  0.00     0.010 A 
ATOM     90  C   UNL A   1      50.740  32.074  26.505  1.00  0.00     0.020 A 
ATOM     91  C   UNL A   1      48.861  33.554  26.126  1.00  0.00     0.020 A 
ATOM     92  C   UNL A   1      50.210  33.258  25.991  1.00  0.00     0.054 A 
BRANCH  92  93
ATOM     93  S   UNL A   1      51.312  34.383  25.116  1.00  0.00     0.124 S 
ATOM     94  O   UNL A   1      51.646  33.599  23.930  1.00  0.00    -0.237 OA
ATOM     95  O   UNL A   1      50.458  35.546  24.879  1.00  0.00    -0.237 OA
ATOM     96  O   UNL A   1      52.407  34.601  26.055  1.00  0.00    -0.744 OA
ENDBRANCH  92  93
ENDBRANCH  66  87
ENDBRANCH  40  41
ENDBRANCH  33  35
ENDBRANCH  32  33
ENDBRANCH  31  32
ENDBRANCH  30  31
ENDBRANCH  29  30
ENDBRANCH  28  29
ENDBRANCH  27  28
ENDBRANCH   1  27
TORSDOF 26
ENDMDL
MODEL 3
REMARK VINA RESULT:      -8.2      5.516     10.357
REMARK SMILES Cc1c(Cc2nc(C(C)(C)C)cs2)cccc1C(=O)OCCOCCOCCOCCOC(=O)c1ccc(-c2c3nc(c(-c4ccc(S(=O)(=O)[O-])cc4)c4ccc([nH]4)c(-c4ccc(S(=O)(=O)[O-])cc4)c4nc(c(-c5ccc(S(=O)(=O)[O-])cc5)c5ccc2[nH]5)C=C4)C=C3)cc1
REMARK SMILES IDX 26 1 25 2 24 3 23 4 22 5 21 6 20 7 18 8 19 9 17 10 1 11 2 12
REMARK SMILES IDX 3 13 14 14 16 15 15 16 4 17 5 18 6 19 13 20 7 21 12 22 8 23
REMARK SMILES IDX 9 24 10 25 11 26 27 27 28 28 29 29 30 30 31 31 32 32 33 33
REMARK SMILES IDX 34 34 35 35 36 36 94 37 37 38 93 39 38 40 39 41 40 42 87 43
REMARK SMILES IDX 41 44 92 45 86 46 88 47 42 48 91 49 85 50 84 51 43 53 73 54
REMARK SMILES IDX 54 55 72 56 55 57 58 58 71 59 89 60 56 61 57 62 70 64 90 65
REMARK SMILES IDX 59 66 44 67 45 68 53 69 46 70 52 71 47 72 48 73 49 74 50 75
REMARK SMILES IDX 51 76 74 77 75 78 83 79 76 80 82 81 77 82 78 83 79 84 80 85
REMARK SMILES IDX 81 86 60 87 61 88 69 89 62 90 68 91 63 92 64 93 65 94 66 95
REMARK SMILES IDX 67 96
REMARK H PARENT 88 52 58 63
REMARK Flexibility Score: inf
ROOT
ATOM      1  O   UNL A   1      42.635  21.270  25.730  1.00  0.00    -0.377 OA
ENDROOT
BRANCH   1   2
ATOM      2  C   UNL A   1      41.287  21.005  26.076  1.00  0.00     0.188 C 
BRANCH   2   3
ATOM      3  C   UNL A   1      40.789  19.553  26.211  1.00  0.00     0.188 C 
BRANCH   3   4
ATOM      4  O   UNL A   1      39.624  19.103  25.543  1.00  0.00    -0.376 OA
BRANCH   4   5
ATOM      5  C   UNL A   1      38.699  20.125  25.187  1.00  0.00     0.202 C 
BRANCH   5   6
ATOM      6  C   UNL A   1      37.254  19.725  24.940  1.00  0.00     0.261 C 
BRANCH   6   7
ATOM      7  O   UNL A   1      36.439  20.846  25.251  1.00  0.00    -0.460 OA
BRANCH   7   8
ATOM      8  C   UNL A   1      35.131  20.686  25.012  1.00  0.00     0.338 C 
ATOM      9  O   UNL A   1      34.559  19.656  24.736  1.00  0.00    -0.246 OA
BRANCH   8  10
ATOM     10  C   UNL A   1      34.448  21.911  25.505  1.00  0.00     0.063 A 
ATOM     11  C   UNL A   1      36.373  23.594  25.151  1.00  0.00     0.045 C 
ATOM     12  C   UNL A   1      34.961  23.230  25.527  1.00  0.00    -0.033 A 
ATOM     13  C   UNL A   1      34.091  24.265  25.932  1.00  0.00    -0.037 A 
ATOM     14  C   UNL A   1      32.846  23.945  26.513  1.00  0.00     0.004 A 
ATOM     15  C   UNL A   1      33.207  21.621  26.098  1.00  0.00     0.016 A 
ATOM     16  C   UNL A   1      32.428  22.628  26.639  1.00  0.00     0.001 A 
BRANCH  13  17
ATOM     17  C   UNL A   1      34.341  25.718  25.533  1.00  0.00     0.103 C 
BRANCH  17  18
ATOM     18  C   UNL A   1      33.012  26.416  25.466  1.00  0.00     0.097 A 
ATOM     19  N   UNL A   1      32.251  26.364  24.396  1.00  0.00    -0.245 NA
ATOM     20  S   UNL A   1      32.473  27.496  26.683  1.00  0.00    -0.127 S 
ATOM     21  C   UNL A   1      31.363  27.420  24.387  1.00  0.00     0.057 A 
ATOM     22  C   UNL A   1      31.280  28.090  25.596  1.00  0.00     0.091 A 
BRANCH  21  23
ATOM     23  C   UNL A   1      30.614  27.693  23.097  1.00  0.00     0.005 C 
ATOM     24  C   UNL A   1      31.016  26.654  22.042  1.00  0.00     0.017 C 
ATOM     25  C   UNL A   1      29.090  27.653  23.319  1.00  0.00     0.017 C 
ATOM     26  C   UNL A   1      30.958  29.104  22.559  1.00  0.00     0.017 C 
ENDBRANCH  21  23
ENDBRANCH  17  18
ENDBRANCH  13  17
ENDBRANCH   8  10
ENDBRANCH   7   8
ENDBRANCH   6   7
ENDBRANCH   5   6
ENDBRANCH   4   5
ENDBRANCH   3   4
ENDBRANCH   2   3
ENDBRANCH   1   2
BRANCH   1  27
ATOM     27  C   UNL A   1      42.981  22.592  25.304  1.00  0.00     0.188 C 
BRANCH  27  28
ATOM     28  C   UNL A   1      42.349  23.774  26.018  1.00  0.00     0.188 C 
BRANCH  28  29
ATOM     29  O   UNL A   1      42.703  24.937  25.268  1.00  0.00    -0.376 OA
BRANCH  29  30
ATOM     30  C   UNL A   1      44.085  25.216  25.157  1.00  0.00     0.202 C 
BRANCH  30  31
ATOM     31  C   UNL A   1      44.491  26.566  25.745  1.00  0.00     0.261 C 
BRANCH  31  32
ATOM     32  O   UNL A   1      43.914  26.805  27.056  1.00  0.00    -0.460 OA
BRANCH  32  33
ATOM     33  C   UNL A   1      44.561  26.386  28.189  1.00  0.00     0.338 C 
ATOM     34  O   UNL A   1      45.504  25.610  28.161  1.00  0.00    -0.246 OA
BRANCH  33  35
ATOM     35  C   UNL A   1      44.244  27.205  29.392  1.00  0.00     0.060 A 
ATOM     36  C   UNL A   1      43.581  26.692  30.517  1.00  0.00     0.016 A 
ATOM     37  C   UNL A   1      44.612  28.535  29.396  1.00  0.00     0.016 A 
ATOM     38  C   UNL A   1      43.095  27.549  31.529  1.00  0.00     0.010 A 
ATOM     39  C   UNL A   1      44.089  29.375  30.357  1.00  0.00     0.010 A 
ATOM     40  C   UNL A   1      43.280  28.922  31.411  1.00  0.00    -0.014 A 
BRANCH  40  41
ATOM     41  C   UNL A   1      42.642  29.982  32.231  1.00  0.00     0.031 A 
ATOM     42  C   UNL A   1      43.468  30.626  33.320  1.00  0.00     0.074 A 
ATOM     43  C   UNL A   1      41.536  30.616  31.748  1.00  0.00     0.049 A 
ATOM     44  N   UNL A   1      43.171  31.721  33.929  1.00  0.00    -0.248 NA
ATOM     45  C   UNL A   1      44.779  30.132  33.755  1.00  0.00     0.031 C 
ATOM     46  C   UNL A   1      41.104  31.987  32.041  1.00  0.00     0.029 A 
ATOM     47  N   UNL A   1      40.582  30.243  30.817  1.00  0.00    -0.354 N 
ATOM     48  C   UNL A   1      44.305  32.241  34.525  1.00  0.00     0.074 A 
ATOM     49  C   UNL A   1      45.275  31.181  34.430  1.00  0.00     0.031 C 
ATOM     50  C   UNL A   1      39.942  32.276  31.438  1.00  0.00     0.029 A 
ATOM     51  C   UNL A   1      39.432  31.022  30.956  1.00  0.00     0.049 A 
ATOM     52  H   UNL A   1      40.699  29.527  30.150  1.00  0.00     0.167 HD
ATOM     53  C   UNL A   1      44.298  33.552  34.923  1.00  0.00     0.031 A 
ATOM     54  C   UNL A   1      38.265  30.500  31.433  1.00  0.00     0.031 A 
ATOM     55  C   UNL A   1      42.936  34.125  34.828  1.00  0.00     0.049 A 
ATOM     56  C   UNL A   1      38.045  31.080  32.846  1.00  0.00     0.074 A 
ATOM     57  C   UNL A   1      42.378  35.222  34.196  1.00  0.00     0.029 A 
ATOM     58  N   UNL A   1      41.852  33.376  35.302  1.00  0.00    -0.354 N 
ATOM     59  N   UNL A   1      39.028  31.351  33.686  1.00  0.00    -0.248 NA
ATOM     60  C   UNL A   1      36.794  31.737  33.242  1.00  0.00     0.031 C 
ATOM     61  C   UNL A   1      40.965  35.006  34.120  1.00  0.00     0.029 A 
ATOM     62  C   UNL A   1      40.651  33.820  34.778  1.00  0.00     0.049 A 
ATOM     63  H   UNL A   1      41.935  32.624  35.931  1.00  0.00     0.167 HD
ATOM     64  C   UNL A   1      38.630  32.359  34.537  1.00  0.00     0.074 A 
ATOM     65  C   UNL A   1      37.201  32.505  34.270  1.00  0.00     0.031 C 
ATOM     66  C   UNL A   1      39.395  33.249  35.252  1.00  0.00     0.031 A 
BRANCH  53  67
ATOM     67  C   UNL A   1      45.529  34.408  35.256  1.00  0.00    -0.014 A 
ATOM     68  C   UNL A   1      45.809  34.711  36.609  1.00  0.00     0.010 A 
ATOM     69  C   UNL A   1      46.399  35.010  34.318  1.00  0.00     0.010 A 
ATOM     70  C   UNL A   1      46.872  35.546  37.008  1.00  0.00     0.020 A 
ATOM     71  C   UNL A   1      47.492  35.827  34.705  1.00  0.00     0.020 A 
ATOM     72  C   UNL A   1      47.719  36.094  36.053  1.00  0.00     0.054 A 
BRANCH  72  73
ATOM     73  S   UNL A   1      49.116  37.121  36.603  1.00  0.00     0.124 S 
ATOM     74  O   UNL A   1      48.507  38.442  36.742  1.00  0.00    -0.237 OA
ATOM     75  O   UNL A   1      49.512  36.480  37.854  1.00  0.00    -0.237 OA
ATOM     76  O   UNL A   1      50.087  37.002  35.517  1.00  0.00    -0.744 OA
ENDBRANCH  72  73
ENDBRANCH  53  67
BRANCH  54  77
ATOM     77  C   UNL A   1      37.971  29.186  30.760  1.00  0.00    -0.014 A 
ATOM     78  C   UNL A   1      37.742  29.309  29.360  1.00  0.00     0.010 A 
ATOM     79  C   UNL A   1      38.571  27.994  31.212  1.00  0.00     0.010 A 
ATOM     80  C   UNL A   1      38.338  28.428  28.444  1.00  0.00     0.020 A 
ATOM     81  C   UNL A   1      39.156  27.095  30.287  1.00  0.00     0.020 A 
ATOM     82  C   UNL A   1      39.097  27.360  28.912  1.00  0.00     0.054 A 
BRANCH  82  83
ATOM     83  S   UNL A   1      40.203  26.514  27.728  1.00  0.00     0.124 S 
ATOM     84  O   UNL A   1      40.753  27.623  26.960  1.00  0.00    -0.237 OA
ATOM     85  O   UNL A   1      41.145  25.823  28.608  1.00  0.00    -0.237 OA
ATOM     86  O   UNL A   1      39.303  25.630  26.998  1.00  0.00    -0.744 OA
ENDBRANCH  82  83
ENDBRANCH  54  77
BRANCH  66  87
ATOM     87  C   UNL A   1      38.984  33.626  36.656  1.00  0.00    -0.014 A 
ATOM     88  C   UNL A   1      38.530  32.673  37.577  1.00  0.00     0.010 A 
ATOM     89  C   UNL A   1      39.270  34.925  37.148  1.00  0.00     0.010 A 
ATOM     90  C   UNL A   1      38.322  33.009  38.910  1.00  0.00     0.020 A 
ATOM     91  C   UNL A   1      39.120  35.256  38.491  1.00  0.00     0.020 A 
ATOM     92  C   UNL A   1      38.617  34.297  39.358  1.00  0.00     0.054 A 
BRANCH  92  93
ATOM     93  S   UNL A   1      38.361  34.680  41.100  1.00  0.00     0.124 S 
ATOM     94  O   UNL A   1      37.060  34.063  41.346  1.00  0.00    -0.237 OA
ATOM     95  O   UNL A   1      39.499  34.024  41.742  1.00  0.00    -0.237 OA
ATOM     96  O   UNL A   1      38.384  36.139  41.144  1.00  0.00    -0.744 OA
ENDBRANCH  92  93
ENDBRANCH  66  87
ENDBRANCH  40  41
ENDBRANCH  33  35
ENDBRANCH  32  33
ENDBRANCH  31  32
ENDBRANCH  30  31
ENDBRANCH  29  30
ENDBRANCH  28  29
ENDBRANCH  27  28
ENDBRANCH   1  27
TORSDOF 26
ENDMDL
