MODEL 1
REMARK VINA RESULT:      -9.9      0.000      0.000
REMARK SMILES CC(=O)Nc1ccc2sc(C(=O)OCCOCCOCCOCCOC(=O)c3ccc(-c4c5nc(c(-c6ccc(S(=O)(=O)[O-])cc6)c6ccc([nH]6)c(-c6ccc(S(=O)(=O)[O-])cc6)c6nc(c(-c7ccc(S(=O)(=O)[O-])cc7)c7ccc4[nH]7)C=C6)C=C5)cc3)cc2c1
REMARK SMILES IDX 20 1 19 2 18 3 17 4 16 5 15 6 14 7 13 8 11 9 12 10 10 11
REMARK SMILES IDX 5 12 6 13 90 14 7 15 89 16 8 17 88 18 9 19 4 20 1 21 2 22
REMARK SMILES IDX 3 23 21 25 22 26 23 27 24 28 25 29 26 30 27 31 28 32 29 33
REMARK SMILES IDX 87 34 30 35 86 36 31 37 32 38 33 39 80 40 34 41 85 42 79 43
REMARK SMILES IDX 81 44 35 45 84 46 78 47 77 48 36 50 66 51 47 52 65 53 48 54
REMARK SMILES IDX 51 55 64 56 82 57 49 58 50 59 63 61 83 62 52 63 37 64 38 65
REMARK SMILES IDX 46 66 39 67 45 68 40 69 41 70 42 71 43 72 44 73 67 74 68 75
REMARK SMILES IDX 76 76 69 77 75 78 70 79 71 80 72 81 73 82 74 83 53 84 54 85
REMARK SMILES IDX 62 86 55 87 61 88 56 89 57 90 58 91 59 92 60 93
REMARK H PARENT 4 24 81 49 51 60
REMARK Flexibility Score: inf
ROOT
ATOM      1  C   UNL A   1      40.304  20.239  26.342  1.00  0.00     0.188 C 
ENDROOT
BRANCH   1   2
ATOM      2  O   UNL A   1      39.447  21.226  25.781  1.00  0.00    -0.377 OA
BRANCH   2   3
ATOM      3  C   UNL A   1      38.084  20.927  25.548  1.00  0.00     0.188 C 
BRANCH   3   4
ATOM      4  C   UNL A   1      37.297  21.862  24.616  1.00  0.00     0.188 C 
BRANCH   4   5
ATOM      5  O   UNL A   1      36.302  22.645  25.270  1.00  0.00    -0.376 OA
BRANCH   5   6
ATOM      6  C   UNL A   1      36.123  23.969  24.784  1.00  0.00     0.202 C 
BRANCH   6   7
ATOM      7  C   UNL A   1      34.879  24.675  25.339  1.00  0.00     0.261 C 
BRANCH   7   8
ATOM      8  O   UNL A   1      33.652  24.294  24.700  1.00  0.00    -0.459 OA
BRANCH   8   9
ATOM      9  C   UNL A   1      32.751  23.616  25.453  1.00  0.00     0.348 C 
ATOM     10  O   UNL A   1      32.036  24.118  26.313  1.00  0.00    -0.245 OA
BRANCH   9  11
ATOM     11  C   UNL A   1      32.609  22.268  24.954  1.00  0.00     0.113 A 
ATOM     12  C   UNL A   1      32.464  17.569  24.371  1.00  0.00     0.041 A 
ATOM     13  C   UNL A   1      32.503  17.883  23.017  1.00  0.00     0.027 A 
ATOM     14  C   UNL A   1      32.318  18.581  25.322  1.00  0.00     0.035 A 
ATOM     15  C   UNL A   1      32.473  19.213  22.590  1.00  0.00     0.022 A 
ATOM     16  C   UNL A   1      32.402  19.935  24.924  1.00  0.00    -0.005 A 
ATOM     17  C   UNL A   1      32.469  20.229  23.561  1.00  0.00     0.035 A 
ATOM     18  C   UNL A   1      32.488  21.124  25.713  1.00  0.00     0.036 A 
ATOM     19  S   UNL A   1      32.553  21.926  23.286  1.00  0.00    -0.128 S 
BRANCH  12  20
ATOM     20  N   UNL A   1      32.596  16.257  24.842  1.00  0.00    -0.326 N 
ATOM     21  C   UNL A   1      35.072  16.290  25.044  1.00  0.00     0.114 C 
ATOM     22  C   UNL A   1      33.751  15.564  25.092  1.00  0.00     0.221 C 
ATOM     23  O   UNL A   1      33.687  14.382  25.432  1.00  0.00    -0.275 OA
ATOM     24  H   UNL A   1      31.756  15.774  25.015  1.00  0.00     0.169 HD
ENDBRANCH  12  20
ENDBRANCH   9  11
ENDBRANCH   8   9
ENDBRANCH   7   8
ENDBRANCH   6   7
ENDBRANCH   5   6
ENDBRANCH   4   5
ENDBRANCH   3   4
ENDBRANCH   2   3
ENDBRANCH   1   2
BRANCH   1  25
ATOM     25  C   UNL A   1      41.395  20.596  27.372  1.00  0.00     0.188 C 
BRANCH  25  26
ATOM     26  O   UNL A   1      41.881  21.933  27.297  1.00  0.00    -0.376 OA
BRANCH  26  27
ATOM     27  C   UNL A   1      42.838  22.187  26.277  1.00  0.00     0.202 C 
BRANCH  27  28
ATOM     28  C   UNL A   1      43.001  23.679  25.971  1.00  0.00     0.261 C 
BRANCH  28  29
ATOM     29  O   UNL A   1      42.130  24.540  26.719  1.00  0.00    -0.460 OA
BRANCH  29  30
ATOM     30  C   UNL A   1      41.854  25.747  26.176  1.00  0.00     0.338 C 
ATOM     31  O   UNL A   1      41.802  26.031  24.994  1.00  0.00    -0.246 OA
BRANCH  30  32
ATOM     32  C   UNL A   1      41.452  26.646  27.272  1.00  0.00     0.060 A 
ATOM     33  C   UNL A   1      42.059  27.905  27.371  1.00  0.00     0.016 A 
ATOM     34  C   UNL A   1      40.479  26.246  28.191  1.00  0.00     0.016 A 
ATOM     35  C   UNL A   1      41.718  28.754  28.424  1.00  0.00     0.010 A 
ATOM     36  C   UNL A   1      40.150  27.090  29.250  1.00  0.00     0.010 A 
ATOM     37  C   UNL A   1      40.793  28.332  29.388  1.00  0.00    -0.014 A 
BRANCH  37  38
ATOM     38  C   UNL A   1      40.637  29.090  30.649  1.00  0.00     0.031 A 
ATOM     39  C   UNL A   1      39.572  30.149  30.713  1.00  0.00     0.074 A 
ATOM     40  C   UNL A   1      41.425  28.852  31.711  1.00  0.00     0.049 A 
ATOM     41  N   UNL A   1      39.265  30.957  31.692  1.00  0.00    -0.248 NA
ATOM     42  C   UNL A   1      38.744  30.315  29.507  1.00  0.00     0.031 C 
ATOM     43  C   UNL A   1      42.466  27.828  31.783  1.00  0.00     0.029 A 
ATOM     44  N   UNL A   1      41.470  29.470  32.935  1.00  0.00    -0.354 N 
ATOM     45  C   UNL A   1      38.207  31.727  31.223  1.00  0.00     0.074 A 
ATOM     46  C   UNL A   1      37.948  31.311  29.862  1.00  0.00     0.031 C 
ATOM     47  C   UNL A   1      43.049  27.887  32.994  1.00  0.00     0.029 A 
ATOM     48  C   UNL A   1      42.444  28.972  33.766  1.00  0.00     0.049 A 
ATOM     49  H   UNL A   1      40.862  30.200  33.193  1.00  0.00     0.167 HD
ATOM     50  C   UNL A   1      37.508  32.691  31.869  1.00  0.00     0.031 A 
ATOM     51  C   UNL A   1      42.811  29.360  35.004  1.00  0.00     0.031 A 
ATOM     52  C   UNL A   1      37.794  33.135  33.204  1.00  0.00     0.049 A 
ATOM     53  C   UNL A   1      42.086  30.502  35.666  1.00  0.00     0.074 A 
ATOM     54  C   UNL A   1      37.149  34.108  33.946  1.00  0.00     0.029 A 
ATOM     55  N   UNL A   1      38.824  32.644  33.993  1.00  0.00    -0.354 N 
ATOM     56  N   UNL A   1      41.071  31.205  35.222  1.00  0.00    -0.248 NA
ATOM     57  C   UNL A   1      42.558  30.902  37.001  1.00  0.00     0.031 C 
ATOM     58  C   UNL A   1      37.822  34.240  35.167  1.00  0.00     0.029 A 
ATOM     59  C   UNL A   1      38.851  33.311  35.205  1.00  0.00     0.049 A 
ATOM     60  H   UNL A   1      39.443  31.926  33.730  1.00  0.00     0.167 HD
ATOM     61  C   UNL A   1      40.765  32.111  36.232  1.00  0.00     0.074 A 
ATOM     62  C   UNL A   1      41.700  31.864  37.312  1.00  0.00     0.031 C 
ATOM     63  C   UNL A   1      39.794  33.058  36.266  1.00  0.00     0.031 A 
BRANCH  50  64
ATOM     64  C   UNL A   1      36.396  33.349  31.098  1.00  0.00    -0.014 A 
ATOM     65  C   UNL A   1      36.612  33.847  29.800  1.00  0.00     0.010 A 
ATOM     66  C   UNL A   1      35.130  33.498  31.691  1.00  0.00     0.010 A 
ATOM     67  C   UNL A   1      35.597  34.538  29.132  1.00  0.00     0.020 A 
ATOM     68  C   UNL A   1      34.105  34.166  31.015  1.00  0.00     0.020 A 
ATOM     69  C   UNL A   1      34.354  34.705  29.750  1.00  0.00     0.054 A 
BRANCH  69  70
ATOM     70  S   UNL A   1      33.062  35.631  28.877  1.00  0.00     0.124 S 
ATOM     71  O   UNL A   1      33.846  36.633  28.158  1.00  0.00    -0.237 OA
ATOM     72  O   UNL A   1      32.438  34.608  28.043  1.00  0.00    -0.237 OA
ATOM     73  O   UNL A   1      32.221  36.150  29.953  1.00  0.00    -0.744 OA
ENDBRANCH  69  70
ENDBRANCH  50  64
BRANCH  51  74
ATOM     74  C   UNL A   1      43.918  28.653  35.701  1.00  0.00    -0.014 A 
ATOM     75  C   UNL A   1      43.643  27.563  36.546  1.00  0.00     0.010 A 
ATOM     76  C   UNL A   1      45.253  29.049  35.506  1.00  0.00     0.010 A 
ATOM     77  C   UNL A   1      44.685  26.883  37.184  1.00  0.00     0.020 A 
ATOM     78  C   UNL A   1      46.298  28.358  36.125  1.00  0.00     0.020 A 
ATOM     79  C   UNL A   1      46.006  27.281  36.965  1.00  0.00     0.054 A 
BRANCH  79  80
ATOM     80  S   UNL A   1      47.346  26.333  37.741  1.00  0.00     0.124 S 
ATOM     81  O   UNL A   1      46.610  25.278  38.431  1.00  0.00    -0.237 OA
ATOM     82  O   UNL A   1      48.137  25.906  36.590  1.00  0.00    -0.237 OA
ATOM     83  O   UNL A   1      47.999  27.311  38.608  1.00  0.00    -0.744 OA
ENDBRANCH  79  80
ENDBRANCH  51  74
BRANCH  63  84
ATOM     84  C   UNL A   1      39.668  33.881  37.521  1.00  0.00    -0.014 A 
ATOM     85  C   UNL A   1      38.943  33.411  38.630  1.00  0.00     0.010 A 
ATOM     86  C   UNL A   1      40.340  35.113  37.611  1.00  0.00     0.010 A 
ATOM     87  C   UNL A   1      38.873  34.174  39.800  1.00  0.00     0.020 A 
ATOM     88  C   UNL A   1      40.293  35.866  38.787  1.00  0.00     0.020 A 
ATOM     89  C   UNL A   1      39.549  35.396  39.871  1.00  0.00     0.054 A 
BRANCH  89  90
ATOM     90  S   UNL A   1      39.487  36.344  41.417  1.00  0.00     0.124 S 
ATOM     91  O   UNL A   1      40.817  36.106  41.972  1.00  0.00    -0.237 OA
ATOM     92  O   UNL A   1      39.235  37.706  40.950  1.00  0.00    -0.237 OA
ATOM     93  O   UNL A   1      38.385  35.733  42.155  1.00  0.00    -0.744 OA
ENDBRANCH  89  90
ENDBRANCH  63  84
ENDBRANCH  37  38
ENDBRANCH  30  32
ENDBRANCH  29  30
ENDBRANCH  28  29
ENDBRANCH  27  28
ENDBRANCH  26  27
ENDBRANCH  25  26
ENDBRANCH   1  25
TORSDOF 24
ENDMDL
MODEL 2
REMARK VINA RESULT:      -9.9      2.168      4.292
REMARK SMILES CC(=O)Nc1ccc2sc(C(=O)OCCOCCOCCOCCOC(=O)c3ccc(-c4c5nc(c(-c6ccc(S(=O)(=O)[O-])cc6)c6ccc([nH]6)c(-c6ccc(S(=O)(=O)[O-])cc6)c6nc(c(-c7ccc(S(=O)(=O)[O-])cc7)c7ccc4[nH]7)C=C6)C=C5)cc3)cc2c1
REMARK SMILES IDX 20 1 19 2 18 3 17 4 16 5 15 6 14 7 13 8 11 9 12 10 10 11
REMARK SMILES IDX 5 12 6 13 90 14 7 15 89 16 8 17 88 18 9 19 4 20 1 21 2 22
REMARK SMILES IDX 3 23 21 25 22 26 23 27 24 28 25 29 26 30 27 31 28 32 29 33
REMARK SMILES IDX 87 34 30 35 86 36 31 37 32 38 33 39 80 40 34 41 85 42 79 43
REMARK SMILES IDX 81 44 35 45 84 46 78 47 77 48 36 50 66 51 47 52 65 53 48 54
REMARK SMILES IDX 51 55 64 56 82 57 49 58 50 59 63 61 83 62 52 63 37 64 38 65
REMARK SMILES IDX 46 66 39 67 45 68 40 69 41 70 42 71 43 72 44 73 67 74 68 75
REMARK SMILES IDX 76 76 69 77 75 78 70 79 71 80 72 81 73 82 74 83 53 84 54 85
REMARK SMILES IDX 62 86 55 87 61 88 56 89 57 90 58 91 59 92 60 93
REMARK H PARENT 4 24 81 49 51 60
REMARK Flexibility Score: inf
ROOT
ATOM      1  C   UNL A   1      40.649  20.177  26.278  1.00  0.00     0.188 C 
ENDROOT
BRANCH   1   2
ATOM      2  O   UNL A   1      39.576  21.098  26.116  1.00  0.00    -0.377 OA
BRANCH   2   3
ATOM      3  C   UNL A   1      38.485  20.769  25.278  1.00  0.00     0.188 C 
BRANCH   3   4
ATOM      4  C   UNL A   1      37.281  21.723  25.268  1.00  0.00     0.188 C 
BRANCH   4   5
ATOM      5  O   UNL A   1      36.201  21.300  24.439  1.00  0.00    -0.376 OA
BRANCH   5   6
ATOM      6  C   UNL A   1      34.983  20.988  25.104  1.00  0.00     0.202 C 
BRANCH   6   7
ATOM      7  C   UNL A   1      33.728  21.249  24.261  1.00  0.00     0.261 C 
BRANCH   7   8
ATOM      8  O   UNL A   1      33.104  22.516  24.514  1.00  0.00    -0.459 OA
BRANCH   8   9
ATOM      9  C   UNL A   1      33.521  23.567  23.765  1.00  0.00     0.348 C 
ATOM     10  O   UNL A   1      33.951  23.486  22.620  1.00  0.00    -0.245 OA
BRANCH   9  11
ATOM     11  C   UNL A   1      33.191  24.806  24.431  1.00  0.00     0.113 A 
ATOM     12  C   UNL A   1      33.170  29.152  26.315  1.00  0.00     0.041 A 
ATOM     13  C   UNL A   1      32.085  28.673  27.041  1.00  0.00     0.027 A 
ATOM     14  C   UNL A   1      33.723  28.383  25.289  1.00  0.00     0.035 A 
ATOM     15  C   UNL A   1      31.580  27.391  26.810  1.00  0.00     0.022 A 
ATOM     16  C   UNL A   1      33.305  27.043  25.114  1.00  0.00    -0.005 A 
ATOM     17  C   UNL A   1      32.233  26.571  25.873  1.00  0.00     0.035 A 
ATOM     18  C   UNL A   1      33.848  26.009  24.290  1.00  0.00     0.036 A 
ATOM     19  S   UNL A   1      31.875  24.929  25.505  1.00  0.00    -0.128 S 
BRANCH  12  20
ATOM     20  N   UNL A   1      33.770  30.387  26.587  1.00  0.00    -0.326 N 
ATOM     21  C   UNL A   1      35.536  29.504  28.094  1.00  0.00     0.114 C 
ATOM     22  C   UNL A   1      34.797  30.652  27.454  1.00  0.00     0.221 C 
ATOM     23  O   UNL A   1      35.155  31.817  27.632  1.00  0.00    -0.275 OA
ATOM     24  H   UNL A   1      33.409  31.160  26.096  1.00  0.00     0.169 HD
ENDBRANCH  12  20
ENDBRANCH   9  11
ENDBRANCH   8   9
ENDBRANCH   7   8
ENDBRANCH   6   7
ENDBRANCH   5   6
ENDBRANCH   4   5
ENDBRANCH   3   4
ENDBRANCH   2   3
ENDBRANCH   1   2
BRANCH   1  25
ATOM     25  C   UNL A   1      41.776  20.409  27.306  1.00  0.00     0.188 C 
BRANCH  25  26
ATOM     26  O   UNL A   1      42.291  21.736  27.346  1.00  0.00    -0.376 OA
BRANCH  26  27
ATOM     27  C   UNL A   1      43.166  22.093  26.284  1.00  0.00     0.202 C 
BRANCH  27  28
ATOM     28  C   UNL A   1      43.387  23.604  26.175  1.00  0.00     0.261 C 
BRANCH  28  29
ATOM     29  O   UNL A   1      42.373  24.402  26.804  1.00  0.00    -0.460 OA
BRANCH  29  30
ATOM     30  C   UNL A   1      42.109  25.604  26.244  1.00  0.00     0.338 C 
ATOM     31  O   UNL A   1      42.066  25.873  25.057  1.00  0.00    -0.246 OA
BRANCH  30  32
ATOM     32  C   UNL A   1      41.707  26.520  27.325  1.00  0.00     0.060 A 
ATOM     33  C   UNL A   1      42.382  27.739  27.465  1.00  0.00     0.016 A 
ATOM     34  C   UNL A   1      40.666  26.174  28.191  1.00  0.00     0.016 A 
ATOM     35  C   UNL A   1      42.039  28.603  28.505  1.00  0.00     0.010 A 
ATOM     36  C   UNL A   1      40.334  27.032  29.238  1.00  0.00     0.010 A 
ATOM     37  C   UNL A   1      41.042  28.232  29.418  1.00  0.00    -0.014 A 
BRANCH  37  38
ATOM     38  C   UNL A   1      40.868  28.992  30.676  1.00  0.00     0.031 A 
ATOM     39  C   UNL A   1      39.793  30.041  30.728  1.00  0.00     0.074 A 
ATOM     40  C   UNL A   1      41.650  28.765  31.745  1.00  0.00     0.049 A 
ATOM     41  N   UNL A   1      39.470  30.849  31.701  1.00  0.00    -0.248 NA
ATOM     42  C   UNL A   1      38.973  30.195  29.514  1.00  0.00     0.031 C 
ATOM     43  C   UNL A   1      42.699  27.751  31.829  1.00  0.00     0.029 A 
ATOM     44  N   UNL A   1      41.678  29.385  32.968  1.00  0.00    -0.354 N 
ATOM     45  C   UNL A   1      38.408  31.607  31.221  1.00  0.00     0.074 A 
ATOM     46  C   UNL A   1      38.165  31.185  29.859  1.00  0.00     0.031 C 
ATOM     47  C   UNL A   1      43.271  27.819  33.045  1.00  0.00     0.029 A 
ATOM     48  C   UNL A   1      42.649  28.900  33.809  1.00  0.00     0.049 A 
ATOM     49  H   UNL A   1      41.061  30.111  33.219  1.00  0.00     0.167 HD
ATOM     50  C   UNL A   1      37.694  32.566  31.858  1.00  0.00     0.031 A 
ATOM     51  C   UNL A   1      43.001  29.294  35.049  1.00  0.00     0.031 A 
ATOM     52  C   UNL A   1      37.964  33.015  33.195  1.00  0.00     0.049 A 
ATOM     53  C   UNL A   1      42.259  30.431  35.702  1.00  0.00     0.074 A 
ATOM     54  C   UNL A   1      37.304  33.984  33.929  1.00  0.00     0.029 A 
ATOM     55  N   UNL A   1      38.992  32.537  33.994  1.00  0.00    -0.354 N 
ATOM     56  N   UNL A   1      41.242  31.123  35.247  1.00  0.00    -0.248 NA
ATOM     57  C   UNL A   1      42.716  30.839  37.039  1.00  0.00     0.031 C 
ATOM     58  C   UNL A   1      37.964  34.126  35.155  1.00  0.00     0.029 A 
ATOM     59  C   UNL A   1      39.002  33.207  35.205  1.00  0.00     0.049 A 
ATOM     60  H   UNL A   1      39.620  31.824  33.738  1.00  0.00     0.167 HD
ATOM     61  C   UNL A   1      40.918  32.029  36.251  1.00  0.00     0.074 A 
ATOM     62  C   UNL A   1      41.846  31.793  37.340  1.00  0.00     0.031 C 
ATOM     63  C   UNL A   1      39.938  32.966  36.274  1.00  0.00     0.031 A 
BRANCH  50  64
ATOM     64  C   UNL A   1      36.583  33.211  31.076  1.00  0.00    -0.014 A 
ATOM     65  C   UNL A   1      36.849  33.913  29.885  1.00  0.00     0.010 A 
ATOM     66  C   UNL A   1      35.263  33.141  31.553  1.00  0.00     0.010 A 
ATOM     67  C   UNL A   1      35.821  34.585  29.219  1.00  0.00     0.020 A 
ATOM     68  C   UNL A   1      34.228  33.790  30.874  1.00  0.00     0.020 A 
ATOM     69  C   UNL A   1      34.519  34.531  29.726  1.00  0.00     0.054 A 
BRANCH  69  70
ATOM     70  S   UNL A   1      33.207  35.436  28.861  1.00  0.00     0.124 S 
ATOM     71  O   UNL A   1      33.971  36.442  28.127  1.00  0.00    -0.237 OA
ATOM     72  O   UNL A   1      32.586  34.400  28.041  1.00  0.00    -0.237 OA
ATOM     73  O   UNL A   1      32.372  35.953  29.943  1.00  0.00    -0.744 OA
ENDBRANCH  69  70
ENDBRANCH  50  64
BRANCH  51  74
ATOM     74  C   UNL A   1      44.109  28.599  35.758  1.00  0.00    -0.014 A 
ATOM     75  C   UNL A   1      43.829  27.682  36.785  1.00  0.00     0.010 A 
ATOM     76  C   UNL A   1      45.447  28.833  35.394  1.00  0.00     0.010 A 
ATOM     77  C   UNL A   1      44.868  27.010  37.437  1.00  0.00     0.020 A 
ATOM     78  C   UNL A   1      46.487  28.148  36.028  1.00  0.00     0.020 A 
ATOM     79  C   UNL A   1      46.191  27.244  37.050  1.00  0.00     0.054 A 
BRANCH  79  80
ATOM     80  S   UNL A   1      47.517  26.303  37.856  1.00  0.00     0.124 S 
ATOM     81  O   UNL A   1      48.608  27.272  37.874  1.00  0.00    -0.237 OA
ATOM     82  O   UNL A   1      46.931  25.984  39.156  1.00  0.00    -0.237 OA
ATOM     83  O   UNL A   1      47.709  25.157  36.971  1.00  0.00    -0.744 OA
ENDBRANCH  79  80
ENDBRANCH  51  74
BRANCH  63  84
ATOM     84  C   UNL A   1      39.793  33.791  37.525  1.00  0.00    -0.014 A 
ATOM     85  C   UNL A   1      40.384  35.062  37.632  1.00  0.00     0.010 A 
ATOM     86  C   UNL A   1      38.998  33.313  38.582  1.00  0.00     0.010 A 
ATOM     87  C   UNL A   1      40.203  35.829  38.787  1.00  0.00     0.020 A 
ATOM     88  C   UNL A   1      38.794  34.087  39.728  1.00  0.00     0.020 A 
ATOM     89  C   UNL A   1      39.409  35.337  39.827  1.00  0.00     0.054 A 
BRANCH  89  90
ATOM     90  S   UNL A   1      39.145  36.372  41.294  1.00  0.00     0.124 S 
ATOM     91  O   UNL A   1      38.825  37.666  40.700  1.00  0.00    -0.237 OA
ATOM     92  O   UNL A   1      38.037  35.698  41.968  1.00  0.00    -0.237 OA
ATOM     93  O   UNL A   1      40.423  36.307  41.999  1.00  0.00    -0.744 OA
ENDBRANCH  89  90
ENDBRANCH  63  84
ENDBRANCH  37  38
ENDBRANCH  30  32
ENDBRANCH  29  30
ENDBRANCH  28  29
ENDBRANCH  27  28
ENDBRANCH  26  27
ENDBRANCH  25  26
ENDBRANCH   1  25
TORSDOF 24
ENDMDL
MODEL 3
REMARK VINA RESULT:      -9.5      5.131      9.685
REMARK SMILES CC(=O)Nc1ccc2sc(C(=O)OCCOCCOCCOCCOC(=O)c3ccc(-c4c5nc(c(-c6ccc(S(=O)(=O)[O-])cc6)c6ccc([nH]6)c(-c6ccc(S(=O)(=O)[O-])cc6)c6nc(c(-c7ccc(S(=O)(=O)[O-])cc7)c7ccc4[nH]7)C=C6)C=C5)cc3)cc2c1
REMARK SMILES IDX 20 1 19 2 18 3 17 4 16 5 15 6 14 7 13 8 11 9 12 10 10 11
REMARK SMILES IDX 5 12 6 13 90 14 7 15 89 16 8 17 88 18 9 19 4 20 1 21 2 22
REMARK SMILES IDX 3 23 21 25 22 26 23 27 24 28 25 29 26 30 27 31 28 32 29 33
REMARK SMILES IDX 87 34 30 35 86 36 31 37 32 38 33 39 80 40 34 41 85 42 79 43
REMARK SMILES IDX 81 44 35 45 84 46 78 47 77 48 36 50 66 51 47 52 65 53 48 54
REMARK SMILES IDX 51 55 64 56 82 57 49 58 50 59 63 61 83 62 52 63 37 64 38 65
REMARK SMILES IDX 46 66 39 67 45 68 40 69 41 70 42 71 43 72 44 73 67 74 68 75
REMARK SMILES IDX 76 76 69 77 75 78 70 79 71 80 72 81 73 82 74 83 53 84 54 85
REMARK SMILES IDX 62 86 55 87 61 88 56 89 57 90 58 91 59 92 60 93
REMARK H PARENT 4 24 81 49 51 60
REMARK Flexibility Score: inf
ROOT
ATOM      1  C   UNL A   1      34.931  23.907  23.769  1.00  0.00     0.188 C 
ENDROOT
BRANCH   1   2
ATOM      2  O   UNL A   1      34.399  24.728  22.736  1.00  0.00    -0.377 OA
BRANCH   2   3
ATOM      3  C   UNL A   1      33.448  25.727  23.049  1.00  0.00     0.188 C 
BRANCH   3   4
ATOM      4  C   UNL A   1      33.301  26.903  22.070  1.00  0.00     0.188 C 
BRANCH   4   5
ATOM      5  O   UNL A   1      32.227  27.790  22.372  1.00  0.00    -0.376 OA
BRANCH   5   6
ATOM      6  C   UNL A   1      30.928  27.213  22.422  1.00  0.00     0.202 C 
BRANCH   6   7
ATOM      7  C   UNL A   1      30.369  27.054  23.842  1.00  0.00     0.261 C 
BRANCH   7   8
ATOM      8  O   UNL A   1      30.108  25.696  24.222  1.00  0.00    -0.459 OA
BRANCH   8   9
ATOM      9  C   UNL A   1      30.463  25.330  25.479  1.00  0.00     0.348 C 
ATOM     10  O   UNL A   1      30.087  25.887  26.504  1.00  0.00    -0.245 OA
BRANCH   9  11
ATOM     11  C   UNL A   1      31.175  24.073  25.442  1.00  0.00     0.113 A 
ATOM     12  C   UNL A   1      32.780  19.722  24.480  1.00  0.00     0.041 A 
ATOM     13  C   UNL A   1      33.353  19.813  25.744  1.00  0.00     0.027 A 
ATOM     14  C   UNL A   1      32.163  20.836  23.907  1.00  0.00     0.035 A 
ATOM     15  C   UNL A   1      33.256  20.990  26.491  1.00  0.00     0.022 A 
ATOM     16  C   UNL A   1      31.952  21.998  24.686  1.00  0.00    -0.005 A 
ATOM     17  C   UNL A   1      32.510  22.059  25.963  1.00  0.00     0.035 A 
ATOM     18  C   UNL A   1      31.181  23.169  24.403  1.00  0.00     0.036 A 
ATOM     19  S   UNL A   1      32.150  23.552  26.738  1.00  0.00    -0.128 S 
BRANCH  12  20
ATOM     20  N   UNL A   1      32.766  18.531  23.745  1.00  0.00    -0.326 N 
ATOM     21  C   UNL A   1      35.079  17.830  24.323  1.00  0.00     0.114 C 
ATOM     22  C   UNL A   1      33.797  17.651  23.547  1.00  0.00     0.221 C 
ATOM     23  O   UNL A   1      33.635  16.683  22.803  1.00  0.00    -0.275 OA
ATOM     24  H   UNL A   1      31.911  18.296  23.318  1.00  0.00     0.169 HD
ENDBRANCH  12  20
ENDBRANCH   9  11
ENDBRANCH   8   9
ENDBRANCH   7   8
ENDBRANCH   6   7
ENDBRANCH   5   6
ENDBRANCH   4   5
ENDBRANCH   3   4
ENDBRANCH   2   3
ENDBRANCH   1   2
BRANCH   1  25
ATOM     25  C   UNL A   1      36.043  22.873  23.499  1.00  0.00     0.188 C 
BRANCH  25  26
ATOM     26  O   UNL A   1      36.017  21.726  24.343  1.00  0.00    -0.376 OA
BRANCH  26  27
ATOM     27  C   UNL A   1      37.228  20.983  24.417  1.00  0.00     0.202 C 
BRANCH  27  28
ATOM     28  C   UNL A   1      37.941  21.139  25.763  1.00  0.00     0.261 C 
BRANCH  28  29
ATOM     29  O   UNL A   1      39.206  21.812  25.693  1.00  0.00    -0.460 OA
BRANCH  29  30
ATOM     30  C   UNL A   1      40.020  21.692  26.766  1.00  0.00     0.338 C 
ATOM     31  O   UNL A   1      40.530  20.674  27.196  1.00  0.00    -0.246 OA
BRANCH  30  32
ATOM     32  C   UNL A   1      40.333  23.051  27.242  1.00  0.00     0.060 A 
ATOM     33  C   UNL A   1      39.763  24.147  26.582  1.00  0.00     0.016 A 
ATOM     34  C   UNL A   1      41.183  23.235  28.335  1.00  0.00     0.016 A 
ATOM     35  C   UNL A   1      40.077  25.441  26.996  1.00  0.00     0.010 A 
ATOM     36  C   UNL A   1      41.507  24.529  28.739  1.00  0.00     0.010 A 
ATOM     37  C   UNL A   1      40.981  25.635  28.049  1.00  0.00    -0.014 A 
BRANCH  37  38
ATOM     38  C   UNL A   1      41.541  26.981  28.309  1.00  0.00     0.031 A 
ATOM     39  C   UNL A   1      43.012  27.192  28.083  1.00  0.00     0.074 A 
ATOM     40  C   UNL A   1      40.767  27.989  28.742  1.00  0.00     0.049 A 
ATOM     41  N   UNL A   1      43.732  28.266  28.267  1.00  0.00    -0.248 NA
ATOM     42  C   UNL A   1      43.769  26.032  27.583  1.00  0.00     0.031 C 
ATOM     43  C   UNL A   1      39.323  27.917  28.962  1.00  0.00     0.029 A 
ATOM     44  N   UNL A   1      41.098  29.277  29.081  1.00  0.00    -0.354 N 
ATOM     45  C   UNL A   1      45.027  27.914  27.902  1.00  0.00     0.074 A 
ATOM     46  C   UNL A   1      44.998  26.519  27.520  1.00  0.00     0.031 C 
ATOM     47  C   UNL A   1      38.892  29.114  29.400  1.00  0.00     0.029 A 
ATOM     48  C   UNL A   1      40.032  30.022  29.520  1.00  0.00     0.049 A 
ATOM     49  H   UNL A   1      42.015  29.632  29.015  1.00  0.00     0.167 HD
ATOM     50  C   UNL A   1      46.141  28.684  27.882  1.00  0.00     0.031 A 
ATOM     51  C   UNL A   1      39.987  31.289  29.979  1.00  0.00     0.031 A 
ATOM     52  C   UNL A   1      46.179  30.056  28.304  1.00  0.00     0.049 A 
ATOM     53  C   UNL A   1      41.257  32.097  30.043  1.00  0.00     0.074 A 
ATOM     54  C   UNL A   1      47.258  30.922  28.328  1.00  0.00     0.029 A 
ATOM     55  N   UNL A   1      45.088  30.759  28.795  1.00  0.00    -0.354 N 
ATOM     56  N   UNL A   1      42.470  31.761  29.673  1.00  0.00    -0.248 NA
ATOM     57  C   UNL A   1      41.149  33.459  30.588  1.00  0.00     0.031 C 
ATOM     58  C   UNL A   1      46.829  32.135  28.881  1.00  0.00     0.029 A 
ATOM     59  C   UNL A   1      45.472  32.041  29.150  1.00  0.00     0.049 A 
ATOM     60  H   UNL A   1      44.176  30.399  28.878  1.00  0.00     0.167 HD
ATOM     61  C   UNL A   1      43.264  32.877  29.914  1.00  0.00     0.074 A 
ATOM     62  C   UNL A   1      42.393  33.899  30.458  1.00  0.00     0.031 C 
ATOM     63  C   UNL A   1      44.593  33.044  29.697  1.00  0.00     0.031 A 
BRANCH  50  64
ATOM     64  C   UNL A   1      47.411  28.020  27.425  1.00  0.00    -0.014 A 
ATOM     65  C   UNL A   1      48.211  27.291  28.324  1.00  0.00     0.010 A 
ATOM     66  C   UNL A   1      47.825  28.154  26.088  1.00  0.00     0.010 A 
ATOM     67  C   UNL A   1      49.434  26.759  27.908  1.00  0.00     0.020 A 
ATOM     68  C   UNL A   1      49.035  27.600  25.661  1.00  0.00     0.020 A 
ATOM     69  C   UNL A   1      49.844  26.928  26.582  1.00  0.00     0.054 A 
BRANCH  69  70
ATOM     70  S   UNL A   1      51.449  26.255  26.071  1.00  0.00     0.124 S 
ATOM     71  O   UNL A   1      52.380  27.181  26.711  1.00  0.00    -0.237 OA
ATOM     72  O   UNL A   1      51.426  24.905  26.629  1.00  0.00    -0.237 OA
ATOM     73  O   UNL A   1      51.405  26.323  24.613  1.00  0.00    -0.744 OA
ENDBRANCH  69  70
ENDBRANCH  50  64
BRANCH  51  74
ATOM     74  C   UNL A   1      38.689  31.874  30.407  1.00  0.00    -0.014 A 
ATOM     75  C   UNL A   1      38.346  31.917  31.769  1.00  0.00     0.010 A 
ATOM     76  C   UNL A   1      37.801  32.411  29.459  1.00  0.00     0.010 A 
ATOM     77  C   UNL A   1      37.135  32.487  32.176  1.00  0.00     0.020 A 
ATOM     78  C   UNL A   1      36.599  33.001  29.863  1.00  0.00     0.020 A 
ATOM     79  C   UNL A   1      36.272  33.031  31.221  1.00  0.00     0.054 A 
BRANCH  79  80
ATOM     80  S   UNL A   1      34.744  33.836  31.779  1.00  0.00     0.124 S 
ATOM     81  O   UNL A   1      35.237  34.733  32.819  1.00  0.00    -0.237 OA
ATOM     82  O   UNL A   1      34.265  34.482  30.559  1.00  0.00    -0.237 OA
ATOM     83  O   UNL A   1      33.923  32.722  32.248  1.00  0.00    -0.744 OA
ENDBRANCH  79  80
ENDBRANCH  51  74
BRANCH  63  84
ATOM     84  C   UNL A   1      45.188  34.389  30.020  1.00  0.00    -0.014 A 
ATOM     85  C   UNL A   1      45.212  35.422  29.067  1.00  0.00     0.010 A 
ATOM     86  C   UNL A   1      45.668  34.640  31.318  1.00  0.00     0.010 A 
ATOM     87  C   UNL A   1      45.731  36.677  29.401  1.00  0.00     0.020 A 
ATOM     88  C   UNL A   1      46.165  35.900  31.662  1.00  0.00     0.020 A 
ATOM     89  C   UNL A   1      46.204  36.908  30.696  1.00  0.00     0.054 A 
BRANCH  89  90
ATOM     90  S   UNL A   1      46.825  38.559  31.121  1.00  0.00     0.124 S 
ATOM     91  O   UNL A   1      45.588  39.306  31.324  1.00  0.00    -0.237 OA
ATOM     92  O   UNL A   1      47.612  38.305  32.327  1.00  0.00    -0.237 OA
ATOM     93  O   UNL A   1      47.605  38.949  29.949  1.00  0.00    -0.744 OA
ENDBRANCH  89  90
ENDBRANCH  63  84
ENDBRANCH  37  38
ENDBRANCH  30  32
ENDBRANCH  29  30
ENDBRANCH  28  29
ENDBRANCH  27  28
ENDBRANCH  26  27
ENDBRANCH  25  26
ENDBRANCH   1  25
TORSDOF 24
ENDMDL
