MODEL 1
REMARK VINA RESULT:      -7.8      0.000      0.000
REMARK SMILES O=C(OCCOCCOCCOCCOC(=O)[C@@H](F)Oc1ccc(F)c(Cl)c1)c1ccc(-c2c3nc(c(-c4ccc(S(=O)(=O)[O-])cc4)c4ccc([nH]4)c(-c4ccc(S(=O)(=O)[O-])cc4)c4nc(c(-c5ccc(S(=O)(=O)[O-])cc5)c5ccc2[nH]5)C=C4)C=C3)cc1
REMARK SMILES IDX 8 1 7 2 6 3 5 4 4 5 3 6 2 7 1 8 29 9 30 10 88 11 31 12 87 13
REMARK SMILES IDX 32 14 33 15 34 16 81 17 35 18 86 19 80 20 82 21 36 22 85 23
REMARK SMILES IDX 79 24 78 25 37 27 67 28 48 29 66 30 49 31 52 32 65 33 83 34
REMARK SMILES IDX 50 35 51 36 64 38 84 39 53 40 38 41 39 42 47 43 40 44 46 45
REMARK SMILES IDX 41 46 42 47 43 48 44 49 45 50 68 51 69 52 77 53 70 54 76 55
REMARK SMILES IDX 71 56 72 57 73 58 74 59 75 60 54 61 55 62 63 63 56 64 62 65
REMARK SMILES IDX 57 66 58 67 59 68 60 69 61 70 9 71 10 72 11 73 12 74 13 75
REMARK SMILES IDX 14 76 15 77 16 78 17 79 18 80 19 81 20 82 21 83 22 84 28 85
REMARK SMILES IDX 23 86 26 87 24 88 27 89 25 90
REMARK H PARENT 82 26 52 37
REMARK Flexibility Score: inf
ROOT
ATOM      1  C   UNL A   1      33.399  36.100  30.914  1.00  0.00     0.188 C 
ENDROOT
BRANCH   1   2
ATOM      2  C   UNL A   1      32.717  36.064  29.548  1.00  0.00     0.188 C 
BRANCH   2   3
ATOM      3  O   UNL A   1      32.792  34.755  29.007  1.00  0.00    -0.376 OA
BRANCH   3   4
ATOM      4  C   UNL A   1      33.923  34.373  28.249  1.00  0.00     0.202 C 
BRANCH   4   5
ATOM      5  C   UNL A   1      34.845  33.299  28.830  1.00  0.00     0.261 C 
BRANCH   5   6
ATOM      6  O   UNL A   1      34.297  31.967  28.917  1.00  0.00    -0.460 OA
BRANCH   6   7
ATOM      7  C   UNL A   1      34.661  30.852  28.234  1.00  0.00     0.338 C 
ATOM      8  O   UNL A   1      33.867  30.306  27.476  1.00  0.00    -0.246 OA
BRANCH   7   9
ATOM      9  C   UNL A   1      36.016  30.280  28.382  1.00  0.00     0.060 A 
ATOM     10  C   UNL A   1      36.433  29.682  29.560  1.00  0.00     0.016 A 
ATOM     11  C   UNL A   1      36.870  30.231  27.279  1.00  0.00     0.016 A 
ATOM     12  C   UNL A   1      37.748  29.315  29.754  1.00  0.00     0.010 A 
ATOM     13  C   UNL A   1      38.157  29.691  27.414  1.00  0.00     0.010 A 
ATOM     14  C   UNL A   1      38.626  29.298  28.678  1.00  0.00    -0.014 A 
BRANCH  14  15
ATOM     15  C   UNL A   1      40.042  28.964  28.944  1.00  0.00     0.031 A 
ATOM     16  C   UNL A   1      40.879  29.957  29.700  1.00  0.00     0.074 A 
ATOM     17  C   UNL A   1      40.509  27.732  28.655  1.00  0.00     0.049 A 
ATOM     18  N   UNL A   1      42.151  29.913  29.989  1.00  0.00    -0.248 NA
ATOM     19  C   UNL A   1      40.194  31.164  30.200  1.00  0.00     0.031 C 
ATOM     20  C   UNL A   1      39.733  26.652  28.029  1.00  0.00     0.029 A 
ATOM     21  N   UNL A   1      41.729  27.154  28.894  1.00  0.00    -0.354 N 
ATOM     22  C   UNL A   1      42.424  31.099  30.660  1.00  0.00     0.074 A 
ATOM     23  C   UNL A   1      41.195  31.853  30.722  1.00  0.00     0.031 C 
ATOM     24  C   UNL A   1      40.471  25.533  27.997  1.00  0.00     0.029 A 
ATOM     25  C   UNL A   1      41.806  25.842  28.486  1.00  0.00     0.049 A 
ATOM     26  H   UNL A   1      42.478  27.632  29.316  1.00  0.00     0.167 HD
ATOM     27  C   UNL A   1      43.600  31.515  31.180  1.00  0.00     0.031 A 
ATOM     28  C   UNL A   1      42.855  24.998  28.462  1.00  0.00     0.031 A 
ATOM     29  C   UNL A   1      44.804  30.734  31.112  1.00  0.00     0.049 A 
ATOM     30  C   UNL A   1      44.175  25.522  28.957  1.00  0.00     0.074 A 
ATOM     31  C   UNL A   1      46.080  31.070  31.520  1.00  0.00     0.029 A 
ATOM     32  N   UNL A   1      44.866  29.440  30.611  1.00  0.00    -0.354 N 
ATOM     33  N   UNL A   1      44.447  26.691  29.491  1.00  0.00    -0.248 NA
ATOM     34  C   UNL A   1      45.331  24.628  28.834  1.00  0.00     0.031 C 
ATOM     35  C   UNL A   1      46.924  29.994  31.224  1.00  0.00     0.029 A 
ATOM     36  C   UNL A   1      46.161  28.965  30.690  1.00  0.00     0.049 A 
ATOM     37  H   UNL A   1      44.101  28.936  30.252  1.00  0.00     0.167 HD
ATOM     38  C   UNL A   1      45.806  26.673  29.772  1.00  0.00     0.074 A 
ATOM     39  C   UNL A   1      46.289  25.361  29.384  1.00  0.00     0.031 C 
ATOM     40  C   UNL A   1      46.593  27.650  30.289  1.00  0.00     0.031 A 
BRANCH  27  41
ATOM     41  C   UNL A   1      43.635  32.887  31.799  1.00  0.00    -0.014 A 
ATOM     42  C   UNL A   1      43.500  33.072  33.186  1.00  0.00     0.010 A 
ATOM     43  C   UNL A   1      43.783  34.013  30.970  1.00  0.00     0.010 A 
ATOM     44  C   UNL A   1      43.478  34.360  33.729  1.00  0.00     0.020 A 
ATOM     45  C   UNL A   1      43.789  35.302  31.511  1.00  0.00     0.020 A 
ATOM     46  C   UNL A   1      43.621  35.468  32.887  1.00  0.00     0.054 A 
BRANCH  46  47
ATOM     47  S   UNL A   1      43.607  37.127  33.621  1.00  0.00     0.124 S 
ATOM     48  O   UNL A   1      43.677  37.980  32.437  1.00  0.00    -0.237 OA
ATOM     49  O   UNL A   1      42.334  37.149  34.336  1.00  0.00    -0.237 OA
ATOM     50  O   UNL A   1      44.796  37.141  34.468  1.00  0.00    -0.744 OA
ENDBRANCH  46  47
ENDBRANCH  27  41
BRANCH  28  51
ATOM     51  C   UNL A   1      42.727  23.638  27.861  1.00  0.00    -0.014 A 
ATOM     52  C   UNL A   1      43.145  23.372  26.545  1.00  0.00     0.010 A 
ATOM     53  C   UNL A   1      42.156  22.593  28.613  1.00  0.00     0.010 A 
ATOM     54  C   UNL A   1      42.965  22.099  25.986  1.00  0.00     0.020 A 
ATOM     55  C   UNL A   1      42.009  21.312  28.073  1.00  0.00     0.020 A 
ATOM     56  C   UNL A   1      42.396  21.079  26.754  1.00  0.00     0.054 A 
BRANCH  56  57
ATOM     57  S   UNL A   1      42.180  19.434  26.019  1.00  0.00     0.124 S 
ATOM     58  O   UNL A   1      42.694  18.563  27.072  1.00  0.00    -0.237 OA
ATOM     59  O   UNL A   1      40.739  19.374  25.793  1.00  0.00    -0.237 OA
ATOM     60  O   UNL A   1      42.992  19.494  24.805  1.00  0.00    -0.744 OA
ENDBRANCH  56  57
ENDBRANCH  28  51
BRANCH  40  61
ATOM     61  C   UNL A   1      48.040  27.308  30.490  1.00  0.00    -0.014 A 
ATOM     62  C   UNL A   1      48.470  26.610  31.633  1.00  0.00     0.010 A 
ATOM     63  C   UNL A   1      48.975  27.663  29.502  1.00  0.00     0.010 A 
ATOM     64  C   UNL A   1      49.822  26.313  31.804  1.00  0.00     0.020 A 
ATOM     65  C   UNL A   1      50.322  27.338  29.655  1.00  0.00     0.020 A 
ATOM     66  C   UNL A   1      50.739  26.682  30.815  1.00  0.00     0.054 A 
BRANCH  66  67
ATOM     67  S   UNL A   1      52.486  26.262  31.048  1.00  0.00     0.124 S 
ATOM     68  O   UNL A   1      52.950  26.128  29.670  1.00  0.00    -0.237 OA
ATOM     69  O   UNL A   1      52.999  27.421  31.775  1.00  0.00    -0.237 OA
ATOM     70  O   UNL A   1      52.445  25.021  31.816  1.00  0.00    -0.744 OA
ENDBRANCH  66  67
ENDBRANCH  40  61
ENDBRANCH  14  15
ENDBRANCH   7   9
ENDBRANCH   6   7
ENDBRANCH   5   6
ENDBRANCH   4   5
ENDBRANCH   3   4
ENDBRANCH   2   3
ENDBRANCH   1   2
BRANCH   1  71
ATOM     71  O   UNL A   1      33.361  34.874  31.645  1.00  0.00    -0.377 OA
BRANCH  71  72
ATOM     72  C   UNL A   1      34.563  34.448  32.290  1.00  0.00     0.188 C 
BRANCH  72  73
ATOM     73  C   UNL A   1      34.510  34.033  33.780  1.00  0.00     0.188 C 
BRANCH  73  74
ATOM     74  O   UNL A   1      35.744  34.190  34.466  1.00  0.00    -0.376 OA
BRANCH  74  75
ATOM     75  C   UNL A   1      36.597  33.051  34.467  1.00  0.00     0.202 C 
BRANCH  75  76
ATOM     76  C   UNL A   1      37.906  33.144  35.274  1.00  0.00     0.261 C 
BRANCH  76  77
ATOM     77  O   UNL A   1      38.420  31.895  35.765  1.00  0.00    -0.458 OA
BRANCH  77  78
ATOM     78  C   UNL A   1      38.862  30.973  34.863  1.00  0.00     0.381 C 
ATOM     79  O   UNL A   1      38.256  29.961  34.565  1.00  0.00    -0.244 OA
BRANCH  78  80
ATOM     80  C   UNL A   1      40.250  31.340  34.298  1.00  0.00     0.461 C 
ATOM     81  F   UNL A   1      40.358  32.601  33.786  1.00  0.00    -0.189 F 
BRANCH  80  82
ATOM     82  O   UNL A   1      41.335  31.135  35.206  1.00  0.00    -0.451 OA
BRANCH  82  83
ATOM     83  C   UNL A   1      41.878  29.885  35.069  1.00  0.00     0.125 A 
ATOM     84  C   UNL A   1      42.825  29.608  34.083  1.00  0.00     0.050 A 
ATOM     85  C   UNL A   1      41.494  28.901  35.980  1.00  0.00     0.070 A 
ATOM     86  C   UNL A   1      43.342  28.319  33.958  1.00  0.00     0.044 A 
ATOM     87  C   UNL A   1      42.031  27.618  35.869  1.00  0.00     0.080 A 
ATOM     88  C   UNL A   1      42.943  27.331  34.853  1.00  0.00     0.142 A 
ATOM     89  Cl  UNL A   1      41.568  26.403  36.998  1.00  0.00    -0.081 Cl
ATOM     90  F   UNL A   1      43.467  26.103  34.728  1.00  0.00    -0.205 F 
ENDBRANCH  82  83
ENDBRANCH  80  82
ENDBRANCH  78  80
ENDBRANCH  77  78
ENDBRANCH  76  77
ENDBRANCH  75  76
ENDBRANCH  74  75
ENDBRANCH  73  74
ENDBRANCH  72  73
ENDBRANCH  71  72
ENDBRANCH   1  71
TORSDOF 25
ENDMDL
MODEL 2
REMARK VINA RESULT:      -7.5      4.429      7.263
REMARK SMILES O=C(OCCOCCOCCOCCOC(=O)[C@@H](F)Oc1ccc(F)c(Cl)c1)c1ccc(-c2c3nc(c(-c4ccc(S(=O)(=O)[O-])cc4)c4ccc([nH]4)c(-c4ccc(S(=O)(=O)[O-])cc4)c4nc(c(-c5ccc(S(=O)(=O)[O-])cc5)c5ccc2[nH]5)C=C4)C=C3)cc1
REMARK SMILES IDX 8 1 7 2 6 3 5 4 4 5 3 6 2 7 1 8 29 9 30 10 88 11 31 12 87 13
REMARK SMILES IDX 32 14 33 15 34 16 81 17 35 18 86 19 80 20 82 21 36 22 85 23
REMARK SMILES IDX 79 24 78 25 37 27 67 28 48 29 66 30 49 31 52 32 65 33 83 34
REMARK SMILES IDX 50 35 51 36 64 38 84 39 53 40 38 41 39 42 47 43 40 44 46 45
REMARK SMILES IDX 41 46 42 47 43 48 44 49 45 50 68 51 69 52 77 53 70 54 76 55
REMARK SMILES IDX 71 56 72 57 73 58 74 59 75 60 54 61 55 62 63 63 56 64 62 65
REMARK SMILES IDX 57 66 58 67 59 68 60 69 61 70 9 71 10 72 11 73 12 74 13 75
REMARK SMILES IDX 14 76 15 77 16 78 17 79 18 80 19 81 20 82 21 83 22 84 28 85
REMARK SMILES IDX 23 86 26 87 24 88 27 89 25 90
REMARK H PARENT 82 26 52 37
REMARK Flexibility Score: inf
ROOT
ATOM      1  C   UNL A   1      33.635  27.136  25.424  1.00  0.00     0.188 C 
ENDROOT
BRANCH   1   2
ATOM      2  C   UNL A   1      32.632  27.218  26.574  1.00  0.00     0.188 C 
BRANCH   2   3
ATOM      3  O   UNL A   1      31.615  28.154  26.258  1.00  0.00    -0.376 OA
BRANCH   3   4
ATOM      4  C   UNL A   1      31.492  29.339  27.018  1.00  0.00     0.202 C 
BRANCH   4   5
ATOM      5  C   UNL A   1      32.667  30.320  27.010  1.00  0.00     0.261 C 
BRANCH   5   6
ATOM      6  O   UNL A   1      33.742  30.034  27.930  1.00  0.00    -0.460 OA
BRANCH   6   7
ATOM      7  C   UNL A   1      34.810  30.805  28.254  1.00  0.00     0.338 C 
ATOM      8  O   UNL A   1      34.672  32.012  28.420  1.00  0.00    -0.246 OA
BRANCH   7   9
ATOM      9  C   UNL A   1      36.153  30.211  28.420  1.00  0.00     0.060 A 
ATOM     10  C   UNL A   1      36.514  29.528  29.570  1.00  0.00     0.016 A 
ATOM     11  C   UNL A   1      37.056  30.232  27.354  1.00  0.00     0.016 A 
ATOM     12  C   UNL A   1      37.817  29.135  29.795  1.00  0.00     0.010 A 
ATOM     13  C   UNL A   1      38.332  29.672  27.508  1.00  0.00     0.010 A 
ATOM     14  C   UNL A   1      38.742  29.187  28.760  1.00  0.00    -0.014 A 
BRANCH  14  15
ATOM     15  C   UNL A   1      40.143  28.821  29.064  1.00  0.00     0.031 A 
ATOM     16  C   UNL A   1      40.969  29.778  29.875  1.00  0.00     0.074 A 
ATOM     17  C   UNL A   1      40.600  27.590  28.754  1.00  0.00     0.049 A 
ATOM     18  N   UNL A   1      42.230  29.705  30.205  1.00  0.00    -0.248 NA
ATOM     19  C   UNL A   1      40.286  30.981  30.387  1.00  0.00     0.031 C 
ATOM     20  C   UNL A   1      39.828  26.542  28.071  1.00  0.00     0.029 A 
ATOM     21  N   UNL A   1      41.802  26.986  29.016  1.00  0.00    -0.354 N 
ATOM     22  C   UNL A   1      42.498  30.866  30.920  1.00  0.00     0.074 A 
ATOM     23  C   UNL A   1      41.279  31.638  30.963  1.00  0.00     0.031 C 
ATOM     24  C   UNL A   1      40.550  25.413  28.030  1.00  0.00     0.029 A 
ATOM     25  C   UNL A   1      41.873  25.684  28.573  1.00  0.00     0.049 A 
ATOM     26  H   UNL A   1      42.543  27.439  29.477  1.00  0.00     0.167 HD
ATOM     27  C   UNL A   1      43.662  31.247  31.492  1.00  0.00     0.031 A 
ATOM     28  C   UNL A   1      42.909  24.825  28.559  1.00  0.00     0.031 A 
ATOM     29  C   UNL A   1      44.856  30.449  31.441  1.00  0.00     0.049 A 
ATOM     30  C   UNL A   1      44.218  25.312  29.114  1.00  0.00     0.074 A 
ATOM     31  C   UNL A   1      46.122  30.752  31.901  1.00  0.00     0.029 A 
ATOM     32  N   UNL A   1      44.915  29.169  30.904  1.00  0.00    -0.354 N 
ATOM     33  N   UNL A   1      44.490  26.461  29.691  1.00  0.00    -0.248 NA
ATOM     34  C   UNL A   1      45.364  24.403  29.003  1.00  0.00     0.031 C 
ATOM     35  C   UNL A   1      46.958  29.671  31.602  1.00  0.00     0.029 A 
ATOM     36  C   UNL A   1      46.198  28.670  31.013  1.00  0.00     0.049 A 
ATOM     37  H   UNL A   1      44.154  28.688  30.505  1.00  0.00     0.167 HD
ATOM     38  C   UNL A   1      45.838  26.412  30.016  1.00  0.00     0.074 A 
ATOM     39  C   UNL A   1      46.314  25.104  29.607  1.00  0.00     0.031 C 
ATOM     40  C   UNL A   1      46.622  27.360  30.588  1.00  0.00     0.031 A 
BRANCH  27  41
ATOM     41  C   UNL A   1      43.697  32.600  32.151  1.00  0.00    -0.014 A 
ATOM     42  C   UNL A   1      44.006  33.764  31.425  1.00  0.00     0.010 A 
ATOM     43  C   UNL A   1      43.435  32.702  33.529  1.00  0.00     0.010 A 
ATOM     44  C   UNL A   1      44.087  35.000  32.073  1.00  0.00     0.020 A 
ATOM     45  C   UNL A   1      43.489  33.941  34.175  1.00  0.00     0.020 A 
ATOM     46  C   UNL A   1      43.830  35.080  33.445  1.00  0.00     0.054 A 
BRANCH  46  47
ATOM     47  S   UNL A   1      43.925  36.700  34.256  1.00  0.00     0.124 S 
ATOM     48  O   UNL A   1      43.294  36.429  35.546  1.00  0.00    -0.237 OA
ATOM     49  O   UNL A   1      45.363  36.951  34.301  1.00  0.00    -0.237 OA
ATOM     50  O   UNL A   1      43.169  37.579  33.366  1.00  0.00    -0.744 OA
ENDBRANCH  46  47
ENDBRANCH  27  41
BRANCH  28  51
ATOM     51  C   UNL A   1      42.780  23.485  27.914  1.00  0.00    -0.014 A 
ATOM     52  C   UNL A   1      43.339  23.218  26.653  1.00  0.00     0.010 A 
ATOM     53  C   UNL A   1      42.065  22.461  28.567  1.00  0.00     0.010 A 
ATOM     54  C   UNL A   1      43.158  21.967  26.045  1.00  0.00     0.020 A 
ATOM     55  C   UNL A   1      41.914  21.201  27.983  1.00  0.00     0.020 A 
ATOM     56  C   UNL A   1      42.445  20.968  26.714  1.00  0.00     0.054 A 
BRANCH  56  57
ATOM     57  S   UNL A   1      42.230  19.351  25.920  1.00  0.00     0.124 S 
ATOM     58  O   UNL A   1      42.745  18.443  26.939  1.00  0.00    -0.237 OA
ATOM     59  O   UNL A   1      40.789  19.299  25.693  1.00  0.00    -0.237 OA
ATOM     60  O   UNL A   1      43.040  19.457  24.708  1.00  0.00    -0.744 OA
ENDBRANCH  56  57
ENDBRANCH  28  51
BRANCH  40  61
ATOM     61  C   UNL A   1      48.057  26.989  30.827  1.00  0.00    -0.014 A 
ATOM     62  C   UNL A   1      48.451  26.341  32.012  1.00  0.00     0.010 A 
ATOM     63  C   UNL A   1      49.014  27.265  29.836  1.00  0.00     0.010 A 
ATOM     64  C   UNL A   1      49.792  26.015  32.217  1.00  0.00     0.020 A 
ATOM     65  C   UNL A   1      50.349  26.910  30.024  1.00  0.00     0.020 A 
ATOM     66  C   UNL A   1      50.732  26.305  31.223  1.00  0.00     0.054 A 
BRANCH  66  67
ATOM     67  S   UNL A   1      52.463  25.849  31.503  1.00  0.00     0.124 S 
ATOM     68  O   UNL A   1      53.006  25.883  30.148  1.00  0.00    -0.237 OA
ATOM     69  O   UNL A   1      52.932  26.905  32.397  1.00  0.00    -0.237 OA
ATOM     70  O   UNL A   1      52.378  24.522  32.108  1.00  0.00    -0.744 OA
ENDBRANCH  66  67
ENDBRANCH  40  61
ENDBRANCH  14  15
ENDBRANCH   7   9
ENDBRANCH   6   7
ENDBRANCH   5   6
ENDBRANCH   4   5
ENDBRANCH   3   4
ENDBRANCH   2   3
ENDBRANCH   1   2
BRANCH   1  71
ATOM     71  O   UNL A   1      34.018  28.391  24.861  1.00  0.00    -0.377 OA
BRANCH  71  72
ATOM     72  C   UNL A   1      34.056  28.495  23.435  1.00  0.00     0.188 C 
BRANCH  72  73
ATOM     73  C   UNL A   1      32.865  29.151  22.697  1.00  0.00     0.188 C 
BRANCH  73  74
ATOM     74  O   UNL A   1      31.603  28.891  23.295  1.00  0.00    -0.376 OA
BRANCH  74  75
ATOM     75  C   UNL A   1      30.708  28.099  22.524  1.00  0.00     0.202 C 
BRANCH  75  76
ATOM     76  C   UNL A   1      30.989  26.587  22.438  1.00  0.00     0.261 C 
BRANCH  76  77
ATOM     77  O   UNL A   1      32.377  26.217  22.410  1.00  0.00    -0.458 OA
BRANCH  77  78
ATOM     78  C   UNL A   1      32.766  25.207  21.580  1.00  0.00     0.381 C 
ATOM     79  O   UNL A   1      33.106  25.365  20.423  1.00  0.00    -0.244 OA
BRANCH  78  80
ATOM     80  C   UNL A   1      32.679  23.830  22.270  1.00  0.00     0.461 C 
ATOM     81  F   UNL A   1      33.445  22.847  21.713  1.00  0.00    -0.189 F 
BRANCH  80  82
ATOM     82  O   UNL A   1      32.937  23.851  23.676  1.00  0.00    -0.451 OA
BRANCH  82  83
ATOM     83  C   UNL A   1      33.803  22.857  24.045  1.00  0.00     0.125 A 
ATOM     84  C   UNL A   1      35.176  23.089  24.146  1.00  0.00     0.050 A 
ATOM     85  C   UNL A   1      33.269  21.609  24.369  1.00  0.00     0.070 A 
ATOM     86  C   UNL A   1      36.032  22.049  24.504  1.00  0.00     0.044 A 
ATOM     87  C   UNL A   1      34.126  20.576  24.752  1.00  0.00     0.080 A 
ATOM     88  C   UNL A   1      35.502  20.798  24.806  1.00  0.00     0.142 A 
ATOM     89  Cl  UNL A   1      33.470  19.038  25.163  1.00  0.00    -0.081 Cl
ATOM     90  F   UNL A   1      36.341  19.817  25.169  1.00  0.00    -0.205 F 
ENDBRANCH  82  83
ENDBRANCH  80  82
ENDBRANCH  78  80
ENDBRANCH  77  78
ENDBRANCH  76  77
ENDBRANCH  75  76
ENDBRANCH  74  75
ENDBRANCH  73  74
ENDBRANCH  72  73
ENDBRANCH  71  72
ENDBRANCH   1  71
TORSDOF 25
ENDMDL
MODEL 3
REMARK VINA RESULT:      -7.4      5.061      8.170
REMARK SMILES O=C(OCCOCCOCCOCCOC(=O)[C@@H](F)Oc1ccc(F)c(Cl)c1)c1ccc(-c2c3nc(c(-c4ccc(S(=O)(=O)[O-])cc4)c4ccc([nH]4)c(-c4ccc(S(=O)(=O)[O-])cc4)c4nc(c(-c5ccc(S(=O)(=O)[O-])cc5)c5ccc2[nH]5)C=C4)C=C3)cc1
REMARK SMILES IDX 8 1 7 2 6 3 5 4 4 5 3 6 2 7 1 8 29 9 30 10 88 11 31 12 87 13
REMARK SMILES IDX 32 14 33 15 34 16 81 17 35 18 86 19 80 20 82 21 36 22 85 23
REMARK SMILES IDX 79 24 78 25 37 27 67 28 48 29 66 30 49 31 52 32 65 33 83 34
REMARK SMILES IDX 50 35 51 36 64 38 84 39 53 40 38 41 39 42 47 43 40 44 46 45
REMARK SMILES IDX 41 46 42 47 43 48 44 49 45 50 68 51 69 52 77 53 70 54 76 55
REMARK SMILES IDX 71 56 72 57 73 58 74 59 75 60 54 61 55 62 63 63 56 64 62 65
REMARK SMILES IDX 57 66 58 67 59 68 60 69 61 70 9 71 10 72 11 73 12 74 13 75
REMARK SMILES IDX 14 76 15 77 16 78 17 79 18 80 19 81 20 82 21 83 22 84 28 85
REMARK SMILES IDX 23 86 26 87 24 88 27 89 25 90
REMARK H PARENT 82 26 52 37
REMARK Flexibility Score: inf
ROOT
ATOM      1  C   UNL A   1      31.866  32.256  27.196  1.00  0.00     0.188 C 
ENDROOT
BRANCH   1   2
ATOM      2  C   UNL A   1      33.312  32.499  27.626  1.00  0.00     0.188 C 
BRANCH   2   3
ATOM      3  O   UNL A   1      33.394  33.698  28.380  1.00  0.00    -0.376 OA
BRANCH   3   4
ATOM      4  C   UNL A   1      34.610  34.049  29.009  1.00  0.00     0.202 C 
BRANCH   4   5
ATOM      5  C   UNL A   1      34.911  33.438  30.379  1.00  0.00     0.261 C 
BRANCH   5   6
ATOM      6  O   UNL A   1      35.303  32.050  30.385  1.00  0.00    -0.460 OA
BRANCH   6   7
ATOM      7  C   UNL A   1      36.201  31.425  31.188  1.00  0.00     0.338 C 
ATOM      8  O   UNL A   1      35.999  31.346  32.396  1.00  0.00    -0.246 OA
BRANCH   7   9
ATOM      9  C   UNL A   1      37.429  30.822  30.629  1.00  0.00     0.060 A 
ATOM     10  C   UNL A   1      38.336  30.139  31.424  1.00  0.00     0.016 A 
ATOM     11  C   UNL A   1      37.639  30.833  29.249  1.00  0.00     0.016 A 
ATOM     12  C   UNL A   1      39.561  29.738  30.935  1.00  0.00     0.010 A 
ATOM     13  C   UNL A   1      38.804  30.265  28.714  1.00  0.00     0.010 A 
ATOM     14  C   UNL A   1      39.807  29.780  29.568  1.00  0.00    -0.014 A 
BRANCH  14  15
ATOM     15  C   UNL A   1      41.157  29.405  29.095  1.00  0.00     0.031 A 
ATOM     16  C   UNL A   1      42.257  30.423  29.199  1.00  0.00     0.074 A 
ATOM     17  C   UNL A   1      41.415  28.131  28.734  1.00  0.00     0.049 A 
ATOM     18  N   UNL A   1      43.494  30.346  28.790  1.00  0.00    -0.248 NA
ATOM     19  C   UNL A   1      41.923  31.701  29.854  1.00  0.00     0.031 C 
ATOM     20  C   UNL A   1      40.435  27.036  28.717  1.00  0.00     0.029 A 
ATOM     21  N   UNL A   1      42.585  27.520  28.364  1.00  0.00    -0.354 N 
ATOM     22  C   UNL A   1      44.067  31.574  29.096  1.00  0.00     0.074 A 
ATOM     23  C   UNL A   1      43.044  32.388  29.708  1.00  0.00     0.031 C 
ATOM     24  C   UNL A   1      41.057  25.885  28.422  1.00  0.00     0.029 A 
ATOM     25  C   UNL A   1      42.450  26.174  28.113  1.00  0.00     0.049 A 
ATOM     26  H   UNL A   1      43.441  28.000  28.285  1.00  0.00     0.167 HD
ATOM     27  C   UNL A   1      45.339  31.981  28.885  1.00  0.00     0.031 A 
ATOM     28  C   UNL A   1      43.340  25.284  27.636  1.00  0.00     0.031 A 
ATOM     29  C   UNL A   1      46.338  31.142  28.284  1.00  0.00     0.049 A 
ATOM     30  C   UNL A   1      44.720  25.788  27.319  1.00  0.00     0.074 A 
ATOM     31  C   UNL A   1      47.637  31.453  27.934  1.00  0.00     0.029 A 
ATOM     32  N   UNL A   1      46.140  29.805  27.960  1.00  0.00    -0.354 N 
ATOM     33  N   UNL A   1      45.221  26.988  27.510  1.00  0.00    -0.248 NA
ATOM     34  C   UNL A   1      45.650  24.834  26.707  1.00  0.00     0.031 C 
ATOM     35  C   UNL A   1      48.212  30.316  27.356  1.00  0.00     0.029 A 
ATOM     36  C   UNL A   1      47.291  29.279  27.405  1.00  0.00     0.049 A 
ATOM     37  H   UNL A   1      45.304  29.307  28.104  1.00  0.00     0.167 HD
ATOM     38  C   UNL A   1      46.527  26.931  27.046  1.00  0.00     0.074 A 
ATOM     39  C   UNL A   1      46.749  25.568  26.602  1.00  0.00     0.031 C 
ATOM     40  C   UNL A   1      47.461  27.914  26.977  1.00  0.00     0.031 A 
BRANCH  27  41
ATOM     41  C   UNL A   1      45.679  33.401  29.251  1.00  0.00    -0.014 A 
ATOM     42  C   UNL A   1      46.447  33.704  30.389  1.00  0.00     0.010 A 
ATOM     43  C   UNL A   1      45.202  34.453  28.448  1.00  0.00     0.010 A 
ATOM     44  C   UNL A   1      46.701  35.034  30.738  1.00  0.00     0.020 A 
ATOM     45  C   UNL A   1      45.476  35.783  28.778  1.00  0.00     0.020 A 
ATOM     46  C   UNL A   1      46.212  36.066  29.931  1.00  0.00     0.054 A 
BRANCH  46  47
ATOM     47  S   UNL A   1      46.572  37.781  30.397  1.00  0.00     0.124 S 
ATOM     48  O   UNL A   1      45.941  37.875  31.712  1.00  0.00    -0.237 OA
ATOM     49  O   UNL A   1      48.032  37.812  30.397  1.00  0.00    -0.237 OA
ATOM     50  O   UNL A   1      45.934  38.568  29.345  1.00  0.00    -0.744 OA
ENDBRANCH  46  47
ENDBRANCH  27  41
BRANCH  28  51
ATOM     51  C   UNL A   1      42.928  23.882  27.333  1.00  0.00    -0.014 A 
ATOM     52  C   UNL A   1      42.855  22.902  28.338  1.00  0.00     0.010 A 
ATOM     53  C   UNL A   1      42.622  23.514  26.008  1.00  0.00     0.010 A 
ATOM     54  C   UNL A   1      42.516  21.579  28.019  1.00  0.00     0.020 A 
ATOM     55  C   UNL A   1      42.248  22.206  25.690  1.00  0.00     0.020 A 
ATOM     56  C   UNL A   1      42.218  21.241  26.696  1.00  0.00     0.054 A 
BRANCH  56  57
ATOM     57  S   UNL A   1      41.770  19.527  26.300  1.00  0.00     0.124 S 
ATOM     58  O   UNL A   1      40.335  19.637  26.061  1.00  0.00    -0.237 OA
ATOM     59  O   UNL A   1      42.591  19.249  25.125  1.00  0.00    -0.237 OA
ATOM     60  O   UNL A   1      42.149  18.790  27.504  1.00  0.00    -0.744 OA
ENDBRANCH  56  57
ENDBRANCH  28  51
BRANCH  40  61
ATOM     61  C   UNL A   1      48.804  27.524  26.432  1.00  0.00    -0.014 A 
ATOM     62  C   UNL A   1      49.107  27.678  25.067  1.00  0.00     0.010 A 
ATOM     63  C   UNL A   1      49.785  27.029  27.308  1.00  0.00     0.010 A 
ATOM     64  C   UNL A   1      50.358  27.300  24.581  1.00  0.00     0.020 A 
ATOM     65  C   UNL A   1      51.048  26.681  26.831  1.00  0.00     0.020 A 
ATOM     66  C   UNL A   1      51.319  26.801  25.466  1.00  0.00     0.054 A 
BRANCH  66  67
ATOM     67  S   UNL A   1      52.945  26.340  24.815  1.00  0.00     0.124 S 
ATOM     68  O   UNL A   1      53.789  27.422  25.316  1.00  0.00    -0.237 OA
ATOM     69  O   UNL A   1      53.174  25.030  25.422  1.00  0.00    -0.237 OA
ATOM     70  O   UNL A   1      52.747  26.322  23.368  1.00  0.00    -0.744 OA
ENDBRANCH  66  67
ENDBRANCH  40  61
ENDBRANCH  14  15
ENDBRANCH   7   9
ENDBRANCH   6   7
ENDBRANCH   5   6
ENDBRANCH   4   5
ENDBRANCH   3   4
ENDBRANCH   2   3
ENDBRANCH   1   2
BRANCH   1  71
ATOM     71  O   UNL A   1      31.660  31.104  26.380  1.00  0.00    -0.377 OA
BRANCH  71  72
ATOM     72  C   UNL A   1      31.929  29.824  26.956  1.00  0.00     0.188 C 
BRANCH  72  73
ATOM     73  C   UNL A   1      31.695  28.552  26.106  1.00  0.00     0.188 C 
BRANCH  73  74
ATOM     74  O   UNL A   1      32.390  27.407  26.579  1.00  0.00    -0.376 OA
BRANCH  74  75
ATOM     75  C   UNL A   1      33.645  27.150  25.962  1.00  0.00     0.202 C 
BRANCH  75  76
ATOM     76  C   UNL A   1      33.728  27.297  24.430  1.00  0.00     0.261 C 
BRANCH  76  77
ATOM     77  O   UNL A   1      32.476  27.198  23.731  1.00  0.00    -0.458 OA
BRANCH  77  78
ATOM     78  C   UNL A   1      32.083  28.243  22.948  1.00  0.00     0.381 C 
ATOM     79  O   UNL A   1      32.738  29.252  22.774  1.00  0.00    -0.244 OA
BRANCH  78  80
ATOM     80  C   UNL A   1      30.682  28.013  22.343  1.00  0.00     0.461 C 
ATOM     81  F   UNL A   1      30.426  26.738  21.928  1.00  0.00    -0.189 F 
BRANCH  80  82
ATOM     82  O   UNL A   1      29.599  28.435  23.175  1.00  0.00    -0.451 OA
BRANCH  82  83
ATOM     83  C   UNL A   1      29.235  29.729  22.911  1.00  0.00     0.125 A 
ATOM     84  C   UNL A   1      29.396  30.737  23.863  1.00  0.00     0.050 A 
ATOM     85  C   UNL A   1      28.741  30.025  21.641  1.00  0.00     0.070 A 
ATOM     86  C   UNL A   1      28.997  32.040  23.569  1.00  0.00     0.044 A 
ATOM     87  C   UNL A   1      28.365  31.335  21.341  1.00  0.00     0.080 A 
ATOM     88  C   UNL A   1      28.484  32.332  22.310  1.00  0.00     0.142 A 
ATOM     89  Cl  UNL A   1      27.766  31.708  19.770  1.00  0.00    -0.081 Cl
ATOM     90  F   UNL A   1      28.124  33.596  22.041  1.00  0.00    -0.205 F 
ENDBRANCH  82  83
ENDBRANCH  80  82
ENDBRANCH  78  80
ENDBRANCH  77  78
ENDBRANCH  76  77
ENDBRANCH  75  76
ENDBRANCH  74  75
ENDBRANCH  73  74
ENDBRANCH  72  73
ENDBRANCH  71  72
ENDBRANCH   1  71
TORSDOF 25
ENDMDL
