MODEL 1
REMARK VINA RESULT:      -7.7      0.000      0.000
REMARK SMILES Cc1ncccc1NC(=O)NC[C@H]1CCC[C@H]1C(=O)OCCOCCOCCOCCOC(=O)c1ccc(-c2c3nc(c(-c4ccc(S(=O)(=O)[O-])cc4)c4ccc([nH]4)c(-c4ccc(S(=O)(=O)[O-])cc4)c4nc(c(-c5ccc(S(=O)(=O)[O-])cc5)c5ccc2[nH]5)C=C4)C=C3)cc1
REMARK SMILES IDX 26 1 25 2 24 3 23 4 22 5 21 6 20 7 18 8 19 9 17 10 13 11
REMARK SMILES IDX 14 12 15 13 16 14 12 15 11 16 8 17 9 18 10 20 7 22 1 23 2 24
REMARK SMILES IDX 3 25 4 26 6 27 5 28 27 29 28 30 29 31 30 32 31 33 32 34
REMARK SMILES IDX 33 35 34 36 35 37 36 38 94 39 37 40 93 41 38 42 39 43 40 44
REMARK SMILES IDX 87 45 41 46 92 47 86 48 88 49 42 50 91 51 85 52 84 53 43 55
REMARK SMILES IDX 73 56 54 57 72 58 55 59 58 60 71 61 89 62 56 63 57 64 70 66
REMARK SMILES IDX 90 67 59 68 44 69 45 70 53 71 46 72 52 73 47 74 48 75 49 76
REMARK SMILES IDX 50 77 51 78 74 79 75 80 83 81 76 82 82 83 77 84 78 85 79 86
REMARK SMILES IDX 80 87 81 88 60 89 61 90 69 91 62 92 68 93 63 94 64 95 65 96
REMARK SMILES IDX 66 97 67 98
REMARK H PARENT 8 19 11 21 88 54 58 65
REMARK Flexibility Score: inf
ROOT
ATOM      1  O   UNL A   1      39.484  27.101  28.862  1.00  0.00    -0.377 OA
ENDROOT
BRANCH   1   2
ATOM      2  C   UNL A   1      38.759  27.477  30.018  1.00  0.00     0.188 C 
BRANCH   2   3
ATOM      3  C   UNL A   1      38.184  28.892  30.124  1.00  0.00     0.188 C 
BRANCH   3   4
ATOM      4  O   UNL A   1      38.215  29.707  28.975  1.00  0.00    -0.376 OA
BRANCH   4   5
ATOM      5  C   UNL A   1      37.360  30.828  28.780  1.00  0.00     0.202 C 
BRANCH   5   6
ATOM      6  C   UNL A   1      35.819  30.836  28.841  1.00  0.00     0.261 C 
BRANCH   6   7
ATOM      7  O   UNL A   1      35.147  29.683  28.329  1.00  0.00    -0.463 OA
BRANCH   7   8
ATOM      8  C   UNL A   1      34.164  29.949  27.431  1.00  0.00     0.309 C 
ATOM      9  O   UNL A   1      34.032  31.015  26.835  1.00  0.00    -0.252 OA
BRANCH   8  10
ATOM     10  C   UNL A   1      33.278  28.765  27.118  1.00  0.00     0.104 C 
ATOM     11  C   UNL A   1      31.857  28.879  26.561  1.00  0.00     0.022 C 
ATOM     12  C   UNL A   1      31.537  27.378  26.391  1.00  0.00     0.006 C 
ATOM     13  C   UNL A   1      32.813  26.811  25.768  1.00  0.00     0.001 C 
ATOM     14  C   UNL A   1      33.952  27.708  26.258  1.00  0.00     0.016 C 
BRANCH  11  15
ATOM     15  C   UNL A   1      31.532  29.573  25.227  1.00  0.00     0.122 C 
BRANCH  15  16
ATOM     16  N   UNL A   1      32.395  29.389  24.097  1.00  0.00    -0.338 N 
ATOM     17  N   UNL A   1      31.072  28.297  22.429  1.00  0.00    -0.306 N 
ATOM     18  C   UNL A   1      32.212  28.865  22.875  1.00  0.00     0.319 C 
ATOM     19  H   UNL A   1      31.230  27.728  21.641  1.00  0.00     0.171 HD
ATOM     20  O   UNL A   1      33.204  28.810  22.142  1.00  0.00    -0.249 OA
ATOM     21  H   UNL A   1      33.312  29.715  24.248  1.00  0.00     0.165 HD
BRANCH  17  22
ATOM     22  C   UNL A   1      29.713  28.311  22.802  1.00  0.00     0.064 A 
ATOM     23  C   UNL A   1      29.393  30.670  21.857  1.00  0.00     0.069 C 
ATOM     24  C   UNL A   1      28.882  29.390  22.452  1.00  0.00     0.061 A 
ATOM     25  N   UNL A   1      27.535  29.384  22.671  1.00  0.00    -0.259 NA
ATOM     26  C   UNL A   1      27.000  28.315  23.290  1.00  0.00     0.111 A 
ATOM     27  C   UNL A   1      29.130  27.291  23.558  1.00  0.00     0.030 A 
ATOM     28  C   UNL A   1      27.754  27.265  23.772  1.00  0.00     0.022 A 
ENDBRANCH  17  22
ENDBRANCH  15  16
ENDBRANCH  11  15
ENDBRANCH   8  10
ENDBRANCH   7   8
ENDBRANCH   6   7
ENDBRANCH   5   6
ENDBRANCH   4   5
ENDBRANCH   3   4
ENDBRANCH   2   3
ENDBRANCH   1   2
BRANCH   1  29
ATOM     29  C   UNL A   1      39.726  25.723  28.620  1.00  0.00     0.188 C 
BRANCH  29  30
ATOM     30  C   UNL A   1      41.045  25.276  27.950  1.00  0.00     0.188 C 
BRANCH  30  31
ATOM     31  O   UNL A   1      40.979  24.090  27.177  1.00  0.00    -0.376 OA
BRANCH  31  32
ATOM     32  C   UNL A   1      40.632  22.883  27.852  1.00  0.00     0.202 C 
BRANCH  32  33
ATOM     33  C   UNL A   1      41.118  21.555  27.241  1.00  0.00     0.261 C 
BRANCH  33  34
ATOM     34  O   UNL A   1      41.511  21.610  25.860  1.00  0.00    -0.460 OA
BRANCH  34  35
ATOM     35  C   UNL A   1      42.722  21.106  25.548  1.00  0.00     0.338 C 
ATOM     36  O   UNL A   1      42.970  20.004  25.086  1.00  0.00    -0.246 OA
BRANCH  35  37
ATOM     37  C   UNL A   1      43.712  22.186  25.689  1.00  0.00     0.060 A 
ATOM     38  C   UNL A   1      44.905  21.922  26.374  1.00  0.00     0.016 A 
ATOM     39  C   UNL A   1      43.448  23.457  25.175  1.00  0.00     0.016 A 
ATOM     40  C   UNL A   1      45.824  22.947  26.586  1.00  0.00     0.010 A 
ATOM     41  C   UNL A   1      44.359  24.487  25.410  1.00  0.00     0.010 A 
ATOM     42  C   UNL A   1      45.529  24.245  26.150  1.00  0.00    -0.014 A 
BRANCH  42  43
ATOM     43  C   UNL A   1      46.333  25.380  26.660  1.00  0.00     0.031 A 
ATOM     44  C   UNL A   1      45.912  26.023  27.954  1.00  0.00     0.074 A 
ATOM     45  C   UNL A   1      47.428  25.809  26.010  1.00  0.00     0.049 A 
ATOM     46  N   UNL A   1      46.436  27.043  28.582  1.00  0.00    -0.248 NA
ATOM     47  C   UNL A   1      44.741  25.437  28.628  1.00  0.00     0.031 C 
ATOM     48  C   UNL A   1      47.967  25.229  24.782  1.00  0.00     0.029 A 
ATOM     49  N   UNL A   1      48.283  26.842  26.300  1.00  0.00    -0.354 N 
ATOM     50  C   UNL A   1      45.652  27.230  29.715  1.00  0.00     0.074 A 
ATOM     51  C   UNL A   1      44.601  26.236  29.673  1.00  0.00     0.031 C 
ATOM     52  C   UNL A   1      49.063  25.919  24.420  1.00  0.00     0.029 A 
ATOM     53  C   UNL A   1      49.279  27.011  25.369  1.00  0.00     0.049 A 
ATOM     54  H   UNL A   1      48.192  27.408  27.101  1.00  0.00     0.167 HD
ATOM     55  C   UNL A   1      45.795  28.144  30.703  1.00  0.00     0.031 A 
ATOM     56  C   UNL A   1      50.238  27.954  25.281  1.00  0.00     0.031 A 
ATOM     57  C   UNL A   1      46.831  29.141  30.728  1.00  0.00     0.049 A 
ATOM     58  C   UNL A   1      50.325  29.018  26.346  1.00  0.00     0.074 A 
ATOM     59  C   UNL A   1      47.073  30.106  31.689  1.00  0.00     0.029 A 
ATOM     60  N   UNL A   1      47.790  29.312  29.740  1.00  0.00    -0.354 N 
ATOM     61  N   UNL A   1      49.593  29.169  27.425  1.00  0.00    -0.248 NA
ATOM     62  C   UNL A   1      51.375  30.033  26.186  1.00  0.00     0.031 C 
ATOM     63  C   UNL A   1      48.133  30.905  31.249  1.00  0.00     0.029 A 
ATOM     64  C   UNL A   1      48.603  30.389  30.051  1.00  0.00     0.049 A 
ATOM     65  H   UNL A   1      47.880  28.751  28.936  1.00  0.00     0.167 HD
ATOM     66  C   UNL A   1      50.115  30.278  28.087  1.00  0.00     0.074 A 
ATOM     67  C   UNL A   1      51.231  30.749  27.293  1.00  0.00     0.031 C 
ATOM     68  C   UNL A   1      49.711  30.850  29.249  1.00  0.00     0.031 A 
BRANCH  55  69
ATOM     69  C   UNL A   1      44.772  28.138  31.809  1.00  0.00    -0.014 A 
ATOM     70  C   UNL A   1      43.607  28.925  31.740  1.00  0.00     0.010 A 
ATOM     71  C   UNL A   1      44.972  27.313  32.931  1.00  0.00     0.010 A 
ATOM     72  C   UNL A   1      42.687  28.920  32.792  1.00  0.00     0.020 A 
ATOM     73  C   UNL A   1      44.038  27.280  33.969  1.00  0.00     0.020 A 
ATOM     74  C   UNL A   1      42.910  28.099  33.902  1.00  0.00     0.054 A 
BRANCH  74  75
ATOM     75  S   UNL A   1      41.693  28.104  35.246  1.00  0.00     0.124 S 
ATOM     76  O   UNL A   1      40.741  29.113  34.787  1.00  0.00    -0.237 OA
ATOM     77  O   UNL A   1      41.201  26.728  35.237  1.00  0.00    -0.237 OA
ATOM     78  O   UNL A   1      42.475  28.477  36.422  1.00  0.00    -0.744 OA
ENDBRANCH  74  75
ENDBRANCH  55  69
BRANCH  56  79
ATOM     79  C   UNL A   1      51.186  27.944  24.132  1.00  0.00    -0.014 A 
ATOM     80  C   UNL A   1      52.426  27.287  24.229  1.00  0.00     0.010 A 
ATOM     81  C   UNL A   1      50.850  28.591  22.928  1.00  0.00     0.010 A 
ATOM     82  C   UNL A   1      53.314  27.287  23.149  1.00  0.00     0.020 A 
ATOM     83  C   UNL A   1      51.722  28.567  21.837  1.00  0.00     0.020 A 
ATOM     84  C   UNL A   1      52.954  27.923  21.957  1.00  0.00     0.054 A 
BRANCH  84  85
ATOM     85  S   UNL A   1      54.099  27.859  20.552  1.00  0.00     0.124 S 
ATOM     86  O   UNL A   1      54.859  29.093  20.723  1.00  0.00    -0.237 OA
ATOM     87  O   UNL A   1      54.836  26.622  20.803  1.00  0.00    -0.237 OA
ATOM     88  O   UNL A   1      53.215  27.824  19.389  1.00  0.00    -0.744 OA
ENDBRANCH  84  85
ENDBRANCH  56  79
BRANCH  68  89
ATOM     89  C   UNL A   1      50.502  32.027  29.763  1.00  0.00    -0.014 A 
ATOM     90  C   UNL A   1      50.104  33.351  29.504  1.00  0.00     0.010 A 
ATOM     91  C   UNL A   1      51.630  31.799  30.574  1.00  0.00     0.010 A 
ATOM     92  C   UNL A   1      50.838  34.423  30.020  1.00  0.00     0.020 A 
ATOM     93  C   UNL A   1      52.347  32.867  31.118  1.00  0.00     0.020 A 
ATOM     94  C   UNL A   1      51.955  34.175  30.825  1.00  0.00     0.054 A 
BRANCH  94  95
ATOM     95  S   UNL A   1      52.864  35.583  31.517  1.00  0.00     0.124 S 
ATOM     96  O   UNL A   1      52.009  35.978  32.633  1.00  0.00    -0.237 OA
ATOM     97  O   UNL A   1      54.145  34.985  31.888  1.00  0.00    -0.237 OA
ATOM     98  O   UNL A   1      52.924  36.536  30.411  1.00  0.00    -0.744 OA
ENDBRANCH  94  95
ENDBRANCH  68  89
ENDBRANCH  42  43
ENDBRANCH  35  37
ENDBRANCH  34  35
ENDBRANCH  33  34
ENDBRANCH  32  33
ENDBRANCH  31  32
ENDBRANCH  30  31
ENDBRANCH  29  30
ENDBRANCH   1  29
TORSDOF 26
ENDMDL
MODEL 2
REMARK VINA RESULT:      -7.4      5.376     12.697
REMARK SMILES Cc1ncccc1NC(=O)NC[C@H]1CCC[C@H]1C(=O)OCCOCCOCCOCCOC(=O)c1ccc(-c2c3nc(c(-c4ccc(S(=O)(=O)[O-])cc4)c4ccc([nH]4)c(-c4ccc(S(=O)(=O)[O-])cc4)c4nc(c(-c5ccc(S(=O)(=O)[O-])cc5)c5ccc2[nH]5)C=C4)C=C3)cc1
REMARK SMILES IDX 26 1 25 2 24 3 23 4 22 5 21 6 20 7 18 8 19 9 17 10 13 11
REMARK SMILES IDX 14 12 15 13 16 14 12 15 11 16 8 17 9 18 10 20 7 22 1 23 2 24
REMARK SMILES IDX 3 25 4 26 6 27 5 28 27 29 28 30 29 31 30 32 31 33 32 34
REMARK SMILES IDX 33 35 34 36 35 37 36 38 94 39 37 40 93 41 38 42 39 43 40 44
REMARK SMILES IDX 87 45 41 46 92 47 86 48 88 49 42 50 91 51 85 52 84 53 43 55
REMARK SMILES IDX 73 56 54 57 72 58 55 59 58 60 71 61 89 62 56 63 57 64 70 66
REMARK SMILES IDX 90 67 59 68 44 69 45 70 53 71 46 72 52 73 47 74 48 75 49 76
REMARK SMILES IDX 50 77 51 78 74 79 75 80 83 81 76 82 82 83 77 84 78 85 79 86
REMARK SMILES IDX 80 87 81 88 60 89 61 90 69 91 62 92 68 93 63 94 64 95 65 96
REMARK SMILES IDX 66 97 67 98
REMARK H PARENT 8 19 11 21 88 54 58 65
REMARK Flexibility Score: inf
ROOT
ATOM      1  O   UNL A   1      55.099  26.518  31.424  1.00  0.00    -0.377 OA
ENDROOT
BRANCH   1   2
ATOM      2  C   UNL A   1      54.204  27.596  31.220  1.00  0.00     0.188 C 
BRANCH   2   3
ATOM      3  C   UNL A   1      53.013  27.779  32.164  1.00  0.00     0.188 C 
BRANCH   3   4
ATOM      4  O   UNL A   1      51.890  26.947  31.984  1.00  0.00    -0.376 OA
BRANCH   4   5
ATOM      5  C   UNL A   1      50.595  27.431  31.651  1.00  0.00     0.202 C 
BRANCH   5   6
ATOM      6  C   UNL A   1      49.437  26.622  31.032  1.00  0.00     0.261 C 
BRANCH   6   7
ATOM      7  O   UNL A   1      48.477  26.075  31.939  1.00  0.00    -0.463 OA
BRANCH   7   8
ATOM      8  C   UNL A   1      47.410  26.877  32.190  1.00  0.00     0.309 C 
ATOM      9  O   UNL A   1      47.459  27.924  32.830  1.00  0.00    -0.252 OA
BRANCH   8  10
ATOM     10  C   UNL A   1      46.134  26.436  31.511  1.00  0.00     0.104 C 
ATOM     11  C   UNL A   1      45.450  25.089  31.760  1.00  0.00     0.022 C 
ATOM     12  C   UNL A   1      44.205  25.276  30.865  1.00  0.00     0.006 C 
ATOM     13  C   UNL A   1      43.751  26.701  31.178  1.00  0.00     0.001 C 
ATOM     14  C   UNL A   1      45.016  27.463  31.584  1.00  0.00     0.016 C 
BRANCH  11  15
ATOM     15  C   UNL A   1      44.956  24.643  33.147  1.00  0.00     0.122 C 
BRANCH  15  16
ATOM     16  N   UNL A   1      45.087  23.273  33.547  1.00  0.00    -0.338 N 
ATOM     17  N   UNL A   1      43.961  23.089  35.650  1.00  0.00    -0.306 N 
ATOM     18  C   UNL A   1      44.646  22.577  34.607  1.00  0.00     0.319 C 
ATOM     19  H   UNL A   1      43.990  22.496  36.435  1.00  0.00     0.171 HD
ATOM     20  O   UNL A   1      44.990  21.393  34.673  1.00  0.00    -0.249 OA
ATOM     21  H   UNL A   1      45.607  22.729  32.911  1.00  0.00     0.165 HD
BRANCH  17  22
ATOM     22  C   UNL A   1      43.213  24.257  35.903  1.00  0.00     0.064 A 
ATOM     23  C   UNL A   1      45.205  25.380  37.059  1.00  0.00     0.069 C 
ATOM     24  C   UNL A   1      43.817  25.386  36.485  1.00  0.00     0.061 A 
ATOM     25  N   UNL A   1      43.171  26.580  36.621  1.00  0.00    -0.259 NA
ATOM     26  C   UNL A   1      41.887  26.652  36.221  1.00  0.00     0.111 A 
ATOM     27  C   UNL A   1      41.847  24.348  35.631  1.00  0.00     0.030 A 
ATOM     28  C   UNL A   1      41.180  25.566  35.749  1.00  0.00     0.022 A 
ENDBRANCH  17  22
ENDBRANCH  15  16
ENDBRANCH  11  15
ENDBRANCH   8  10
ENDBRANCH   7   8
ENDBRANCH   6   7
ENDBRANCH   5   6
ENDBRANCH   4   5
ENDBRANCH   3   4
ENDBRANCH   2   3
ENDBRANCH   1   2
BRANCH   1  29
ATOM     29  C   UNL A   1      55.025  25.390  30.565  1.00  0.00     0.188 C 
BRANCH  29  30
ATOM     30  C   UNL A   1      56.264  24.955  29.751  1.00  0.00     0.188 C 
BRANCH  30  31
ATOM     31  O   UNL A   1      56.384  25.515  28.455  1.00  0.00    -0.376 OA
BRANCH  31  32
ATOM     32  C   UNL A   1      56.690  24.630  27.381  1.00  0.00     0.202 C 
BRANCH  32  33
ATOM     33  C   UNL A   1      55.522  24.120  26.517  1.00  0.00     0.261 C 
BRANCH  33  34
ATOM     34  O   UNL A   1      54.287  24.844  26.646  1.00  0.00    -0.460 OA
BRANCH  34  35
ATOM     35  C   UNL A   1      53.420  24.763  25.616  1.00  0.00     0.338 C 
ATOM     36  O   UNL A   1      53.516  24.065  24.620  1.00  0.00    -0.246 OA
BRANCH  35  37
ATOM     37  C   UNL A   1      52.220  25.537  25.972  1.00  0.00     0.060 A 
ATOM     38  C   UNL A   1      51.858  25.639  27.321  1.00  0.00     0.016 A 
ATOM     39  C   UNL A   1      51.443  26.130  24.976  1.00  0.00     0.016 A 
ATOM     40  C   UNL A   1      50.687  26.302  27.677  1.00  0.00     0.010 A 
ATOM     41  C   UNL A   1      50.257  26.773  25.333  1.00  0.00     0.010 A 
ATOM     42  C   UNL A   1      49.855  26.825  26.679  1.00  0.00    -0.014 A 
BRANCH  42  43
ATOM     43  C   UNL A   1      48.471  27.224  27.026  1.00  0.00     0.031 A 
ATOM     44  C   UNL A   1      47.387  26.185  26.930  1.00  0.00     0.074 A 
ATOM     45  C   UNL A   1      48.187  28.469  27.446  1.00  0.00     0.049 A 
ATOM     46  N   UNL A   1      46.103  26.302  27.151  1.00  0.00    -0.248 NA
ATOM     47  C   UNL A   1      47.808  24.832  26.527  1.00  0.00     0.031 C 
ATOM     48  C   UNL A   1      49.160  29.543  27.636  1.00  0.00     0.029 A 
ATOM     49  N   UNL A   1      46.986  29.036  27.790  1.00  0.00    -0.354 N 
ATOM     50  C   UNL A   1      45.564  25.046  26.901  1.00  0.00     0.074 A 
ATOM     51  C   UNL A   1      46.652  24.189  26.485  1.00  0.00     0.031 C 
ATOM     52  C   UNL A   1      48.515  30.644  28.059  1.00  0.00     0.029 A 
ATOM     53  C   UNL A   1      47.081  30.363  28.132  1.00  0.00     0.049 A 
ATOM     54  H   UNL A   1      46.136  28.538  27.792  1.00  0.00     0.167 HD
ATOM     55  C   UNL A   1      44.277  24.639  27.012  1.00  0.00     0.031 A 
ATOM     56  C   UNL A   1      46.118  31.252  28.446  1.00  0.00     0.031 A 
ATOM     57  C   UNL A   1      43.196  25.502  27.409  1.00  0.00     0.049 A 
ATOM     58  C   UNL A   1      44.680  30.801  28.476  1.00  0.00     0.074 A 
ATOM     59  C   UNL A   1      41.858  25.187  27.565  1.00  0.00     0.029 A 
ATOM     60  N   UNL A   1      43.325  26.853  27.698  1.00  0.00    -0.354 N 
ATOM     61  N   UNL A   1      44.184  29.604  28.262  1.00  0.00    -0.248 NA
ATOM     62  C   UNL A   1      43.671  31.819  28.800  1.00  0.00     0.031 C 
ATOM     63  C   UNL A   1      41.167  26.362  27.879  1.00  0.00     0.029 A 
ATOM     64  C   UNL A   1      42.085  27.393  27.997  1.00  0.00     0.049 A 
ATOM     65  H   UNL A   1      44.173  27.353  27.692  1.00  0.00     0.167 HD
ATOM     66  C   UNL A   1      42.810  29.720  28.457  1.00  0.00     0.074 A 
ATOM     67  C   UNL A   1      42.557  31.101  28.818  1.00  0.00     0.031 C 
ATOM     68  C   UNL A   1      41.847  28.771  28.352  1.00  0.00     0.031 A 
BRANCH  55  69
ATOM     69  C   UNL A   1      43.964  23.212  26.646  1.00  0.00    -0.014 A 
ATOM     70  C   UNL A   1      43.170  22.396  27.474  1.00  0.00     0.010 A 
ATOM     71  C   UNL A   1      44.458  22.683  25.440  1.00  0.00     0.010 A 
ATOM     72  C   UNL A   1      42.915  21.067  27.123  1.00  0.00     0.020 A 
ATOM     73  C   UNL A   1      44.179  21.365  25.069  1.00  0.00     0.020 A 
ATOM     74  C   UNL A   1      43.424  20.559  25.923  1.00  0.00     0.054 A 
BRANCH  74  75
ATOM     75  S   UNL A   1      43.069  18.835  25.489  1.00  0.00     0.124 S 
ATOM     76  O   UNL A   1      41.617  18.779  25.643  1.00  0.00    -0.237 OA
ATOM     77  O   UNL A   1      43.558  18.745  24.115  1.00  0.00    -0.237 OA
ATOM     78  O   UNL A   1      43.829  18.065  26.470  1.00  0.00    -0.744 OA
ENDBRANCH  74  75
ENDBRANCH  55  69
BRANCH  56  79
ATOM     79  C   UNL A   1      46.481  32.666  28.742  1.00  0.00    -0.014 A 
ATOM     80  C   UNL A   1      46.835  33.060  30.044  1.00  0.00     0.010 A 
ATOM     81  C   UNL A   1      46.479  33.630  27.715  1.00  0.00     0.010 A 
ATOM     82  C   UNL A   1      47.168  34.390  30.316  1.00  0.00     0.020 A 
ATOM     83  C   UNL A   1      46.842  34.953  27.977  1.00  0.00     0.020 A 
ATOM     84  C   UNL A   1      47.175  35.328  29.279  1.00  0.00     0.054 A 
BRANCH  84  85
ATOM     85  S   UNL A   1      47.667  37.035  29.647  1.00  0.00     0.124 S 
ATOM     86  O   UNL A   1      46.576  37.801  29.053  1.00  0.00    -0.237 OA
ATOM     87  O   UNL A   1      47.721  37.038  31.107  1.00  0.00    -0.237 OA
ATOM     88  O   UNL A   1      48.961  37.171  28.982  1.00  0.00    -0.744 OA
ENDBRANCH  84  85
ENDBRANCH  56  79
BRANCH  68  89
ATOM     89  C   UNL A   1      40.428  29.173  28.671  1.00  0.00    -0.014 A 
ATOM     90  C   UNL A   1      39.548  29.623  27.671  1.00  0.00     0.010 A 
ATOM     91  C   UNL A   1      39.952  29.036  29.990  1.00  0.00     0.010 A 
ATOM     92  C   UNL A   1      38.229  29.960  27.990  1.00  0.00     0.020 A 
ATOM     93  C   UNL A   1      38.626  29.339  30.305  1.00  0.00     0.020 A 
ATOM     94  C   UNL A   1      37.776  29.814  29.306  1.00  0.00     0.054 A 
BRANCH  94  95
ATOM     95  S   UNL A   1      36.047  30.215  29.684  1.00  0.00     0.124 S 
ATOM     96  O   UNL A   1      35.328  29.431  28.684  1.00  0.00    -0.237 OA
ATOM     97  O   UNL A   1      35.907  29.754  31.064  1.00  0.00    -0.237 OA
ATOM     98  O   UNL A   1      35.979  31.663  29.507  1.00  0.00    -0.744 OA
ENDBRANCH  94  95
ENDBRANCH  68  89
ENDBRANCH  42  43
ENDBRANCH  35  37
ENDBRANCH  34  35
ENDBRANCH  33  34
ENDBRANCH  32  33
ENDBRANCH  31  32
ENDBRANCH  30  31
ENDBRANCH  29  30
ENDBRANCH   1  29
TORSDOF 26
ENDMDL
MODEL 3
REMARK VINA RESULT:      -7.1      4.411      6.034
REMARK SMILES Cc1ncccc1NC(=O)NC[C@H]1CCC[C@H]1C(=O)OCCOCCOCCOCCOC(=O)c1ccc(-c2c3nc(c(-c4ccc(S(=O)(=O)[O-])cc4)c4ccc([nH]4)c(-c4ccc(S(=O)(=O)[O-])cc4)c4nc(c(-c5ccc(S(=O)(=O)[O-])cc5)c5ccc2[nH]5)C=C4)C=C3)cc1
REMARK SMILES IDX 26 1 25 2 24 3 23 4 22 5 21 6 20 7 18 8 19 9 17 10 13 11
REMARK SMILES IDX 14 12 15 13 16 14 12 15 11 16 8 17 9 18 10 20 7 22 1 23 2 24
REMARK SMILES IDX 3 25 4 26 6 27 5 28 27 29 28 30 29 31 30 32 31 33 32 34
REMARK SMILES IDX 33 35 34 36 35 37 36 38 94 39 37 40 93 41 38 42 39 43 40 44
REMARK SMILES IDX 87 45 41 46 92 47 86 48 88 49 42 50 91 51 85 52 84 53 43 55
REMARK SMILES IDX 73 56 54 57 72 58 55 59 58 60 71 61 89 62 56 63 57 64 70 66
REMARK SMILES IDX 90 67 59 68 44 69 45 70 53 71 46 72 52 73 47 74 48 75 49 76
REMARK SMILES IDX 50 77 51 78 74 79 75 80 83 81 76 82 82 83 77 84 78 85 79 86
REMARK SMILES IDX 80 87 81 88 60 89 61 90 69 91 62 92 68 93 63 94 64 95 65 96
REMARK SMILES IDX 66 97 67 98
REMARK H PARENT 8 19 11 21 88 54 58 65
REMARK Flexibility Score: inf
ROOT
ATOM      1  O   UNL A   1      39.666  26.320  28.069  1.00  0.00    -0.377 OA
ENDROOT
BRANCH   1   2
ATOM      2  C   UNL A   1      39.331  26.905  29.313  1.00  0.00     0.188 C 
BRANCH   2   3
ATOM      3  C   UNL A   1      38.777  28.332  29.354  1.00  0.00     0.188 C 
BRANCH   3   4
ATOM      4  O   UNL A   1      38.373  28.920  28.139  1.00  0.00    -0.376 OA
BRANCH   4   5
ATOM      5  C   UNL A   1      37.360  29.915  28.042  1.00  0.00     0.202 C 
BRANCH   5   6
ATOM      6  C   UNL A   1      35.846  29.716  28.256  1.00  0.00     0.261 C 
BRANCH   6   7
ATOM      7  O   UNL A   1      35.159  28.917  27.290  1.00  0.00    -0.463 OA
BRANCH   7   8
ATOM      8  C   UNL A   1      33.976  29.430  26.865  1.00  0.00     0.309 C 
ATOM      9  O   UNL A   1      33.364  30.334  27.427  1.00  0.00    -0.252 OA
BRANCH   8  10
ATOM     10  C   UNL A   1      33.501  28.870  25.543  1.00  0.00     0.104 C 
ATOM     11  C   UNL A   1      33.710  27.420  25.100  1.00  0.00     0.022 C 
ATOM     12  C   UNL A   1      32.955  27.462  23.753  1.00  0.00     0.006 C 
ATOM     13  C   UNL A   1      31.677  28.233  24.084  1.00  0.00     0.001 C 
ATOM     14  C   UNL A   1      32.040  29.165  25.244  1.00  0.00     0.016 C 
BRANCH  11  15
ATOM     15  C   UNL A   1      33.171  26.215  25.891  1.00  0.00     0.122 C 
BRANCH  15  16
ATOM     16  N   UNL A   1      31.782  26.154  26.241  1.00  0.00    -0.338 N 
ATOM     17  N   UNL A   1      31.004  24.024  25.478  1.00  0.00    -0.306 N 
ATOM     18  C   UNL A   1      30.837  25.212  26.095  1.00  0.00     0.319 C 
ATOM     19  H   UNL A   1      30.144  23.618  25.224  1.00  0.00     0.171 HD
ATOM     20  O   UNL A   1      29.698  25.509  26.469  1.00  0.00    -0.249 OA
ATOM     21  H   UNL A   1      31.453  26.972  26.681  1.00  0.00     0.165 HD
BRANCH  17  22
ATOM     22  C   UNL A   1      32.096  23.214  25.104  1.00  0.00     0.064 A 
ATOM     23  C   UNL A   1      32.641  22.679  27.550  1.00  0.00     0.069 C 
ATOM     24  C   UNL A   1      32.821  22.495  26.070  1.00  0.00     0.061 A 
ATOM     25  N   UNL A   1      33.793  21.596  25.744  1.00  0.00    -0.259 NA
ATOM     26  C   UNL A   1      34.093  21.434  24.440  1.00  0.00     0.111 A 
ATOM     27  C   UNL A   1      32.537  23.109  23.784  1.00  0.00     0.030 A 
ATOM     28  C   UNL A   1      33.515  22.180  23.435  1.00  0.00     0.022 A 
ENDBRANCH  17  22
ENDBRANCH  15  16
ENDBRANCH  11  15
ENDBRANCH   8  10
ENDBRANCH   7   8
ENDBRANCH   6   7
ENDBRANCH   5   6
ENDBRANCH   4   5
ENDBRANCH   3   4
ENDBRANCH   2   3
ENDBRANCH   1   2
BRANCH   1  29
ATOM     29  C   UNL A   1      40.272  25.036  28.054  1.00  0.00     0.188 C 
BRANCH  29  30
ATOM     30  C   UNL A   1      40.944  24.514  26.765  1.00  0.00     0.188 C 
BRANCH  30  31
ATOM     31  O   UNL A   1      42.164  23.813  26.939  1.00  0.00    -0.376 OA
BRANCH  31  32
ATOM     32  C   UNL A   1      42.989  23.631  25.790  1.00  0.00     0.202 C 
BRANCH  32  33
ATOM     33  C   UNL A   1      44.173  22.653  25.907  1.00  0.00     0.261 C 
BRANCH  33  34
ATOM     34  O   UNL A   1      45.411  23.222  26.362  1.00  0.00    -0.460 OA
BRANCH  34  35
ATOM     35  C   UNL A   1      45.421  23.752  27.602  1.00  0.00     0.338 C 
ATOM     36  O   UNL A   1      45.125  23.196  28.647  1.00  0.00    -0.246 OA
BRANCH  35  37
ATOM     37  C   UNL A   1      46.030  25.089  27.519  1.00  0.00     0.060 A 
ATOM     38  C   UNL A   1      45.759  25.886  26.399  1.00  0.00     0.016 A 
ATOM     39  C   UNL A   1      46.886  25.538  28.526  1.00  0.00     0.016 A 
ATOM     40  C   UNL A   1      46.382  27.124  26.262  1.00  0.00     0.010 A 
ATOM     41  C   UNL A   1      47.528  26.768  28.374  1.00  0.00     0.010 A 
ATOM     42  C   UNL A   1      47.310  27.545  27.223  1.00  0.00    -0.014 A 
BRANCH  42  43
ATOM     43  C   UNL A   1      48.207  28.682  26.914  1.00  0.00     0.031 A 
ATOM     44  C   UNL A   1      47.639  30.075  26.989  1.00  0.00     0.074 A 
ATOM     45  C   UNL A   1      49.500  28.489  26.606  1.00  0.00     0.049 A 
ATOM     46  N   UNL A   1      48.217  31.220  26.736  1.00  0.00    -0.248 NA
ATOM     47  C   UNL A   1      46.231  30.188  27.403  1.00  0.00     0.031 C 
ATOM     48  C   UNL A   1      50.177  27.194  26.560  1.00  0.00     0.029 A 
ATOM     49  N   UNL A   1      50.477  29.393  26.272  1.00  0.00    -0.354 N 
ATOM     50  C   UNL A   1      47.240  32.187  26.945  1.00  0.00     0.074 A 
ATOM     51  C   UNL A   1      46.027  31.493  27.318  1.00  0.00     0.031 C 
ATOM     52  C   UNL A   1      51.461  27.388  26.212  1.00  0.00     0.029 A 
ATOM     53  C   UNL A   1      51.686  28.813  25.974  1.00  0.00     0.049 A 
ATOM     54  H   UNL A   1      50.325  30.366  26.249  1.00  0.00     0.167 HD
ATOM     55  C   UNL A   1      47.344  33.532  26.839  1.00  0.00     0.031 A 
ATOM     56  C   UNL A   1      52.834  29.368  25.537  1.00  0.00     0.031 A 
ATOM     57  C   UNL A   1      48.548  34.215  26.449  1.00  0.00     0.049 A 
ATOM     58  C   UNL A   1      52.902  30.861  25.340  1.00  0.00     0.074 A 
ATOM     59  C   UNL A   1      48.764  35.575  26.324  1.00  0.00     0.029 A 
ATOM     60  N   UNL A   1      49.738  33.588  26.106  1.00  0.00    -0.354 N 
ATOM     61  N   UNL A   1      51.979  31.768  25.565  1.00  0.00    -0.248 NA
ATOM     62  C   UNL A   1      54.170  31.408  24.839  1.00  0.00     0.031 C 
ATOM     63  C   UNL A   1      50.061  35.769  25.837  1.00  0.00     0.029 A 
ATOM     64  C   UNL A   1      50.680  34.534  25.735  1.00  0.00     0.049 A 
ATOM     65  H   UNL A   1      49.891  32.616  26.123  1.00  0.00     0.167 HD
ATOM     66  C   UNL A   1      52.567  32.994  25.262  1.00  0.00     0.074 A 
ATOM     67  C   UNL A   1      53.927  32.712  24.851  1.00  0.00     0.031 C 
ATOM     68  C   UNL A   1      52.032  34.238  25.324  1.00  0.00     0.031 A 
BRANCH  55  69
ATOM     69  C   UNL A   1      46.104  34.348  27.099  1.00  0.00    -0.014 A 
ATOM     70  C   UNL A   1      45.798  34.836  28.383  1.00  0.00     0.010 A 
ATOM     71  C   UNL A   1      45.239  34.650  26.030  1.00  0.00     0.010 A 
ATOM     72  C   UNL A   1      44.629  35.570  28.601  1.00  0.00     0.020 A 
ATOM     73  C   UNL A   1      44.086  35.410  26.238  1.00  0.00     0.020 A 
ATOM     74  C   UNL A   1      43.778  35.850  27.527  1.00  0.00     0.054 A 
BRANCH  74  75
ATOM     75  S   UNL A   1      42.274  36.813  27.837  1.00  0.00     0.124 S 
ATOM     76  O   UNL A   1      42.701  37.699  28.919  1.00  0.00    -0.237 OA
ATOM     77  O   UNL A   1      42.039  37.464  26.550  1.00  0.00    -0.237 OA
ATOM     78  O   UNL A   1      41.286  35.805  28.213  1.00  0.00    -0.744 OA
ENDBRANCH  74  75
ENDBRANCH  55  69
BRANCH  56  79
ATOM     79  C   UNL A   1      54.011  28.505  25.240  1.00  0.00    -0.014 A 
ATOM     80  C   UNL A   1      54.862  28.070  26.272  1.00  0.00     0.010 A 
ATOM     81  C   UNL A   1      54.284  28.107  23.918  1.00  0.00     0.010 A 
ATOM     82  C   UNL A   1      55.968  27.265  25.986  1.00  0.00     0.020 A 
ATOM     83  C   UNL A   1      55.371  27.277  23.632  1.00  0.00     0.020 A 
ATOM     84  C   UNL A   1      56.213  26.868  24.668  1.00  0.00     0.054 A 
BRANCH  84  85
ATOM     85  S   UNL A   1      57.622  25.776  24.331  1.00  0.00     0.124 S 
ATOM     86  O   UNL A   1      57.716  25.841  22.875  1.00  0.00    -0.237 OA
ATOM     87  O   UNL A   1      58.705  26.426  25.064  1.00  0.00    -0.237 OA
ATOM     88  O   UNL A   1      57.196  24.488  24.873  1.00  0.00    -0.744 OA
ENDBRANCH  84  85
ENDBRANCH  56  79
BRANCH  68  89
ATOM     89  C   UNL A   1      52.926  35.404  24.981  1.00  0.00    -0.014 A 
ATOM     90  C   UNL A   1      52.956  35.952  23.686  1.00  0.00     0.010 A 
ATOM     91  C   UNL A   1      53.704  35.999  25.993  1.00  0.00     0.010 A 
ATOM     92  C   UNL A   1      53.771  37.052  23.403  1.00  0.00     0.020 A 
ATOM     93  C   UNL A   1      54.494  37.119  25.722  1.00  0.00     0.020 A 
ATOM     94  C   UNL A   1      54.534  37.630  24.423  1.00  0.00     0.054 A 
BRANCH  94  95
ATOM     95  S   UNL A   1      55.549  39.084  24.040  1.00  0.00     0.124 S 
ATOM     96  O   UNL A   1      55.962  39.525  25.369  1.00  0.00    -0.237 OA
ATOM     97  O   UNL A   1      56.609  38.522  23.206  1.00  0.00    -0.237 OA
ATOM     98  O   UNL A   1      54.626  39.979  23.346  1.00  0.00    -0.744 OA
ENDBRANCH  94  95
ENDBRANCH  68  89
ENDBRANCH  42  43
ENDBRANCH  35  37
ENDBRANCH  34  35
ENDBRANCH  33  34
ENDBRANCH  32  33
ENDBRANCH  31  32
ENDBRANCH  30  31
ENDBRANCH  29  30
ENDBRANCH   1  29
TORSDOF 26
ENDMDL
