MODEL 1
REMARK VINA RESULT:      -8.4      0.000      0.000
REMARK SMILES O=C(OCCOCCOCCOCCOC(=O)c1ccc(-c2c3nc(c(-c4ccc(S(=O)(=O)[O-])cc4)c4ccc([nH]4)c(-c4ccc(S(=O)(=O)[O-])cc4)c4nc(c(-c5ccc(S(=O)(=O)[O-])cc5)c5ccc2[nH]5)C=C4)C=C3)cc1)C1=Cc2c(Cl)cc(Cl)cc2O[C@@H]1C(F)(F)F
REMARK SMILES IDX 10 1 9 2 8 3 7 4 6 5 5 6 4 7 3 8 2 9 1 10 78 11 79 12 89 13
REMARK SMILES IDX 80 14 88 15 81 16 87 17 82 18 83 19 86 20 84 21 85 22 90 23
REMARK SMILES IDX 91 24 92 25 93 26 11 27 12 28 13 29 14 30 15 31 16 32 17 33
REMARK SMILES IDX 18 34 19 35 77 36 20 37 76 38 21 39 22 40 23 41 70 42 24 43
REMARK SMILES IDX 75 44 69 45 71 46 25 47 74 48 68 49 67 50 26 52 56 53 37 54
REMARK SMILES IDX 55 55 38 56 41 57 54 58 72 59 39 60 40 61 53 63 73 64 42 65
REMARK SMILES IDX 27 66 28 67 36 68 29 69 35 70 30 71 31 72 32 73 33 74 34 75
REMARK SMILES IDX 57 76 58 77 66 78 59 79 65 80 60 81 61 82 62 83 63 84 64 85
REMARK SMILES IDX 43 86 44 87 52 88 45 89 51 90 46 91 47 92 48 93 49 94 50 95
REMARK H PARENT 71 51 41 62
REMARK Flexibility Score: inf
ROOT
ATOM      1  C   UNL A   1      34.801  34.409  33.138  1.00  0.00     0.188 C 
ENDROOT
BRANCH   1   2
ATOM      2  O   UNL A   1      36.185  34.229  33.309  1.00  0.00    -0.377 OA
BRANCH   2   3
ATOM      3  C   UNL A   1      36.501  32.916  33.711  1.00  0.00     0.188 C 
BRANCH   3   4
ATOM      4  C   UNL A   1      36.502  31.866  32.587  1.00  0.00     0.188 C 
BRANCH   4   5
ATOM      5  O   UNL A   1      36.376  30.414  32.801  1.00  0.00    -0.376 OA
BRANCH   5   6
ATOM      6  C   UNL A   1      37.486  29.188  32.954  1.00  0.00     0.202 C 
BRANCH   6   7
ATOM      7  C   UNL A   1      39.654  29.385  33.105  1.00  0.00     0.261 C 
BRANCH   7   8
ATOM      8  O   UNL A   1      40.503  29.078  34.319  1.00  0.00    -0.460 OA
BRANCH   8   9
ATOM      9  C   UNL A   1      40.171  29.834  35.371  1.00  0.00     0.338 C 
ATOM     10  O   UNL A   1      39.145  29.823  36.006  1.00  0.00    -0.246 OA
BRANCH   9  11
ATOM     11  C   UNL A   1      41.147  30.891  35.156  1.00  0.00     0.087 C 
ATOM     12  C   UNL A   1      40.571  32.246  35.190  1.00  0.00     0.029 C 
ATOM     13  C   UNL A   1      42.349  30.187  36.481  1.00  0.00     0.316 C 
ATOM     14  C   UNL A   1      40.705  33.393  36.587  1.00  0.00     0.036 A 
ATOM     15  O   UNL A   1      42.422  31.335  38.051  1.00  0.00    -0.475 OA
ATOM     16  C   UNL A   1      40.052  34.602  36.595  1.00  0.00     0.053 A 
ATOM     17  C   UNL A   1      41.534  32.945  38.040  1.00  0.00     0.130 A 
ATOM     18  Cl  UNL A   1      39.111  35.171  35.279  1.00  0.00    -0.083 Cl
ATOM     19  C   UNL A   1      40.157  35.362  37.777  1.00  0.00     0.042 A 
ATOM     20  C   UNL A   1      41.582  33.739  39.157  1.00  0.00     0.067 A 
ATOM     21  C   UNL A   1      40.884  34.957  38.972  1.00  0.00     0.046 A 
ATOM     22  Cl  UNL A   1      40.886  36.098  40.279  1.00  0.00    -0.084 Cl
BRANCH  13  23
ATOM     23  C   UNL A   1      43.505  29.755  35.372  1.00  0.00     0.430 C 
ATOM     24  F   UNL A   1      44.601  30.528  35.266  1.00  0.00    -0.167 F 
ATOM     25  F   UNL A   1      43.996  28.542  35.778  1.00  0.00    -0.167 F 
ATOM     26  F   UNL A   1      43.042  29.519  34.120  1.00  0.00    -0.167 F 
ENDBRANCH  13  23
ENDBRANCH   9  11
ENDBRANCH   8   9
ENDBRANCH   7   8
ENDBRANCH   6   7
ENDBRANCH   5   6
ENDBRANCH   4   5
ENDBRANCH   3   4
ENDBRANCH   2   3
ENDBRANCH   1   2
BRANCH   1  27
ATOM     27  C   UNL A   1      34.341  34.824  31.736  1.00  0.00     0.188 C 
BRANCH  27  28
ATOM     28  O   UNL A   1      34.917  34.297  30.553  1.00  0.00    -0.376 OA
BRANCH  28  29
ATOM     29  C   UNL A   1      34.195  34.245  29.334  1.00  0.00     0.202 C 
BRANCH  29  30
ATOM     30  C   UNL A   1      34.084  32.961  28.500  1.00  0.00     0.261 C 
BRANCH  30  31
ATOM     31  O   UNL A   1      34.616  31.771  29.089  1.00  0.00    -0.460 OA
BRANCH  31  32
ATOM     32  C   UNL A   1      34.670  30.689  28.280  1.00  0.00     0.338 C 
ATOM     33  O   UNL A   1      33.816  30.322  27.491  1.00  0.00    -0.246 OA
BRANCH  32  34
ATOM     34  C   UNL A   1      36.026  30.102  28.351  1.00  0.00     0.060 A 
ATOM     35  C   UNL A   1      36.450  29.519  29.558  1.00  0.00     0.016 A 
ATOM     36  C   UNL A   1      36.877  30.135  27.247  1.00  0.00     0.016 A 
ATOM     37  C   UNL A   1      37.734  28.995  29.677  1.00  0.00     0.010 A 
ATOM     38  C   UNL A   1      38.179  29.659  27.381  1.00  0.00     0.010 A 
ATOM     39  C   UNL A   1      38.623  29.129  28.608  1.00  0.00    -0.014 A 
BRANCH  39  40
ATOM     40  C   UNL A   1      40.077  28.986  28.830  1.00  0.00     0.031 A 
ATOM     41  C   UNL A   1      40.699  27.664  28.484  1.00  0.00     0.074 A 
ATOM     42  C   UNL A   1      40.811  29.970  29.375  1.00  0.00     0.049 A 
ATOM     43  N   UNL A   1      41.889  27.206  28.765  1.00  0.00    -0.248 NA
ATOM     44  C   UNL A   1      39.847  26.722  27.738  1.00  0.00     0.031 C 
ATOM     45  C   UNL A   1      40.328  31.310  29.691  1.00  0.00     0.029 A 
ATOM     46  N   UNL A   1      42.116  29.966  29.795  1.00  0.00    -0.354 N 
ATOM     47  C   UNL A   1      41.914  25.907  28.270  1.00  0.00     0.074 A 
ATOM     48  C   UNL A   1      40.614  25.646  27.691  1.00  0.00     0.031 C 
ATOM     49  C   UNL A   1      41.314  31.990  30.300  1.00  0.00     0.029 A 
ATOM     50  C   UNL A   1      42.473  31.112  30.462  1.00  0.00     0.049 A 
ATOM     51  H   UNL A   1      42.735  29.217  29.636  1.00  0.00     0.167 HD
ATOM     52  C   UNL A   1      42.925  25.009  28.312  1.00  0.00     0.031 A 
ATOM     53  C   UNL A   1      43.585  31.397  31.170  1.00  0.00     0.031 A 
ATOM     54  C   UNL A   1      44.198  25.280  28.925  1.00  0.00     0.049 A 
ATOM     55  C   UNL A   1      44.676  30.364  31.274  1.00  0.00     0.074 A 
ATOM     56  C   UNL A   1      45.307  24.457  29.002  1.00  0.00     0.029 A 
ATOM     57  N   UNL A   1      44.523  26.456  29.587  1.00  0.00    -0.354 N 
ATOM     58  N   UNL A   1      44.707  29.146  30.787  1.00  0.00    -0.248 NA
ATOM     59  C   UNL A   1      45.887  30.745  32.014  1.00  0.00     0.031 C 
ATOM     60  C   UNL A   1      46.268  25.101  29.786  1.00  0.00     0.029 A 
ATOM     61  C   UNL A   1      45.801  26.366  30.111  1.00  0.00     0.049 A 
ATOM     62  H   UNL A   1      43.932  27.239  29.672  1.00  0.00     0.167 HD
ATOM     63  C   UNL A   1      45.952  28.628  31.129  1.00  0.00     0.074 A 
ATOM     64  C   UNL A   1      46.644  29.666  31.866  1.00  0.00     0.031 C 
ATOM     65  C   UNL A   1      46.478  27.410  30.845  1.00  0.00     0.031 A 
BRANCH  52  66
ATOM     66  C   UNL A   1      42.656  23.635  27.752  1.00  0.00    -0.014 A 
ATOM     67  C   UNL A   1      42.230  22.569  28.566  1.00  0.00     0.010 A 
ATOM     68  C   UNL A   1      42.853  23.404  26.378  1.00  0.00     0.010 A 
ATOM     69  C   UNL A   1      42.077  21.286  28.032  1.00  0.00     0.020 A 
ATOM     70  C   UNL A   1      42.659  22.133  25.830  1.00  0.00     0.020 A 
ATOM     71  C   UNL A   1      42.299  21.076  26.667  1.00  0.00     0.054 A 
BRANCH  71  72
ATOM     72  S   UNL A   1      42.113  19.399  26.005  1.00  0.00     0.124 S 
ATOM     73  O   UNL A   1      42.991  19.437  24.837  1.00  0.00    -0.237 OA
ATOM     74  O   UNL A   1      42.576  18.567  27.112  1.00  0.00    -0.237 OA
ATOM     75  O   UNL A   1      40.686  19.299  25.706  1.00  0.00    -0.744 OA
ENDBRANCH  71  72
ENDBRANCH  52  66
BRANCH  53  76
ATOM     76  C   UNL A   1      43.685  32.711  31.860  1.00  0.00    -0.014 A 
ATOM     77  C   UNL A   1      44.198  33.837  31.193  1.00  0.00     0.010 A 
ATOM     78  C   UNL A   1      43.196  32.857  33.173  1.00  0.00     0.010 A 
ATOM     79  C   UNL A   1      44.203  35.087  31.820  1.00  0.00     0.020 A 
ATOM     80  C   UNL A   1      43.171  34.109  33.790  1.00  0.00     0.020 A 
ATOM     81  C   UNL A   1      43.672  35.219  33.108  1.00  0.00     0.054 A 
BRANCH  81  82
ATOM     82  S   UNL A   1      43.580  36.872  33.849  1.00  0.00     0.124 S 
ATOM     83  O   UNL A   1      43.628  37.736  32.675  1.00  0.00    -0.237 OA
ATOM     84  O   UNL A   1      42.300  36.825  34.551  1.00  0.00    -0.237 OA
ATOM     85  O   UNL A   1      44.755  36.925  34.716  1.00  0.00    -0.744 OA
ENDBRANCH  81  82
ENDBRANCH  53  76
BRANCH  65  86
ATOM     86  C   UNL A   1      47.899  27.134  31.270  1.00  0.00    -0.014 A 
ATOM     87  C   UNL A   1      48.199  26.387  32.423  1.00  0.00     0.010 A 
ATOM     88  C   UNL A   1      48.951  27.547  30.431  1.00  0.00     0.010 A 
ATOM     89  C   UNL A   1      49.526  26.071  32.733  1.00  0.00     0.020 A 
ATOM     90  C   UNL A   1      50.274  27.204  30.717  1.00  0.00     0.020 A 
ATOM     91  C   UNL A   1      50.554  26.473  31.872  1.00  0.00     0.054 A 
BRANCH  91  92
ATOM     92  S   UNL A   1      52.258  25.981  32.255  1.00  0.00     0.124 S 
ATOM     93  O   UNL A   1      52.104  24.561  32.558  1.00  0.00    -0.237 OA
ATOM     94  O   UNL A   1      52.963  26.288  31.013  1.00  0.00    -0.237 OA
ATOM     95  O   UNL A   1      52.616  26.825  33.394  1.00  0.00    -0.744 OA
ENDBRANCH  91  92
ENDBRANCH  65  86
ENDBRANCH  39  40
ENDBRANCH  32  34
ENDBRANCH  31  32
ENDBRANCH  30  31
ENDBRANCH  29  30
ENDBRANCH  28  29
ENDBRANCH  27  28
ENDBRANCH   1  27
TORSDOF 24
ENDMDL
MODEL 2
REMARK VINA RESULT:      -7.7      2.202      2.589
REMARK SMILES O=C(OCCOCCOCCOCCOC(=O)c1ccc(-c2c3nc(c(-c4ccc(S(=O)(=O)[O-])cc4)c4ccc([nH]4)c(-c4ccc(S(=O)(=O)[O-])cc4)c4nc(c(-c5ccc(S(=O)(=O)[O-])cc5)c5ccc2[nH]5)C=C4)C=C3)cc1)C1=Cc2c(Cl)cc(Cl)cc2O[C@@H]1C(F)(F)F
REMARK SMILES IDX 10 1 9 2 8 3 7 4 6 5 5 6 4 7 3 8 2 9 1 10 78 11 79 12 89 13
REMARK SMILES IDX 80 14 88 15 81 16 87 17 82 18 83 19 86 20 84 21 85 22 90 23
REMARK SMILES IDX 91 24 92 25 93 26 11 27 12 28 13 29 14 30 15 31 16 32 17 33
REMARK SMILES IDX 18 34 19 35 77 36 20 37 76 38 21 39 22 40 23 41 70 42 24 43
REMARK SMILES IDX 75 44 69 45 71 46 25 47 74 48 68 49 67 50 26 52 56 53 37 54
REMARK SMILES IDX 55 55 38 56 41 57 54 58 72 59 39 60 40 61 53 63 73 64 42 65
REMARK SMILES IDX 27 66 28 67 36 68 29 69 35 70 30 71 31 72 32 73 33 74 34 75
REMARK SMILES IDX 57 76 58 77 66 78 59 79 65 80 60 81 61 82 62 83 63 84 64 85
REMARK SMILES IDX 43 86 44 87 52 88 45 89 51 90 46 91 47 92 48 93 49 94 50 95
REMARK H PARENT 71 51 41 62
REMARK Flexibility Score: inf
ROOT
ATOM      1  C   UNL A   1      34.452  34.907  32.768  1.00  0.00     0.188 C 
ENDROOT
BRANCH   1   2
ATOM      2  O   UNL A   1      35.719  35.509  32.876  1.00  0.00    -0.377 OA
BRANCH   2   3
ATOM      3  C   UNL A   1      36.717  34.579  33.229  1.00  0.00     0.188 C 
BRANCH   3   4
ATOM      4  C   UNL A   1      36.545  33.172  32.631  1.00  0.00     0.188 C 
BRANCH   4   5
ATOM      5  O   UNL A   1      36.614  31.921  33.406  1.00  0.00    -0.376 OA
BRANCH   5   6
ATOM      6  C   UNL A   1      37.789  30.760  33.586  1.00  0.00     0.202 C 
BRANCH   6   7
ATOM      7  C   UNL A   1      39.801  31.034  34.384  1.00  0.00     0.261 C 
BRANCH   7   8
ATOM      8  O   UNL A   1      40.324  32.257  35.106  1.00  0.00    -0.460 OA
BRANCH   8   9
ATOM      9  C   UNL A   1      40.347  32.088  36.432  1.00  0.00     0.338 C 
ATOM     10  O   UNL A   1      40.911  31.232  37.067  1.00  0.00    -0.246 OA
BRANCH   9  11
ATOM     11  C   UNL A   1      39.168  32.883  36.742  1.00  0.00     0.087 C 
ATOM     12  C   UNL A   1      38.160  32.162  37.539  1.00  0.00     0.029 C 
ATOM     13  C   UNL A   1      40.212  34.362  37.388  1.00  0.00     0.316 C 
ATOM     14  C   UNL A   1      37.894  32.387  39.317  1.00  0.00     0.036 A 
ATOM     15  O   UNL A   1      40.045  34.556  39.317  1.00  0.00    -0.475 OA
ATOM     16  C   UNL A   1      37.010  31.605  40.021  1.00  0.00     0.053 A 
ATOM     17  C   UNL A   1      38.860  33.493  40.237  1.00  0.00     0.130 A 
ATOM     18  Cl  UNL A   1      36.035  30.399  39.290  1.00  0.00    -0.083 Cl
ATOM     19  C   UNL A   1      36.962  31.813  41.414  1.00  0.00     0.042 A 
ATOM     20  C   UNL A   1      38.762  33.629  41.598  1.00  0.00     0.067 A 
ATOM     21  C   UNL A   1      37.779  32.770  42.147  1.00  0.00     0.046 A 
ATOM     22  Cl  UNL A   1      37.496  32.851  43.857  1.00  0.00    -0.084 Cl
BRANCH  13  23
ATOM     23  C   UNL A   1      39.785  35.362  36.135  1.00  0.00     0.430 C 
ATOM     24  F   UNL A   1      38.489  35.412  35.778  1.00  0.00    -0.167 F 
ATOM     25  F   UNL A   1      40.061  36.639  36.547  1.00  0.00    -0.167 F 
ATOM     26  F   UNL A   1      40.521  35.215  35.005  1.00  0.00    -0.167 F 
ENDBRANCH  13  23
ENDBRANCH   9  11
ENDBRANCH   8   9
ENDBRANCH   7   8
ENDBRANCH   6   7
ENDBRANCH   5   6
ENDBRANCH   4   5
ENDBRANCH   3   4
ENDBRANCH   2   3
ENDBRANCH   1   2
BRANCH   1  27
ATOM     27  C   UNL A   1      33.758  35.033  31.407  1.00  0.00     0.188 C 
BRANCH  27  28
ATOM     28  O   UNL A   1      34.429  34.803  30.180  1.00  0.00    -0.376 OA
BRANCH  28  29
ATOM     29  C   UNL A   1      33.721  34.662  28.961  1.00  0.00     0.202 C 
BRANCH  29  30
ATOM     30  C   UNL A   1      33.748  33.364  28.141  1.00  0.00     0.261 C 
BRANCH  30  31
ATOM     31  O   UNL A   1      34.267  32.205  28.801  1.00  0.00    -0.460 OA
BRANCH  31  32
ATOM     32  C   UNL A   1      34.482  31.128  28.013  1.00  0.00     0.338 C 
ATOM     33  O   UNL A   1      33.786  30.749  27.086  1.00  0.00    -0.246 OA
BRANCH  32  34
ATOM     34  C   UNL A   1      35.814  30.565  28.320  1.00  0.00     0.060 A 
ATOM     35  C   UNL A   1      36.345  30.743  29.610  1.00  0.00     0.016 A 
ATOM     36  C   UNL A   1      36.542  29.880  27.348  1.00  0.00     0.016 A 
ATOM     37  C   UNL A   1      37.614  30.266  29.926  1.00  0.00     0.010 A 
ATOM     38  C   UNL A   1      37.833  29.449  27.646  1.00  0.00     0.010 A 
ATOM     39  C   UNL A   1      38.386  29.681  28.920  1.00  0.00    -0.014 A 
BRANCH  39  40
ATOM     40  C   UNL A   1      39.850  29.557  29.087  1.00  0.00     0.031 A 
ATOM     41  C   UNL A   1      40.472  28.234  28.740  1.00  0.00     0.074 A 
ATOM     42  C   UNL A   1      40.594  30.557  29.583  1.00  0.00     0.049 A 
ATOM     43  N   UNL A   1      41.677  27.794  28.982  1.00  0.00    -0.248 NA
ATOM     44  C   UNL A   1      39.601  27.270  28.047  1.00  0.00     0.031 C 
ATOM     45  C   UNL A   1      40.109  31.899  29.892  1.00  0.00     0.029 A 
ATOM     46  N   UNL A   1      41.915  30.575  29.951  1.00  0.00    -0.354 N 
ATOM     47  C   UNL A   1      41.696  26.486  28.511  1.00  0.00     0.074 A 
ATOM     48  C   UNL A   1      40.378  26.201  27.990  1.00  0.00     0.031 C 
ATOM     49  C   UNL A   1      41.111  32.600  30.449  1.00  0.00     0.029 A 
ATOM     50  C   UNL A   1      42.285  31.737  30.581  1.00  0.00     0.049 A 
ATOM     51  H   UNL A   1      42.535  29.829  29.781  1.00  0.00     0.167 HD
ATOM     52  C   UNL A   1      42.719  25.599  28.529  1.00  0.00     0.031 A 
ATOM     53  C   UNL A   1      43.422  32.047  31.238  1.00  0.00     0.031 A 
ATOM     54  C   UNL A   1      44.011  25.895  29.086  1.00  0.00     0.049 A 
ATOM     55  C   UNL A   1      44.528  31.028  31.318  1.00  0.00     0.074 A 
ATOM     56  C   UNL A   1      45.131  25.085  29.134  1.00  0.00     0.029 A 
ATOM     57  N   UNL A   1      44.350  27.087  29.712  1.00  0.00    -0.354 N 
ATOM     58  N   UNL A   1      44.552  29.800  30.853  1.00  0.00    -0.248 NA
ATOM     59  C   UNL A   1      45.762  31.435  32.002  1.00  0.00     0.031 C 
ATOM     60  C   UNL A   1      46.116  25.753  29.867  1.00  0.00     0.029 A 
ATOM     61  C   UNL A   1      45.648  27.019  30.186  1.00  0.00     0.049 A 
ATOM     62  H   UNL A   1      43.754  27.865  29.806  1.00  0.00     0.167 HD
ATOM     63  C   UNL A   1      45.816  29.303  31.155  1.00  0.00     0.074 A 
ATOM     64  C   UNL A   1      46.525  30.361  31.844  1.00  0.00     0.031 C 
ATOM     65  C   UNL A   1      46.343  28.084  30.873  1.00  0.00     0.031 A 
BRANCH  52  66
ATOM     66  C   UNL A   1      42.442  24.212  28.006  1.00  0.00    -0.014 A 
ATOM     67  C   UNL A   1      42.019  23.169  28.850  1.00  0.00     0.010 A 
ATOM     68  C   UNL A   1      42.629  23.946  26.637  1.00  0.00     0.010 A 
ATOM     69  C   UNL A   1      41.860  21.873  28.350  1.00  0.00     0.020 A 
ATOM     70  C   UNL A   1      42.428  22.662  26.124  1.00  0.00     0.020 A 
ATOM     71  C   UNL A   1      42.072  21.627  26.990  1.00  0.00     0.054 A 
BRANCH  71  72
ATOM     72  S   UNL A   1      41.877  19.934  26.372  1.00  0.00     0.124 S 
ATOM     73  O   UNL A   1      42.302  19.142  27.524  1.00  0.00    -0.237 OA
ATOM     74  O   UNL A   1      40.452  19.873  26.057  1.00  0.00    -0.237 OA
ATOM     75  O   UNL A   1      42.772  19.879  25.217  1.00  0.00    -0.744 OA
ENDBRANCH  71  72
ENDBRANCH  52  66
BRANCH  53  76
ATOM     76  C   UNL A   1      43.535  33.375  31.899  1.00  0.00    -0.014 A 
ATOM     77  C   UNL A   1      44.002  34.494  31.190  1.00  0.00     0.010 A 
ATOM     78  C   UNL A   1      43.102  33.540  33.230  1.00  0.00     0.010 A 
ATOM     79  C   UNL A   1      44.019  35.757  31.793  1.00  0.00     0.020 A 
ATOM     80  C   UNL A   1      43.088  34.803  33.824  1.00  0.00     0.020 A 
ATOM     81  C   UNL A   1      43.544  35.906  33.100  1.00  0.00     0.054 A 
BRANCH  81  82
ATOM     82  S   UNL A   1      43.463  37.571  33.814  1.00  0.00     0.124 S 
ATOM     83  O   UNL A   1      43.450  38.414  32.624  1.00  0.00    -0.237 OA
ATOM     84  O   UNL A   1      42.214  37.523  34.571  1.00  0.00    -0.237 OA
ATOM     85  O   UNL A   1      44.673  37.654  34.629  1.00  0.00    -0.744 OA
ENDBRANCH  81  82
ENDBRANCH  53  76
BRANCH  65  86
ATOM     86  C   UNL A   1      47.783  27.831  31.246  1.00  0.00    -0.014 A 
ATOM     87  C   UNL A   1      48.139  27.202  32.451  1.00  0.00     0.010 A 
ATOM     88  C   UNL A   1      48.790  28.139  30.312  1.00  0.00     0.010 A 
ATOM     89  C   UNL A   1      49.479  26.899  32.719  1.00  0.00     0.020 A 
ATOM     90  C   UNL A   1      50.123  27.806  30.559  1.00  0.00     0.020 A 
ATOM     91  C   UNL A   1      50.460  27.193  31.767  1.00  0.00     0.054 A 
BRANCH  91  92
ATOM     92  S   UNL A   1      52.178  26.716  32.105  1.00  0.00     0.124 S 
ATOM     93  O   UNL A   1      52.921  27.855  31.571  1.00  0.00    -0.237 OA
ATOM     94  O   UNL A   1      52.188  26.583  33.560  1.00  0.00    -0.237 OA
ATOM     95  O   UNL A   1      52.344  25.465  31.368  1.00  0.00    -0.744 OA
ENDBRANCH  91  92
ENDBRANCH  65  86
ENDBRANCH  39  40
ENDBRANCH  32  34
ENDBRANCH  31  32
ENDBRANCH  30  31
ENDBRANCH  29  30
ENDBRANCH  28  29
ENDBRANCH  27  28
ENDBRANCH   1  27
TORSDOF 24
ENDMDL
MODEL 3
REMARK VINA RESULT:      -7.5      5.840     12.356
REMARK SMILES O=C(OCCOCCOCCOCCOC(=O)c1ccc(-c2c3nc(c(-c4ccc(S(=O)(=O)[O-])cc4)c4ccc([nH]4)c(-c4ccc(S(=O)(=O)[O-])cc4)c4nc(c(-c5ccc(S(=O)(=O)[O-])cc5)c5ccc2[nH]5)C=C4)C=C3)cc1)C1=Cc2c(Cl)cc(Cl)cc2O[C@@H]1C(F)(F)F
REMARK SMILES IDX 10 1 9 2 8 3 7 4 6 5 5 6 4 7 3 8 2 9 1 10 78 11 79 12 89 13
REMARK SMILES IDX 80 14 88 15 81 16 87 17 82 18 83 19 86 20 84 21 85 22 90 23
REMARK SMILES IDX 91 24 92 25 93 26 11 27 12 28 13 29 14 30 15 31 16 32 17 33
REMARK SMILES IDX 18 34 19 35 77 36 20 37 76 38 21 39 22 40 23 41 70 42 24 43
REMARK SMILES IDX 75 44 69 45 71 46 25 47 74 48 68 49 67 50 26 52 56 53 37 54
REMARK SMILES IDX 55 55 38 56 41 57 54 58 72 59 39 60 40 61 53 63 73 64 42 65
REMARK SMILES IDX 27 66 28 67 36 68 29 69 35 70 30 71 31 72 32 73 33 74 34 75
REMARK SMILES IDX 57 76 58 77 66 78 59 79 65 80 60 81 61 82 62 83 63 84 64 85
REMARK SMILES IDX 43 86 44 87 52 88 45 89 51 90 46 91 47 92 48 93 49 94 50 95
REMARK H PARENT 71 51 41 62
REMARK Flexibility Score: inf
ROOT
ATOM      1  C   UNL A   1      39.499  27.332  28.909  1.00  0.00     0.188 C 
ENDROOT
BRANCH   1   2
ATOM      2  O   UNL A   1      38.869  26.126  28.553  1.00  0.00    -0.377 OA
BRANCH   2   3
ATOM      3  C   UNL A   1      39.778  25.196  28.010  1.00  0.00     0.188 C 
BRANCH   3   4
ATOM      4  C   UNL A   1      39.473  24.743  26.572  1.00  0.00     0.188 C 
BRANCH   4   5
ATOM      5  O   UNL A   1      39.355  23.337  26.147  1.00  0.00    -0.376 OA
BRANCH   5   6
ATOM      6  C   UNL A   1      38.058  22.322  25.929  1.00  0.00     0.202 C 
BRANCH   6   7
ATOM      7  C   UNL A   1      36.366  22.616  24.582  1.00  0.00     0.261 C 
BRANCH   7   8
ATOM      8  O   UNL A   1      34.910  22.723  24.978  1.00  0.00    -0.460 OA
BRANCH   8   9
ATOM      9  C   UNL A   1      34.278  23.701  24.320  1.00  0.00     0.338 C 
ATOM     10  O   UNL A   1      34.602  24.239  23.290  1.00  0.00    -0.246 OA
BRANCH   9  11
ATOM     11  C   UNL A   1      33.464  24.176  25.428  1.00  0.00     0.087 C 
ATOM     12  C   UNL A   1      33.698  25.589  25.772  1.00  0.00     0.029 C 
ATOM     13  C   UNL A   1      31.839  23.499  24.654  1.00  0.00     0.316 C 
ATOM     14  C   UNL A   1      32.601  26.959  25.319  1.00  0.00     0.036 A 
ATOM     15  O   UNL A   1      30.691  24.947  24.044  1.00  0.00    -0.475 OA
ATOM     16  C   UNL A   1      32.934  28.267  25.579  1.00  0.00     0.053 A 
ATOM     17  C   UNL A   1      31.160  26.689  24.397  1.00  0.00     0.130 A 
ATOM     18  Cl  UNL A   1      34.365  28.728  26.403  1.00  0.00    -0.083 Cl
ATOM     19  C   UNL A   1      32.044  29.247  25.094  1.00  0.00     0.042 A 
ATOM     20  C   UNL A   1      30.349  27.701  23.950  1.00  0.00     0.067 A 
ATOM     21  C   UNL A   1      30.829  28.975  24.339  1.00  0.00     0.046 A 
ATOM     22  Cl  UNL A   1      29.891  30.365  23.890  1.00  0.00    -0.084 Cl
BRANCH  13  23
ATOM     23  C   UNL A   1      31.630  22.338  25.819  1.00  0.00     0.430 C 
ATOM     24  F   UNL A   1      32.119  22.579  27.049  1.00  0.00    -0.167 F 
ATOM     25  F   UNL A   1      30.279  22.228  26.019  1.00  0.00    -0.167 F 
ATOM     26  F   UNL A   1      32.012  21.087  25.460  1.00  0.00    -0.167 F 
ENDBRANCH  13  23
ENDBRANCH   9  11
ENDBRANCH   8   9
ENDBRANCH   7   8
ENDBRANCH   6   7
ENDBRANCH   5   6
ENDBRANCH   4   5
ENDBRANCH   3   4
ENDBRANCH   2   3
ENDBRANCH   1   2
BRANCH   1  27
ATOM     27  C   UNL A   1      39.609  28.389  27.804  1.00  0.00     0.188 C 
BRANCH  27  28
ATOM     28  O   UNL A   1      40.812  28.639  27.099  1.00  0.00    -0.376 OA
BRANCH  28  29
ATOM     29  C   UNL A   1      41.140  27.934  25.914  1.00  0.00     0.202 C 
BRANCH  29  30
ATOM     30  C   UNL A   1      42.538  27.991  25.283  1.00  0.00     0.261 C 
BRANCH  30  31
ATOM     31  O   UNL A   1      43.606  27.430  26.052  1.00  0.00    -0.460 OA
BRANCH  31  32
ATOM     32  C   UNL A   1      44.560  28.299  26.454  1.00  0.00     0.338 C 
ATOM     33  O   UNL A   1      45.350  28.899  25.744  1.00  0.00    -0.246 OA
BRANCH  32  34
ATOM     34  C   UNL A   1      44.385  28.573  27.897  1.00  0.00     0.060 A 
ATOM     35  C   UNL A   1      43.814  27.579  28.711  1.00  0.00     0.016 A 
ATOM     36  C   UNL A   1      44.766  29.798  28.442  1.00  0.00     0.016 A 
ATOM     37  C   UNL A   1      43.593  27.815  30.065  1.00  0.00     0.010 A 
ATOM     38  C   UNL A   1      44.497  30.055  29.785  1.00  0.00     0.010 A 
ATOM     39  C   UNL A   1      43.871  29.080  30.586  1.00  0.00    -0.014 A 
BRANCH  39  40
ATOM     40  C   UNL A   1      43.269  29.503  31.869  1.00  0.00     0.031 A 
ATOM     41  C   UNL A   1      41.923  30.167  31.812  1.00  0.00     0.074 A 
ATOM     42  C   UNL A   1      43.916  29.359  33.036  1.00  0.00     0.049 A 
ATOM     43  N   UNL A   1      41.272  30.809  32.745  1.00  0.00    -0.248 NA
ATOM     44  C   UNL A   1      41.232  30.120  30.512  1.00  0.00     0.031 C 
ATOM     45  C   UNL A   1      45.192  28.674  33.217  1.00  0.00     0.029 A 
ATOM     46  N   UNL A   1      43.594  29.824  34.285  1.00  0.00    -0.354 N 
ATOM     47  C   UNL A   1      40.116  31.279  32.134  1.00  0.00     0.074 A 
ATOM     48  C   UNL A   1      40.166  30.867  30.749  1.00  0.00     0.031 C 
ATOM     49  C   UNL A   1      45.571  28.804  34.500  1.00  0.00     0.029 A 
ATOM     50  C   UNL A   1      44.589  29.624  35.210  1.00  0.00     0.049 A 
ATOM     51  H   UNL A   1      42.736  30.258  34.498  1.00  0.00     0.167 HD
ATOM     52  C   UNL A   1      39.112  32.005  32.679  1.00  0.00     0.031 A 
ATOM     53  C   UNL A   1      44.717  30.098  36.466  1.00  0.00     0.031 A 
ATOM     54  C   UNL A   1      39.101  32.434  34.051  1.00  0.00     0.049 A 
ATOM     55  C   UNL A   1      43.630  30.967  37.041  1.00  0.00     0.074 A 
ATOM     56  C   UNL A   1      38.125  33.149  34.720  1.00  0.00     0.029 A 
ATOM     57  N   UNL A   1      40.127  32.208  34.959  1.00  0.00    -0.354 N 
ATOM     58  N   UNL A   1      42.527  31.392  36.470  1.00  0.00    -0.248 NA
ATOM     59  C   UNL A   1      43.797  31.413  38.430  1.00  0.00     0.031 C 
ATOM     60  C   UNL A   1      38.599  33.431  36.005  1.00  0.00     0.029 A 
ATOM     61  C   UNL A   1      39.825  32.804  36.171  1.00  0.00     0.049 A 
ATOM     62  H   UNL A   1      40.949  31.699  34.769  1.00  0.00     0.167 HD
ATOM     63  C   UNL A   1      41.851  32.124  37.441  1.00  0.00     0.074 A 
ATOM     64  C   UNL A   1      42.671  32.085  38.635  1.00  0.00     0.031 C 
ATOM     65  C   UNL A   1      40.654  32.757  37.354  1.00  0.00     0.031 A 
BRANCH  52  66
ATOM     66  C   UNL A   1      37.997  32.443  31.762  1.00  0.00    -0.014 A 
ATOM     67  C   UNL A   1      36.780  31.742  31.683  1.00  0.00     0.010 A 
ATOM     68  C   UNL A   1      38.183  33.576  30.949  1.00  0.00     0.010 A 
ATOM     69  C   UNL A   1      35.802  32.120  30.757  1.00  0.00     0.020 A 
ATOM     70  C   UNL A   1      37.192  33.985  30.053  1.00  0.00     0.020 A 
ATOM     71  C   UNL A   1      36.019  33.237  29.944  1.00  0.00     0.054 A 
BRANCH  71  72
ATOM     72  S   UNL A   1      34.744  33.695  28.740  1.00  0.00     0.124 S 
ATOM     73  O   UNL A   1      34.997  35.123  28.560  1.00  0.00    -0.237 OA
ATOM     74  O   UNL A   1      35.071  32.850  27.594  1.00  0.00    -0.237 OA
ATOM     75  O   UNL A   1      33.491  33.367  29.416  1.00  0.00    -0.744 OA
ENDBRANCH  71  72
ENDBRANCH  52  66
BRANCH  53  76
ATOM     76  C   UNL A   1      45.950  29.778  37.236  1.00  0.00    -0.014 A 
ATOM     77  C   UNL A   1      47.023  30.683  37.287  1.00  0.00     0.010 A 
ATOM     78  C   UNL A   1      46.022  28.589  37.988  1.00  0.00     0.010 A 
ATOM     79  C   UNL A   1      48.138  30.414  38.086  1.00  0.00     0.020 A 
ATOM     80  C   UNL A   1      47.119  28.331  38.811  1.00  0.00     0.020 A 
ATOM     81  C   UNL A   1      48.171  29.247  38.858  1.00  0.00     0.054 A 
BRANCH  81  82
ATOM     82  S   UNL A   1      49.572  28.982  39.979  1.00  0.00     0.124 S 
ATOM     83  O   UNL A   1      49.683  27.528  39.992  1.00  0.00    -0.237 OA
ATOM     84  O   UNL A   1      50.651  29.695  39.299  1.00  0.00    -0.237 OA
ATOM     85  O   UNL A   1      49.129  29.589  41.232  1.00  0.00    -0.744 OA
ENDBRANCH  81  82
ENDBRANCH  53  76
BRANCH  65  86
ATOM     86  C   UNL A   1      40.108  33.415  38.597  1.00  0.00    -0.014 A 
ATOM     87  C   UNL A   1      39.403  32.691  39.573  1.00  0.00     0.010 A 
ATOM     88  C   UNL A   1      40.404  34.771  38.833  1.00  0.00     0.010 A 
ATOM     89  C   UNL A   1      38.994  33.316  40.757  1.00  0.00     0.020 A 
ATOM     90  C   UNL A   1      40.029  35.390  40.027  1.00  0.00     0.020 A 
ATOM     91  C   UNL A   1      39.319  34.658  40.980  1.00  0.00     0.054 A 
BRANCH  91  92
ATOM     92  S   UNL A   1      38.847  35.422  42.557  1.00  0.00     0.124 S 
ATOM     93  O   UNL A   1      39.223  36.817  42.345  1.00  0.00    -0.237 OA
ATOM     94  O   UNL A   1      37.412  35.158  42.619  1.00  0.00    -0.237 OA
ATOM     95  O   UNL A   1      39.651  34.705  43.545  1.00  0.00    -0.744 OA
ENDBRANCH  91  92
ENDBRANCH  65  86
ENDBRANCH  39  40
ENDBRANCH  32  34
ENDBRANCH  31  32
ENDBRANCH  30  31
ENDBRANCH  29  30
ENDBRANCH  28  29
ENDBRANCH  27  28
ENDBRANCH   1  27
TORSDOF 24
ENDMDL
