MODEL 1
REMARK VINA RESULT:      -7.9      0.000      0.000
REMARK SMILES O=C(OCCOCCOCCOCCOC(=O)[C@@H]1C[C@@H]1C(=O)N1CC2(CCCC2)c2c(F)cccc21)c1ccc(-c2c3nc(c(-c4ccc(S(=O)(=O)[O-])cc4)c4ccc([nH]4)c(-c4ccc(S(=O)(=O)[O-])cc4)c4nc(c(-c5ccc(S(=O)(=O)[O-])cc5)c5ccc2[nH]5)C=C4)C=C3)cc1
REMARK SMILES IDX 8 1 7 2 6 3 5 4 4 5 3 6 2 7 1 8 37 9 38 10 96 11 39 12 95 13
REMARK SMILES IDX 40 14 41 15 42 16 89 17 43 18 94 19 88 20 90 21 44 22 93 23
REMARK SMILES IDX 87 24 86 25 45 27 75 28 56 29 74 30 57 31 60 32 73 33 91 34
REMARK SMILES IDX 58 35 59 36 72 38 92 39 61 40 46 41 47 42 55 43 48 44 54 45
REMARK SMILES IDX 49 46 50 47 51 48 52 49 53 50 76 51 77 52 85 53 78 54 84 55
REMARK SMILES IDX 79 56 80 57 81 58 82 59 83 60 62 61 63 62 71 63 64 64 70 65
REMARK SMILES IDX 65 66 66 67 67 68 68 69 69 70 9 71 10 72 11 73 12 74 13 75
REMARK SMILES IDX 14 76 15 77 16 78 17 79 18 80 19 81 20 82 21 83 22 84 23 85
REMARK SMILES IDX 24 86 36 87 25 88 30 89 35 90 26 91 29 92 31 93 34 94 27 95
REMARK SMILES IDX 28 96 32 97 33 98
REMARK H PARENT 90 26 60 37
REMARK Flexibility Score: inf
ROOT
ATOM      1  C   UNL A   1      33.284  35.649  28.865  1.00  0.00     0.188 C 
ENDROOT
BRANCH   1   2
ATOM      2  C   UNL A   1      33.422  34.455  27.919  1.00  0.00     0.188 C 
BRANCH   2   3
ATOM      3  O   UNL A   1      33.707  33.161  28.427  1.00  0.00    -0.376 OA
BRANCH   3   4
ATOM      4  C   UNL A   1      34.869  32.381  28.209  1.00  0.00     0.202 C 
BRANCH   4   5
ATOM      5  C   UNL A   1      35.744  31.878  29.355  1.00  0.00     0.261 C 
BRANCH   5   6
ATOM      6  O   UNL A   1      35.716  30.476  29.632  1.00  0.00    -0.460 OA
BRANCH   6   7
ATOM      7  C   UNL A   1      36.636  29.774  30.349  1.00  0.00     0.338 C 
ATOM      8  O   UNL A   1      36.371  29.442  31.499  1.00  0.00    -0.246 OA
BRANCH   7   9
ATOM      9  C   UNL A   1      38.051  29.680  29.872  1.00  0.00     0.060 A 
ATOM     10  C   UNL A   1      38.407  29.569  28.532  1.00  0.00     0.016 A 
ATOM     11  C   UNL A   1      39.081  29.774  30.825  1.00  0.00     0.016 A 
ATOM     12  C   UNL A   1      39.714  29.755  28.114  1.00  0.00     0.010 A 
ATOM     13  C   UNL A   1      40.423  29.734  30.426  1.00  0.00     0.010 A 
ATOM     14  C   UNL A   1      40.731  29.705  29.062  1.00  0.00    -0.014 A 
BRANCH  14  15
ATOM     15  C   UNL A   1      42.005  29.170  28.547  1.00  0.00     0.031 A 
ATOM     16  C   UNL A   1      43.165  30.140  28.536  1.00  0.00     0.074 A 
ATOM     17  C   UNL A   1      42.182  27.864  28.292  1.00  0.00     0.049 A 
ATOM     18  N   UNL A   1      44.432  29.912  28.331  1.00  0.00    -0.248 NA
ATOM     19  C   UNL A   1      42.868  31.545  28.896  1.00  0.00     0.031 C 
ATOM     20  C   UNL A   1      41.172  26.815  28.437  1.00  0.00     0.029 A 
ATOM     21  N   UNL A   1      43.306  27.197  27.881  1.00  0.00    -0.354 N 
ATOM     22  C   UNL A   1      45.070  31.118  28.596  1.00  0.00     0.074 A 
ATOM     23  C   UNL A   1      44.074  32.070  29.010  1.00  0.00     0.031 C 
ATOM     24  C   UNL A   1      41.722  25.635  28.094  1.00  0.00     0.029 A 
ATOM     25  C   UNL A   1      43.107  25.854  27.681  1.00  0.00     0.049 A 
ATOM     26  H   UNL A   1      44.174  27.640  27.741  1.00  0.00     0.167 HD
ATOM     27  C   UNL A   1      46.375  31.424  28.460  1.00  0.00     0.031 A 
ATOM     28  C   UNL A   1      43.952  24.926  27.191  1.00  0.00     0.031 A 
ATOM     29  C   UNL A   1      47.331  30.519  27.904  1.00  0.00     0.049 A 
ATOM     30  C   UNL A   1      45.350  25.354  26.821  1.00  0.00     0.074 A 
ATOM     31  C   UNL A   1      48.653  30.758  27.588  1.00  0.00     0.029 A 
ATOM     32  N   UNL A   1      47.046  29.214  27.541  1.00  0.00    -0.354 N 
ATOM     33  N   UNL A   1      45.937  26.512  27.021  1.00  0.00    -0.248 NA
ATOM     34  C   UNL A   1      46.197  24.360  26.146  1.00  0.00     0.031 C 
ATOM     35  C   UNL A   1      49.152  29.611  26.968  1.00  0.00     0.029 A 
ATOM     36  C   UNL A   1      48.159  28.642  26.964  1.00  0.00     0.049 A 
ATOM     37  H   UNL A   1      46.181  28.764  27.673  1.00  0.00     0.167 HD
ATOM     38  C   UNL A   1      47.222  26.383  26.507  1.00  0.00     0.074 A 
ATOM     39  C   UNL A   1      47.333  25.030  25.999  1.00  0.00     0.031 C 
ATOM     40  C   UNL A   1      48.225  27.295  26.459  1.00  0.00     0.031 A 
BRANCH  27  41
ATOM     41  C   UNL A   1      46.804  32.816  28.803  1.00  0.00    -0.014 A 
ATOM     42  C   UNL A   1      47.213  33.144  30.106  1.00  0.00     0.010 A 
ATOM     43  C   UNL A   1      46.841  33.795  27.796  1.00  0.00     0.010 A 
ATOM     44  C   UNL A   1      47.675  34.431  30.391  1.00  0.00     0.020 A 
ATOM     45  C   UNL A   1      47.315  35.078  28.073  1.00  0.00     0.020 A 
ATOM     46  C   UNL A   1      47.739  35.384  29.368  1.00  0.00     0.054 A 
BRANCH  46  47
ATOM     47  S   UNL A   1      48.410  37.023  29.754  1.00  0.00     0.124 S 
ATOM     48  O   UNL A   1      49.511  37.137  28.800  1.00  0.00    -0.237 OA
ATOM     49  O   UNL A   1      47.266  37.894  29.502  1.00  0.00    -0.237 OA
ATOM     50  O   UNL A   1      48.816  36.912  31.153  1.00  0.00    -0.744 OA
ENDBRANCH  46  47
ENDBRANCH  27  41
BRANCH  28  51
ATOM     51  C   UNL A   1      43.478  23.538  26.944  1.00  0.00    -0.014 A 
ATOM     52  C   UNL A   1      43.150  22.679  28.006  1.00  0.00     0.010 A 
ATOM     53  C   UNL A   1      43.360  23.064  25.623  1.00  0.00     0.010 A 
ATOM     54  C   UNL A   1      42.716  21.372  27.752  1.00  0.00     0.020 A 
ATOM     55  C   UNL A   1      42.907  21.767  25.364  1.00  0.00     0.020 A 
ATOM     56  C   UNL A   1      42.588  20.928  26.432  1.00  0.00     0.054 A 
BRANCH  56  57
ATOM     57  S   UNL A   1      41.998  19.238  26.129  1.00  0.00     0.124 S 
ATOM     58  O   UNL A   1      42.750  18.856  24.937  1.00  0.00    -0.237 OA
ATOM     59  O   UNL A   1      42.378  18.556  27.363  1.00  0.00    -0.237 OA
ATOM     60  O   UNL A   1      40.560  19.406  25.932  1.00  0.00    -0.744 OA
ENDBRANCH  56  57
ENDBRANCH  28  51
BRANCH  40  61
ATOM     61  C   UNL A   1      49.527  26.878  25.845  1.00  0.00    -0.014 A 
ATOM     62  C   UNL A   1      49.877  27.298  24.551  1.00  0.00     0.010 A 
ATOM     63  C   UNL A   1      50.464  26.174  26.625  1.00  0.00     0.010 A 
ATOM     64  C   UNL A   1      51.143  27.005  24.040  1.00  0.00     0.020 A 
ATOM     65  C   UNL A   1      51.739  25.905  26.127  1.00  0.00     0.020 A 
ATOM     66  C   UNL A   1      52.067  26.319  24.836  1.00  0.00     0.054 A 
BRANCH  66  67
ATOM     67  S   UNL A   1      53.715  25.993  24.157  1.00  0.00     0.124 S 
ATOM     68  O   UNL A   1      54.457  27.183  24.565  1.00  0.00    -0.237 OA
ATOM     69  O   UNL A   1      54.093  24.754  24.832  1.00  0.00    -0.237 OA
ATOM     70  O   UNL A   1      53.482  25.870  22.719  1.00  0.00    -0.744 OA
ENDBRANCH  66  67
ENDBRANCH  40  61
ENDBRANCH  14  15
ENDBRANCH   7   9
ENDBRANCH   6   7
ENDBRANCH   5   6
ENDBRANCH   4   5
ENDBRANCH   3   4
ENDBRANCH   2   3
ENDBRANCH   1   2
BRANCH   1  71
ATOM     71  O   UNL A   1      33.892  35.531  30.137  1.00  0.00    -0.377 OA
BRANCH  71  72
ATOM     72  C   UNL A   1      33.145  36.138  31.167  1.00  0.00     0.188 C 
BRANCH  72  73
ATOM     73  C   UNL A   1      33.495  35.703  32.617  1.00  0.00     0.188 C 
BRANCH  73  74
ATOM     74  O   UNL A   1      34.829  35.641  33.101  1.00  0.00    -0.376 OA
BRANCH  74  75
ATOM     75  C   UNL A   1      35.197  34.765  34.153  1.00  0.00     0.202 C 
BRANCH  75  76
ATOM     76  C   UNL A   1      35.960  33.468  33.826  1.00  0.00     0.261 C 
BRANCH  76  77
ATOM     77  O   UNL A   1      37.269  33.396  34.410  1.00  0.00    -0.463 OA
BRANCH  77  78
ATOM     78  C   UNL A   1      38.105  34.429  34.158  1.00  0.00     0.309 C 
ATOM     79  O   UNL A   1      38.598  35.192  34.984  1.00  0.00    -0.252 OA
BRANCH  78  80
ATOM     80  C   UNL A   1      38.521  34.425  32.735  1.00  0.00     0.112 C 
ATOM     81  C   UNL A   1      38.994  33.203  32.026  1.00  0.00     0.030 C 
ATOM     82  C   UNL A   1      39.949  34.356  32.309  1.00  0.00     0.094 C 
BRANCH  82  83
ATOM     83  C   UNL A   1      41.027  34.175  33.291  1.00  0.00     0.231 C 
ATOM     84  O   UNL A   1      41.384  35.146  33.954  1.00  0.00    -0.274 OA
BRANCH  83  85
ATOM     85  N   UNL A   1      41.519  32.907  33.523  1.00  0.00    -0.311 N 
ATOM     86  C   UNL A   1      42.717  32.530  32.788  1.00  0.00     0.137 C 
ATOM     87  C   UNL A   1      41.101  31.818  34.309  1.00  0.00     0.050 A 
ATOM     88  C   UNL A   1      43.220  31.201  33.382  1.00  0.00     0.018 C 
ATOM     89  C   UNL A   1      42.049  30.794  34.224  1.00  0.00     0.020 A 
ATOM     90  C   UNL A   1      39.953  31.620  35.058  1.00  0.00     0.027 A 
ATOM     91  C   UNL A   1      43.607  30.235  32.259  1.00  0.00     0.014 C 
ATOM     92  C   UNL A   1      44.501  31.400  34.221  1.00  0.00     0.014 C 
ATOM     93  C   UNL A   1      41.872  29.596  34.903  1.00  0.00     0.129 A 
ATOM     94  C   UNL A   1      39.758  30.396  35.721  1.00  0.00     0.005 A 
ATOM     95  C   UNL A   1      45.067  30.580  32.017  1.00  0.00     0.001 C 
ATOM     96  C   UNL A   1      45.613  30.715  33.429  1.00  0.00     0.001 C 
ATOM     97  F   UNL A   1      42.813  28.644  34.857  1.00  0.00    -0.207 F 
ATOM     98  C   UNL A   1      40.723  29.387  35.651  1.00  0.00     0.040 A 
ENDBRANCH  83  85
ENDBRANCH  82  83
ENDBRANCH  78  80
ENDBRANCH  77  78
ENDBRANCH  76  77
ENDBRANCH  75  76
ENDBRANCH  74  75
ENDBRANCH  73  74
ENDBRANCH  72  73
ENDBRANCH  71  72
ENDBRANCH   1  71
TORSDOF 25
ENDMDL
MODEL 2
REMARK VINA RESULT:      -7.9      1.629      2.722
REMARK SMILES O=C(OCCOCCOCCOCCOC(=O)[C@@H]1C[C@@H]1C(=O)N1CC2(CCCC2)c2c(F)cccc21)c1ccc(-c2c3nc(c(-c4ccc(S(=O)(=O)[O-])cc4)c4ccc([nH]4)c(-c4ccc(S(=O)(=O)[O-])cc4)c4nc(c(-c5ccc(S(=O)(=O)[O-])cc5)c5ccc2[nH]5)C=C4)C=C3)cc1
REMARK SMILES IDX 8 1 7 2 6 3 5 4 4 5 3 6 2 7 1 8 37 9 38 10 96 11 39 12 95 13
REMARK SMILES IDX 40 14 41 15 42 16 89 17 43 18 94 19 88 20 90 21 44 22 93 23
REMARK SMILES IDX 87 24 86 25 45 27 75 28 56 29 74 30 57 31 60 32 73 33 91 34
REMARK SMILES IDX 58 35 59 36 72 38 92 39 61 40 46 41 47 42 55 43 48 44 54 45
REMARK SMILES IDX 49 46 50 47 51 48 52 49 53 50 76 51 77 52 85 53 78 54 84 55
REMARK SMILES IDX 79 56 80 57 81 58 82 59 83 60 62 61 63 62 71 63 64 64 70 65
REMARK SMILES IDX 65 66 66 67 67 68 68 69 69 70 9 71 10 72 11 73 12 74 13 75
REMARK SMILES IDX 14 76 15 77 16 78 17 79 18 80 19 81 20 82 21 83 22 84 23 85
REMARK SMILES IDX 24 86 36 87 25 88 30 89 35 90 26 91 29 92 31 93 34 94 27 95
REMARK SMILES IDX 28 96 32 97 33 98
REMARK H PARENT 90 26 60 37
REMARK Flexibility Score: inf
ROOT
ATOM      1  C   UNL A   1      33.083  35.622  28.889  1.00  0.00     0.188 C 
ENDROOT
BRANCH   1   2
ATOM      2  C   UNL A   1      33.279  34.409  27.979  1.00  0.00     0.188 C 
BRANCH   2   3
ATOM      3  O   UNL A   1      33.663  33.154  28.519  1.00  0.00    -0.376 OA
BRANCH   3   4
ATOM      4  C   UNL A   1      34.868  32.446  28.292  1.00  0.00     0.202 C 
BRANCH   4   5
ATOM      5  C   UNL A   1      35.704  31.866  29.431  1.00  0.00     0.261 C 
BRANCH   5   6
ATOM      6  O   UNL A   1      35.729  30.443  29.563  1.00  0.00    -0.460 OA
BRANCH   6   7
ATOM      7  C   UNL A   1      36.571  29.718  30.350  1.00  0.00     0.338 C 
ATOM      8  O   UNL A   1      36.196  29.373  31.466  1.00  0.00    -0.246 OA
BRANCH   7   9
ATOM      9  C   UNL A   1      38.021  29.611  30.003  1.00  0.00     0.060 A 
ATOM     10  C   UNL A   1      38.500  29.536  28.700  1.00  0.00     0.016 A 
ATOM     11  C   UNL A   1      38.959  29.652  31.051  1.00  0.00     0.016 A 
ATOM     12  C   UNL A   1      39.842  29.708  28.411  1.00  0.00     0.010 A 
ATOM     13  C   UNL A   1      40.332  29.598  30.777  1.00  0.00     0.010 A 
ATOM     14  C   UNL A   1      40.766  29.607  29.447  1.00  0.00    -0.014 A 
BRANCH  14  15
ATOM     15  C   UNL A   1      42.073  29.063  29.034  1.00  0.00     0.031 A 
ATOM     16  C   UNL A   1      43.242  30.015  29.147  1.00  0.00     0.074 A 
ATOM     17  C   UNL A   1      42.254  27.760  28.767  1.00  0.00     0.049 A 
ATOM     18  N   UNL A   1      44.519  29.772  29.050  1.00  0.00    -0.248 NA
ATOM     19  C   UNL A   1      42.933  31.417  29.510  1.00  0.00     0.031 C 
ATOM     20  C   UNL A   1      41.221  26.725  28.799  1.00  0.00     0.029 A 
ATOM     21  N   UNL A   1      43.400  27.085  28.442  1.00  0.00    -0.354 N 
ATOM     22  C   UNL A   1      45.148  30.962  29.396  1.00  0.00     0.074 A 
ATOM     23  C   UNL A   1      44.132  31.921  29.742  1.00  0.00     0.031 C 
ATOM     24  C   UNL A   1      41.783  25.543  28.480  1.00  0.00     0.029 A 
ATOM     25  C   UNL A   1      43.202  25.749  28.196  1.00  0.00     0.049 A 
ATOM     26  H   UNL A   1      44.283  27.518  28.389  1.00  0.00     0.167 HD
ATOM     27  C   UNL A   1      46.463  31.251  29.382  1.00  0.00     0.031 A 
ATOM     28  C   UNL A   1      44.074  24.819  27.761  1.00  0.00     0.031 A 
ATOM     29  C   UNL A   1      47.453  30.343  28.893  1.00  0.00     0.049 A 
ATOM     30  C   UNL A   1      45.505  25.233  27.525  1.00  0.00     0.074 A 
ATOM     31  C   UNL A   1      48.800  30.568  28.699  1.00  0.00     0.029 A 
ATOM     32  N   UNL A   1      47.183  29.050  28.477  1.00  0.00    -0.354 N 
ATOM     33  N   UNL A   1      46.087  26.378  27.801  1.00  0.00    -0.248 NA
ATOM     34  C   UNL A   1      46.394  24.240  26.906  1.00  0.00     0.031 C 
ATOM     35  C   UNL A   1      49.336  29.427  28.101  1.00  0.00     0.029 A 
ATOM     36  C   UNL A   1      48.335  28.473  27.988  1.00  0.00     0.049 A 
ATOM     37  H   UNL A   1      46.303  28.612  28.522  1.00  0.00     0.167 HD
ATOM     38  C   UNL A   1      47.412  26.239  27.400  1.00  0.00     0.074 A 
ATOM     39  C   UNL A   1      47.548  24.896  26.874  1.00  0.00     0.031 C 
ATOM     40  C   UNL A   1      48.426  27.136  27.461  1.00  0.00     0.031 A 
BRANCH  27  41
ATOM     41  C   UNL A   1      46.879  32.629  29.793  1.00  0.00    -0.014 A 
ATOM     42  C   UNL A   1      47.007  32.970  31.149  1.00  0.00     0.010 A 
ATOM     43  C   UNL A   1      47.190  33.579  28.805  1.00  0.00     0.010 A 
ATOM     44  C   UNL A   1      47.463  34.239  31.511  1.00  0.00     0.020 A 
ATOM     45  C   UNL A   1      47.658  34.844  29.162  1.00  0.00     0.020 A 
ATOM     46  C   UNL A   1      47.801  35.161  30.514  1.00  0.00     0.054 A 
BRANCH  46  47
ATOM     47  S   UNL A   1      48.457  36.775  31.017  1.00  0.00     0.124 S 
ATOM     48  O   UNL A   1      48.721  36.570  32.440  1.00  0.00    -0.237 OA
ATOM     49  O   UNL A   1      49.639  36.907  30.171  1.00  0.00    -0.237 OA
ATOM     50  O   UNL A   1      47.367  37.702  30.720  1.00  0.00    -0.744 OA
ENDBRANCH  46  47
ENDBRANCH  27  41
BRANCH  28  51
ATOM     51  C   UNL A   1      43.605  23.444  27.442  1.00  0.00    -0.014 A 
ATOM     52  C   UNL A   1      43.150  22.577  28.450  1.00  0.00     0.010 A 
ATOM     53  C   UNL A   1      43.621  22.990  26.109  1.00  0.00     0.010 A 
ATOM     54  C   UNL A   1      42.722  21.282  28.129  1.00  0.00     0.020 A 
ATOM     55  C   UNL A   1      43.176  21.706  25.783  1.00  0.00     0.020 A 
ATOM     56  C   UNL A   1      42.729  20.859  26.797  1.00  0.00     0.054 A 
BRANCH  56  57
ATOM     57  S   UNL A   1      42.145  19.185  26.405  1.00  0.00     0.124 S 
ATOM     58  O   UNL A   1      41.788  19.303  24.995  1.00  0.00    -0.237 OA
ATOM     59  O   UNL A   1      43.325  18.374  26.695  1.00  0.00    -0.237 OA
ATOM     60  O   UNL A   1      41.022  18.990  27.319  1.00  0.00    -0.744 OA
ENDBRANCH  56  57
ENDBRANCH  28  51
BRANCH  40  61
ATOM     61  C   UNL A   1      49.772  26.713  26.954  1.00  0.00    -0.014 A 
ATOM     62  C   UNL A   1      50.730  26.171  27.828  1.00  0.00     0.010 A 
ATOM     63  C   UNL A   1      50.026  26.733  25.570  1.00  0.00     0.010 A 
ATOM     64  C   UNL A   1      51.930  25.668  27.323  1.00  0.00     0.020 A 
ATOM     65  C   UNL A   1      51.213  26.206  25.061  1.00  0.00     0.020 A 
ATOM     66  C   UNL A   1      52.159  25.681  25.942  1.00  0.00     0.054 A 
BRANCH  66  67
ATOM     67  S   UNL A   1      53.709  24.982  25.319  1.00  0.00     0.124 S 
ATOM     68  O   UNL A   1      54.603  25.145  26.462  1.00  0.00    -0.237 OA
ATOM     69  O   UNL A   1      53.330  23.606  25.008  1.00  0.00    -0.237 OA
ATOM     70  O   UNL A   1      54.027  25.814  24.160  1.00  0.00    -0.744 OA
ENDBRANCH  66  67
ENDBRANCH  40  61
ENDBRANCH  14  15
ENDBRANCH   7   9
ENDBRANCH   6   7
ENDBRANCH   5   6
ENDBRANCH   4   5
ENDBRANCH   3   4
ENDBRANCH   2   3
ENDBRANCH   1   2
BRANCH   1  71
ATOM     71  O   UNL A   1      33.606  35.528  30.201  1.00  0.00    -0.377 OA
BRANCH  71  72
ATOM     72  C   UNL A   1      32.894  36.302  31.139  1.00  0.00     0.188 C 
BRANCH  72  73
ATOM     73  C   UNL A   1      33.261  36.080  32.633  1.00  0.00     0.188 C 
BRANCH  73  74
ATOM     74  O   UNL A   1      34.599  35.922  33.081  1.00  0.00    -0.376 OA
BRANCH  74  75
ATOM     75  C   UNL A   1      34.904  35.208  34.267  1.00  0.00     0.202 C 
BRANCH  75  76
ATOM     76  C   UNL A   1      35.349  33.736  34.172  1.00  0.00     0.261 C 
BRANCH  76  77
ATOM     77  O   UNL A   1      36.761  33.562  33.991  1.00  0.00    -0.463 OA
BRANCH  77  78
ATOM     78  C   UNL A   1      37.415  32.856  34.941  1.00  0.00     0.309 C 
ATOM     79  O   UNL A   1      37.406  31.637  35.085  1.00  0.00    -0.252 OA
BRANCH  78  80
ATOM     80  C   UNL A   1      38.325  33.738  35.711  1.00  0.00     0.112 C 
ATOM     81  C   UNL A   1      39.033  34.903  35.111  1.00  0.00     0.030 C 
ATOM     82  C   UNL A   1      39.810  33.680  35.581  1.00  0.00     0.094 C 
BRANCH  82  83
ATOM     83  C   UNL A   1      40.452  32.809  34.588  1.00  0.00     0.231 C 
ATOM     84  O   UNL A   1      40.631  31.627  34.875  1.00  0.00    -0.274 OA
BRANCH  83  85
ATOM     85  N   UNL A   1      40.724  33.309  33.331  1.00  0.00    -0.311 N 
ATOM     86  C   UNL A   1      39.763  32.995  32.284  1.00  0.00     0.137 C 
ATOM     87  C   UNL A   1      41.779  34.056  32.777  1.00  0.00     0.050 A 
ATOM     88  C   UNL A   1      40.128  33.850  31.056  1.00  0.00     0.018 C 
ATOM     89  C   UNL A   1      41.483  34.359  31.445  1.00  0.00     0.020 A 
ATOM     90  C   UNL A   1      42.990  34.460  33.312  1.00  0.00     0.027 A 
ATOM     91  C   UNL A   1      40.071  32.998  29.785  1.00  0.00     0.014 C 
ATOM     92  C   UNL A   1      39.115  34.995  30.837  1.00  0.00     0.014 C 
ATOM     93  C   UNL A   1      42.369  35.086  30.662  1.00  0.00     0.129 A 
ATOM     94  C   UNL A   1      43.902  35.169  32.511  1.00  0.00     0.005 A 
ATOM     95  C   UNL A   1      38.622  33.150  29.352  1.00  0.00     0.001 C 
ATOM     96  C   UNL A   1      38.371  34.636  29.552  1.00  0.00     0.001 C 
ATOM     97  F   UNL A   1      42.050  35.416  29.403  1.00  0.00    -0.207 F 
ATOM     98  C   UNL A   1      43.588  35.490  31.188  1.00  0.00     0.040 A 
ENDBRANCH  83  85
ENDBRANCH  82  83
ENDBRANCH  78  80
ENDBRANCH  77  78
ENDBRANCH  76  77
ENDBRANCH  75  76
ENDBRANCH  74  75
ENDBRANCH  73  74
ENDBRANCH  72  73
ENDBRANCH  71  72
ENDBRANCH   1  71
TORSDOF 25
ENDMDL
MODEL 3
REMARK VINA RESULT:      -7.4      7.054     14.384
REMARK SMILES O=C(OCCOCCOCCOCCOC(=O)[C@@H]1C[C@@H]1C(=O)N1CC2(CCCC2)c2c(F)cccc21)c1ccc(-c2c3nc(c(-c4ccc(S(=O)(=O)[O-])cc4)c4ccc([nH]4)c(-c4ccc(S(=O)(=O)[O-])cc4)c4nc(c(-c5ccc(S(=O)(=O)[O-])cc5)c5ccc2[nH]5)C=C4)C=C3)cc1
REMARK SMILES IDX 8 1 7 2 6 3 5 4 4 5 3 6 2 7 1 8 37 9 38 10 96 11 39 12 95 13
REMARK SMILES IDX 40 14 41 15 42 16 89 17 43 18 94 19 88 20 90 21 44 22 93 23
REMARK SMILES IDX 87 24 86 25 45 27 75 28 56 29 74 30 57 31 60 32 73 33 91 34
REMARK SMILES IDX 58 35 59 36 72 38 92 39 61 40 46 41 47 42 55 43 48 44 54 45
REMARK SMILES IDX 49 46 50 47 51 48 52 49 53 50 76 51 77 52 85 53 78 54 84 55
REMARK SMILES IDX 79 56 80 57 81 58 82 59 83 60 62 61 63 62 71 63 64 64 70 65
REMARK SMILES IDX 65 66 66 67 67 68 68 69 69 70 9 71 10 72 11 73 12 74 13 75
REMARK SMILES IDX 14 76 15 77 16 78 17 79 18 80 19 81 20 82 21 83 22 84 23 85
REMARK SMILES IDX 24 86 36 87 25 88 30 89 35 90 26 91 29 92 31 93 34 94 27 95
REMARK SMILES IDX 28 96 32 97 33 98
REMARK H PARENT 90 26 60 37
REMARK Flexibility Score: inf
ROOT
ATOM      1  C   UNL A   1      40.955  26.195  26.821  1.00  0.00     0.188 C 
ENDROOT
BRANCH   1   2
ATOM      2  C   UNL A   1      41.800  25.906  25.580  1.00  0.00     0.188 C 
BRANCH   2   3
ATOM      3  O   UNL A   1      43.194  25.663  25.695  1.00  0.00    -0.376 OA
BRANCH   3   4
ATOM      4  C   UNL A   1      44.240  26.618  25.714  1.00  0.00     0.202 C 
BRANCH   4   5
ATOM      5  C   UNL A   1      44.692  27.311  26.997  1.00  0.00     0.261 C 
BRANCH   5   6
ATOM      6  O   UNL A   1      44.245  28.652  27.207  1.00  0.00    -0.460 OA
BRANCH   6   7
ATOM      7  C   UNL A   1      43.596  29.126  28.306  1.00  0.00     0.338 C 
ATOM      8  O   UNL A   1      42.831  28.384  28.915  1.00  0.00    -0.246 OA
BRANCH   7   9
ATOM      9  C   UNL A   1      43.564  30.594  28.588  1.00  0.00     0.060 A 
ATOM     10  C   UNL A   1      44.479  31.501  28.064  1.00  0.00     0.016 A 
ATOM     11  C   UNL A   1      42.511  31.097  29.374  1.00  0.00     0.016 A 
ATOM     12  C   UNL A   1      44.261  32.866  28.126  1.00  0.00     0.010 A 
ATOM     13  C   UNL A   1      42.411  32.470  29.633  1.00  0.00     0.010 A 
ATOM     14  C   UNL A   1      43.307  33.350  29.016  1.00  0.00    -0.014 A 
BRANCH  14  15
ATOM     15  C   UNL A   1      43.624  34.679  29.571  1.00  0.00     0.031 A 
ATOM     16  C   UNL A   1      44.257  34.680  30.944  1.00  0.00     0.074 A 
ATOM     17  C   UNL A   1      43.544  35.799  28.835  1.00  0.00     0.049 A 
ATOM     18  N   UNL A   1      44.818  35.660  31.595  1.00  0.00    -0.248 NA
ATOM     19  C   UNL A   1      44.352  33.378  31.640  1.00  0.00     0.031 C 
ATOM     20  C   UNL A   1      43.108  35.882  27.441  1.00  0.00     0.029 A 
ATOM     21  N   UNL A   1      43.863  37.088  29.167  1.00  0.00    -0.354 N 
ATOM     22  C   UNL A   1      45.374  35.079  32.728  1.00  0.00     0.074 A 
ATOM     23  C   UNL A   1      45.124  33.663  32.673  1.00  0.00     0.031 C 
ATOM     24  C   UNL A   1      43.166  37.168  27.046  1.00  0.00     0.029 A 
ATOM     25  C   UNL A   1      43.615  37.993  28.166  1.00  0.00     0.049 A 
ATOM     26  H   UNL A   1      44.236  37.342  30.043  1.00  0.00     0.167 HD
ATOM     27  C   UNL A   1      46.002  35.680  33.757  1.00  0.00     0.031 A 
ATOM     28  C   UNL A   1      43.715  39.337  28.180  1.00  0.00     0.031 A 
ATOM     29  C   UNL A   1      46.112  37.100  33.878  1.00  0.00     0.049 A 
ATOM     30  C   UNL A   1      44.202  40.006  29.441  1.00  0.00     0.074 A 
ATOM     31  C   UNL A   1      46.603  37.834  34.938  1.00  0.00     0.029 A 
ATOM     32  N   UNL A   1      45.679  37.997  32.916  1.00  0.00    -0.354 N 
ATOM     33  N   UNL A   1      44.676  39.455  30.535  1.00  0.00    -0.248 NA
ATOM     34  C   UNL A   1      44.154  41.474  29.480  1.00  0.00     0.031 C 
ATOM     35  C   UNL A   1      46.404  39.184  34.644  1.00  0.00     0.029 A 
ATOM     36  C   UNL A   1      45.854  39.285  33.374  1.00  0.00     0.049 A 
ATOM     37  H   UNL A   1      45.302  37.752  32.041  1.00  0.00     0.167 HD
ATOM     38  C   UNL A   1      44.993  40.508  31.387  1.00  0.00     0.074 A 
ATOM     39  C   UNL A   1      44.668  41.728  30.677  1.00  0.00     0.031 C 
ATOM     40  C   UNL A   1      45.507  40.474  32.641  1.00  0.00     0.031 A 
BRANCH  27  41
ATOM     41  C   UNL A   1      46.499  34.814  34.873  1.00  0.00    -0.014 A 
ATOM     42  C   UNL A   1      45.657  34.461  35.941  1.00  0.00     0.010 A 
ATOM     43  C   UNL A   1      47.810  34.311  34.825  1.00  0.00     0.010 A 
ATOM     44  C   UNL A   1      46.117  33.597  36.937  1.00  0.00     0.020 A 
ATOM     45  C   UNL A   1      48.268  33.437  35.810  1.00  0.00     0.020 A 
ATOM     46  C   UNL A   1      47.414  33.077  36.855  1.00  0.00     0.054 A 
BRANCH  46  47
ATOM     47  S   UNL A   1      47.956  31.903  38.125  1.00  0.00     0.124 S 
ATOM     48  O   UNL A   1      48.696  30.918  37.338  1.00  0.00    -0.237 OA
ATOM     49  O   UNL A   1      48.765  32.744  39.001  1.00  0.00    -0.237 OA
ATOM     50  O   UNL A   1      46.706  31.415  38.704  1.00  0.00    -0.744 OA
ENDBRANCH  46  47
ENDBRANCH  27  41
BRANCH  28  51
ATOM     51  C   UNL A   1      43.271  40.133  27.005  1.00  0.00    -0.014 A 
ATOM     52  C   UNL A   1      41.911  40.250  26.675  1.00  0.00     0.010 A 
ATOM     53  C   UNL A   1      44.227  40.779  26.196  1.00  0.00     0.010 A 
ATOM     54  C   UNL A   1      41.515  40.996  25.558  1.00  0.00     0.020 A 
ATOM     55  C   UNL A   1      43.834  41.542  25.092  1.00  0.00     0.020 A 
ATOM     56  C   UNL A   1      42.479  41.645  24.779  1.00  0.00     0.054 A 
BRANCH  56  57
ATOM     57  S   UNL A   1      41.937  42.627  23.352  1.00  0.00     0.124 S 
ATOM     58  O   UNL A   1      40.526  42.855  23.650  1.00  0.00    -0.237 OA
ATOM     59  O   UNL A   1      42.802  43.801  23.443  1.00  0.00    -0.237 OA
ATOM     60  O   UNL A   1      42.200  41.752  22.212  1.00  0.00    -0.744 OA
ENDBRANCH  56  57
ENDBRANCH  28  51
BRANCH  40  61
ATOM     61  C   UNL A   1      45.756  41.779  33.335  1.00  0.00    -0.014 A 
ATOM     62  C   UNL A   1      44.878  42.243  34.328  1.00  0.00     0.010 A 
ATOM     63  C   UNL A   1      46.953  42.477  33.083  1.00  0.00     0.010 A 
ATOM     64  C   UNL A   1      45.189  43.397  35.051  1.00  0.00     0.020 A 
ATOM     65  C   UNL A   1      47.278  43.613  33.823  1.00  0.00     0.020 A 
ATOM     66  C   UNL A   1      46.390  44.068  34.799  1.00  0.00     0.054 A 
BRANCH  66  67
ATOM     67  S   UNL A   1      46.780  45.537  35.784  1.00  0.00     0.124 S 
ATOM     68  O   UNL A   1      48.205  45.716  35.520  1.00  0.00    -0.237 OA
ATOM     69  O   UNL A   1      45.901  46.548  35.203  1.00  0.00    -0.237 OA
ATOM     70  O   UNL A   1      46.450  45.139  37.151  1.00  0.00    -0.744 OA
ENDBRANCH  66  67
ENDBRANCH  40  61
ENDBRANCH  14  15
ENDBRANCH   7   9
ENDBRANCH   6   7
ENDBRANCH   5   6
ENDBRANCH   4   5
ENDBRANCH   3   4
ENDBRANCH   2   3
ENDBRANCH   1   2
BRANCH   1  71
ATOM     71  O   UNL A   1      40.797  25.137  27.748  1.00  0.00    -0.377 OA
BRANCH  71  72
ATOM     72  C   UNL A   1      39.454  24.754  27.929  1.00  0.00     0.188 C 
BRANCH  72  73
ATOM     73  C   UNL A   1      38.818  23.915  26.785  1.00  0.00     0.188 C 
BRANCH  73  74
ATOM     74  O   UNL A   1      37.692  24.358  26.042  1.00  0.00    -0.376 OA
BRANCH  74  75
ATOM     75  C   UNL A   1      36.752  23.443  25.504  1.00  0.00     0.202 C 
BRANCH  75  76
ATOM     76  C   UNL A   1      35.554  22.996  26.363  1.00  0.00     0.261 C 
BRANCH  76  77
ATOM     77  O   UNL A   1      34.281  23.152  25.718  1.00  0.00    -0.463 OA
BRANCH  77  78
ATOM     78  C   UNL A   1      33.353  22.199  25.963  1.00  0.00     0.309 C 
ATOM     79  O   UNL A   1      33.298  21.465  26.945  1.00  0.00    -0.252 OA
BRANCH  78  80
ATOM     80  C   UNL A   1      32.263  22.264  24.960  1.00  0.00     0.112 C 
ATOM     81  C   UNL A   1      32.115  23.382  23.987  1.00  0.00     0.030 C 
ATOM     82  C   UNL A   1      31.091  23.176  25.096  1.00  0.00     0.094 C 
BRANCH  82  83
ATOM     83  C   UNL A   1      31.011  24.150  26.193  1.00  0.00     0.231 C 
ATOM     84  O   UNL A   1      30.932  23.729  27.345  1.00  0.00    -0.274 OA
BRANCH  83  85
ATOM     85  N   UNL A   1      31.144  25.494  25.910  1.00  0.00    -0.311 N 
ATOM     86  C   UNL A   1      32.093  26.239  26.723  1.00  0.00     0.137 C 
ATOM     87  C   UNL A   1      30.526  26.374  25.003  1.00  0.00     0.050 A 
ATOM     88  C   UNL A   1      32.261  27.627  26.076  1.00  0.00     0.018 C 
ATOM     89  C   UNL A   1      31.126  27.633  25.097  1.00  0.00     0.020 A 
ATOM     90  C   UNL A   1      29.463  26.191  24.135  1.00  0.00     0.027 A 
ATOM     91  C   UNL A   1      32.225  28.717  27.151  1.00  0.00     0.014 C 
ATOM     92  C   UNL A   1      33.632  27.771  25.381  1.00  0.00     0.014 C 
ATOM     93  C   UNL A   1      30.694  28.692  24.311  1.00  0.00     0.129 A 
ATOM     94  C   UNL A   1      29.003  27.272  23.362  1.00  0.00     0.005 A 
ATOM     95  C   UNL A   1      33.685  28.826  27.557  1.00  0.00     0.001 C 
ATOM     96  C   UNL A   1      34.405  28.788  26.218  1.00  0.00     0.001 C 
ATOM     97  F   UNL A   1      31.313  29.879  24.371  1.00  0.00    -0.207 F 
ATOM     98  C   UNL A   1      29.626  28.521  23.443  1.00  0.00     0.040 A 
ENDBRANCH  83  85
ENDBRANCH  82  83
ENDBRANCH  78  80
ENDBRANCH  77  78
ENDBRANCH  76  77
ENDBRANCH  75  76
ENDBRANCH  74  75
ENDBRANCH  73  74
ENDBRANCH  72  73
ENDBRANCH  71  72
ENDBRANCH   1  71
TORSDOF 25
ENDMDL
