MODEL 1
REMARK VINA RESULT:      -7.5      0.000      0.000
REMARK SMILES C[C@@H]1CCC[C@]1(Sc1ccc(F)cc1)C(=O)OCCOCCOCCOCCOC(=O)c1ccc(-c2c3nc(c(-c4ccc(S(=O)(=O)[O-])cc4)c4ccc([nH]4)c(-c4ccc(S(=O)(=O)[O-])cc4)c4nc(c(-c5ccc(S(=O)(=O)[O-])cc5)c5ccc2[nH]5)C=C4)C=C3)cc1
REMARK SMILES IDX 24 1 23 2 22 3 21 4 20 5 19 6 18 7 17 8 15 9 16 10 6 11 1 12
REMARK SMILES IDX 2 13 3 14 4 15 5 16 7 17 8 18 9 19 14 20 10 21 13 22 11 23
REMARK SMILES IDX 12 24 25 25 26 26 27 27 28 28 29 29 30 30 31 31 32 32 33 33
REMARK SMILES IDX 91 34 34 35 90 36 35 37 36 38 37 39 84 40 38 41 89 42 83 43
REMARK SMILES IDX 85 44 39 45 88 46 82 47 81 48 40 50 70 51 51 52 69 53 52 54
REMARK SMILES IDX 55 55 68 56 86 57 53 58 54 59 67 61 87 62 56 63 41 64 42 65
REMARK SMILES IDX 50 66 43 67 49 68 44 69 45 70 46 71 47 72 48 73 71 74 72 75
REMARK SMILES IDX 80 76 73 77 79 78 74 79 75 80 76 81 77 82 78 83 57 84 58 85
REMARK SMILES IDX 66 86 59 87 65 88 60 89 61 90 62 91 63 92 64 93
REMARK H PARENT 85 49 55 60
REMARK Flexibility Score: inf
ROOT
ATOM      1  C   UNL A   1      46.054  24.317  25.226  1.00  0.00     0.188 C 
ENDROOT
BRANCH   1   2
ATOM      2  O   UNL A   1      46.244  25.592  24.619  1.00  0.00    -0.377 OA
BRANCH   2   3
ATOM      3  C   UNL A   1      46.639  26.720  25.378  1.00  0.00     0.188 C 
BRANCH   3   4
ATOM      4  C   UNL A   1      45.874  26.853  26.694  1.00  0.00     0.188 C 
BRANCH   4   5
ATOM      5  O   UNL A   1      45.471  28.151  27.095  1.00  0.00    -0.376 OA
BRANCH   5   6
ATOM      6  C   UNL A   1      46.405  29.226  27.020  1.00  0.00     0.202 C 
BRANCH   6   7
ATOM      7  C   UNL A   1      46.041  30.550  26.311  1.00  0.00     0.261 C 
BRANCH   7   8
ATOM      8  O   UNL A   1      44.722  31.110  26.567  1.00  0.00    -0.462 OA
BRANCH   8   9
ATOM      9  C   UNL A   1      44.599  32.422  26.256  1.00  0.00     0.322 C 
ATOM     10  O   UNL A   1      44.833  32.852  25.121  1.00  0.00    -0.251 OA
BRANCH   9  11
ATOM     11  C   UNL A   1      44.256  33.426  27.402  1.00  0.00     0.120 C 
ATOM     12  C   UNL A   1      42.945  35.316  26.060  1.00  0.00     0.010 C 
ATOM     13  C   UNL A   1      43.274  34.633  27.373  1.00  0.00     0.014 C 
ATOM     14  C   UNL A   1      43.923  35.708  28.279  1.00  0.00     0.005 C 
ATOM     15  C   UNL A   1      45.417  35.502  28.193  1.00  0.00     0.002 C 
ATOM     16  C   UNL A   1      45.630  34.078  27.714  1.00  0.00     0.030 C 
BRANCH  11  17
ATOM     17  S   UNL A   1      43.658  32.167  28.721  1.00  0.00    -0.107 SA
BRANCH  17  18
ATOM     18  C   UNL A   1      43.010  33.142  30.045  1.00  0.00     0.009 A 
ATOM     19  C   UNL A   1      41.639  33.417  30.124  1.00  0.00     0.018 A 
ATOM     20  C   UNL A   1      43.859  33.557  31.074  1.00  0.00     0.018 A 
ATOM     21  C   UNL A   1      41.137  34.183  31.175  1.00  0.00     0.040 A 
ATOM     22  C   UNL A   1      43.352  34.295  32.143  1.00  0.00     0.040 A 
ATOM     23  C   UNL A   1      41.999  34.615  32.174  1.00  0.00     0.123 A 
ATOM     24  F   UNL A   1      41.518  35.346  33.188  1.00  0.00    -0.207 F 
ENDBRANCH  17  18
ENDBRANCH  11  17
ENDBRANCH   9  11
ENDBRANCH   8   9
ENDBRANCH   7   8
ENDBRANCH   6   7
ENDBRANCH   5   6
ENDBRANCH   4   5
ENDBRANCH   3   4
ENDBRANCH   2   3
ENDBRANCH   1   2
BRANCH   1  25
ATOM     25  C   UNL A   1      45.215  23.301  24.461  1.00  0.00     0.188 C 
BRANCH  25  26
ATOM     26  O   UNL A   1      43.954  22.952  25.039  1.00  0.00    -0.376 OA
BRANCH  26  27
ATOM     27  C   UNL A   1      43.827  22.973  26.459  1.00  0.00     0.202 C 
BRANCH  27  28
ATOM     28  C   UNL A   1      42.631  23.759  26.997  1.00  0.00     0.261 C 
BRANCH  28  29
ATOM     29  O   UNL A   1      42.218  24.799  26.100  1.00  0.00    -0.460 OA
BRANCH  29  30
ATOM     30  C   UNL A   1      41.021  25.361  26.396  1.00  0.00     0.338 C 
ATOM     31  O   UNL A   1      39.967  25.212  25.805  1.00  0.00    -0.246 OA
BRANCH  30  32
ATOM     32  C   UNL A   1      41.131  26.093  27.670  1.00  0.00     0.060 A 
ATOM     33  C   UNL A   1      40.124  25.917  28.627  1.00  0.00     0.016 A 
ATOM     34  C   UNL A   1      42.162  27.012  27.875  1.00  0.00     0.016 A 
ATOM     35  C   UNL A   1      40.114  26.703  29.774  1.00  0.00     0.010 A 
ATOM     36  C   UNL A   1      42.142  27.810  29.017  1.00  0.00     0.010 A 
ATOM     37  C   UNL A   1      41.092  27.689  29.945  1.00  0.00    -0.014 A 
BRANCH  37  38
ATOM     38  C   UNL A   1      40.904  28.729  30.977  1.00  0.00     0.031 A 
ATOM     39  C   UNL A   1      41.783  28.686  32.198  1.00  0.00     0.074 A 
ATOM     40  C   UNL A   1      39.989  29.700  30.818  1.00  0.00     0.049 A 
ATOM     41  N   UNL A   1      41.762  29.445  33.260  1.00  0.00    -0.248 NA
ATOM     42  C   UNL A   1      42.825  27.644  32.223  1.00  0.00     0.031 C 
ATOM     43  C   UNL A   1      39.127  29.867  29.647  1.00  0.00     0.029 A 
ATOM     44  N   UNL A   1      39.629  30.726  31.652  1.00  0.00    -0.354 N 
ATOM     45  C   UNL A   1      42.775  28.968  34.085  1.00  0.00     0.074 A 
ATOM     46  C   UNL A   1      43.371  27.835  33.414  1.00  0.00     0.031 C 
ATOM     47  C   UNL A   1      38.329  30.931  29.843  1.00  0.00     0.029 A 
ATOM     48  C   UNL A   1      38.598  31.492  31.166  1.00  0.00     0.049 A 
ATOM     49  H   UNL A   1      40.068  30.898  32.516  1.00  0.00     0.167 HD
ATOM     50  C   UNL A   1      43.175  29.439  35.289  1.00  0.00     0.031 A 
ATOM     51  C   UNL A   1      37.932  32.512  31.740  1.00  0.00     0.031 A 
ATOM     52  C   UNL A   1      42.563  30.559  35.949  1.00  0.00     0.049 A 
ATOM     53  C   UNL A   1      38.339  32.962  33.120  1.00  0.00     0.074 A 
ATOM     54  C   UNL A   1      42.888  31.121  37.171  1.00  0.00     0.029 A 
ATOM     55  N   UNL A   1      41.496  31.287  35.442  1.00  0.00    -0.354 N 
ATOM     56  N   UNL A   1      39.305  32.507  33.886  1.00  0.00    -0.248 NA
ATOM     57  C   UNL A   1      37.574  34.068  33.710  1.00  0.00     0.031 C 
ATOM     58  C   UNL A   1      41.978  32.152  37.430  1.00  0.00     0.029 A 
ATOM     59  C   UNL A   1      41.134  32.279  36.337  1.00  0.00     0.049 A 
ATOM     60  H   UNL A   1      41.061  31.124  34.575  1.00  0.00     0.167 HD
ATOM     61  C   UNL A   1      39.285  33.299  35.030  1.00  0.00     0.074 A 
ATOM     62  C   UNL A   1      38.222  34.267  34.849  1.00  0.00     0.031 C 
ATOM     63  C   UNL A   1      40.076  33.236  36.131  1.00  0.00     0.031 A 
BRANCH  50  64
ATOM     64  C   UNL A   1      44.305  28.722  35.981  1.00  0.00    -0.014 A 
ATOM     65  C   UNL A   1      45.643  29.116  35.796  1.00  0.00     0.010 A 
ATOM     66  C   UNL A   1      44.019  27.666  36.867  1.00  0.00     0.010 A 
ATOM     67  C   UNL A   1      46.675  28.450  36.461  1.00  0.00     0.020 A 
ATOM     68  C   UNL A   1      45.047  27.017  37.556  1.00  0.00     0.020 A 
ATOM     69  C   UNL A   1      46.370  27.406  37.340  1.00  0.00     0.054 A 
BRANCH  69  70
ATOM     70  S   UNL A   1      47.728  26.587  38.222  1.00  0.00     0.124 S 
ATOM     71  O   UNL A   1      47.097  25.346  38.664  1.00  0.00    -0.237 OA
ATOM     72  O   UNL A   1      48.741  26.440  37.179  1.00  0.00    -0.237 OA
ATOM     73  O   UNL A   1      48.068  27.527  39.287  1.00  0.00    -0.744 OA
ENDBRANCH  69  70
ENDBRANCH  50  64
BRANCH  51  74
ATOM     74  C   UNL A   1      36.799  33.165  31.027  1.00  0.00    -0.014 A 
ATOM     75  C   UNL A   1      35.472  32.949  31.436  1.00  0.00     0.010 A 
ATOM     76  C   UNL A   1      37.044  33.994  29.916  1.00  0.00     0.010 A 
ATOM     77  C   UNL A   1      34.410  33.525  30.731  1.00  0.00     0.020 A 
ATOM     78  C   UNL A   1      35.987  34.598  29.229  1.00  0.00     0.020 A 
ATOM     79  C   UNL A   1      34.675  34.345  29.631  1.00  0.00     0.054 A 
BRANCH  79  80
ATOM     80  S   UNL A   1      33.282  35.102  28.749  1.00  0.00     0.124 S 
ATOM     81  O   UNL A   1      32.448  35.575  29.849  1.00  0.00    -0.237 OA
ATOM     82  O   UNL A   1      33.939  36.140  27.959  1.00  0.00    -0.237 OA
ATOM     83  O   UNL A   1      32.728  33.994  27.973  1.00  0.00    -0.744 OA
ENDBRANCH  79  80
ENDBRANCH  51  74
BRANCH  63  84
ATOM     84  C   UNL A   1      39.858  34.273  37.202  1.00  0.00    -0.014 A 
ATOM     85  C   UNL A   1      39.067  34.008  38.332  1.00  0.00     0.010 A 
ATOM     86  C   UNL A   1      40.504  35.519  37.094  1.00  0.00     0.010 A 
ATOM     87  C   UNL A   1      38.894  34.985  39.317  1.00  0.00     0.020 A 
ATOM     88  C   UNL A   1      40.361  36.485  38.092  1.00  0.00     0.020 A 
ATOM     89  C   UNL A   1      39.543  36.217  39.190  1.00  0.00     0.054 A 
BRANCH  89  90
ATOM     90  S   UNL A   1      39.331  37.452  40.501  1.00  0.00     0.124 S 
ATOM     91  O   UNL A   1      38.948  36.624  41.640  1.00  0.00    -0.237 OA
ATOM     92  O   UNL A   1      40.656  38.062  40.582  1.00  0.00    -0.237 OA
ATOM     93  O   UNL A   1      38.280  38.327  39.986  1.00  0.00    -0.744 OA
ENDBRANCH  89  90
ENDBRANCH  63  84
ENDBRANCH  37  38
ENDBRANCH  30  32
ENDBRANCH  29  30
ENDBRANCH  28  29
ENDBRANCH  27  28
ENDBRANCH  26  27
ENDBRANCH  25  26
ENDBRANCH   1  25
TORSDOF 25
ENDMDL
MODEL 2
REMARK VINA RESULT:      -7.0      6.654     11.517
REMARK SMILES C[C@@H]1CCC[C@]1(Sc1ccc(F)cc1)C(=O)OCCOCCOCCOCCOC(=O)c1ccc(-c2c3nc(c(-c4ccc(S(=O)(=O)[O-])cc4)c4ccc([nH]4)c(-c4ccc(S(=O)(=O)[O-])cc4)c4nc(c(-c5ccc(S(=O)(=O)[O-])cc5)c5ccc2[nH]5)C=C4)C=C3)cc1
REMARK SMILES IDX 24 1 23 2 22 3 21 4 20 5 19 6 18 7 17 8 15 9 16 10 6 11 1 12
REMARK SMILES IDX 2 13 3 14 4 15 5 16 7 17 8 18 9 19 14 20 10 21 13 22 11 23
REMARK SMILES IDX 12 24 25 25 26 26 27 27 28 28 29 29 30 30 31 31 32 32 33 33
REMARK SMILES IDX 91 34 34 35 90 36 35 37 36 38 37 39 84 40 38 41 89 42 83 43
REMARK SMILES IDX 85 44 39 45 88 46 82 47 81 48 40 50 70 51 51 52 69 53 52 54
REMARK SMILES IDX 55 55 68 56 86 57 53 58 54 59 67 61 87 62 56 63 41 64 42 65
REMARK SMILES IDX 50 66 43 67 49 68 44 69 45 70 46 71 47 72 48 73 71 74 72 75
REMARK SMILES IDX 80 76 73 77 79 78 74 79 75 80 76 81 77 82 78 83 57 84 58 85
REMARK SMILES IDX 66 86 59 87 65 88 60 89 61 90 62 91 63 92 64 93
REMARK H PARENT 85 49 55 60
REMARK Flexibility Score: inf
ROOT
ATOM      1  C   UNL A   1      36.472  33.727  28.766  1.00  0.00     0.188 C 
ENDROOT
BRANCH   1   2
ATOM      2  O   UNL A   1      35.225  34.238  28.300  1.00  0.00    -0.377 OA
BRANCH   2   3
ATOM      3  C   UNL A   1      33.994  33.735  28.783  1.00  0.00     0.188 C 
BRANCH   3   4
ATOM      4  C   UNL A   1      33.317  32.774  27.806  1.00  0.00     0.188 C 
BRANCH   4   5
ATOM      5  O   UNL A   1      33.683  31.406  27.864  1.00  0.00    -0.376 OA
BRANCH   5   6
ATOM      6  C   UNL A   1      32.817  30.428  27.291  1.00  0.00     0.202 C 
BRANCH   6   7
ATOM      7  C   UNL A   1      32.680  30.286  25.759  1.00  0.00     0.261 C 
BRANCH   7   8
ATOM      8  O   UNL A   1      31.908  29.159  25.253  1.00  0.00    -0.462 OA
BRANCH   8   9
ATOM      9  C   UNL A   1      32.491  28.493  24.229  1.00  0.00     0.322 C 
ATOM     10  O   UNL A   1      33.440  28.967  23.594  1.00  0.00    -0.251 OA
BRANCH   9  11
ATOM     11  C   UNL A   1      31.866  27.136  23.777  1.00  0.00     0.120 C 
ATOM     12  C   UNL A   1      29.357  27.865  23.260  1.00  0.00     0.010 C 
ATOM     13  C   UNL A   1      30.497  26.880  23.082  1.00  0.00     0.014 C 
ATOM     14  C   UNL A   1      30.001  25.526  23.645  1.00  0.00     0.005 C 
ATOM     15  C   UNL A   1      30.568  25.402  25.040  1.00  0.00     0.002 C 
ATOM     16  C   UNL A   1      31.755  26.344  25.109  1.00  0.00     0.030 C 
BRANCH  11  17
ATOM     17  S   UNL A   1      33.273  26.541  22.616  1.00  0.00    -0.107 SA
BRANCH  17  18
ATOM     18  C   UNL A   1      33.668  24.904  23.151  1.00  0.00     0.009 A 
ATOM     19  C   UNL A   1      34.581  24.693  24.191  1.00  0.00     0.018 A 
ATOM     20  C   UNL A   1      32.987  23.816  22.598  1.00  0.00     0.018 A 
ATOM     21  C   UNL A   1      34.882  23.398  24.609  1.00  0.00     0.040 A 
ATOM     22  C   UNL A   1      33.263  22.522  23.038  1.00  0.00     0.040 A 
ATOM     23  C   UNL A   1      34.220  22.324  24.028  1.00  0.00     0.123 A 
ATOM     24  F   UNL A   1      34.503  21.079  24.431  1.00  0.00    -0.207 F 
ENDBRANCH  17  18
ENDBRANCH  11  17
ENDBRANCH   9  11
ENDBRANCH   8   9
ENDBRANCH   7   8
ENDBRANCH   6   7
ENDBRANCH   5   6
ENDBRANCH   4   5
ENDBRANCH   3   4
ENDBRANCH   2   3
ENDBRANCH   1   2
BRANCH   1  25
ATOM     25  C   UNL A   1      36.430  32.475  29.631  1.00  0.00     0.188 C 
BRANCH  25  26
ATOM     26  O   UNL A   1      37.154  31.340  29.144  1.00  0.00    -0.376 OA
BRANCH  26  27
ATOM     27  C   UNL A   1      36.542  30.055  29.231  1.00  0.00     0.202 C 
BRANCH  27  28
ATOM     28  C   UNL A   1      37.033  29.174  30.381  1.00  0.00     0.261 C 
BRANCH  28  29
ATOM     29  O   UNL A   1      36.618  29.673  31.660  1.00  0.00    -0.460 OA
BRANCH  29  30
ATOM     30  C   UNL A   1      37.345  29.217  32.709  1.00  0.00     0.338 C 
ATOM     31  O   UNL A   1      37.548  28.058  33.020  1.00  0.00    -0.246 OA
BRANCH  30  32
ATOM     32  C   UNL A   1      38.010  30.354  33.369  1.00  0.00     0.060 A 
ATOM     33  C   UNL A   1      39.268  30.145  33.947  1.00  0.00     0.016 A 
ATOM     34  C   UNL A   1      37.357  31.581  33.499  1.00  0.00     0.016 A 
ATOM     35  C   UNL A   1      39.856  31.149  34.708  1.00  0.00     0.010 A 
ATOM     36  C   UNL A   1      37.940  32.582  34.273  1.00  0.00     0.010 A 
ATOM     37  C   UNL A   1      39.168  32.350  34.918  1.00  0.00    -0.014 A 
BRANCH  37  38
ATOM     38  C   UNL A   1      39.628  33.277  35.973  1.00  0.00     0.031 A 
ATOM     39  C   UNL A   1      40.675  34.297  35.616  1.00  0.00     0.074 A 
ATOM     40  C   UNL A   1      39.107  33.223  37.211  1.00  0.00     0.049 A 
ATOM     41  N   UNL A   1      41.277  35.167  36.381  1.00  0.00    -0.248 NA
ATOM     42  C   UNL A   1      41.100  34.338  34.205  1.00  0.00     0.031 C 
ATOM     43  C   UNL A   1      38.048  32.313  37.645  1.00  0.00     0.029 A 
ATOM     44  N   UNL A   1      39.409  33.951  38.331  1.00  0.00    -0.354 N 
ATOM     45  C   UNL A   1      42.159  35.851  35.551  1.00  0.00     0.074 A 
ATOM     46  C   UNL A   1      42.036  35.274  34.231  1.00  0.00     0.031 C 
ATOM     47  C   UNL A   1      37.794  32.531  38.947  1.00  0.00     0.029 A 
ATOM     48  C   UNL A   1      38.699  33.567  39.442  1.00  0.00     0.049 A 
ATOM     49  H   UNL A   1      40.070  34.681  38.340  1.00  0.00     0.167 HD
ATOM     50  C   UNL A   1      42.990  36.872  35.862  1.00  0.00     0.031 A 
ATOM     51  C   UNL A   1      38.791  33.988  40.719  1.00  0.00     0.031 A 
ATOM     52  C   UNL A   1      43.111  37.427  37.183  1.00  0.00     0.049 A 
ATOM     53  C   UNL A   1      39.788  35.068  41.058  1.00  0.00     0.074 A 
ATOM     54  C   UNL A   1      43.921  38.462  37.612  1.00  0.00     0.029 A 
ATOM     55  N   UNL A   1      42.401  36.986  38.292  1.00  0.00    -0.354 N 
ATOM     56  N   UNL A   1      40.611  35.712  40.262  1.00  0.00    -0.248 NA
ATOM     57  C   UNL A   1      39.863  35.483  42.464  1.00  0.00     0.031 C 
ATOM     58  C   UNL A   1      43.746  38.608  38.992  1.00  0.00     0.029 A 
ATOM     59  C   UNL A   1      42.773  37.713  39.409  1.00  0.00     0.049 A 
ATOM     60  H   UNL A   1      41.733  36.264  38.285  1.00  0.00     0.167 HD
ATOM     61  C   UNL A   1      41.271  36.634  41.067  1.00  0.00     0.074 A 
ATOM     62  C   UNL A   1      40.742  36.472  42.407  1.00  0.00     0.031 C 
ATOM     63  C   UNL A   1      42.226  37.538  40.731  1.00  0.00     0.031 A 
BRANCH  50  64
ATOM     64  C   UNL A   1      43.855  37.432  34.763  1.00  0.00    -0.014 A 
ATOM     65  C   UNL A   1      43.407  38.485  33.945  1.00  0.00     0.010 A 
ATOM     66  C   UNL A   1      45.155  36.926  34.576  1.00  0.00     0.010 A 
ATOM     67  C   UNL A   1      44.232  39.002  32.943  1.00  0.00     0.020 A 
ATOM     68  C   UNL A   1      45.993  37.461  33.594  1.00  0.00     0.020 A 
ATOM     69  C   UNL A   1      45.522  38.489  32.775  1.00  0.00     0.054 A 
BRANCH  69  70
ATOM     70  S   UNL A   1      46.584  39.209  31.493  1.00  0.00     0.124 S 
ATOM     71  O   UNL A   1      45.760  39.055  30.297  1.00  0.00    -0.237 OA
ATOM     72  O   UNL A   1      46.763  40.580  31.961  1.00  0.00    -0.237 OA
ATOM     73  O   UNL A   1      47.786  38.379  31.531  1.00  0.00    -0.744 OA
ENDBRANCH  69  70
ENDBRANCH  50  64
BRANCH  51  74
ATOM     74  C   UNL A   1      37.937  33.378  41.774  1.00  0.00    -0.014 A 
ATOM     75  C   UNL A   1      38.361  32.233  42.471  1.00  0.00     0.010 A 
ATOM     76  C   UNL A   1      36.678  33.931  42.076  1.00  0.00     0.010 A 
ATOM     77  C   UNL A   1      37.533  31.636  43.426  1.00  0.00     0.020 A 
ATOM     78  C   UNL A   1      35.861  33.356  43.053  1.00  0.00     0.020 A 
ATOM     79  C   UNL A   1      36.287  32.201  43.710  1.00  0.00     0.054 A 
BRANCH  79  80
ATOM     80  S   UNL A   1      35.241  31.423  44.971  1.00  0.00     0.124 S 
ATOM     81  O   UNL A   1      35.874  30.118  45.127  1.00  0.00    -0.237 OA
ATOM     82  O   UNL A   1      35.382  32.336  46.102  1.00  0.00    -0.237 OA
ATOM     83  O   UNL A   1      33.916  31.407  44.353  1.00  0.00    -0.744 OA
ENDBRANCH  79  80
ENDBRANCH  51  74
BRANCH  63  84
ATOM     84  C   UNL A   1      42.724  38.457  41.816  1.00  0.00    -0.014 A 
ATOM     85  C   UNL A   1      42.089  39.680  42.093  1.00  0.00     0.010 A 
ATOM     86  C   UNL A   1      43.819  38.059  42.606  1.00  0.00     0.010 A 
ATOM     87  C   UNL A   1      42.565  40.507  43.114  1.00  0.00     0.020 A 
ATOM     88  C   UNL A   1      44.276  38.866  43.650  1.00  0.00     0.020 A 
ATOM     89  C   UNL A   1      43.656  40.094  43.886  1.00  0.00     0.054 A 
BRANCH  89  90
ATOM     90  S   UNL A   1      44.229  41.168  45.230  1.00  0.00     0.124 S 
ATOM     91  O   UNL A   1      43.427  40.701  46.357  1.00  0.00    -0.237 OA
ATOM     92  O   UNL A   1      45.655  40.859  45.300  1.00  0.00    -0.237 OA
ATOM     93  O   UNL A   1      43.913  42.514  44.757  1.00  0.00    -0.744 OA
ENDBRANCH  89  90
ENDBRANCH  63  84
ENDBRANCH  37  38
ENDBRANCH  30  32
ENDBRANCH  29  30
ENDBRANCH  28  29
ENDBRANCH  27  28
ENDBRANCH  26  27
ENDBRANCH  25  26
ENDBRANCH   1  25
TORSDOF 25
ENDMDL
MODEL 3
REMARK VINA RESULT:      -6.7      6.046     13.256
REMARK SMILES C[C@@H]1CCC[C@]1(Sc1ccc(F)cc1)C(=O)OCCOCCOCCOCCOC(=O)c1ccc(-c2c3nc(c(-c4ccc(S(=O)(=O)[O-])cc4)c4ccc([nH]4)c(-c4ccc(S(=O)(=O)[O-])cc4)c4nc(c(-c5ccc(S(=O)(=O)[O-])cc5)c5ccc2[nH]5)C=C4)C=C3)cc1
REMARK SMILES IDX 24 1 23 2 22 3 21 4 20 5 19 6 18 7 17 8 15 9 16 10 6 11 1 12
REMARK SMILES IDX 2 13 3 14 4 15 5 16 7 17 8 18 9 19 14 20 10 21 13 22 11 23
REMARK SMILES IDX 12 24 25 25 26 26 27 27 28 28 29 29 30 30 31 31 32 32 33 33
REMARK SMILES IDX 91 34 34 35 90 36 35 37 36 38 37 39 84 40 38 41 89 42 83 43
REMARK SMILES IDX 85 44 39 45 88 46 82 47 81 48 40 50 70 51 51 52 69 53 52 54
REMARK SMILES IDX 55 55 68 56 86 57 53 58 54 59 67 61 87 62 56 63 41 64 42 65
REMARK SMILES IDX 50 66 43 67 49 68 44 69 45 70 46 71 47 72 48 73 71 74 72 75
REMARK SMILES IDX 80 76 73 77 79 78 74 79 75 80 76 81 77 82 78 83 57 84 58 85
REMARK SMILES IDX 66 86 59 87 65 88 60 89 61 90 62 91 63 92 64 93
REMARK H PARENT 85 49 55 60
REMARK Flexibility Score: inf
ROOT
ATOM      1  C   UNL A   1      34.453  34.569  28.960  1.00  0.00     0.188 C 
ENDROOT
BRANCH   1   2
ATOM      2  O   UNL A   1      33.172  33.970  28.782  1.00  0.00    -0.377 OA
BRANCH   2   3
ATOM      3  C   UNL A   1      32.811  33.346  27.565  1.00  0.00     0.188 C 
BRANCH   3   4
ATOM      4  C   UNL A   1      32.920  31.822  27.618  1.00  0.00     0.188 C 
BRANCH   4   5
ATOM      5  O   UNL A   1      32.203  31.074  26.651  1.00  0.00    -0.376 OA
BRANCH   5   6
ATOM      6  C   UNL A   1      32.657  29.767  26.305  1.00  0.00     0.202 C 
BRANCH   6   7
ATOM      7  C   UNL A   1      32.045  28.511  26.965  1.00  0.00     0.261 C 
BRANCH   7   8
ATOM      8  O   UNL A   1      32.621  27.219  26.619  1.00  0.00    -0.462 OA
BRANCH   8   9
ATOM      9  C   UNL A   1      31.728  26.308  26.168  1.00  0.00     0.322 C 
ATOM     10  O   UNL A   1      30.544  26.319  26.525  1.00  0.00    -0.251 OA
BRANCH   9  11
ATOM     11  C   UNL A   1      32.245  25.151  25.256  1.00  0.00     0.120 C 
ATOM     12  C   UNL A   1      33.445  26.519  23.311  1.00  0.00     0.010 C 
ATOM     13  C   UNL A   1      33.257  25.223  24.076  1.00  0.00     0.014 C 
ATOM     14  C   UNL A   1      32.762  24.174  23.050  1.00  0.00     0.005 C 
ATOM     15  C   UNL A   1      31.263  24.085  23.211  1.00  0.00     0.002 C 
ATOM     16  C   UNL A   1      30.942  24.626  24.591  1.00  0.00     0.030 C 
BRANCH  11  17
ATOM     17  S   UNL A   1      32.957  24.004  26.619  1.00  0.00    -0.107 SA
BRANCH  17  18
ATOM     18  C   UNL A   1      33.196  22.436  25.840  1.00  0.00     0.009 A 
ATOM     19  C   UNL A   1      32.115  21.572  25.627  1.00  0.00     0.018 A 
ATOM     20  C   UNL A   1      34.458  22.100  25.342  1.00  0.00     0.018 A 
ATOM     21  C   UNL A   1      32.313  20.339  25.007  1.00  0.00     0.040 A 
ATOM     22  C   UNL A   1      34.650  20.881  24.692  1.00  0.00     0.040 A 
ATOM     23  C   UNL A   1      33.580  20.005  24.546  1.00  0.00     0.123 A 
ATOM     24  F   UNL A   1      33.772  18.824  23.945  1.00  0.00    -0.207 F 
ENDBRANCH  17  18
ENDBRANCH  11  17
ENDBRANCH   9  11
ENDBRANCH   8   9
ENDBRANCH   7   8
ENDBRANCH   6   7
ENDBRANCH   5   6
ENDBRANCH   4   5
ENDBRANCH   3   4
ENDBRANCH   2   3
ENDBRANCH   1   2
BRANCH   1  25
ATOM     25  C   UNL A   1      35.553  33.695  29.548  1.00  0.00     0.188 C 
BRANCH  25  26
ATOM     26  O   UNL A   1      35.679  33.703  30.974  1.00  0.00    -0.376 OA
BRANCH  26  27
ATOM     27  C   UNL A   1      34.822  32.856  31.737  1.00  0.00     0.202 C 
BRANCH  27  28
ATOM     28  C   UNL A   1      34.911  33.032  33.254  1.00  0.00     0.261 C 
BRANCH  28  29
ATOM     29  O   UNL A   1      36.091  32.428  33.801  1.00  0.00    -0.460 OA
BRANCH  29  30
ATOM     30  C   UNL A   1      36.770  33.206  34.678  1.00  0.00     0.338 C 
ATOM     31  O   UNL A   1      36.425  33.533  35.799  1.00  0.00    -0.246 OA
BRANCH  30  32
ATOM     32  C   UNL A   1      38.107  33.499  34.131  1.00  0.00     0.060 A 
ATOM     33  C   UNL A   1      38.198  34.340  33.015  1.00  0.00     0.016 A 
ATOM     34  C   UNL A   1      39.241  32.876  34.654  1.00  0.00     0.016 A 
ATOM     35  C   UNL A   1      39.423  34.517  32.380  1.00  0.00     0.010 A 
ATOM     36  C   UNL A   1      40.465  33.042  34.008  1.00  0.00     0.010 A 
ATOM     37  C   UNL A   1      40.547  33.825  32.843  1.00  0.00    -0.014 A 
BRANCH  37  38
ATOM     38  C   UNL A   1      41.755  33.750  31.995  1.00  0.00     0.031 A 
ATOM     39  C   UNL A   1      42.755  34.872  32.081  1.00  0.00     0.074 A 
ATOM     40  C   UNL A   1      41.965  32.697  31.187  1.00  0.00     0.049 A 
ATOM     41  N   UNL A   1      43.849  35.060  31.394  1.00  0.00    -0.248 NA
ATOM     42  C   UNL A   1      42.479  35.925  33.076  1.00  0.00     0.031 C 
ATOM     43  C   UNL A   1      41.090  31.531  31.072  1.00  0.00     0.029 A 
ATOM     44  N   UNL A   1      42.982  32.445  30.305  1.00  0.00    -0.354 N 
ATOM     45  C   UNL A   1      44.387  36.254  31.862  1.00  0.00     0.074 A 
ATOM     46  C   UNL A   1      43.484  36.763  32.869  1.00  0.00     0.031 C 
ATOM     47  C   UNL A   1      41.606  30.689  30.160  1.00  0.00     0.029 A 
ATOM     48  C   UNL A   1      42.822  31.277  29.601  1.00  0.00     0.049 A 
ATOM     49  H   UNL A   1      43.755  33.044  30.186  1.00  0.00     0.167 HD
ATOM     50  C   UNL A   1      45.535  36.866  31.489  1.00  0.00     0.031 A 
ATOM     51  C   UNL A   1      43.562  30.758  28.603  1.00  0.00     0.031 A 
ATOM     52  C   UNL A   1      46.417  36.354  30.476  1.00  0.00     0.049 A 
ATOM     53  C   UNL A   1      44.790  31.502  28.144  1.00  0.00     0.074 A 
ATOM     54  C   UNL A   1      47.607  36.891  30.018  1.00  0.00     0.029 A 
ATOM     55  N   UNL A   1      46.202  35.185  29.759  1.00  0.00    -0.354 N 
ATOM     56  N   UNL A   1      45.292  32.627  28.601  1.00  0.00    -0.248 NA
ATOM     57  C   UNL A   1      45.555  30.905  27.043  1.00  0.00     0.031 C 
ATOM     58  C   UNL A   1      48.080  36.079  28.983  1.00  0.00     0.029 A 
ATOM     59  C   UNL A   1      47.225  34.996  28.847  1.00  0.00     0.049 A 
ATOM     60  H   UNL A   1      45.436  34.579  29.882  1.00  0.00     0.167 HD
ATOM     61  C   UNL A   1      46.454  32.848  27.867  1.00  0.00     0.074 A 
ATOM     62  C   UNL A   1      46.584  31.735  26.948  1.00  0.00     0.031 C 
ATOM     63  C   UNL A   1      47.336  33.876  27.946  1.00  0.00     0.031 A 
BRANCH  50  64
ATOM     64  C   UNL A   1      45.883  38.170  32.157  1.00  0.00    -0.014 A 
ATOM     65  C   UNL A   1      46.844  38.233  33.183  1.00  0.00     0.010 A 
ATOM     66  C   UNL A   1      45.272  39.360  31.719  1.00  0.00     0.010 A 
ATOM     67  C   UNL A   1      47.166  39.455  33.777  1.00  0.00     0.020 A 
ATOM     68  C   UNL A   1      45.613  40.589  32.292  1.00  0.00     0.020 A 
ATOM     69  C   UNL A   1      46.550  40.627  33.325  1.00  0.00     0.054 A 
BRANCH  69  70
ATOM     70  S   UNL A   1      47.019  42.205  34.088  1.00  0.00     0.124 S 
ATOM     71  O   UNL A   1      46.707  41.965  35.495  1.00  0.00    -0.237 OA
ATOM     72  O   UNL A   1      48.440  42.303  33.767  1.00  0.00    -0.237 OA
ATOM     73  O   UNL A   1      46.164  43.182  33.419  1.00  0.00    -0.744 OA
ENDBRANCH  69  70
ENDBRANCH  50  64
BRANCH  51  74
ATOM     74  C   UNL A   1      43.156  29.481  27.952  1.00  0.00    -0.014 A 
ATOM     75  C   UNL A   1      42.315  29.484  26.825  1.00  0.00     0.010 A 
ATOM     76  C   UNL A   1      43.593  28.249  28.473  1.00  0.00     0.010 A 
ATOM     77  C   UNL A   1      41.897  28.281  26.249  1.00  0.00     0.020 A 
ATOM     78  C   UNL A   1      43.203  27.045  27.881  1.00  0.00     0.020 A 
ATOM     79  C   UNL A   1      42.343  27.068  26.782  1.00  0.00     0.054 A 
BRANCH  79  80
ATOM     80  S   UNL A   1      41.807  25.521  26.002  1.00  0.00     0.124 S 
ATOM     81  O   UNL A   1      42.381  24.518  26.894  1.00  0.00    -0.237 OA
ATOM     82  O   UNL A   1      40.352  25.640  26.036  1.00  0.00    -0.237 OA
ATOM     83  O   UNL A   1      42.401  25.586  24.669  1.00  0.00    -0.744 OA
ENDBRANCH  79  80
ENDBRANCH  51  74
BRANCH  63  84
ATOM     84  C   UNL A   1      48.548  33.820  27.054  1.00  0.00    -0.014 A 
ATOM     85  C   UNL A   1      48.708  34.704  25.974  1.00  0.00     0.010 A 
ATOM     86  C   UNL A   1      49.570  32.893  27.338  1.00  0.00     0.010 A 
ATOM     87  C   UNL A   1      49.850  34.638  25.171  1.00  0.00     0.020 A 
ATOM     88  C   UNL A   1      50.728  32.847  26.559  1.00  0.00     0.020 A 
ATOM     89  C   UNL A   1      50.852  33.709  25.469  1.00  0.00     0.054 A 
BRANCH  89  90
ATOM     90  S   UNL A   1      52.341  33.670  24.433  1.00  0.00     0.124 S 
ATOM     91  O   UNL A   1      51.976  32.691  23.413  1.00  0.00    -0.237 OA
ATOM     92  O   UNL A   1      52.445  35.052  23.971  1.00  0.00    -0.237 OA
ATOM     93  O   UNL A   1      53.393  33.246  25.354  1.00  0.00    -0.744 OA
ENDBRANCH  89  90
ENDBRANCH  63  84
ENDBRANCH  37  38
ENDBRANCH  30  32
ENDBRANCH  29  30
ENDBRANCH  28  29
ENDBRANCH  27  28
ENDBRANCH  26  27
ENDBRANCH  25  26
ENDBRANCH   1  25
TORSDOF 25
ENDMDL
