MODEL 1
REMARK VINA RESULT:      -9.0      0.000      0.000
REMARK SMILES CCc1ccccc1SCc1ccc(C(=O)OCCOCCOCCOCCOC(=O)c2ccc(-c3c4nc(c(-c5ccc(S(=O)(=O)[O-])cc5)c5ccc([nH]5)c(-c5ccc(S(=O)(=O)[O-])cc5)c5nc(c(-c6ccc(S(=O)(=O)[O-])cc6)c6ccc3[nH]6)C=C5)C=C4)cc2)o1
REMARK SMILES IDX 22 1 21 2 20 3 19 4 18 5 17 6 15 7 16 8 14 9 11 10 12 11
REMARK SMILES IDX 92 12 13 13 10 14 9 15 8 16 3 17 4 18 5 19 7 20 6 21 2 22
REMARK SMILES IDX 1 23 23 24 24 25 25 26 26 27 27 28 28 29 29 30 30 31 31 32
REMARK SMILES IDX 32 33 33 34 91 35 34 36 90 37 35 38 36 39 37 40 84 41 38 42
REMARK SMILES IDX 89 43 83 44 85 45 39 46 88 47 82 48 81 49 40 51 70 52 51 53
REMARK SMILES IDX 69 54 52 55 55 56 68 57 86 58 53 59 54 60 67 62 87 63 56 64
REMARK SMILES IDX 41 65 42 66 50 67 43 68 49 69 44 70 45 71 46 72 47 73 48 74
REMARK SMILES IDX 71 75 72 76 80 77 73 78 79 79 74 80 75 81 76 82 77 83 78 84
REMARK SMILES IDX 57 85 58 86 66 87 59 88 65 89 60 90 61 91 62 92 63 93 64 94
REMARK H PARENT 85 50 55 61
REMARK Flexibility Score: inf
ROOT
ATOM      1  C   UNL A   1      42.801  19.208  25.749  1.00  0.00     0.188 C 
ENDROOT
BRANCH   1   2
ATOM      2  C   UNL A   1      41.597  20.045  26.206  1.00  0.00     0.188 C 
BRANCH   2   3
ATOM      3  O   UNL A   1      40.338  19.510  25.809  1.00  0.00    -0.376 OA
BRANCH   3   4
ATOM      4  C   UNL A   1      39.267  20.440  25.716  1.00  0.00     0.202 C 
BRANCH   4   5
ATOM      5  C   UNL A   1      38.044  19.893  24.969  1.00  0.00     0.261 C 
BRANCH   5   6
ATOM      6  O   UNL A   1      36.805  20.547  25.275  1.00  0.00    -0.457 OA
BRANCH   6   7
ATOM      7  C   UNL A   1      35.659  19.953  24.850  1.00  0.00     0.374 C 
ATOM      8  O   UNL A   1      35.472  18.742  24.811  1.00  0.00    -0.242 OA
BRANCH   7   9
ATOM      9  C   UNL A   1      34.680  20.979  24.594  1.00  0.00     0.211 A 
ATOM     10  C   UNL A   1      34.024  23.055  24.192  1.00  0.00     0.115 A 
ATOM     11  C   UNL A   1      32.921  22.245  24.015  1.00  0.00     0.047 A 
ATOM     12  O   UNL A   1      35.085  22.286  24.588  1.00  0.00    -0.453 OA
ATOM     13  C   UNL A   1      33.348  20.915  24.237  1.00  0.00     0.058 A 
BRANCH  10  14
ATOM     14  C   UNL A   1      34.357  24.486  23.963  1.00  0.00     0.150 C 
BRANCH  14  15
ATOM     15  S   UNL A   1      33.886  25.701  25.225  1.00  0.00    -0.118 SA
BRANCH  15  16
ATOM     16  C   UNL A   1      32.529  26.657  24.547  1.00  0.00     0.011 A 
ATOM     17  C   UNL A   1      31.528  27.380  25.228  1.00  0.00    -0.035 A 
ATOM     18  C   UNL A   1      30.572  28.089  24.461  1.00  0.00     0.005 A 
ATOM     19  C   UNL A   1      30.579  28.063  23.067  1.00  0.00     0.000 A 
ATOM     20  C   UNL A   1      32.496  26.622  23.135  1.00  0.00     0.015 A 
ATOM     21  C   UNL A   1      31.537  27.317  22.401  1.00  0.00     0.001 A 
BRANCH  17  22
ATOM     22  C   UNL A   1      31.381  27.480  26.728  1.00  0.00     0.033 C 
ATOM     23  C   UNL A   1      32.097  28.675  27.337  1.00  0.00     0.009 C 
ENDBRANCH  17  22
ENDBRANCH  15  16
ENDBRANCH  14  15
ENDBRANCH  10  14
ENDBRANCH   7   9
ENDBRANCH   6   7
ENDBRANCH   5   6
ENDBRANCH   4   5
ENDBRANCH   3   4
ENDBRANCH   2   3
ENDBRANCH   1   2
BRANCH   1  24
ATOM     24  O   UNL A   1      43.637  19.777  24.759  1.00  0.00    -0.377 OA
BRANCH  24  25
ATOM     25  C   UNL A   1      44.415  20.930  25.068  1.00  0.00     0.188 C 
BRANCH  25  26
ATOM     26  C   UNL A   1      44.302  22.253  24.277  1.00  0.00     0.188 C 
BRANCH  26  27
ATOM     27  O   UNL A   1      43.172  23.053  24.610  1.00  0.00    -0.376 OA
BRANCH  27  28
ATOM     28  C   UNL A   1      43.175  23.604  25.921  1.00  0.00     0.202 C 
BRANCH  28  29
ATOM     29  C   UNL A   1      41.762  23.729  26.499  1.00  0.00     0.261 C 
BRANCH  29  30
ATOM     30  O   UNL A   1      40.990  24.809  25.953  1.00  0.00    -0.460 OA
BRANCH  30  31
ATOM     31  C   UNL A   1      41.557  26.036  25.967  1.00  0.00     0.338 C 
ATOM     32  O   UNL A   1      41.965  26.674  25.014  1.00  0.00    -0.246 OA
BRANCH  31  33
ATOM     33  C   UNL A   1      41.459  26.550  27.342  1.00  0.00     0.060 A 
ATOM     34  C   UNL A   1      40.364  26.187  28.136  1.00  0.00     0.016 A 
ATOM     35  C   UNL A   1      42.458  27.390  27.839  1.00  0.00     0.016 A 
ATOM     36  C   UNL A   1      40.250  26.695  29.432  1.00  0.00     0.010 A 
ATOM     37  C   UNL A   1      42.334  27.911  29.123  1.00  0.00     0.010 A 
ATOM     38  C   UNL A   1      41.216  27.590  29.912  1.00  0.00    -0.014 A 
BRANCH  38  39
ATOM     39  C   UNL A   1      40.985  28.380  31.142  1.00  0.00     0.031 A 
ATOM     40  C   UNL A   1      39.909  29.429  31.106  1.00  0.00     0.074 A 
ATOM     41  C   UNL A   1      41.763  28.230  32.228  1.00  0.00     0.049 A 
ATOM     42  N   UNL A   1      39.644  30.371  31.968  1.00  0.00    -0.248 NA
ATOM     43  C   UNL A   1      39.026  29.419  29.926  1.00  0.00     0.031 C 
ATOM     44  C   UNL A   1      42.805  27.220  32.394  1.00  0.00     0.029 A 
ATOM     45  N   UNL A   1      41.808  28.960  33.389  1.00  0.00    -0.354 N 
ATOM     46  C   UNL A   1      38.577  31.079  31.430  1.00  0.00     0.074 A 
ATOM     47  C   UNL A   1      38.251  30.465  30.162  1.00  0.00     0.031 C 
ATOM     48  C   UNL A   1      43.407  27.410  33.583  1.00  0.00     0.029 A 
ATOM     49  C   UNL A   1      42.823  28.581  34.235  1.00  0.00     0.049 A 
ATOM     50  H   UNL A   1      41.176  29.685  33.596  1.00  0.00     0.167 HD
ATOM     51  C   UNL A   1      37.932  32.153  31.941  1.00  0.00     0.031 A 
ATOM     52  C   UNL A   1      43.252  29.141  35.384  1.00  0.00     0.031 A 
ATOM     53  C   UNL A   1      38.280  32.777  33.186  1.00  0.00     0.049 A 
ATOM     54  C   UNL A   1      42.568  30.382  35.900  1.00  0.00     0.074 A 
ATOM     55  C   UNL A   1      37.696  33.876  33.790  1.00  0.00     0.029 A 
ATOM     56  N   UNL A   1      39.310  32.360  34.014  1.00  0.00    -0.354 N 
ATOM     57  N   UNL A   1      41.557  31.040  35.386  1.00  0.00    -0.248 NA
ATOM     58  C   UNL A   1      43.084  30.958  37.152  1.00  0.00     0.031 C 
ATOM     59  C   UNL A   1      38.402  34.148  34.966  1.00  0.00     0.029 A 
ATOM     60  C   UNL A   1      39.390  33.186  35.119  1.00  0.00     0.049 A 
ATOM     61  H   UNL A   1      39.899  31.589  33.840  1.00  0.00     0.167 HD
ATOM     62  C   UNL A   1      41.292  32.084  36.268  1.00  0.00     0.074 A 
ATOM     63  C   UNL A   1      42.252  31.972  37.347  1.00  0.00     0.031 C 
ATOM     64  C   UNL A   1      40.337  33.042  36.195  1.00  0.00     0.031 A 
BRANCH  51  65
ATOM     65  C   UNL A   1      36.817  32.740  31.123  1.00  0.00    -0.014 A 
ATOM     66  C   UNL A   1      35.499  32.265  31.245  1.00  0.00     0.010 A 
ATOM     67  C   UNL A   1      37.089  33.790  30.227  1.00  0.00     0.010 A 
ATOM     68  C   UNL A   1      34.480  32.802  30.455  1.00  0.00     0.020 A 
ATOM     69  C   UNL A   1      36.067  34.347  29.454  1.00  0.00     0.020 A 
ATOM     70  C   UNL A   1      34.772  33.836  29.559  1.00  0.00     0.054 A 
BRANCH  70  71
ATOM     71  S   UNL A   1      33.430  34.522  28.553  1.00  0.00     0.124 S 
ATOM     72  O   UNL A   1      32.975  33.346  27.816  1.00  0.00    -0.237 OA
ATOM     73  O   UNL A   1      32.500  35.031  29.558  1.00  0.00    -0.237 OA
ATOM     74  O   UNL A   1      34.091  35.546  27.746  1.00  0.00    -0.744 OA
ENDBRANCH  70  71
ENDBRANCH  51  65
BRANCH  52  75
ATOM     75  C   UNL A   1      44.407  28.552  36.114  1.00  0.00    -0.014 A 
ATOM     76  C   UNL A   1      45.724  28.825  35.703  1.00  0.00     0.010 A 
ATOM     77  C   UNL A   1      44.197  27.716  37.227  1.00  0.00     0.010 A 
ATOM     78  C   UNL A   1      46.809  28.260  36.382  1.00  0.00     0.020 A 
ATOM     79  C   UNL A   1      45.280  27.170  37.923  1.00  0.00     0.020 A 
ATOM     80  C   UNL A   1      46.580  27.438  37.489  1.00  0.00     0.054 A 
BRANCH  80  81
ATOM     81  S   UNL A   1      48.004  26.760  38.388  1.00  0.00     0.124 S 
ATOM     82  O   UNL A   1      48.559  25.825  37.415  1.00  0.00    -0.237 OA
ATOM     83  O   UNL A   1      48.808  27.952  38.651  1.00  0.00    -0.237 OA
ATOM     84  O   UNL A   1      47.401  26.151  39.571  1.00  0.00    -0.744 OA
ENDBRANCH  80  81
ENDBRANCH  52  75
BRANCH  64  85
ATOM     85  C   UNL A   1      40.224  34.017  37.335  1.00  0.00    -0.014 A 
ATOM     86  C   UNL A   1      40.753  35.314  37.243  1.00  0.00     0.010 A 
ATOM     87  C   UNL A   1      39.465  33.660  38.466  1.00  0.00     0.010 A 
ATOM     88  C   UNL A   1      40.525  36.240  38.265  1.00  0.00     0.020 A 
ATOM     89  C   UNL A   1      39.219  34.589  39.478  1.00  0.00     0.020 A 
ATOM     90  C   UNL A   1      39.753  35.874  39.373  1.00  0.00     0.054 A 
BRANCH  90  91
ATOM     91  S   UNL A   1      39.391  37.121  40.641  1.00  0.00     0.124 S 
ATOM     92  O   UNL A   1      38.914  38.241  39.838  1.00  0.00    -0.237 OA
ATOM     93  O   UNL A   1      38.379  36.459  41.462  1.00  0.00    -0.237 OA
ATOM     94  O   UNL A   1      40.679  37.328  41.300  1.00  0.00    -0.744 OA
ENDBRANCH  90  91
ENDBRANCH  64  85
ENDBRANCH  38  39
ENDBRANCH  31  33
ENDBRANCH  30  31
ENDBRANCH  29  30
ENDBRANCH  28  29
ENDBRANCH  27  28
ENDBRANCH  26  27
ENDBRANCH  25  26
ENDBRANCH  24  25
ENDBRANCH   1  24
TORSDOF 27
ENDMDL
MODEL 2
REMARK VINA RESULT:      -8.7      6.709      7.900
REMARK SMILES CCc1ccccc1SCc1ccc(C(=O)OCCOCCOCCOCCOC(=O)c2ccc(-c3c4nc(c(-c5ccc(S(=O)(=O)[O-])cc5)c5ccc([nH]5)c(-c5ccc(S(=O)(=O)[O-])cc5)c5nc(c(-c6ccc(S(=O)(=O)[O-])cc6)c6ccc3[nH]6)C=C5)C=C4)cc2)o1
REMARK SMILES IDX 22 1 21 2 20 3 19 4 18 5 17 6 15 7 16 8 14 9 11 10 12 11
REMARK SMILES IDX 92 12 13 13 10 14 9 15 8 16 3 17 4 18 5 19 7 20 6 21 2 22
REMARK SMILES IDX 1 23 23 24 24 25 25 26 26 27 27 28 28 29 29 30 30 31 31 32
REMARK SMILES IDX 32 33 33 34 91 35 34 36 90 37 35 38 36 39 37 40 84 41 38 42
REMARK SMILES IDX 89 43 83 44 85 45 39 46 88 47 82 48 81 49 40 51 70 52 51 53
REMARK SMILES IDX 69 54 52 55 55 56 68 57 86 58 53 59 54 60 67 62 87 63 56 64
REMARK SMILES IDX 41 65 42 66 50 67 43 68 49 69 44 70 45 71 46 72 47 73 48 74
REMARK SMILES IDX 71 75 72 76 80 77 73 78 79 79 74 80 75 81 76 82 77 83 78 84
REMARK SMILES IDX 57 85 58 86 66 87 59 88 65 89 60 90 61 91 62 92 63 93 64 94
REMARK H PARENT 85 50 55 61
REMARK Flexibility Score: inf
ROOT
ATOM      1  C   UNL A   1      42.554  18.460  26.199  1.00  0.00     0.188 C 
ENDROOT
BRANCH   1   2
ATOM      2  C   UNL A   1      41.954  19.669  26.931  1.00  0.00     0.188 C 
BRANCH   2   3
ATOM      3  O   UNL A   1      40.784  20.197  26.311  1.00  0.00    -0.376 OA
BRANCH   3   4
ATOM      4  C   UNL A   1      40.339  21.457  26.794  1.00  0.00     0.202 C 
BRANCH   4   5
ATOM      5  C   UNL A   1      39.297  22.126  25.888  1.00  0.00     0.261 C 
BRANCH   5   6
ATOM      6  O   UNL A   1      37.934  21.795  26.185  1.00  0.00    -0.457 OA
BRANCH   6   7
ATOM      7  C   UNL A   1      37.274  20.996  25.306  1.00  0.00     0.374 C 
ATOM      8  O   UNL A   1      37.774  20.047  24.713  1.00  0.00    -0.242 OA
BRANCH   7   9
ATOM      9  C   UNL A   1      35.883  21.369  25.303  1.00  0.00     0.211 A 
ATOM     10  C   UNL A   1      34.178  22.720  25.721  1.00  0.00     0.115 A 
ATOM     11  C   UNL A   1      33.692  21.691  24.941  1.00  0.00     0.047 A 
ATOM     12  O   UNL A   1      35.505  22.498  25.978  1.00  0.00    -0.453 OA
ATOM     13  C   UNL A   1      34.788  20.847  24.644  1.00  0.00     0.058 A 
BRANCH  10  14
ATOM     14  C   UNL A   1      33.662  24.014  26.241  1.00  0.00     0.150 C 
BRANCH  14  15
ATOM     15  S   UNL A   1      32.275  24.805  25.382  1.00  0.00    -0.118 SA
BRANCH  15  16
ATOM     16  C   UNL A   1      32.911  26.309  24.640  1.00  0.00     0.011 A 
ATOM     17  C   UNL A   1      33.278  27.519  25.266  1.00  0.00    -0.035 A 
ATOM     18  C   UNL A   1      33.788  28.565  24.460  1.00  0.00     0.005 A 
ATOM     19  C   UNL A   1      33.905  28.439  23.076  1.00  0.00     0.000 A 
ATOM     20  C   UNL A   1      33.011  26.217  23.234  1.00  0.00     0.015 A 
ATOM     21  C   UNL A   1      33.504  27.265  22.460  1.00  0.00     0.001 A 
BRANCH  17  22
ATOM     22  C   UNL A   1      33.184  27.807  26.747  1.00  0.00     0.033 C 
ATOM     23  C   UNL A   1      31.777  28.138  27.219  1.00  0.00     0.009 C 
ENDBRANCH  17  22
ENDBRANCH  15  16
ENDBRANCH  14  15
ENDBRANCH  10  14
ENDBRANCH   7   9
ENDBRANCH   6   7
ENDBRANCH   5   6
ENDBRANCH   4   5
ENDBRANCH   3   4
ENDBRANCH   2   3
ENDBRANCH   1   2
BRANCH   1  24
ATOM     24  O   UNL A   1      43.526  18.730  25.206  1.00  0.00    -0.377 OA
BRANCH  24  25
ATOM     25  C   UNL A   1      44.419  19.828  25.371  1.00  0.00     0.188 C 
BRANCH  25  26
ATOM     26  C   UNL A   1      44.960  20.653  24.182  1.00  0.00     0.188 C 
BRANCH  26  27
ATOM     27  O   UNL A   1      44.197  21.813  23.864  1.00  0.00    -0.376 OA
BRANCH  27  28
ATOM     28  C   UNL A   1      43.594  22.473  24.969  1.00  0.00     0.202 C 
BRANCH  28  29
ATOM     29  C   UNL A   1      43.747  23.995  24.888  1.00  0.00     0.261 C 
BRANCH  29  30
ATOM     30  O   UNL A   1      45.096  24.448  24.705  1.00  0.00    -0.460 OA
BRANCH  30  31
ATOM     31  C   UNL A   1      45.913  24.391  25.780  1.00  0.00     0.338 C 
ATOM     32  O   UNL A   1      46.505  23.419  26.211  1.00  0.00    -0.246 OA
BRANCH  31  33
ATOM     33  C   UNL A   1      46.096  25.769  26.266  1.00  0.00     0.060 A 
ATOM     34  C   UNL A   1      46.609  25.983  27.551  1.00  0.00     0.016 A 
ATOM     35  C   UNL A   1      45.759  26.843  25.440  1.00  0.00     0.016 A 
ATOM     36  C   UNL A   1      46.758  27.286  28.028  1.00  0.00     0.010 A 
ATOM     37  C   UNL A   1      45.890  28.141  25.923  1.00  0.00     0.010 A 
ATOM     38  C   UNL A   1      46.360  28.366  27.229  1.00  0.00    -0.014 A 
BRANCH  38  39
ATOM     39  C   UNL A   1      46.214  29.726  27.794  1.00  0.00     0.031 A 
ATOM     40  C   UNL A   1      44.937  30.048  28.518  1.00  0.00     0.074 A 
ATOM     41  C   UNL A   1      47.149  30.672  27.596  1.00  0.00     0.049 A 
ATOM     42  N   UNL A   1      44.487  31.202  28.928  1.00  0.00    -0.248 NA
ATOM     43  C   UNL A   1      44.043  28.912  28.802  1.00  0.00     0.031 C 
ATOM     44  C   UNL A   1      48.442  30.466  26.948  1.00  0.00     0.029 A 
ATOM     45  N   UNL A   1      47.130  32.010  27.899  1.00  0.00    -0.354 N 
ATOM     46  C   UNL A   1      43.250  30.937  29.501  1.00  0.00     0.074 A 
ATOM     47  C   UNL A   1      43.015  29.515  29.376  1.00  0.00     0.031 C 
ATOM     48  C   UNL A   1      49.086  31.646  26.881  1.00  0.00     0.029 A 
ATOM     49  C   UNL A   1      48.230  32.692  27.437  1.00  0.00     0.049 A 
ATOM     50  H   UNL A   1      46.400  32.439  28.400  1.00  0.00     0.167 HD
ATOM     51  C   UNL A   1      42.380  31.802  30.070  1.00  0.00     0.031 A 
ATOM     52  C   UNL A   1      48.493  34.015  27.431  1.00  0.00     0.031 A 
ATOM     53  C   UNL A   1      42.605  33.217  30.164  1.00  0.00     0.049 A 
ATOM     54  C   UNL A   1      47.478  34.972  28.004  1.00  0.00     0.074 A 
ATOM     55  C   UNL A   1      41.784  34.184  30.714  1.00  0.00     0.029 A 
ATOM     56  N   UNL A   1      43.732  33.867  29.687  1.00  0.00    -0.354 N 
ATOM     57  N   UNL A   1      46.313  34.710  28.547  1.00  0.00    -0.248 NA
ATOM     58  C   UNL A   1      47.812  36.404  27.961  1.00  0.00     0.031 C 
ATOM     59  C   UNL A   1      42.398  35.427  30.533  1.00  0.00     0.029 A 
ATOM     60  C   UNL A   1      43.625  35.226  29.918  1.00  0.00     0.049 A 
ATOM     61  H   UNL A   1      44.497  33.427  29.249  1.00  0.00     0.167 HD
ATOM     62  C   UNL A   1      45.793  35.938  28.944  1.00  0.00     0.074 A 
ATOM     63  C   UNL A   1      46.767  36.944  28.575  1.00  0.00     0.031 C 
ATOM     64  C   UNL A   1      44.619  36.207  29.565  1.00  0.00     0.031 A 
BRANCH  51  65
ATOM     65  C   UNL A   1      41.089  31.238  30.592  1.00  0.00    -0.014 A 
ATOM     66  C   UNL A   1      41.002  30.702  31.889  1.00  0.00     0.010 A 
ATOM     67  C   UNL A   1      39.943  31.255  29.777  1.00  0.00     0.010 A 
ATOM     68  C   UNL A   1      39.802  30.154  32.347  1.00  0.00     0.020 A 
ATOM     69  C   UNL A   1      38.734  30.731  30.241  1.00  0.00     0.020 A 
ATOM     70  C   UNL A   1      38.676  30.167  31.517  1.00  0.00     0.054 A 
BRANCH  70  71
ATOM     71  S   UNL A   1      37.127  29.458  32.138  1.00  0.00     0.124 S 
ATOM     72  O   UNL A   1      36.539  30.593  32.844  1.00  0.00    -0.237 OA
ATOM     73  O   UNL A   1      36.441  29.057  30.913  1.00  0.00    -0.237 OA
ATOM     74  O   UNL A   1      37.568  28.355  32.990  1.00  0.00    -0.744 OA
ENDBRANCH  70  71
ENDBRANCH  51  65
BRANCH  52  75
ATOM     75  C   UNL A   1      49.761  34.519  26.837  1.00  0.00    -0.014 A 
ATOM     76  C   UNL A   1      50.909  34.674  27.635  1.00  0.00     0.010 A 
ATOM     77  C   UNL A   1      49.828  34.846  25.470  1.00  0.00     0.010 A 
ATOM     78  C   UNL A   1      52.097  35.161  27.079  1.00  0.00     0.020 A 
ATOM     79  C   UNL A   1      51.021  35.310  24.906  1.00  0.00     0.020 A 
ATOM     80  C   UNL A   1      52.146  35.473  25.718  1.00  0.00     0.054 A 
BRANCH  80  81
ATOM     81  S   UNL A   1      53.713  36.051  25.006  1.00  0.00     0.124 S 
ATOM     82  O   UNL A   1      53.344  36.289  23.614  1.00  0.00    -0.237 OA
ATOM     83  O   UNL A   1      53.998  37.245  25.799  1.00  0.00    -0.237 OA
ATOM     84  O   UNL A   1      54.623  34.930  25.231  1.00  0.00    -0.744 OA
ENDBRANCH  80  81
ENDBRANCH  52  75
BRANCH  64  85
ATOM     85  C   UNL A   1      44.333  37.632  29.950  1.00  0.00    -0.014 A 
ATOM     86  C   UNL A   1      43.598  38.485  29.110  1.00  0.00     0.010 A 
ATOM     87  C   UNL A   1      44.703  38.080  31.233  1.00  0.00     0.010 A 
ATOM     88  C   UNL A   1      43.239  39.763  29.546  1.00  0.00     0.020 A 
ATOM     89  C   UNL A   1      44.329  39.349  31.678  1.00  0.00     0.020 A 
ATOM     90  C   UNL A   1      43.600  40.185  30.830  1.00  0.00     0.054 A 
BRANCH  90  91
ATOM     91  S   UNL A   1      43.041  41.811  31.409  1.00  0.00     0.124 S 
ATOM     92  O   UNL A   1      43.343  41.747  32.835  1.00  0.00    -0.237 OA
ATOM     93  O   UNL A   1      43.869  42.731  30.632  1.00  0.00    -0.237 OA
ATOM     94  O   UNL A   1      41.619  41.828  31.072  1.00  0.00    -0.744 OA
ENDBRANCH  90  91
ENDBRANCH  64  85
ENDBRANCH  38  39
ENDBRANCH  31  33
ENDBRANCH  30  31
ENDBRANCH  29  30
ENDBRANCH  28  29
ENDBRANCH  27  28
ENDBRANCH  26  27
ENDBRANCH  25  26
ENDBRANCH  24  25
ENDBRANCH   1  24
TORSDOF 27
ENDMDL
MODEL 3
REMARK VINA RESULT:      -8.4      1.508      2.107
REMARK SMILES CCc1ccccc1SCc1ccc(C(=O)OCCOCCOCCOCCOC(=O)c2ccc(-c3c4nc(c(-c5ccc(S(=O)(=O)[O-])cc5)c5ccc([nH]5)c(-c5ccc(S(=O)(=O)[O-])cc5)c5nc(c(-c6ccc(S(=O)(=O)[O-])cc6)c6ccc3[nH]6)C=C5)C=C4)cc2)o1
REMARK SMILES IDX 22 1 21 2 20 3 19 4 18 5 17 6 15 7 16 8 14 9 11 10 12 11
REMARK SMILES IDX 92 12 13 13 10 14 9 15 8 16 3 17 4 18 5 19 7 20 6 21 2 22
REMARK SMILES IDX 1 23 23 24 24 25 25 26 26 27 27 28 28 29 29 30 30 31 31 32
REMARK SMILES IDX 32 33 33 34 91 35 34 36 90 37 35 38 36 39 37 40 84 41 38 42
REMARK SMILES IDX 89 43 83 44 85 45 39 46 88 47 82 48 81 49 40 51 70 52 51 53
REMARK SMILES IDX 69 54 52 55 55 56 68 57 86 58 53 59 54 60 67 62 87 63 56 64
REMARK SMILES IDX 41 65 42 66 50 67 43 68 49 69 44 70 45 71 46 72 47 73 48 74
REMARK SMILES IDX 71 75 72 76 80 77 73 78 79 79 74 80 75 81 76 82 77 83 78 84
REMARK SMILES IDX 57 85 58 86 66 87 59 88 65 89 60 90 61 91 62 92 63 93 64 94
REMARK H PARENT 85 50 55 61
REMARK Flexibility Score: inf
ROOT
ATOM      1  C   UNL A   1      42.098  19.792  25.985  1.00  0.00     0.188 C 
ENDROOT
BRANCH   1   2
ATOM      2  C   UNL A   1      41.344  20.042  27.300  1.00  0.00     0.188 C 
BRANCH   2   3
ATOM      3  O   UNL A   1      40.167  20.831  27.149  1.00  0.00    -0.376 OA
BRANCH   3   4
ATOM      4  C   UNL A   1      40.194  21.797  26.107  1.00  0.00     0.202 C 
BRANCH   4   5
ATOM      5  C   UNL A   1      39.030  22.794  26.167  1.00  0.00     0.261 C 
BRANCH   5   6
ATOM      6  O   UNL A   1      37.729  22.200  26.277  1.00  0.00    -0.457 OA
BRANCH   6   7
ATOM      7  C   UNL A   1      36.963  22.150  25.156  1.00  0.00     0.374 C 
ATOM      8  O   UNL A   1      37.107  21.341  24.246  1.00  0.00    -0.242 OA
BRANCH   7   9
ATOM      9  C   UNL A   1      35.891  23.104  25.291  1.00  0.00     0.211 A 
ATOM     10  C   UNL A   1      34.433  24.587  24.531  1.00  0.00     0.115 A 
ATOM     11  C   UNL A   1      34.103  24.339  25.848  1.00  0.00     0.047 A 
ATOM     12  O   UNL A   1      35.551  23.866  24.207  1.00  0.00    -0.453 OA
ATOM     13  C   UNL A   1      35.012  23.365  26.323  1.00  0.00     0.058 A 
BRANCH  10  14
ATOM     14  C   UNL A   1      33.834  25.334  23.393  1.00  0.00     0.150 C 
BRANCH  14  15
ATOM     15  S   UNL A   1      33.685  27.137  23.518  1.00  0.00    -0.118 SA
BRANCH  15  16
ATOM     16  C   UNL A   1      32.851  27.484  25.067  1.00  0.00     0.011 A 
ATOM     17  C   UNL A   1      31.541  27.143  25.463  1.00  0.00    -0.035 A 
ATOM     18  C   UNL A   1      31.116  27.507  26.763  1.00  0.00     0.005 A 
ATOM     19  C   UNL A   1      31.941  28.214  27.638  1.00  0.00     0.000 A 
ATOM     20  C   UNL A   1      33.656  28.227  25.959  1.00  0.00     0.015 A 
ATOM     21  C   UNL A   1      33.212  28.586  27.230  1.00  0.00     0.001 A 
BRANCH  17  22
ATOM     22  C   UNL A   1      30.531  26.403  24.618  1.00  0.00     0.033 C 
ATOM     23  C   UNL A   1      30.363  26.976  23.220  1.00  0.00     0.009 C 
ENDBRANCH  17  22
ENDBRANCH  15  16
ENDBRANCH  14  15
ENDBRANCH  10  14
ENDBRANCH   7   9
ENDBRANCH   6   7
ENDBRANCH   5   6
ENDBRANCH   4   5
ENDBRANCH   3   4
ENDBRANCH   2   3
ENDBRANCH   1   2
BRANCH   1  24
ATOM     24  O   UNL A   1      43.361  20.415  25.842  1.00  0.00    -0.377 OA
BRANCH  24  25
ATOM     25  C   UNL A   1      43.695  21.532  26.662  1.00  0.00     0.188 C 
BRANCH  25  26
ATOM     26  C   UNL A   1      44.815  22.531  26.299  1.00  0.00     0.188 C 
BRANCH  26  27
ATOM     27  O   UNL A   1      44.723  23.081  24.988  1.00  0.00    -0.376 OA
BRANCH  27  28
ATOM     28  C   UNL A   1      43.441  23.571  24.616  1.00  0.00     0.202 C 
BRANCH  28  29
ATOM     29  C   UNL A   1      42.834  24.477  25.691  1.00  0.00     0.261 C 
BRANCH  29  30
ATOM     30  O   UNL A   1      43.259  25.846  25.623  1.00  0.00    -0.460 OA
BRANCH  30  31
ATOM     31  C   UNL A   1      44.237  26.228  26.475  1.00  0.00     0.338 C 
ATOM     32  O   UNL A   1      45.436  26.063  26.347  1.00  0.00    -0.246 OA
BRANCH  31  33
ATOM     33  C   UNL A   1      43.608  27.032  27.535  1.00  0.00     0.060 A 
ATOM     34  C   UNL A   1      43.707  28.428  27.490  1.00  0.00     0.016 A 
ATOM     35  C   UNL A   1      42.920  26.395  28.569  1.00  0.00     0.016 A 
ATOM     36  C   UNL A   1      43.137  29.195  28.508  1.00  0.00     0.010 A 
ATOM     37  C   UNL A   1      42.368  27.158  29.593  1.00  0.00     0.010 A 
ATOM     38  C   UNL A   1      42.502  28.558  29.583  1.00  0.00    -0.014 A 
BRANCH  38  39
ATOM     39  C   UNL A   1      42.156  29.297  30.816  1.00  0.00     0.031 A 
ATOM     40  C   UNL A   1      40.918  30.150  30.795  1.00  0.00     0.074 A 
ATOM     41  C   UNL A   1      42.960  29.281  31.893  1.00  0.00     0.049 A 
ATOM     42  N   UNL A   1      40.508  31.034  31.662  1.00  0.00    -0.248 NA
ATOM     43  C   UNL A   1      40.035  29.990  29.626  1.00  0.00     0.031 C 
ATOM     44  C   UNL A   1      44.160  28.462  32.045  1.00  0.00     0.029 A 
ATOM     45  N   UNL A   1      42.896  30.009  33.055  1.00  0.00    -0.354 N 
ATOM     46  C   UNL A   1      39.330  31.552  31.138  1.00  0.00     0.074 A 
ATOM     47  C   UNL A   1      39.097  30.891  29.873  1.00  0.00     0.031 C 
ATOM     48  C   UNL A   1      44.736  28.751  33.227  1.00  0.00     0.029 A 
ATOM     49  C   UNL A   1      43.971  29.807  33.888  1.00  0.00     0.049 A 
ATOM     50  H   UNL A   1      42.153  30.617  33.270  1.00  0.00     0.167 HD
ATOM     51  C   UNL A   1      38.520  32.502  31.658  1.00  0.00     0.031 A 
ATOM     52  C   UNL A   1      44.313  30.432  35.033  1.00  0.00     0.031 A 
ATOM     53  C   UNL A   1      38.772  33.175  32.900  1.00  0.00     0.049 A 
ATOM     54  C   UNL A   1      43.435  31.539  35.559  1.00  0.00     0.074 A 
ATOM     55  C   UNL A   1      38.019  34.160  33.513  1.00  0.00     0.029 A 
ATOM     56  N   UNL A   1      39.868  32.939  33.715  1.00  0.00    -0.354 N 
ATOM     57  N   UNL A   1      42.322  32.018  35.057  1.00  0.00    -0.248 NA
ATOM     58  C   UNL A   1      43.862  32.195  36.805  1.00  0.00     0.031 C 
ATOM     59  C   UNL A   1      38.683  34.548  34.681  1.00  0.00     0.029 A 
ATOM     60  C   UNL A   1      39.821  33.767  34.820  1.00  0.00     0.049 A 
ATOM     61  H   UNL A   1      40.576  32.279  33.533  1.00  0.00     0.167 HD
ATOM     62  C   UNL A   1      41.896  33.002  35.945  1.00  0.00     0.074 A 
ATOM     63  C   UNL A   1      42.873  33.054  37.012  1.00  0.00     0.031 C 
ATOM     64  C   UNL A   1      40.792  33.785  35.884  1.00  0.00     0.031 A 
BRANCH  51  65
ATOM     65  C   UNL A   1      37.312  32.892  30.854  1.00  0.00    -0.014 A 
ATOM     66  C   UNL A   1      36.038  32.385  31.166  1.00  0.00     0.010 A 
ATOM     67  C   UNL A   1      37.451  33.787  29.779  1.00  0.00     0.010 A 
ATOM     68  C   UNL A   1      34.931  32.734  30.389  1.00  0.00     0.020 A 
ATOM     69  C   UNL A   1      36.341  34.159  29.016  1.00  0.00     0.020 A 
ATOM     70  C   UNL A   1      35.091  33.616  29.315  1.00  0.00     0.054 A 
BRANCH  70  71
ATOM     71  S   UNL A   1      33.636  34.061  28.329  1.00  0.00     0.124 S 
ATOM     72  O   UNL A   1      34.171  35.103  27.458  1.00  0.00    -0.237 OA
ATOM     73  O   UNL A   1      33.296  32.803  27.669  1.00  0.00    -0.237 OA
ATOM     74  O   UNL A   1      32.669  34.518  29.326  1.00  0.00    -0.744 OA
ENDBRANCH  70  71
ENDBRANCH  51  65
BRANCH  52  75
ATOM     75  C   UNL A   1      45.559  30.046  35.748  1.00  0.00    -0.014 A 
ATOM     76  C   UNL A   1      46.777  30.683  35.451  1.00  0.00     0.010 A 
ATOM     77  C   UNL A   1      45.536  29.041  36.732  1.00  0.00     0.010 A 
ATOM     78  C   UNL A   1      47.951  30.311  36.114  1.00  0.00     0.020 A 
ATOM     79  C   UNL A   1      46.703  28.684  37.415  1.00  0.00     0.020 A 
ATOM     80  C   UNL A   1      47.906  29.316  37.094  1.00  0.00     0.054 A 
BRANCH  80  81
ATOM     81  S   UNL A   1      49.431  28.887  37.981  1.00  0.00     0.124 S 
ATOM     82  O   UNL A   1      49.181  27.500  38.361  1.00  0.00    -0.237 OA
ATOM     83  O   UNL A   1      50.457  29.089  36.961  1.00  0.00    -0.237 OA
ATOM     84  O   UNL A   1      49.463  29.844  39.085  1.00  0.00    -0.744 OA
ENDBRANCH  80  81
ENDBRANCH  52  75
BRANCH  64  85
ATOM     85  C   UNL A   1      40.529  34.727  37.027  1.00  0.00    -0.014 A 
ATOM     86  C   UNL A   1      41.135  35.993  37.086  1.00  0.00     0.010 A 
ATOM     87  C   UNL A   1      39.562  34.380  37.990  1.00  0.00     0.010 A 
ATOM     88  C   UNL A   1      40.779  36.897  38.091  1.00  0.00     0.020 A 
ATOM     89  C   UNL A   1      39.189  35.289  38.982  1.00  0.00     0.020 A 
ATOM     90  C   UNL A   1      39.803  36.542  39.028  1.00  0.00     0.054 A 
BRANCH  90  91
ATOM     91  S   UNL A   1      39.288  37.766  40.265  1.00  0.00     0.124 S 
ATOM     92  O   UNL A   1      40.489  38.583  40.403  1.00  0.00    -0.237 OA
ATOM     93  O   UNL A   1      38.153  38.421  39.616  1.00  0.00    -0.237 OA
ATOM     94  O   UNL A   1      38.946  36.957  41.432  1.00  0.00    -0.744 OA
ENDBRANCH  90  91
ENDBRANCH  64  85
ENDBRANCH  38  39
ENDBRANCH  31  33
ENDBRANCH  30  31
ENDBRANCH  29  30
ENDBRANCH  28  29
ENDBRANCH  27  28
ENDBRANCH  26  27
ENDBRANCH  25  26
ENDBRANCH  24  25
ENDBRANCH   1  24
TORSDOF 27
ENDMDL
