MODEL 1
REMARK VINA RESULT:      -9.5      0.000      0.000
REMARK SMILES CC(C)NC(=O)c1cccc(NC(=O)[C@@H]2[C@H](C(=O)OCCOCCOCCOCCOC(=O)c3ccc(-c4c5nc(c(-c6ccc(S(=O)(=O)[O-])cc6)c6ccc([nH]6)c(-c6ccc(S(=O)(=O)[O-])cc6)c6nc(c(-c7ccc(S(=O)(=O)[O-])cc7)c7ccc4[nH]7)C=C6)C=C5)cc3)C2(C)C)c1
REMARK SMILES IDX 24 1 23 2 22 3 21 4 20 5 19 6 17 7 18 8 16 9 15 10 94 11
REMARK SMILES IDX 95 12 96 13 13 14 12 15 14 17 11 18 7 19 8 20 97 21 9 22
REMARK SMILES IDX 10 23 5 24 4 25 6 27 2 28 1 29 3 30 25 31 26 32 27 33 28 34
REMARK SMILES IDX 29 35 30 36 31 37 32 38 33 39 34 40 35 41 93 42 36 43 92 44
REMARK SMILES IDX 37 45 38 46 39 47 86 48 40 49 91 50 85 51 87 52 41 53 90 54
REMARK SMILES IDX 84 55 83 56 42 58 72 59 53 60 71 61 54 62 57 63 70 64 88 65
REMARK SMILES IDX 55 66 56 67 69 69 89 70 58 71 43 72 44 73 52 74 45 75 51 76
REMARK SMILES IDX 46 77 47 78 48 79 49 80 50 81 73 82 74 83 82 84 75 85 81 86
REMARK SMILES IDX 76 87 77 88 78 89 79 90 80 91 59 92 60 93 68 94 61 95 67 96
REMARK SMILES IDX 62 97 63 98 64 99 65 100 66 101
REMARK H PARENT 12 16 4 26 87 57 57 68
REMARK Flexibility Score: inf
ROOT
ATOM      1  C   UNL A   1      40.391  21.313  26.122  1.00  0.00     0.188 C 
ENDROOT
BRANCH   1   2
ATOM      2  C   UNL A   1      39.013  21.889  26.516  1.00  0.00     0.188 C 
BRANCH   2   3
ATOM      3  O   UNL A   1      38.595  22.996  25.760  1.00  0.00    -0.376 OA
BRANCH   3   4
ATOM      4  C   UNL A   1      37.275  23.475  25.779  1.00  0.00     0.202 C 
BRANCH   4   5
ATOM      5  C   UNL A   1      36.381  23.799  24.573  1.00  0.00     0.261 C 
BRANCH   5   6
ATOM      6  O   UNL A   1      35.140  24.498  24.654  1.00  0.00    -0.463 OA
BRANCH   6   7
ATOM      7  C   UNL A   1      34.449  24.666  23.504  1.00  0.00     0.310 C 
ATOM      8  O   UNL A   1      34.371  23.871  22.577  1.00  0.00    -0.252 OA
BRANCH   7   9
ATOM      9  C   UNL A   1      33.638  25.871  23.478  1.00  0.00     0.118 C 
ATOM     10  C   UNL A   1      32.205  25.990  23.854  1.00  0.00     0.100 C 
ATOM     11  C   UNL A   1      33.242  26.638  24.771  1.00  0.00    -0.009 C 
ATOM     12  C   UNL A   1      33.694  28.087  24.688  1.00  0.00     0.013 C 
ATOM     13  C   UNL A   1      33.193  26.222  26.216  1.00  0.00     0.013 C 
BRANCH  10  14
ATOM     14  C   UNL A   1      31.278  24.801  23.942  1.00  0.00     0.228 C 
ATOM     15  N   UNL A   1      31.387  23.513  24.443  1.00  0.00    -0.326 N 
ATOM     16  H   UNL A   1      30.665  22.961  24.063  1.00  0.00     0.169 HD
ATOM     17  O   UNL A   1      30.218  24.964  23.320  1.00  0.00    -0.274 OA
BRANCH  15  18
ATOM     18  C   UNL A   1      32.164  22.711  25.306  1.00  0.00     0.041 A 
ATOM     19  C   UNL A   1      33.937  21.042  25.583  1.00  0.00     0.041 A 
ATOM     20  C   UNL A   1      34.004  21.303  26.951  1.00  0.00     0.014 A 
ATOM     21  C   UNL A   1      33.017  21.737  24.762  1.00  0.00     0.040 A 
ATOM     22  C   UNL A   1      33.088  22.166  27.504  1.00  0.00     0.003 A 
ATOM     23  C   UNL A   1      32.152  22.794  26.678  1.00  0.00     0.026 A 
BRANCH  19  24
ATOM     24  C   UNL A   1      34.836  19.968  25.117  1.00  0.00     0.251 C 
ATOM     25  N   UNL A   1      34.361  18.758  24.708  1.00  0.00    -0.350 N 
ATOM     26  H   UNL A   1      35.053  18.123  24.412  1.00  0.00     0.164 HD
ATOM     27  O   UNL A   1      36.043  20.195  25.040  1.00  0.00    -0.269 OA
BRANCH  25  28
ATOM     28  C   UNL A   1      33.000  18.249  24.636  1.00  0.00     0.076 C 
ATOM     29  C   UNL A   1      32.701  17.776  23.218  1.00  0.00     0.030 C 
ATOM     30  C   UNL A   1      32.846  17.121  25.649  1.00  0.00     0.030 C 
ENDBRANCH  25  28
ENDBRANCH  19  24
ENDBRANCH  15  18
ENDBRANCH  10  14
ENDBRANCH   7   9
ENDBRANCH   6   7
ENDBRANCH   5   6
ENDBRANCH   4   5
ENDBRANCH   3   4
ENDBRANCH   2   3
ENDBRANCH   1   2
BRANCH   1  31
ATOM     31  O   UNL A   1      41.350  21.068  27.143  1.00  0.00    -0.377 OA
BRANCH  31  32
ATOM     32  C   UNL A   1      41.873  22.152  27.909  1.00  0.00     0.188 C 
BRANCH  32  33
ATOM     33  C   UNL A   1      42.891  23.151  27.303  1.00  0.00     0.188 C 
BRANCH  33  34
ATOM     34  O   UNL A   1      43.290  22.874  25.975  1.00  0.00    -0.376 OA
BRANCH  34  35
ATOM     35  C   UNL A   1      43.468  23.936  25.061  1.00  0.00     0.202 C 
BRANCH  35  36
ATOM     36  C   UNL A   1      43.790  25.334  25.604  1.00  0.00     0.261 C 
BRANCH  36  37
ATOM     37  O   UNL A   1      42.870  26.381  25.272  1.00  0.00    -0.460 OA
BRANCH  37  38
ATOM     38  C   UNL A   1      41.625  26.306  25.797  1.00  0.00     0.338 C 
ATOM     39  O   UNL A   1      40.673  25.702  25.339  1.00  0.00    -0.246 OA
BRANCH  38  40
ATOM     40  C   UNL A   1      41.689  26.896  27.152  1.00  0.00     0.060 A 
ATOM     41  C   UNL A   1      41.015  26.262  28.207  1.00  0.00     0.016 A 
ATOM     42  C   UNL A   1      42.451  28.043  27.386  1.00  0.00     0.016 A 
ATOM     43  C   UNL A   1      41.076  26.792  29.495  1.00  0.00     0.010 A 
ATOM     44  C   UNL A   1      42.480  28.594  28.667  1.00  0.00     0.010 A 
ATOM     45  C   UNL A   1      41.760  27.992  29.715  1.00  0.00    -0.014 A 
BRANCH  45  46
ATOM     46  C   UNL A   1      41.508  28.748  30.962  1.00  0.00     0.031 A 
ATOM     47  C   UNL A   1      40.334  29.688  30.983  1.00  0.00     0.074 A 
ATOM     48  C   UNL A   1      42.281  28.601  32.050  1.00  0.00     0.049 A 
ATOM     49  N   UNL A   1      39.931  30.494  31.929  1.00  0.00    -0.248 NA
ATOM     50  C   UNL A   1      39.509  29.725  29.764  1.00  0.00     0.031 C 
ATOM     51  C   UNL A   1      43.415  27.686  32.166  1.00  0.00     0.029 A 
ATOM     52  N   UNL A   1      42.229  29.236  33.265  1.00  0.00    -0.354 N 
ATOM     53  C   UNL A   1      38.820  31.150  31.411  1.00  0.00     0.074 A 
ATOM     54  C   UNL A   1      38.629  30.668  30.062  1.00  0.00     0.031 C 
ATOM     55  C   UNL A   1      43.967  27.835  33.383  1.00  0.00     0.029 A 
ATOM     56  C   UNL A   1      43.249  28.880  34.114  1.00  0.00     0.049 A 
ATOM     57  H   UNL A   1      41.530  29.885  33.505  1.00  0.00     0.167 HD
ATOM     58  C   UNL A   1      38.030  32.075  32.005  1.00  0.00     0.031 A 
ATOM     59  C   UNL A   1      43.582  29.365  35.327  1.00  0.00     0.031 A 
ATOM     60  C   UNL A   1      38.245  32.570  33.339  1.00  0.00     0.049 A 
ATOM     61  C   UNL A   1      42.735  30.444  35.949  1.00  0.00     0.074 A 
ATOM     62  C   UNL A   1      37.491  33.488  34.047  1.00  0.00     0.029 A 
ATOM     63  N   UNL A   1      39.304  32.204  34.158  1.00  0.00    -0.354 N 
ATOM     64  N   UNL A   1      41.663  31.031  35.468  1.00  0.00    -0.248 NA
ATOM     65  C   UNL A   1      43.133  30.917  37.281  1.00  0.00     0.031 C 
ATOM     66  C   UNL A   1      38.137  33.735  35.262  1.00  0.00     0.029 A 
ATOM     67  C   UNL A   1      39.248  32.908  35.348  1.00  0.00     0.049 A 
ATOM     68  H   UNL A   1      39.995  31.541  33.926  1.00  0.00     0.167 HD
ATOM     69  C   UNL A   1      41.245  31.926  36.448  1.00  0.00     0.074 A 
ATOM     70  C   UNL A   1      42.173  31.792  37.554  1.00  0.00     0.031 C 
ATOM     71  C   UNL A   1      40.187  32.776  36.436  1.00  0.00     0.031 A 
BRANCH  58  72
ATOM     72  C   UNL A   1      36.910  32.655  31.181  1.00  0.00    -0.014 A 
ATOM     73  C   UNL A   1      35.576  32.239  31.344  1.00  0.00     0.010 A 
ATOM     74  C   UNL A   1      37.206  33.630  30.211  1.00  0.00     0.010 A 
ATOM     75  C   UNL A   1      34.572  32.737  30.510  1.00  0.00     0.020 A 
ATOM     76  C   UNL A   1      36.199  34.159  29.400  1.00  0.00     0.020 A 
ATOM     77  C   UNL A   1      34.891  33.690  29.538  1.00  0.00     0.054 A 
BRANCH  77  78
ATOM     78  S   UNL A   1      33.572  34.308  28.458  1.00  0.00     0.124 S 
ATOM     79  O   UNL A   1      34.263  35.353  27.708  1.00  0.00    -0.237 OA
ATOM     80  O   UNL A   1      33.206  33.121  27.691  1.00  0.00    -0.237 OA
ATOM     81  O   UNL A   1      32.553  34.783  29.391  1.00  0.00    -0.744 OA
ENDBRANCH  77  78
ENDBRANCH  58  72
BRANCH  59  82
ATOM     82  C   UNL A   1      44.793  28.838  36.014  1.00  0.00    -0.014 A 
ATOM     83  C   UNL A   1      44.692  27.820  36.977  1.00  0.00     0.010 A 
ATOM     84  C   UNL A   1      46.068  29.322  35.662  1.00  0.00     0.010 A 
ATOM     85  C   UNL A   1      45.843  27.285  37.563  1.00  0.00     0.020 A 
ATOM     86  C   UNL A   1      47.222  28.770  36.224  1.00  0.00     0.020 A 
ATOM     87  C   UNL A   1      47.102  27.752  37.171  1.00  0.00     0.054 A 
BRANCH  87  88
ATOM     88  S   UNL A   1      48.581  26.960  37.861  1.00  0.00     0.124 S 
ATOM     89  O   UNL A   1      49.034  26.134  36.747  1.00  0.00    -0.237 OA
ATOM     90  O   UNL A   1      49.427  28.108  38.184  1.00  0.00    -0.237 OA
ATOM     91  O   UNL A   1      48.071  26.228  39.018  1.00  0.00    -0.744 OA
ENDBRANCH  87  88
ENDBRANCH  59  82
BRANCH  71  92
ATOM     92  C   UNL A   1      39.946  33.613  37.668  1.00  0.00    -0.014 A 
ATOM     93  C   UNL A   1      40.439  34.925  37.776  1.00  0.00     0.010 A 
ATOM     94  C   UNL A   1      39.154  33.094  38.710  1.00  0.00     0.010 A 
ATOM     95  C   UNL A   1      40.171  35.690  38.915  1.00  0.00     0.020 A 
ATOM     96  C   UNL A   1      38.855  33.867  39.835  1.00  0.00     0.020 A 
ATOM     97  C   UNL A   1      39.378  35.157  39.937  1.00  0.00     0.054 A 
BRANCH  97  98
ATOM     98  S   UNL A   1      39.009  36.186  41.384  1.00  0.00     0.124 S 
ATOM     99  O   UNL A   1      38.817  37.502  40.780  1.00  0.00    -0.237 OA
ATOM    100  O   UNL A   1      37.805  35.560  41.922  1.00  0.00    -0.237 OA
ATOM    101  O   UNL A   1      40.201  36.053  42.219  1.00  0.00    -0.744 OA
ENDBRANCH  97  98
ENDBRANCH  71  92
ENDBRANCH  45  46
ENDBRANCH  38  40
ENDBRANCH  37  38
ENDBRANCH  36  37
ENDBRANCH  35  36
ENDBRANCH  34  35
ENDBRANCH  33  34
ENDBRANCH  32  33
ENDBRANCH  31  32
ENDBRANCH   1  31
TORSDOF 27
ENDMDL
MODEL 2
REMARK VINA RESULT:      -9.4      1.299      3.584
REMARK SMILES CC(C)NC(=O)c1cccc(NC(=O)[C@@H]2[C@H](C(=O)OCCOCCOCCOCCOC(=O)c3ccc(-c4c5nc(c(-c6ccc(S(=O)(=O)[O-])cc6)c6ccc([nH]6)c(-c6ccc(S(=O)(=O)[O-])cc6)c6nc(c(-c7ccc(S(=O)(=O)[O-])cc7)c7ccc4[nH]7)C=C6)C=C5)cc3)C2(C)C)c1
REMARK SMILES IDX 24 1 23 2 22 3 21 4 20 5 19 6 17 7 18 8 16 9 15 10 94 11
REMARK SMILES IDX 95 12 96 13 13 14 12 15 14 17 11 18 7 19 8 20 97 21 9 22
REMARK SMILES IDX 10 23 5 24 4 25 6 27 2 28 1 29 3 30 25 31 26 32 27 33 28 34
REMARK SMILES IDX 29 35 30 36 31 37 32 38 33 39 34 40 35 41 93 42 36 43 92 44
REMARK SMILES IDX 37 45 38 46 39 47 86 48 40 49 91 50 85 51 87 52 41 53 90 54
REMARK SMILES IDX 84 55 83 56 42 58 72 59 53 60 71 61 54 62 57 63 70 64 88 65
REMARK SMILES IDX 55 66 56 67 69 69 89 70 58 71 43 72 44 73 52 74 45 75 51 76
REMARK SMILES IDX 46 77 47 78 48 79 49 80 50 81 73 82 74 83 82 84 75 85 81 86
REMARK SMILES IDX 76 87 77 88 78 89 79 90 80 91 59 92 60 93 68 94 61 95 67 96
REMARK SMILES IDX 62 97 63 98 64 99 65 100 66 101
REMARK H PARENT 12 16 4 26 87 57 57 68
REMARK Flexibility Score: inf
ROOT
ATOM      1  C   UNL A   1      39.216  21.808  26.139  1.00  0.00     0.188 C 
ENDROOT
BRANCH   1   2
ATOM      2  C   UNL A   1      38.591  23.221  26.135  1.00  0.00     0.188 C 
BRANCH   2   3
ATOM      3  O   UNL A   1      37.314  23.302  25.558  1.00  0.00    -0.376 OA
BRANCH   3   4
ATOM      4  C   UNL A   1      36.171  23.656  26.292  1.00  0.00     0.202 C 
BRANCH   4   5
ATOM      5  C   UNL A   1      34.911  22.808  26.529  1.00  0.00     0.261 C 
BRANCH   5   6
ATOM      6  O   UNL A   1      34.861  21.387  26.412  1.00  0.00    -0.463 OA
BRANCH   6   7
ATOM      7  C   UNL A   1      34.430  20.879  25.236  1.00  0.00     0.310 C 
ATOM      8  O   UNL A   1      35.005  20.945  24.157  1.00  0.00    -0.252 OA
BRANCH   7   9
ATOM      9  C   UNL A   1      33.223  20.079  25.350  1.00  0.00     0.118 C 
ATOM     10  C   UNL A   1      32.270  19.740  24.262  1.00  0.00     0.100 C 
ATOM     11  C   UNL A   1      33.139  18.617  24.828  1.00  0.00    -0.009 C 
ATOM     12  C   UNL A   1      32.724  17.676  25.948  1.00  0.00     0.013 C 
ATOM     13  C   UNL A   1      33.963  17.853  23.827  1.00  0.00     0.013 C 
BRANCH  10  14
ATOM     14  C   UNL A   1      32.206  20.503  22.959  1.00  0.00     0.228 C 
ATOM     15  N   UNL A   1      32.211  21.846  22.614  1.00  0.00    -0.326 N 
ATOM     16  H   UNL A   1      31.875  21.939  21.693  1.00  0.00     0.169 HD
ATOM     17  O   UNL A   1      31.972  19.778  21.982  1.00  0.00    -0.274 OA
BRANCH  15  18
ATOM     18  C   UNL A   1      32.530  23.127  23.112  1.00  0.00     0.041 A 
ATOM     19  C   UNL A   1      31.963  24.999  24.589  1.00  0.00     0.041 A 
ATOM     20  C   UNL A   1      33.236  25.545  24.427  1.00  0.00     0.014 A 
ATOM     21  C   UNL A   1      31.606  23.799  23.930  1.00  0.00     0.040 A 
ATOM     22  C   UNL A   1      34.098  24.957  23.532  1.00  0.00     0.003 A 
ATOM     23  C   UNL A   1      33.697  23.804  22.852  1.00  0.00     0.026 A 
BRANCH  19  24
ATOM     24  C   UNL A   1      31.051  25.805  25.425  1.00  0.00     0.251 C 
ATOM     25  N   UNL A   1      30.261  26.780  24.895  1.00  0.00    -0.350 N 
ATOM     26  H   UNL A   1      29.688  27.245  25.547  1.00  0.00     0.164 HD
ATOM     27  O   UNL A   1      30.960  25.545  26.625  1.00  0.00    -0.269 OA
BRANCH  25  28
ATOM     28  C   UNL A   1      30.122  27.247  23.524  1.00  0.00     0.076 C 
ATOM     29  C   UNL A   1      28.703  27.752  23.293  1.00  0.00     0.030 C 
ATOM     30  C   UNL A   1      31.155  28.340  23.274  1.00  0.00     0.030 C 
ENDBRANCH  25  28
ENDBRANCH  19  24
ENDBRANCH  15  18
ENDBRANCH  10  14
ENDBRANCH   7   9
ENDBRANCH   6   7
ENDBRANCH   5   6
ENDBRANCH   4   5
ENDBRANCH   3   4
ENDBRANCH   2   3
ENDBRANCH   1   2
BRANCH   1  31
ATOM     31  O   UNL A   1      40.035  21.422  27.235  1.00  0.00    -0.377 OA
BRANCH  31  32
ATOM     32  C   UNL A   1      41.146  20.553  27.027  1.00  0.00     0.188 C 
BRANCH  32  33
ATOM     33  C   UNL A   1      42.438  21.047  26.329  1.00  0.00     0.188 C 
BRANCH  33  34
ATOM     34  O   UNL A   1      42.238  21.965  25.272  1.00  0.00    -0.376 OA
BRANCH  34  35
ATOM     35  C   UNL A   1      43.040  23.125  25.191  1.00  0.00     0.202 C 
BRANCH  35  36
ATOM     36  C   UNL A   1      44.167  23.319  26.213  1.00  0.00     0.261 C 
BRANCH  36  37
ATOM     37  O   UNL A   1      43.981  24.353  27.187  1.00  0.00    -0.460 OA
BRANCH  37  38
ATOM     38  C   UNL A   1      44.023  25.633  26.751  1.00  0.00     0.338 C 
ATOM     39  O   UNL A   1      44.352  26.020  25.646  1.00  0.00    -0.246 OA
BRANCH  38  40
ATOM     40  C   UNL A   1      43.373  26.467  27.787  1.00  0.00     0.060 A 
ATOM     41  C   UNL A   1      43.632  27.845  27.819  1.00  0.00     0.016 A 
ATOM     42  C   UNL A   1      42.473  25.894  28.689  1.00  0.00     0.016 A 
ATOM     43  C   UNL A   1      43.017  28.651  28.775  1.00  0.00     0.010 A 
ATOM     44  C   UNL A   1      41.888  26.695  29.670  1.00  0.00     0.010 A 
ATOM     45  C   UNL A   1      42.189  28.067  29.739  1.00  0.00    -0.014 A 
BRANCH  45  46
ATOM     46  C   UNL A   1      41.854  28.832  30.961  1.00  0.00     0.031 A 
ATOM     47  C   UNL A   1      40.646  29.726  30.916  1.00  0.00     0.074 A 
ATOM     48  C   UNL A   1      42.585  28.731  32.084  1.00  0.00     0.049 A 
ATOM     49  N   UNL A   1      40.172  30.530  31.830  1.00  0.00    -0.248 NA
ATOM     50  C   UNL A   1      39.873  29.712  29.663  1.00  0.00     0.031 C 
ATOM     51  C   UNL A   1      43.746  27.862  32.264  1.00  0.00     0.029 A 
ATOM     52  N   UNL A   1      42.455  29.381  33.285  1.00  0.00    -0.354 N 
ATOM     53  C   UNL A   1      39.060  31.134  31.255  1.00  0.00     0.074 A 
ATOM     54  C   UNL A   1      38.947  30.625  29.907  1.00  0.00     0.031 C 
ATOM     55  C   UNL A   1      44.238  28.050  33.501  1.00  0.00     0.029 A 
ATOM     56  C   UNL A   1      43.450  29.078  34.183  1.00  0.00     0.049 A 
ATOM     57  H   UNL A   1      41.722  30.006  33.484  1.00  0.00     0.167 HD
ATOM     58  C   UNL A   1      38.211  32.037  31.799  1.00  0.00     0.031 A 
ATOM     59  C   UNL A   1      43.711  29.594  35.401  1.00  0.00     0.031 A 
ATOM     60  C   UNL A   1      38.348  32.560  33.132  1.00  0.00     0.049 A 
ATOM     61  C   UNL A   1      42.797  30.648  35.967  1.00  0.00     0.074 A 
ATOM     62  C   UNL A   1      37.530  33.458  33.792  1.00  0.00     0.029 A 
ATOM     63  N   UNL A   1      39.384  32.247  34.002  1.00  0.00    -0.354 N 
ATOM     64  N   UNL A   1      41.726  31.186  35.431  1.00  0.00    -0.248 NA
ATOM     65  C   UNL A   1      43.119  31.156  37.308  1.00  0.00     0.031 C 
ATOM     66  C   UNL A   1      38.113  33.748  35.029  1.00  0.00     0.029 A 
ATOM     67  C   UNL A   1      39.249  32.966  35.176  1.00  0.00     0.049 A 
ATOM     68  H   UNL A   1      40.108  31.609  33.811  1.00  0.00     0.167 HD
ATOM     69  C   UNL A   1      41.232  32.079  36.378  1.00  0.00     0.074 A 
ATOM     70  C   UNL A   1      42.115  31.997  37.524  1.00  0.00     0.031 C 
ATOM     71  C   UNL A   1      40.144  32.887  36.306  1.00  0.00     0.031 A 
BRANCH  58  72
ATOM     72  C   UNL A   1      37.106  32.561  30.918  1.00  0.00    -0.014 A 
ATOM     73  C   UNL A   1      37.333  33.575  29.968  1.00  0.00     0.010 A 
ATOM     74  C   UNL A   1      35.809  32.035  31.057  1.00  0.00     0.010 A 
ATOM     75  C   UNL A   1      36.272  34.095  29.222  1.00  0.00     0.020 A 
ATOM     76  C   UNL A   1      34.752  32.527  30.287  1.00  0.00     0.020 A 
ATOM     77  C   UNL A   1      34.987  33.572  29.392  1.00  0.00     0.054 A 
BRANCH  77  78
ATOM     78  S   UNL A   1      33.625  34.277  28.423  1.00  0.00     0.124 S 
ATOM     79  O   UNL A   1      33.167  33.119  27.661  1.00  0.00    -0.237 OA
ATOM     80  O   UNL A   1      32.710  34.750  29.458  1.00  0.00    -0.237 OA
ATOM     81  O   UNL A   1      34.266  35.328  27.635  1.00  0.00    -0.744 OA
ENDBRANCH  77  78
ENDBRANCH  58  72
BRANCH  59  82
ATOM     82  C   UNL A   1      44.910  29.124  36.148  1.00  0.00    -0.014 A 
ATOM     83  C   UNL A   1      44.837  28.017  37.010  1.00  0.00     0.010 A 
ATOM     84  C   UNL A   1      46.153  29.757  35.953  1.00  0.00     0.010 A 
ATOM     85  C   UNL A   1      45.985  27.543  37.651  1.00  0.00     0.020 A 
ATOM     86  C   UNL A   1      47.308  29.269  36.570  1.00  0.00     0.020 A 
ATOM     87  C   UNL A   1      47.217  28.162  37.414  1.00  0.00     0.054 A 
BRANCH  87  88
ATOM     88  S   UNL A   1      48.709  27.455  38.166  1.00  0.00     0.124 S 
ATOM     89  O   UNL A   1      48.542  26.031  37.897  1.00  0.00    -0.237 OA
ATOM     90  O   UNL A   1      49.777  28.119  37.422  1.00  0.00    -0.237 OA
ATOM     91  O   UNL A   1      48.604  27.845  39.570  1.00  0.00    -0.744 OA
ENDBRANCH  87  88
ENDBRANCH  59  82
BRANCH  71  92
ATOM     92  C   UNL A   1      39.818  33.732  37.513  1.00  0.00    -0.014 A 
ATOM     93  C   UNL A   1      38.917  33.294  38.499  1.00  0.00     0.010 A 
ATOM     94  C   UNL A   1      40.481  34.962  37.692  1.00  0.00     0.010 A 
ATOM     95  C   UNL A   1      38.661  34.083  39.624  1.00  0.00     0.020 A 
ATOM     96  C   UNL A   1      40.253  35.738  38.831  1.00  0.00     0.020 A 
ATOM     97  C   UNL A   1      39.332  35.299  39.785  1.00  0.00     0.054 A 
BRANCH  97  98
ATOM     98  S   UNL A   1      39.015  36.284  41.275  1.00  0.00     0.124 S 
ATOM     99  O   UNL A   1      37.977  35.501  41.940  1.00  0.00    -0.237 OA
ATOM    100  O   UNL A   1      40.317  36.291  41.935  1.00  0.00    -0.237 OA
ATOM    101  O   UNL A   1      38.579  37.576  40.752  1.00  0.00    -0.744 OA
ENDBRANCH  97  98
ENDBRANCH  71  92
ENDBRANCH  45  46
ENDBRANCH  38  40
ENDBRANCH  37  38
ENDBRANCH  36  37
ENDBRANCH  35  36
ENDBRANCH  34  35
ENDBRANCH  33  34
ENDBRANCH  32  33
ENDBRANCH  31  32
ENDBRANCH   1  31
TORSDOF 27
ENDMDL
MODEL 3
REMARK VINA RESULT:      -9.1      1.896      3.961
REMARK SMILES CC(C)NC(=O)c1cccc(NC(=O)[C@@H]2[C@H](C(=O)OCCOCCOCCOCCOC(=O)c3ccc(-c4c5nc(c(-c6ccc(S(=O)(=O)[O-])cc6)c6ccc([nH]6)c(-c6ccc(S(=O)(=O)[O-])cc6)c6nc(c(-c7ccc(S(=O)(=O)[O-])cc7)c7ccc4[nH]7)C=C6)C=C5)cc3)C2(C)C)c1
REMARK SMILES IDX 24 1 23 2 22 3 21 4 20 5 19 6 17 7 18 8 16 9 15 10 94 11
REMARK SMILES IDX 95 12 96 13 13 14 12 15 14 17 11 18 7 19 8 20 97 21 9 22
REMARK SMILES IDX 10 23 5 24 4 25 6 27 2 28 1 29 3 30 25 31 26 32 27 33 28 34
REMARK SMILES IDX 29 35 30 36 31 37 32 38 33 39 34 40 35 41 93 42 36 43 92 44
REMARK SMILES IDX 37 45 38 46 39 47 86 48 40 49 91 50 85 51 87 52 41 53 90 54
REMARK SMILES IDX 84 55 83 56 42 58 72 59 53 60 71 61 54 62 57 63 70 64 88 65
REMARK SMILES IDX 55 66 56 67 69 69 89 70 58 71 43 72 44 73 52 74 45 75 51 76
REMARK SMILES IDX 46 77 47 78 48 79 49 80 50 81 73 82 74 83 82 84 75 85 81 86
REMARK SMILES IDX 76 87 77 88 78 89 79 90 80 91 59 92 60 93 68 94 61 95 67 96
REMARK SMILES IDX 62 97 63 98 64 99 65 100 66 101
REMARK H PARENT 12 16 4 26 87 57 57 68
REMARK Flexibility Score: inf
ROOT
ATOM      1  C   UNL A   1      40.179  21.119  26.150  1.00  0.00     0.188 C 
ENDROOT
BRANCH   1   2
ATOM      2  C   UNL A   1      38.761  21.623  25.804  1.00  0.00     0.188 C 
BRANCH   2   3
ATOM      3  O   UNL A   1      38.428  22.874  26.347  1.00  0.00    -0.376 OA
BRANCH   3   4
ATOM      4  C   UNL A   1      37.227  23.537  26.047  1.00  0.00     0.202 C 
BRANCH   4   5
ATOM      5  C   UNL A   1      35.811  23.166  26.515  1.00  0.00     0.261 C 
BRANCH   5   6
ATOM      6  O   UNL A   1      34.616  23.509  25.817  1.00  0.00    -0.463 OA
BRANCH   6   7
ATOM      7  C   UNL A   1      33.465  22.946  26.248  1.00  0.00     0.310 C 
ATOM      8  O   UNL A   1      33.159  22.710  27.409  1.00  0.00    -0.252 OA
BRANCH   7   9
ATOM      9  C   UNL A   1      32.483  22.739  25.197  1.00  0.00     0.118 C 
ATOM     10  C   UNL A   1      31.218  23.493  24.998  1.00  0.00     0.100 C 
ATOM     11  C   UNL A   1      32.344  23.702  23.985  1.00  0.00    -0.009 C 
ATOM     12  C   UNL A   1      32.494  22.937  22.680  1.00  0.00     0.013 C 
ATOM     13  C   UNL A   1      32.780  25.126  23.771  1.00  0.00     0.013 C 
BRANCH  10  14
ATOM     14  C   UNL A   1      30.575  24.322  26.085  1.00  0.00     0.228 C 
ATOM     15  N   UNL A   1      30.633  25.656  26.458  1.00  0.00    -0.326 N 
ATOM     16  H   UNL A   1      30.292  25.744  27.378  1.00  0.00     0.169 HD
ATOM     17  O   UNL A   1      29.948  23.641  26.909  1.00  0.00    -0.274 OA
BRANCH  15  18
ATOM     18  C   UNL A   1      31.003  26.934  25.987  1.00  0.00     0.041 A 
ATOM     19  C   UNL A   1      30.856  28.643  24.236  1.00  0.00     0.041 A 
ATOM     20  C   UNL A   1      31.409  29.599  25.089  1.00  0.00     0.014 A 
ATOM     21  C   UNL A   1      30.659  27.314  24.678  1.00  0.00     0.040 A 
ATOM     22  C   UNL A   1      31.859  29.200  26.325  1.00  0.00     0.003 A 
ATOM     23  C   UNL A   1      31.704  27.867  26.713  1.00  0.00     0.026 A 
BRANCH  19  24
ATOM     24  C   UNL A   1      30.576  29.127  22.870  1.00  0.00     0.251 C 
ATOM     25  N   UNL A   1      29.416  29.771  22.559  1.00  0.00    -0.350 N 
ATOM     26  H   UNL A   1      29.343  30.055  21.618  1.00  0.00     0.164 HD
ATOM     27  O   UNL A   1      31.441  28.998  22.005  1.00  0.00    -0.269 OA
BRANCH  25  28
ATOM     28  C   UNL A   1      28.268  30.109  23.385  1.00  0.00     0.076 C 
ATOM     29  C   UNL A   1      27.838  31.545  23.108  1.00  0.00     0.030 C 
ATOM     30  C   UNL A   1      27.146  29.120  23.091  1.00  0.00     0.030 C 
ENDBRANCH  25  28
ENDBRANCH  19  24
ENDBRANCH  15  18
ENDBRANCH  10  14
ENDBRANCH   7   9
ENDBRANCH   6   7
ENDBRANCH   5   6
ENDBRANCH   4   5
ENDBRANCH   3   4
ENDBRANCH   2   3
ENDBRANCH   1   2
BRANCH   1  31
ATOM     31  O   UNL A   1      40.534  20.953  27.517  1.00  0.00    -0.377 OA
BRANCH  31  32
ATOM     32  C   UNL A   1      41.411  21.886  28.146  1.00  0.00     0.188 C 
BRANCH  32  33
ATOM     33  C   UNL A   1      42.621  22.492  27.392  1.00  0.00     0.188 C 
BRANCH  33  34
ATOM     34  O   UNL A   1      43.577  23.140  28.209  1.00  0.00    -0.376 OA
BRANCH  34  35
ATOM     35  C   UNL A   1      44.248  24.286  27.727  1.00  0.00     0.202 C 
BRANCH  35  36
ATOM     36  C   UNL A   1      43.980  24.752  26.291  1.00  0.00     0.261 C 
BRANCH  36  37
ATOM     37  O   UNL A   1      42.694  25.330  26.032  1.00  0.00    -0.460 OA
BRANCH  37  38
ATOM     38  C   UNL A   1      42.656  26.641  25.700  1.00  0.00     0.338 C 
ATOM     39  O   UNL A   1      42.825  27.121  24.595  1.00  0.00    -0.246 OA
BRANCH  38  40
ATOM     40  C   UNL A   1      42.138  27.373  26.877  1.00  0.00     0.060 A 
ATOM     41  C   UNL A   1      42.525  28.707  27.078  1.00  0.00     0.016 A 
ATOM     42  C   UNL A   1      41.236  26.759  27.748  1.00  0.00     0.016 A 
ATOM     43  C   UNL A   1      42.036  29.420  28.170  1.00  0.00     0.010 A 
ATOM     44  C   UNL A   1      40.777  27.461  28.863  1.00  0.00     0.010 A 
ATOM     45  C   UNL A   1      41.207  28.780  29.097  1.00  0.00    -0.014 A 
BRANCH  45  46
ATOM     46  C   UNL A   1      41.006  29.392  30.429  1.00  0.00     0.031 A 
ATOM     47  C   UNL A   1      39.860  30.352  30.591  1.00  0.00     0.074 A 
ATOM     48  C   UNL A   1      41.801  29.099  31.472  1.00  0.00     0.049 A 
ATOM     49  N   UNL A   1      39.503  31.053  31.634  1.00  0.00    -0.248 NA
ATOM     50  C   UNL A   1      39.007  30.551  29.407  1.00  0.00     0.031 C 
ATOM     51  C   UNL A   1      42.911  28.149  31.450  1.00  0.00     0.029 A 
ATOM     52  N   UNL A   1      41.796  29.590  32.753  1.00  0.00    -0.354 N 
ATOM     53  C   UNL A   1      38.398  31.792  31.226  1.00  0.00     0.074 A 
ATOM     54  C   UNL A   1      38.162  31.475  29.836  1.00  0.00     0.031 C 
ATOM     55  C   UNL A   1      43.496  28.141  32.661  1.00  0.00     0.029 A 
ATOM     56  C   UNL A   1      42.825  29.111  33.527  1.00  0.00     0.049 A 
ATOM     57  H   UNL A   1      41.121  30.224  33.086  1.00  0.00     0.167 HD
ATOM     58  C   UNL A   1      37.650  32.661  31.945  1.00  0.00     0.031 A 
ATOM     59  C   UNL A   1      43.201  29.444  34.779  1.00  0.00     0.031 A 
ATOM     60  C   UNL A   1      37.910  32.992  33.320  1.00  0.00     0.049 A 
ATOM     61  C   UNL A   1      42.399  30.464  35.544  1.00  0.00     0.074 A 
ATOM     62  C   UNL A   1      37.200  33.840  34.150  1.00  0.00     0.029 A 
ATOM     63  N   UNL A   1      38.978  32.506  34.062  1.00  0.00    -0.354 N 
ATOM     64  N   UNL A   1      41.333  31.130  35.163  1.00  0.00    -0.248 NA
ATOM     65  C   UNL A   1      42.843  30.768  36.911  1.00  0.00     0.031 C 
ATOM     66  C   UNL A   1      37.882  33.927  35.367  1.00  0.00     0.029 A 
ATOM     67  C   UNL A   1      38.970  33.068  35.327  1.00  0.00     0.049 A 
ATOM     68  H   UNL A   1      39.644  31.858  33.737  1.00  0.00     0.167 HD
ATOM     69  C   UNL A   1      40.964  31.915  36.252  1.00  0.00     0.074 A 
ATOM     70  C   UNL A   1      41.914  31.629  37.309  1.00  0.00     0.031 C 
ATOM     71  C   UNL A   1      39.930  32.786  36.367  1.00  0.00     0.031 A 
BRANCH  58  72
ATOM     72  C   UNL A   1      36.527  33.362  31.224  1.00  0.00    -0.014 A 
ATOM     73  C   UNL A   1      35.183  33.205  31.612  1.00  0.00     0.010 A 
ATOM     74  C   UNL A   1      36.826  34.185  30.123  1.00  0.00     0.010 A 
ATOM     75  C   UNL A   1      34.159  33.804  30.874  1.00  0.00     0.020 A 
ATOM     76  C   UNL A   1      35.808  34.816  29.404  1.00  0.00     0.020 A 
ATOM     77  C   UNL A   1      34.478  34.600  29.771  1.00  0.00     0.054 A 
BRANCH  77  78
ATOM     78  S   UNL A   1      33.128  35.353  28.821  1.00  0.00     0.124 S 
ATOM     79  O   UNL A   1      32.428  34.177  28.310  1.00  0.00    -0.237 OA
ATOM     80  O   UNL A   1      32.411  36.118  29.838  1.00  0.00    -0.237 OA
ATOM     81  O   UNL A   1      33.818  36.155  27.813  1.00  0.00    -0.744 OA
ENDBRANCH  77  78
ENDBRANCH  58  72
BRANCH  59  82
ATOM     82  C   UNL A   1      44.412  28.810  35.367  1.00  0.00    -0.014 A 
ATOM     83  C   UNL A   1      45.694  29.328  35.113  1.00  0.00     0.010 A 
ATOM     84  C   UNL A   1      44.281  27.708  36.234  1.00  0.00     0.010 A 
ATOM     85  C   UNL A   1      46.818  28.767  35.728  1.00  0.00     0.020 A 
ATOM     86  C   UNL A   1      45.398  27.163  36.872  1.00  0.00     0.020 A 
ATOM     87  C   UNL A   1      46.660  27.698  36.616  1.00  0.00     0.054 A 
BRANCH  87  88
ATOM     88  S   UNL A   1      48.120  27.066  37.488  1.00  0.00     0.124 S 
ATOM     89  O   UNL A   1      47.522  26.203  38.501  1.00  0.00    -0.237 OA
ATOM     90  O   UNL A   1      48.847  26.380  36.421  1.00  0.00    -0.237 OA
ATOM     91  O   UNL A   1      48.768  28.273  37.995  1.00  0.00    -0.744 OA
ENDBRANCH  87  88
ENDBRANCH  59  82
BRANCH  71  92
ATOM     92  C   UNL A   1      39.743  33.480  37.694  1.00  0.00    -0.014 A 
ATOM     93  C   UNL A   1      40.383  34.697  37.986  1.00  0.00     0.010 A 
ATOM     94  C   UNL A   1      38.856  32.931  38.639  1.00  0.00     0.010 A 
ATOM     95  C   UNL A   1      40.163  35.336  39.211  1.00  0.00     0.020 A 
ATOM     96  C   UNL A   1      38.608  33.583  39.850  1.00  0.00     0.020 A 
ATOM     97  C   UNL A   1      39.275  34.776  40.134  1.00  0.00     0.054 A 
BRANCH  97  98
ATOM     98  S   UNL A   1      38.974  35.646  41.697  1.00  0.00     0.124 S 
ATOM     99  O   UNL A   1      40.008  35.083  42.561  1.00  0.00    -0.237 OA
ATOM    100  O   UNL A   1      39.160  37.045  41.323  1.00  0.00    -0.237 OA
ATOM    101  O   UNL A   1      37.605  35.275  42.044  1.00  0.00    -0.744 OA
ENDBRANCH  97  98
ENDBRANCH  71  92
ENDBRANCH  45  46
ENDBRANCH  38  40
ENDBRANCH  37  38
ENDBRANCH  36  37
ENDBRANCH  35  36
ENDBRANCH  34  35
ENDBRANCH  33  34
ENDBRANCH  32  33
ENDBRANCH  31  32
ENDBRANCH   1  31
TORSDOF 27
ENDMDL
