MODEL 1
REMARK VINA RESULT:      -9.2      0.000      0.000
REMARK SMILES O=C(OCCOCCOCCOCCOC(=O)[C@H]1CC[NH2+][C@@H]1c1cccc(F)c1)c1ccc(-c2c3nc(c(-c4ccc(S(=O)(=O)[O-])cc4)c4ccc([nH]4)c(-c4ccc(S(=O)(=O)[O-])cc4)c4nc(c(-c5ccc(S(=O)(=O)[O-])cc5)c5ccc2[nH]5)C=C4)C=C3)cc1
REMARK SMILES IDX 8 1 7 2 6 3 5 4 4 5 3 6 2 7 1 8 30 9 31 10 89 11 32 12 88 13
REMARK SMILES IDX 33 14 34 15 35 16 82 17 36 18 87 19 81 20 83 21 37 22 86 23
REMARK SMILES IDX 80 24 79 25 38 27 68 28 49 29 67 30 50 31 53 32 66 33 84 34
REMARK SMILES IDX 51 35 52 36 65 38 85 39 54 40 39 41 40 42 48 43 41 44 47 45
REMARK SMILES IDX 42 46 43 47 44 48 45 49 46 50 69 51 70 52 78 53 71 54 77 55
REMARK SMILES IDX 72 56 73 57 74 58 75 59 76 60 55 61 56 62 64 63 57 64 63 65
REMARK SMILES IDX 58 66 59 67 60 68 61 69 62 70 9 71 10 72 11 73 12 74 13 75
REMARK SMILES IDX 14 76 15 77 16 78 17 79 18 80 19 81 22 82 20 83 21 84 23 87
REMARK SMILES IDX 24 88 29 89 25 90 27 91 26 92 28 93
REMARK H PARENT 83 26 53 37 21 85 21 86
REMARK Flexibility Score: inf
ROOT
ATOM      1  C   UNL A   1      33.277  29.324  25.807  1.00  0.00     0.188 C 
ENDROOT
BRANCH   1   2
ATOM      2  C   UNL A   1      32.925  29.941  27.160  1.00  0.00     0.188 C 
BRANCH   2   3
ATOM      3  O   UNL A   1      32.509  31.301  27.032  1.00  0.00    -0.376 OA
BRANCH   3   4
ATOM      4  C   UNL A   1      33.286  32.279  27.727  1.00  0.00     0.202 C 
BRANCH   4   5
ATOM      5  C   UNL A   1      32.857  33.723  27.480  1.00  0.00     0.261 C 
BRANCH   5   6
ATOM      6  O   UNL A   1      32.517  34.405  28.691  1.00  0.00    -0.460 OA
BRANCH   6   7
ATOM      7  C   UNL A   1      33.357  34.865  29.651  1.00  0.00     0.338 C 
ATOM      8  O   UNL A   1      33.190  36.022  30.038  1.00  0.00    -0.246 OA
BRANCH   7   9
ATOM      9  C   UNL A   1      34.497  34.088  30.253  1.00  0.00     0.060 A 
ATOM     10  C   UNL A   1      34.401  33.069  31.205  1.00  0.00     0.016 A 
ATOM     11  C   UNL A   1      35.779  34.388  29.756  1.00  0.00     0.016 A 
ATOM     12  C   UNL A   1      35.512  32.378  31.661  1.00  0.00     0.010 A 
ATOM     13  C   UNL A   1      36.913  33.721  30.228  1.00  0.00     0.010 A 
ATOM     14  C   UNL A   1      36.773  32.732  31.205  1.00  0.00    -0.014 A 
BRANCH  14  15
ATOM     15  C   UNL A   1      37.916  32.237  31.982  1.00  0.00     0.031 A 
ATOM     16  C   UNL A   1      38.739  31.153  31.353  1.00  0.00     0.074 A 
ATOM     17  C   UNL A   1      38.296  32.867  33.105  1.00  0.00     0.049 A 
ATOM     18  N   UNL A   1      39.770  30.514  31.826  1.00  0.00    -0.248 NA
ATOM     19  C   UNL A   1      38.357  30.752  29.982  1.00  0.00     0.031 C 
ATOM     20  C   UNL A   1      37.649  34.055  33.668  1.00  0.00     0.029 A 
ATOM     21  N   UNL A   1      39.338  32.620  33.954  1.00  0.00    -0.354 N 
ATOM     22  C   UNL A   1      40.138  29.616  30.831  1.00  0.00     0.074 A 
ATOM     23  C   UNL A   1      39.227  29.790  29.725  1.00  0.00     0.031 C 
ATOM     24  C   UNL A   1      38.317  34.435  34.771  1.00  0.00     0.029 A 
ATOM     25  C   UNL A   1      39.388  33.478  35.026  1.00  0.00     0.049 A 
ATOM     26  H   UNL A   1      39.990  31.896  33.811  1.00  0.00     0.167 HD
ATOM     27  C   UNL A   1      41.145  28.717  30.856  1.00  0.00     0.031 A 
ATOM     28  C   UNL A   1      40.190  33.450  36.106  1.00  0.00     0.031 A 
ATOM     29  C   UNL A   1      42.010  28.564  31.990  1.00  0.00     0.049 A 
ATOM     30  C   UNL A   1      41.209  32.343  36.181  1.00  0.00     0.074 A 
ATOM     31  C   UNL A   1      43.009  27.635  32.200  1.00  0.00     0.029 A 
ATOM     32  N   UNL A   1      41.965  29.377  33.118  1.00  0.00    -0.354 N 
ATOM     33  N   UNL A   1      41.494  31.424  35.285  1.00  0.00    -0.248 NA
ATOM     34  C   UNL A   1      42.004  32.254  37.411  1.00  0.00     0.031 C 
ATOM     35  C   UNL A   1      43.529  27.852  33.481  1.00  0.00     0.029 A 
ATOM     36  C   UNL A   1      42.903  28.960  34.038  1.00  0.00     0.049 A 
ATOM     37  H   UNL A   1      41.353  30.138  33.239  1.00  0.00     0.167 HD
ATOM     38  C   UNL A   1      42.515  30.660  35.832  1.00  0.00     0.074 A 
ATOM     39  C   UNL A   1      42.808  31.236  37.131  1.00  0.00     0.031 C 
ATOM     40  C   UNL A   1      43.155  29.578  35.318  1.00  0.00     0.031 A 
BRANCH  27  41
ATOM     41  C   UNL A   1      41.269  27.792  29.676  1.00  0.00    -0.014 A 
ATOM     42  C   UNL A   1      40.371  26.729  29.469  1.00  0.00     0.010 A 
ATOM     43  C   UNL A   1      42.339  27.966  28.780  1.00  0.00     0.010 A 
ATOM     44  C   UNL A   1      40.565  25.835  28.412  1.00  0.00     0.020 A 
ATOM     45  C   UNL A   1      42.522  27.090  27.706  1.00  0.00     0.020 A 
ATOM     46  C   UNL A   1      41.642  26.019  27.539  1.00  0.00     0.054 A 
BRANCH  46  47
ATOM     47  S   UNL A   1      41.869  24.847  26.174  1.00  0.00     0.124 S 
ATOM     48  O   UNL A   1      40.817  23.868  26.437  1.00  0.00    -0.237 OA
ATOM     49  O   UNL A   1      41.665  25.686  24.996  1.00  0.00    -0.237 OA
ATOM     50  O   UNL A   1      43.233  24.358  26.358  1.00  0.00    -0.744 OA
ENDBRANCH  46  47
ENDBRANCH  27  41
BRANCH  28  51
ATOM     51  C   UNL A   1      40.007  34.432  37.212  1.00  0.00    -0.014 A 
ATOM     52  C   UNL A   1      39.075  34.208  38.242  1.00  0.00     0.010 A 
ATOM     53  C   UNL A   1      40.773  35.614  37.240  1.00  0.00     0.010 A 
ATOM     54  C   UNL A   1      38.903  35.151  39.262  1.00  0.00     0.020 A 
ATOM     55  C   UNL A   1      40.627  36.545  38.273  1.00  0.00     0.020 A 
ATOM     56  C   UNL A   1      39.682  36.313  39.272  1.00  0.00     0.054 A 
BRANCH  56  57
ATOM     57  S   UNL A   1      39.464  37.506  40.622  1.00  0.00     0.124 S 
ATOM     58  O   UNL A   1      38.200  38.143  40.264  1.00  0.00    -0.237 OA
ATOM     59  O   UNL A   1      39.428  36.645  41.801  1.00  0.00    -0.237 OA
ATOM     60  O   UNL A   1      40.646  38.360  40.520  1.00  0.00    -0.744 OA
ENDBRANCH  56  57
ENDBRANCH  28  51
BRANCH  40  61
ATOM     61  C   UNL A   1      44.256  28.983  36.147  1.00  0.00    -0.014 A 
ATOM     62  C   UNL A   1      45.560  29.505  36.108  1.00  0.00     0.010 A 
ATOM     63  C   UNL A   1      43.952  27.937  37.037  1.00  0.00     0.010 A 
ATOM     64  C   UNL A   1      46.550  28.973  36.934  1.00  0.00     0.020 A 
ATOM     65  C   UNL A   1      44.931  27.426  37.887  1.00  0.00     0.020 A 
ATOM     66  C   UNL A   1      46.227  27.940  37.821  1.00  0.00     0.054 A 
BRANCH  66  67
ATOM     67  S   UNL A   1      47.516  27.312  38.929  1.00  0.00     0.124 S 
ATOM     68  O   UNL A   1      48.195  28.540  39.330  1.00  0.00    -0.237 OA
ATOM     69  O   UNL A   1      46.742  26.649  39.976  1.00  0.00    -0.237 OA
ATOM     70  O   UNL A   1      48.297  26.417  38.079  1.00  0.00    -0.744 OA
ENDBRANCH  66  67
ENDBRANCH  40  61
ENDBRANCH  14  15
ENDBRANCH   7   9
ENDBRANCH   6   7
ENDBRANCH   5   6
ENDBRANCH   4   5
ENDBRANCH   3   4
ENDBRANCH   2   3
ENDBRANCH   1   2
BRANCH   1  71
ATOM     71  O   UNL A   1      32.274  28.476  25.265  1.00  0.00    -0.377 OA
BRANCH  71  72
ATOM     72  C   UNL A   1      31.950  28.689  23.899  1.00  0.00     0.188 C 
BRANCH  72  73
ATOM     73  C   UNL A   1      32.009  27.505  22.903  1.00  0.00     0.188 C 
BRANCH  73  74
ATOM     74  O   UNL A   1      33.225  26.786  22.947  1.00  0.00    -0.376 OA
BRANCH  74  75
ATOM     75  C   UNL A   1      33.189  25.490  22.361  1.00  0.00     0.202 C 
BRANCH  75  76
ATOM     76  C   UNL A   1      31.919  24.675  22.639  1.00  0.00     0.261 C 
BRANCH  76  77
ATOM     77  O   UNL A   1      32.106  23.283  22.988  1.00  0.00    -0.463 OA
BRANCH  77  78
ATOM     78  C   UNL A   1      31.989  22.844  24.263  1.00  0.00     0.315 C 
ATOM     79  O   UNL A   1      30.964  22.937  24.931  1.00  0.00    -0.252 OA
BRANCH  78  80
ATOM     80  C   UNL A   1      33.252  22.141  24.766  1.00  0.00     0.167 C 
ATOM     81  C   UNL A   1      34.145  22.912  25.732  1.00  0.00     0.083 C 
ATOM     82  C   UNL A   1      32.983  20.794  25.465  1.00  0.00     0.228 C 
ATOM     83  C   UNL A   1      34.899  21.813  26.453  1.00  0.00     0.262 C 
ATOM     84  N   UNL A   1      33.958  20.702  26.586  1.00  0.00    -0.339 N 
ATOM     85  H   UNL A   1      33.469  20.769  27.478  1.00  0.00     0.346 HD
ATOM     86  H   UNL A   1      34.453  19.811  26.556  1.00  0.00     0.346 HD
BRANCH  82  87
ATOM     87  C   UNL A   1      33.046  19.583  24.549  1.00  0.00     0.013 A 
ATOM     88  C   UNL A   1      32.159  19.479  23.464  1.00  0.00     0.010 A 
ATOM     89  C   UNL A   1      34.018  18.581  24.701  1.00  0.00     0.049 A 
ATOM     90  C   UNL A   1      32.204  18.380  22.600  1.00  0.00     0.004 A 
ATOM     91  C   UNL A   1      34.040  17.482  23.855  1.00  0.00     0.123 A 
ATOM     92  C   UNL A   1      33.139  17.369  22.810  1.00  0.00     0.039 A 
ATOM     93  F   UNL A   1      34.949  16.520  24.060  1.00  0.00    -0.207 F 
ENDBRANCH  82  87
ENDBRANCH  78  80
ENDBRANCH  77  78
ENDBRANCH  76  77
ENDBRANCH  75  76
ENDBRANCH  74  75
ENDBRANCH  73  74
ENDBRANCH  72  73
ENDBRANCH  71  72
ENDBRANCH   1  71
TORSDOF 24
ENDMDL
MODEL 2
REMARK VINA RESULT:      -8.8      6.160      8.635
REMARK SMILES O=C(OCCOCCOCCOCCOC(=O)[C@H]1CC[NH2+][C@@H]1c1cccc(F)c1)c1ccc(-c2c3nc(c(-c4ccc(S(=O)(=O)[O-])cc4)c4ccc([nH]4)c(-c4ccc(S(=O)(=O)[O-])cc4)c4nc(c(-c5ccc(S(=O)(=O)[O-])cc5)c5ccc2[nH]5)C=C4)C=C3)cc1
REMARK SMILES IDX 8 1 7 2 6 3 5 4 4 5 3 6 2 7 1 8 30 9 31 10 89 11 32 12 88 13
REMARK SMILES IDX 33 14 34 15 35 16 82 17 36 18 87 19 81 20 83 21 37 22 86 23
REMARK SMILES IDX 80 24 79 25 38 27 68 28 49 29 67 30 50 31 53 32 66 33 84 34
REMARK SMILES IDX 51 35 52 36 65 38 85 39 54 40 39 41 40 42 48 43 41 44 47 45
REMARK SMILES IDX 42 46 43 47 44 48 45 49 46 50 69 51 70 52 78 53 71 54 77 55
REMARK SMILES IDX 72 56 73 57 74 58 75 59 76 60 55 61 56 62 64 63 57 64 63 65
REMARK SMILES IDX 58 66 59 67 60 68 61 69 62 70 9 71 10 72 11 73 12 74 13 75
REMARK SMILES IDX 14 76 15 77 16 78 17 79 18 80 19 81 22 82 20 83 21 84 23 87
REMARK SMILES IDX 24 88 29 89 25 90 27 91 26 92 28 93
REMARK H PARENT 83 26 53 37 21 85 21 86
REMARK Flexibility Score: inf
ROOT
ATOM      1  C   UNL A   1      33.088  28.887  26.285  1.00  0.00     0.188 C 
ENDROOT
BRANCH   1   2
ATOM      2  C   UNL A   1      33.429  29.508  27.638  1.00  0.00     0.188 C 
BRANCH   2   3
ATOM      3  O   UNL A   1      33.938  30.836  27.501  1.00  0.00    -0.376 OA
BRANCH   3   4
ATOM      4  C   UNL A   1      35.344  31.007  27.684  1.00  0.00     0.202 C 
BRANCH   4   5
ATOM      5  C   UNL A   1      35.755  31.419  29.095  1.00  0.00     0.261 C 
BRANCH   5   6
ATOM      6  O   UNL A   1      35.853  30.302  29.984  1.00  0.00    -0.460 OA
BRANCH   6   7
ATOM      7  C   UNL A   1      36.947  29.865  30.655  1.00  0.00     0.338 C 
ATOM      8  O   UNL A   1      36.791  29.527  31.829  1.00  0.00    -0.246 OA
BRANCH   7   9
ATOM      9  C   UNL A   1      38.341  29.796  30.091  1.00  0.00     0.060 A 
ATOM     10  C   UNL A   1      38.693  29.765  28.738  1.00  0.00     0.016 A 
ATOM     11  C   UNL A   1      39.389  29.823  31.029  1.00  0.00     0.016 A 
ATOM     12  C   UNL A   1      40.014  29.751  28.319  1.00  0.00     0.010 A 
ATOM     13  C   UNL A   1      40.726  29.779  30.624  1.00  0.00     0.010 A 
ATOM     14  C   UNL A   1      41.031  29.715  29.262  1.00  0.00    -0.014 A 
BRANCH  14  15
ATOM     15  C   UNL A   1      42.362  29.329  28.778  1.00  0.00     0.031 A 
ATOM     16  C   UNL A   1      42.534  27.903  28.348  1.00  0.00     0.074 A 
ATOM     17  C   UNL A   1      43.301  30.264  28.560  1.00  0.00     0.049 A 
ATOM     18  N   UNL A   1      43.599  27.290  27.919  1.00  0.00    -0.248 NA
ATOM     19  C   UNL A   1      41.323  27.056  28.385  1.00  0.00     0.031 C 
ATOM     20  C   UNL A   1      43.128  31.703  28.775  1.00  0.00     0.029 A 
ATOM     21  N   UNL A   1      44.574  30.148  28.077  1.00  0.00    -0.354 N 
ATOM     22  C   UNL A   1      43.198  25.983  27.668  1.00  0.00     0.074 A 
ATOM     23  C   UNL A   1      41.794  25.886  27.988  1.00  0.00     0.031 C 
ATOM     24  C   UNL A   1      44.259  32.337  28.419  1.00  0.00     0.029 A 
ATOM     25  C   UNL A   1      45.249  31.344  28.020  1.00  0.00     0.049 A 
ATOM     26  H   UNL A   1      44.969  29.291  27.796  1.00  0.00     0.167 HD
ATOM     27  C   UNL A   1      43.951  24.954  27.222  1.00  0.00     0.031 A 
ATOM     28  C   UNL A   1      46.540  31.582  27.721  1.00  0.00     0.031 A 
ATOM     29  C   UNL A   1      45.351  25.093  26.941  1.00  0.00     0.049 A 
ATOM     30  C   UNL A   1      47.399  30.395  27.371  1.00  0.00     0.074 A 
ATOM     31  C   UNL A   1      46.263  24.124  26.576  1.00  0.00     0.029 A 
ATOM     32  N   UNL A   1      46.040  26.299  27.002  1.00  0.00    -0.354 N 
ATOM     33  N   UNL A   1      47.046  29.136  27.232  1.00  0.00    -0.248 NA
ATOM     34  C   UNL A   1      48.827  30.649  27.153  1.00  0.00     0.031 C 
ATOM     35  C   UNL A   1      47.517  24.736  26.473  1.00  0.00     0.029 A 
ATOM     36  C   UNL A   1      47.371  26.098  26.704  1.00  0.00     0.049 A 
ATOM     37  H   UNL A   1      45.636  27.169  27.226  1.00  0.00     0.167 HD
ATOM     38  C   UNL A   1      48.203  28.450  26.890  1.00  0.00     0.074 A 
ATOM     39  C   UNL A   1      49.263  29.439  26.827  1.00  0.00     0.031 C 
ATOM     40  C   UNL A   1      48.384  27.126  26.651  1.00  0.00     0.031 A 
BRANCH  27  41
ATOM     41  C   UNL A   1      43.287  23.607  27.126  1.00  0.00    -0.014 A 
ATOM     42  C   UNL A   1      43.339  22.678  28.180  1.00  0.00     0.010 A 
ATOM     43  C   UNL A   1      42.634  23.250  25.932  1.00  0.00     0.010 A 
ATOM     44  C   UNL A   1      42.787  21.403  28.026  1.00  0.00     0.020 A 
ATOM     45  C   UNL A   1      42.058  21.986  25.784  1.00  0.00     0.020 A 
ATOM     46  C   UNL A   1      42.154  21.063  26.827  1.00  0.00     0.054 A 
BRANCH  46  47
ATOM     47  S   UNL A   1      41.443  19.404  26.654  1.00  0.00     0.124 S 
ATOM     48  O   UNL A   1      40.635  19.545  25.445  1.00  0.00    -0.237 OA
ATOM     49  O   UNL A   1      42.629  18.560  26.522  1.00  0.00    -0.237 OA
ATOM     50  O   UNL A   1      40.686  19.219  27.889  1.00  0.00    -0.744 OA
ENDBRANCH  46  47
ENDBRANCH  27  41
BRANCH  28  51
ATOM     51  C   UNL A   1      47.098  32.961  27.817  1.00  0.00    -0.014 A 
ATOM     52  C   UNL A   1      47.894  33.353  28.908  1.00  0.00     0.010 A 
ATOM     53  C   UNL A   1      46.830  33.903  26.804  1.00  0.00     0.010 A 
ATOM     54  C   UNL A   1      48.394  34.658  28.991  1.00  0.00     0.020 A 
ATOM     55  C   UNL A   1      47.352  35.198  26.867  1.00  0.00     0.020 A 
ATOM     56  C   UNL A   1      48.121  35.572  27.968  1.00  0.00     0.054 A 
BRANCH  56  57
ATOM     57  S   UNL A   1      48.806  37.249  28.081  1.00  0.00     0.124 S 
ATOM     58  O   UNL A   1      49.975  37.043  28.932  1.00  0.00    -0.237 OA
ATOM     59  O   UNL A   1      49.087  37.570  26.684  1.00  0.00    -0.237 OA
ATOM     60  O   UNL A   1      47.723  38.022  28.684  1.00  0.00    -0.744 OA
ENDBRANCH  56  57
ENDBRANCH  28  51
BRANCH  40  61
ATOM     61  C   UNL A   1      49.766  26.688  26.261  1.00  0.00    -0.014 A 
ATOM     62  C   UNL A   1      50.203  26.757  24.929  1.00  0.00     0.010 A 
ATOM     63  C   UNL A   1      50.662  26.281  27.267  1.00  0.00     0.010 A 
ATOM     64  C   UNL A   1      51.512  26.402  24.603  1.00  0.00     0.020 A 
ATOM     65  C   UNL A   1      51.979  25.957  26.951  1.00  0.00     0.020 A 
ATOM     66  C   UNL A   1      52.393  26.009  25.618  1.00  0.00     0.054 A 
BRANCH  66  67
ATOM     67  S   UNL A   1      54.106  25.616  25.177  1.00  0.00     0.124 S 
ATOM     68  O   UNL A   1      54.850  26.246  26.264  1.00  0.00    -0.237 OA
ATOM     69  O   UNL A   1      54.108  24.155  25.177  1.00  0.00    -0.237 OA
ATOM     70  O   UNL A   1      54.276  26.234  23.865  1.00  0.00    -0.744 OA
ENDBRANCH  66  67
ENDBRANCH  40  61
ENDBRANCH  14  15
ENDBRANCH   7   9
ENDBRANCH   6   7
ENDBRANCH   5   6
ENDBRANCH   4   5
ENDBRANCH   3   4
ENDBRANCH   2   3
ENDBRANCH   1   2
BRANCH   1  71
ATOM     71  O   UNL A   1      31.702  28.875  25.972  1.00  0.00    -0.377 OA
BRANCH  71  72
ATOM     72  C   UNL A   1      31.302  29.698  24.887  1.00  0.00     0.188 C 
BRANCH  72  73
ATOM     73  C   UNL A   1      30.642  29.059  23.640  1.00  0.00     0.188 C 
BRANCH  73  74
ATOM     74  O   UNL A   1      31.535  28.294  22.856  1.00  0.00    -0.376 OA
BRANCH  74  75
ATOM     75  C   UNL A   1      30.994  27.098  22.308  1.00  0.00     0.202 C 
BRANCH  75  76
ATOM     76  C   UNL A   1      31.041  25.870  23.227  1.00  0.00     0.261 C 
BRANCH  76  77
ATOM     77  O   UNL A   1      32.253  25.080  23.192  1.00  0.00    -0.463 OA
BRANCH  77  78
ATOM     78  C   UNL A   1      32.262  23.769  23.527  1.00  0.00     0.315 C 
ATOM     79  O   UNL A   1      31.963  22.861  22.757  1.00  0.00    -0.252 OA
BRANCH  78  80
ATOM     80  C   UNL A   1      32.763  23.524  24.952  1.00  0.00     0.167 C 
ATOM     81  C   UNL A   1      31.807  23.848  26.095  1.00  0.00     0.083 C 
ATOM     82  C   UNL A   1      33.219  22.076  25.217  1.00  0.00     0.228 C 
ATOM     83  C   UNL A   1      32.326  22.989  27.230  1.00  0.00     0.262 C 
ATOM     84  N   UNL A   1      32.808  21.755  26.611  1.00  0.00    -0.339 N 
ATOM     85  H   UNL A   1      32.062  21.059  26.601  1.00  0.00     0.346 HD
ATOM     86  H   UNL A   1      33.595  21.377  27.137  1.00  0.00     0.346 HD
BRANCH  82  87
ATOM     87  C   UNL A   1      34.699  21.828  24.983  1.00  0.00     0.013 A 
ATOM     88  C   UNL A   1      35.546  22.900  24.652  1.00  0.00     0.010 A 
ATOM     89  C   UNL A   1      35.280  20.561  25.156  1.00  0.00     0.049 A 
ATOM     90  C   UNL A   1      36.913  22.698  24.443  1.00  0.00     0.004 A 
ATOM     91  C   UNL A   1      36.634  20.365  24.922  1.00  0.00     0.123 A 
ATOM     92  C   UNL A   1      37.455  21.420  24.561  1.00  0.00     0.039 A 
ATOM     93  F   UNL A   1      37.145  19.134  25.048  1.00  0.00    -0.207 F 
ENDBRANCH  82  87
ENDBRANCH  78  80
ENDBRANCH  77  78
ENDBRANCH  76  77
ENDBRANCH  75  76
ENDBRANCH  74  75
ENDBRANCH  73  74
ENDBRANCH  72  73
ENDBRANCH  71  72
ENDBRANCH   1  71
TORSDOF 24
ENDMDL
MODEL 3
REMARK VINA RESULT:      -8.0      5.997     10.365
REMARK SMILES O=C(OCCOCCOCCOCCOC(=O)[C@H]1CC[NH2+][C@@H]1c1cccc(F)c1)c1ccc(-c2c3nc(c(-c4ccc(S(=O)(=O)[O-])cc4)c4ccc([nH]4)c(-c4ccc(S(=O)(=O)[O-])cc4)c4nc(c(-c5ccc(S(=O)(=O)[O-])cc5)c5ccc2[nH]5)C=C4)C=C3)cc1
REMARK SMILES IDX 8 1 7 2 6 3 5 4 4 5 3 6 2 7 1 8 30 9 31 10 89 11 32 12 88 13
REMARK SMILES IDX 33 14 34 15 35 16 82 17 36 18 87 19 81 20 83 21 37 22 86 23
REMARK SMILES IDX 80 24 79 25 38 27 68 28 49 29 67 30 50 31 53 32 66 33 84 34
REMARK SMILES IDX 51 35 52 36 65 38 85 39 54 40 39 41 40 42 48 43 41 44 47 45
REMARK SMILES IDX 42 46 43 47 44 48 45 49 46 50 69 51 70 52 78 53 71 54 77 55
REMARK SMILES IDX 72 56 73 57 74 58 75 59 76 60 55 61 56 62 64 63 57 64 63 65
REMARK SMILES IDX 58 66 59 67 60 68 61 69 62 70 9 71 10 72 11 73 12 74 13 75
REMARK SMILES IDX 14 76 15 77 16 78 17 79 18 80 19 81 22 82 20 83 21 84 23 87
REMARK SMILES IDX 24 88 29 89 25 90 27 91 26 92 28 93
REMARK H PARENT 83 26 53 37 21 85 21 86
REMARK Flexibility Score: inf
ROOT
ATOM      1  C   UNL A   1      45.769  22.867  25.204  1.00  0.00     0.188 C 
ENDROOT
BRANCH   1   2
ATOM      2  C   UNL A   1      44.979  23.762  26.157  1.00  0.00     0.188 C 
BRANCH   2   3
ATOM      3  O   UNL A   1      45.612  25.030  26.342  1.00  0.00    -0.376 OA
BRANCH   3   4
ATOM      4  C   UNL A   1      46.847  25.237  25.656  1.00  0.00     0.202 C 
BRANCH   4   5
ATOM      5  C   UNL A   1      47.309  26.692  25.605  1.00  0.00     0.261 C 
BRANCH   5   6
ATOM      6  O   UNL A   1      46.251  27.611  25.893  1.00  0.00    -0.460 OA
BRANCH   6   7
ATOM      7  C   UNL A   1      46.261  28.960  25.759  1.00  0.00     0.338 C 
ATOM      8  O   UNL A   1      46.608  29.415  24.668  1.00  0.00    -0.246 OA
BRANCH   7   9
ATOM      9  C   UNL A   1      45.920  29.943  26.847  1.00  0.00     0.060 A 
ATOM     10  C   UNL A   1      46.788  30.441  27.823  1.00  0.00     0.016 A 
ATOM     11  C   UNL A   1      44.605  30.446  26.834  1.00  0.00     0.016 A 
ATOM     12  C   UNL A   1      46.386  31.385  28.755  1.00  0.00     0.010 A 
ATOM     13  C   UNL A   1      44.176  31.376  27.786  1.00  0.00     0.010 A 
ATOM     14  C   UNL A   1      45.069  31.822  28.764  1.00  0.00    -0.014 A 
BRANCH  14  15
ATOM     15  C   UNL A   1      44.616  32.517  29.974  1.00  0.00     0.031 A 
ATOM     16  C   UNL A   1      44.235  31.655  31.141  1.00  0.00     0.074 A 
ATOM     17  C   UNL A   1      44.727  33.851  30.072  1.00  0.00     0.049 A 
ATOM     18  N   UNL A   1      43.772  31.999  32.308  1.00  0.00    -0.248 NA
ATOM     19  C   UNL A   1      44.431  30.200  30.974  1.00  0.00     0.031 C 
ATOM     20  C   UNL A   1      45.276  34.732  29.037  1.00  0.00     0.029 A 
ATOM     21  N   UNL A   1      44.419  34.695  31.102  1.00  0.00    -0.354 N 
ATOM     22  C   UNL A   1      43.589  30.807  33.000  1.00  0.00     0.074 A 
ATOM     23  C   UNL A   1      43.992  29.729  32.129  1.00  0.00     0.031 C 
ATOM     24  C   UNL A   1      45.268  35.997  29.492  1.00  0.00     0.029 A 
ATOM     25  C   UNL A   1      44.652  36.019  30.813  1.00  0.00     0.049 A 
ATOM     26  H   UNL A   1      44.065  34.385  31.966  1.00  0.00     0.167 HD
ATOM     27  C   UNL A   1      43.109  30.638  34.251  1.00  0.00     0.031 A 
ATOM     28  C   UNL A   1      44.351  37.115  31.533  1.00  0.00     0.031 A 
ATOM     29  C   UNL A   1      42.697  31.741  35.070  1.00  0.00     0.049 A 
ATOM     30  C   UNL A   1      43.678  36.905  32.865  1.00  0.00     0.074 A 
ATOM     31  C   UNL A   1      42.105  31.722  36.317  1.00  0.00     0.029 A 
ATOM     32  N   UNL A   1      42.839  33.076  34.706  1.00  0.00    -0.354 N 
ATOM     33  N   UNL A   1      43.408  35.775  33.480  1.00  0.00    -0.248 NA
ATOM     34  C   UNL A   1      43.255  38.105  33.593  1.00  0.00     0.031 C 
ATOM     35  C   UNL A   1      41.836  33.046  36.680  1.00  0.00     0.029 A 
ATOM     36  C   UNL A   1      42.325  33.891  35.693  1.00  0.00     0.049 A 
ATOM     37  H   UNL A   1      43.246  33.391  33.867  1.00  0.00     0.167 HD
ATOM     38  C   UNL A   1      42.802  36.128  34.678  1.00  0.00     0.074 A 
ATOM     39  C   UNL A   1      42.761  37.578  34.706  1.00  0.00     0.031 C 
ATOM     40  C   UNL A   1      42.317  35.335  35.668  1.00  0.00     0.031 A 
BRANCH  27  41
ATOM     41  C   UNL A   1      42.921  29.224  34.730  1.00  0.00    -0.014 A 
ATOM     42  C   UNL A   1      43.943  28.526  35.397  1.00  0.00     0.010 A 
ATOM     43  C   UNL A   1      41.706  28.568  34.463  1.00  0.00     0.010 A 
ATOM     44  C   UNL A   1      43.768  27.185  35.752  1.00  0.00     0.020 A 
ATOM     45  C   UNL A   1      41.517  27.235  34.839  1.00  0.00     0.020 A 
ATOM     46  C   UNL A   1      42.557  26.546  35.466  1.00  0.00     0.054 A 
BRANCH  46  47
ATOM     47  S   UNL A   1      42.354  24.808  35.940  1.00  0.00     0.124 S 
ATOM     48  O   UNL A   1      40.899  24.679  36.002  1.00  0.00    -0.237 OA
ATOM     49  O   UNL A   1      43.000  24.099  34.838  1.00  0.00    -0.237 OA
ATOM     50  O   UNL A   1      43.041  24.714  37.225  1.00  0.00    -0.744 OA
ENDBRANCH  46  47
ENDBRANCH  27  41
BRANCH  28  51
ATOM     51  C   UNL A   1      44.605  38.477  30.983  1.00  0.00    -0.014 A 
ATOM     52  C   UNL A   1      45.802  39.163  31.254  1.00  0.00     0.010 A 
ATOM     53  C   UNL A   1      43.635  39.104  30.176  1.00  0.00     0.010 A 
ATOM     54  C   UNL A   1      46.016  40.449  30.745  1.00  0.00     0.020 A 
ATOM     55  C   UNL A   1      43.857  40.376  29.639  1.00  0.00     0.020 A 
ATOM     56  C   UNL A   1      45.042  41.047  29.938  1.00  0.00     0.054 A 
BRANCH  56  57
ATOM     57  S   UNL A   1      45.354  42.702  29.262  1.00  0.00     0.124 S 
ATOM     58  O   UNL A   1      46.555  43.106  29.989  1.00  0.00    -0.237 OA
ATOM     59  O   UNL A   1      45.536  42.432  27.838  1.00  0.00    -0.237 OA
ATOM     60  O   UNL A   1      44.141  43.444  29.597  1.00  0.00    -0.744 OA
ENDBRANCH  56  57
ENDBRANCH  28  51
BRANCH  40  61
ATOM     61  C   UNL A   1      41.744  36.024  36.872  1.00  0.00    -0.014 A 
ATOM     62  C   UNL A   1      40.360  36.212  37.015  1.00  0.00     0.010 A 
ATOM     63  C   UNL A   1      42.609  36.413  37.912  1.00  0.00     0.010 A 
ATOM     64  C   UNL A   1      39.849  36.800  38.172  1.00  0.00     0.020 A 
ATOM     65  C   UNL A   1      42.100  36.970  39.083  1.00  0.00     0.020 A 
ATOM     66  C   UNL A   1      40.723  37.171  39.200  1.00  0.00     0.054 A 
BRANCH  66  67
ATOM     67  S   UNL A   1      40.028  37.873  40.720  1.00  0.00     0.124 S 
ATOM     68  O   UNL A   1      39.771  39.254  40.325  1.00  0.00    -0.237 OA
ATOM     69  O   UNL A   1      38.842  37.049  40.938  1.00  0.00    -0.237 OA
ATOM     70  O   UNL A   1      41.094  37.694  41.702  1.00  0.00    -0.744 OA
ENDBRANCH  66  67
ENDBRANCH  40  61
ENDBRANCH  14  15
ENDBRANCH   7   9
ENDBRANCH   6   7
ENDBRANCH   5   6
ENDBRANCH   4   5
ENDBRANCH   3   4
ENDBRANCH   2   3
ENDBRANCH   1   2
BRANCH   1  71
ATOM     71  O   UNL A   1      46.028  21.560  25.699  1.00  0.00    -0.377 OA
BRANCH  71  72
ATOM     72  C   UNL A   1      46.313  20.569  24.724  1.00  0.00     0.188 C 
BRANCH  72  73
ATOM     73  C   UNL A   1      45.515  19.243  24.721  1.00  0.00     0.188 C 
BRANCH  73  74
ATOM     74  O   UNL A   1      44.593  19.133  25.787  1.00  0.00    -0.376 OA
BRANCH  74  75
ATOM     75  C   UNL A   1      43.231  19.353  25.441  1.00  0.00     0.202 C 
BRANCH  75  76
ATOM     76  C   UNL A   1      42.673  20.735  25.805  1.00  0.00     0.261 C 
BRANCH  76  77
ATOM     77  O   UNL A   1      41.535  20.759  26.699  1.00  0.00    -0.463 OA
BRANCH  77  78
ATOM     78  C   UNL A   1      41.120  21.900  27.298  1.00  0.00     0.315 C 
ATOM     79  O   UNL A   1      41.591  22.338  28.343  1.00  0.00    -0.252 OA
BRANCH  78  80
ATOM     80  C   UNL A   1      40.049  22.637  26.491  1.00  0.00     0.167 C 
ATOM     81  C   UNL A   1      38.854  21.823  26.007  1.00  0.00     0.083 C 
ATOM     82  C   UNL A   1      39.433  23.846  27.223  1.00  0.00     0.228 C 
ATOM     83  C   UNL A   1      37.783  22.875  25.803  1.00  0.00     0.262 C 
ATOM     84  N   UNL A   1      37.991  23.869  26.855  1.00  0.00    -0.339 N 
ATOM     85  H   UNL A   1      37.421  23.637  27.668  1.00  0.00     0.346 HD
ATOM     86  H   UNL A   1      37.722  24.796  26.526  1.00  0.00     0.346 HD
BRANCH  82  87
ATOM     87  C   UNL A   1      40.120  25.171  26.940  1.00  0.00     0.013 A 
ATOM     88  C   UNL A   1      39.748  26.321  27.658  1.00  0.00     0.010 A 
ATOM     89  C   UNL A   1      41.180  25.282  26.026  1.00  0.00     0.049 A 
ATOM     90  C   UNL A   1      40.373  27.549  27.423  1.00  0.00     0.004 A 
ATOM     91  C   UNL A   1      41.778  26.510  25.780  1.00  0.00     0.123 A 
ATOM     92  C   UNL A   1      41.380  27.646  26.466  1.00  0.00     0.039 A 
ATOM     93  F   UNL A   1      42.752  26.589  24.866  1.00  0.00    -0.207 F 
ENDBRANCH  82  87
ENDBRANCH  78  80
ENDBRANCH  77  78
ENDBRANCH  76  77
ENDBRANCH  75  76
ENDBRANCH  74  75
ENDBRANCH  73  74
ENDBRANCH  72  73
ENDBRANCH  71  72
ENDBRANCH   1  71
TORSDOF 24
ENDMDL
