MODEL 1
REMARK VINA RESULT:      -8.2      0.000      0.000
REMARK SMILES O=C(C[C@H]1CN(S(=O)(=O)N2CCCCC2)CCO1)OCCOCCOCCOCCOC(=O)c1ccc(-c2c3nc(c(-c4ccc(S(=O)(=O)[O-])cc4)c4ccc([nH]4)c(-c4ccc(S(=O)(=O)[O-])cc4)c4nc(c(-c5ccc(S(=O)(=O)[O-])cc5)c5ccc2[nH]5)C=C4)C=C3)cc1
REMARK SMILES IDX 25 1 24 2 23 3 22 4 21 5 20 6 19 7 2 8 1 9 3 10 4 11 5 12
REMARK SMILES IDX 18 13 6 14 17 15 16 16 7 17 8 18 9 19 10 20 11 21 15 22
REMARK SMILES IDX 12 23 14 24 13 25 26 26 27 27 28 28 29 29 30 30 31 31 32 32
REMARK SMILES IDX 33 33 34 34 35 35 93 36 36 37 92 38 37 39 38 40 39 41 86 42
REMARK SMILES IDX 40 43 91 44 85 45 87 46 41 47 90 48 84 49 83 50 42 52 72 53
REMARK SMILES IDX 53 54 71 55 54 56 57 57 70 58 88 59 55 60 56 61 69 63 89 64
REMARK SMILES IDX 58 65 43 66 44 67 52 68 45 69 51 70 46 71 47 72 48 73 49 74
REMARK SMILES IDX 50 75 73 76 74 77 82 78 75 79 81 80 76 81 77 82 78 83 79 84
REMARK SMILES IDX 80 85 59 86 60 87 68 88 61 89 67 90 62 91 63 92 64 93 65 94
REMARK SMILES IDX 66 95
REMARK H PARENT 87 51 57 62
REMARK Flexibility Score: inf
ROOT
ATOM      1  O   UNL A   1      31.678  26.539  21.548  1.00  0.00    -0.377 OA
ENDROOT
BRANCH   1   2
ATOM      2  C   UNL A   1      31.349  27.115  22.794  1.00  0.00     0.188 C 
BRANCH   2   3
ATOM      3  C   UNL A   1      31.026  28.616  22.871  1.00  0.00     0.188 C 
BRANCH   3   4
ATOM      4  O   UNL A   1      30.860  29.446  24.018  1.00  0.00    -0.376 OA
BRANCH   4   5
ATOM      5  C   UNL A   1      31.604  29.577  25.220  1.00  0.00     0.202 C 
BRANCH   5   6
ATOM      6  C   UNL A   1      32.903  28.828  25.513  1.00  0.00     0.261 C 
BRANCH   6   7
ATOM      7  O   UNL A   1      32.887  28.086  26.719  1.00  0.00    -0.463 OA
BRANCH   7   8
ATOM      8  C   UNL A   1      31.854  27.251  26.983  1.00  0.00     0.308 C 
ATOM      9  O   UNL A   1      31.001  27.611  27.786  1.00  0.00    -0.252 OA
BRANCH   8  10
ATOM     10  C   UNL A   1      31.938  25.840  26.428  1.00  0.00     0.156 C 
BRANCH  10  11
ATOM     11  C   UNL A   1      30.795  25.222  25.666  1.00  0.00     0.144 C 
ATOM     12  C   UNL A   1      31.306  24.017  24.841  1.00  0.00     0.136 C 
ATOM     13  O   UNL A   1      29.640  24.915  26.430  1.00  0.00    -0.375 OA
ATOM     14  N   UNL A   1      31.456  22.756  25.621  1.00  0.00    -0.184 NA
ATOM     15  C   UNL A   1      29.800  23.746  27.237  1.00  0.00     0.177 C 
ATOM     16  C   UNL A   1      30.193  22.524  26.408  1.00  0.00     0.132 C 
BRANCH  14  17
ATOM     17  S   UNL A   1      32.872  22.267  26.413  1.00  0.00     0.282 S 
ATOM     18  O   UNL A   1      33.894  23.258  26.243  1.00  0.00    -0.195 OA
ATOM     19  O   UNL A   1      32.464  21.896  27.758  1.00  0.00    -0.195 OA
BRANCH  17  20
ATOM     20  N   UNL A   1      33.362  20.855  25.642  1.00  0.00    -0.189 NA
ATOM     21  C   UNL A   1      32.316  19.989  25.067  1.00  0.00     0.103 C 
ATOM     22  C   UNL A   1      34.699  20.748  25.018  1.00  0.00     0.103 C 
ATOM     23  C   UNL A   1      32.799  18.540  25.023  1.00  0.00     0.017 C 
ATOM     24  C   UNL A   1      35.163  19.295  24.906  1.00  0.00     0.017 C 
ATOM     25  C   UNL A   1      34.101  18.426  24.243  1.00  0.00     0.003 C 
ENDBRANCH  17  20
ENDBRANCH  14  17
ENDBRANCH  10  11
ENDBRANCH   8  10
ENDBRANCH   7   8
ENDBRANCH   6   7
ENDBRANCH   5   6
ENDBRANCH   4   5
ENDBRANCH   3   4
ENDBRANCH   2   3
ENDBRANCH   1   2
BRANCH   1  26
ATOM     26  C   UNL A   1      32.749  25.629  21.623  1.00  0.00     0.188 C 
BRANCH  26  27
ATOM     27  C   UNL A   1      33.708  25.957  22.787  1.00  0.00     0.188 C 
BRANCH  27  28
ATOM     28  O   UNL A   1      34.238  24.889  23.547  1.00  0.00    -0.376 OA
BRANCH  28  29
ATOM     29  C   UNL A   1      35.460  24.262  23.187  1.00  0.00     0.202 C 
BRANCH  29  30
ATOM     30  C   UNL A   1      36.393  23.437  24.109  1.00  0.00     0.261 C 
BRANCH  30  31
ATOM     31  O   UNL A   1      37.078  24.099  25.171  1.00  0.00    -0.460 OA
BRANCH  31  32
ATOM     32  C   UNL A   1      37.972  23.353  25.857  1.00  0.00     0.338 C 
ATOM     33  O   UNL A   1      38.191  22.162  25.718  1.00  0.00    -0.246 OA
BRANCH  32  34
ATOM     34  C   UNL A   1      38.855  24.274  26.609  1.00  0.00     0.060 A 
ATOM     35  C   UNL A   1      38.745  24.287  28.011  1.00  0.00     0.016 A 
ATOM     36  C   UNL A   1      39.808  25.067  25.966  1.00  0.00     0.016 A 
ATOM     37  C   UNL A   1      39.540  25.136  28.767  1.00  0.00     0.010 A 
ATOM     38  C   UNL A   1      40.570  25.964  26.722  1.00  0.00     0.010 A 
ATOM     39  C   UNL A   1      40.387  26.041  28.116  1.00  0.00    -0.014 A 
BRANCH  39  40
ATOM     40  C   UNL A   1      40.751  27.273  28.854  1.00  0.00     0.031 A 
ATOM     41  C   UNL A   1      42.145  27.332  29.425  1.00  0.00     0.074 A 
ATOM     42  C   UNL A   1      39.933  28.335  28.925  1.00  0.00     0.049 A 
ATOM     43  N   UNL A   1      42.745  28.305  30.056  1.00  0.00    -0.248 NA
ATOM     44  C   UNL A   1      42.979  26.128  29.249  1.00  0.00     0.031 C 
ATOM     45  C   UNL A   1      38.592  28.418  28.346  1.00  0.00     0.029 A 
ATOM     46  N   UNL A   1      40.126  29.560  29.510  1.00  0.00    -0.354 N 
ATOM     47  C   UNL A   1      44.015  27.825  30.362  1.00  0.00     0.074 A 
ATOM     48  C   UNL A   1      44.091  26.468  29.876  1.00  0.00     0.031 C 
ATOM     49  C   UNL A   1      38.084  29.637  28.606  1.00  0.00     0.029 A 
ATOM     50  C   UNL A   1      39.050  30.406  29.390  1.00  0.00     0.049 A 
ATOM     51  H   UNL A   1      40.959  29.810  29.972  1.00  0.00     0.167 HD
ATOM     52  C   UNL A   1      45.032  28.459  30.988  1.00  0.00     0.031 A 
ATOM     53  C   UNL A   1      38.869  31.652  29.870  1.00  0.00     0.031 A 
ATOM     54  C   UNL A   1      44.945  29.804  31.482  1.00  0.00     0.049 A 
ATOM     55  C   UNL A   1      39.991  32.311  30.636  1.00  0.00     0.074 A 
ATOM     56  C   UNL A   1      45.916  30.547  32.128  1.00  0.00     0.029 A 
ATOM     57  N   UNL A   1      43.816  30.605  31.393  1.00  0.00    -0.354 N 
ATOM     58  N   UNL A   1      41.192  31.853  30.905  1.00  0.00    -0.248 NA
ATOM     59  C   UNL A   1      39.737  33.666  31.145  1.00  0.00     0.031 C 
ATOM     60  C   UNL A   1      45.352  31.773  32.492  1.00  0.00     0.029 A 
ATOM     61  C   UNL A   1      44.057  31.826  31.998  1.00  0.00     0.049 A 
ATOM     62  H   UNL A   1      42.970  30.344  30.965  1.00  0.00     0.167 HD
ATOM     63  C   UNL A   1      41.850  32.881  31.577  1.00  0.00     0.074 A 
ATOM     64  C   UNL A   1      40.916  33.985  31.661  1.00  0.00     0.031 C 
ATOM     65  C   UNL A   1      43.114  32.914  32.070  1.00  0.00     0.031 A 
BRANCH  52  66
ATOM     66  C   UNL A   1      46.299  27.679  31.219  1.00  0.00    -0.014 A 
ATOM     67  C   UNL A   1      46.531  26.986  32.422  1.00  0.00     0.010 A 
ATOM     68  C   UNL A   1      47.271  27.628  30.204  1.00  0.00     0.010 A 
ATOM     69  C   UNL A   1      47.726  26.288  32.617  1.00  0.00     0.020 A 
ATOM     70  C   UNL A   1      48.451  26.904  30.381  1.00  0.00     0.020 A 
ATOM     71  C   UNL A   1      48.679  26.251  31.594  1.00  0.00     0.054 A 
BRANCH  71  72
ATOM     72  S   UNL A   1      50.207  25.311  31.861  1.00  0.00     0.124 S 
ATOM     73  O   UNL A   1      49.892  24.561  33.074  1.00  0.00    -0.237 OA
ATOM     74  O   UNL A   1      50.309  24.518  30.639  1.00  0.00    -0.237 OA
ATOM     75  O   UNL A   1      51.227  26.345  32.017  1.00  0.00    -0.744 OA
ENDBRANCH  71  72
ENDBRANCH  52  66
BRANCH  53  76
ATOM     76  C   UNL A   1      37.579  32.362  29.647  1.00  0.00    -0.014 A 
ATOM     77  C   UNL A   1      36.496  32.185  30.528  1.00  0.00     0.010 A 
ATOM     78  C   UNL A   1      37.422  33.213  28.539  1.00  0.00     0.010 A 
ATOM     79  C   UNL A   1      35.277  32.827  30.291  1.00  0.00     0.020 A 
ATOM     80  C   UNL A   1      36.214  33.883  28.316  1.00  0.00     0.020 A 
ATOM     81  C   UNL A   1      35.145  33.676  29.189  1.00  0.00     0.054 A 
BRANCH  81  82
ATOM     82  S   UNL A   1      33.568  34.535  28.931  1.00  0.00     0.124 S 
ATOM     83  O   UNL A   1      34.005  35.822  28.399  1.00  0.00    -0.237 OA
ATOM     84  O   UNL A   1      32.885  33.657  27.984  1.00  0.00    -0.237 OA
ATOM     85  O   UNL A   1      32.978  34.577  30.267  1.00  0.00    -0.744 OA
ENDBRANCH  81  82
ENDBRANCH  53  76
BRANCH  65  86
ATOM     86  C   UNL A   1      43.588  34.206  32.686  1.00  0.00    -0.014 A 
ATOM     87  C   UNL A   1      43.656  34.383  34.079  1.00  0.00     0.010 A 
ATOM     88  C   UNL A   1      44.009  35.252  31.843  1.00  0.00     0.010 A 
ATOM     89  C   UNL A   1      44.084  35.602  34.615  1.00  0.00     0.020 A 
ATOM     90  C   UNL A   1      44.473  36.456  32.374  1.00  0.00     0.020 A 
ATOM     91  C   UNL A   1      44.486  36.632  33.758  1.00  0.00     0.054 A 
BRANCH  91  92
ATOM     92  S   UNL A   1      45.046  38.199  34.478  1.00  0.00     0.124 S 
ATOM     93  O   UNL A   1      46.379  37.852  34.960  1.00  0.00    -0.237 OA
ATOM     94  O   UNL A   1      45.006  39.108  33.334  1.00  0.00    -0.237 OA
ATOM     95  O   UNL A   1      44.058  38.475  35.519  1.00  0.00    -0.744 OA
ENDBRANCH  91  92
ENDBRANCH  65  86
ENDBRANCH  39  40
ENDBRANCH  32  34
ENDBRANCH  31  32
ENDBRANCH  30  31
ENDBRANCH  29  30
ENDBRANCH  28  29
ENDBRANCH  27  28
ENDBRANCH  26  27
ENDBRANCH   1  26
TORSDOF 26
ENDMDL
MODEL 2
REMARK VINA RESULT:      -7.7      6.321      9.532
REMARK SMILES O=C(C[C@H]1CN(S(=O)(=O)N2CCCCC2)CCO1)OCCOCCOCCOCCOC(=O)c1ccc(-c2c3nc(c(-c4ccc(S(=O)(=O)[O-])cc4)c4ccc([nH]4)c(-c4ccc(S(=O)(=O)[O-])cc4)c4nc(c(-c5ccc(S(=O)(=O)[O-])cc5)c5ccc2[nH]5)C=C4)C=C3)cc1
REMARK SMILES IDX 25 1 24 2 23 3 22 4 21 5 20 6 19 7 2 8 1 9 3 10 4 11 5 12
REMARK SMILES IDX 18 13 6 14 17 15 16 16 7 17 8 18 9 19 10 20 11 21 15 22
REMARK SMILES IDX 12 23 14 24 13 25 26 26 27 27 28 28 29 29 30 30 31 31 32 32
REMARK SMILES IDX 33 33 34 34 35 35 93 36 36 37 92 38 37 39 38 40 39 41 86 42
REMARK SMILES IDX 40 43 91 44 85 45 87 46 41 47 90 48 84 49 83 50 42 52 72 53
REMARK SMILES IDX 53 54 71 55 54 56 57 57 70 58 88 59 55 60 56 61 69 63 89 64
REMARK SMILES IDX 58 65 43 66 44 67 52 68 45 69 51 70 46 71 47 72 48 73 49 74
REMARK SMILES IDX 50 75 73 76 74 77 82 78 75 79 81 80 76 81 77 82 78 83 79 84
REMARK SMILES IDX 80 85 59 86 60 87 68 88 61 89 67 90 62 91 63 92 64 93 65 94
REMARK SMILES IDX 66 95
REMARK H PARENT 87 51 57 62
REMARK Flexibility Score: inf
ROOT
ATOM      1  O   UNL A   1      45.963  23.933  24.058  1.00  0.00    -0.377 OA
ENDROOT
BRANCH   1   2
ATOM      2  C   UNL A   1      46.481  22.659  24.379  1.00  0.00     0.188 C 
BRANCH   2   3
ATOM      3  C   UNL A   1      45.519  21.538  24.803  1.00  0.00     0.188 C 
BRANCH   3   4
ATOM      4  O   UNL A   1      45.815  20.242  25.318  1.00  0.00    -0.376 OA
BRANCH   4   5
ATOM      5  C   UNL A   1      45.231  18.967  25.095  1.00  0.00     0.202 C 
BRANCH   5   6
ATOM      6  C   UNL A   1      43.869  18.539  25.638  1.00  0.00     0.261 C 
BRANCH   6   7
ATOM      7  O   UNL A   1      42.773  19.234  25.072  1.00  0.00    -0.463 OA
BRANCH   7   8
ATOM      8  C   UNL A   1      41.785  19.700  25.871  1.00  0.00     0.308 C 
ATOM      9  O   UNL A   1      40.684  19.162  25.813  1.00  0.00    -0.252 OA
BRANCH   8  10
ATOM     10  C   UNL A   1      42.047  20.990  26.626  1.00  0.00     0.156 C 
BRANCH  10  11
ATOM     11  C   UNL A   1      41.112  21.479  27.700  1.00  0.00     0.144 C 
ATOM     12  C   UNL A   1      41.851  22.479  28.623  1.00  0.00     0.136 C 
ATOM     13  O   UNL A   1      39.859  21.970  27.251  1.00  0.00    -0.375 OA
ATOM     14  N   UNL A   1      41.941  23.864  28.083  1.00  0.00    -0.184 NA
ATOM     15  C   UNL A   1      39.947  23.271  26.665  1.00  0.00     0.177 C 
ATOM     16  C   UNL A   1      40.573  24.289  27.617  1.00  0.00     0.132 C 
BRANCH  14  17
ATOM     17  S   UNL A   1      43.215  24.457  27.135  1.00  0.00     0.282 S 
ATOM     18  O   UNL A   1      44.467  23.985  27.651  1.00  0.00    -0.195 OA
ATOM     19  O   UNL A   1      42.858  24.154  25.759  1.00  0.00    -0.195 OA
BRANCH  17  20
ATOM     20  N   UNL A   1      43.165  26.130  27.298  1.00  0.00    -0.189 NA
ATOM     21  C   UNL A   1      43.611  26.708  28.578  1.00  0.00     0.103 C 
ATOM     22  C   UNL A   1      43.276  27.017  26.119  1.00  0.00     0.103 C 
ATOM     23  C   UNL A   1      42.918  28.049  28.819  1.00  0.00     0.017 C 
ATOM     24  C   UNL A   1      42.645  28.387  26.374  1.00  0.00     0.017 C 
ATOM     25  C   UNL A   1      43.172  29.005  27.663  1.00  0.00     0.003 C 
ENDBRANCH  17  20
ENDBRANCH  14  17
ENDBRANCH  10  11
ENDBRANCH   8  10
ENDBRANCH   7   8
ENDBRANCH   6   7
ENDBRANCH   5   6
ENDBRANCH   4   5
ENDBRANCH   3   4
ENDBRANCH   2   3
ENDBRANCH   1   2
BRANCH   1  26
ATOM     26  C   UNL A   1      46.255  24.911  25.027  1.00  0.00     0.188 C 
BRANCH  26  27
ATOM     27  C   UNL A   1      47.031  26.105  24.431  1.00  0.00     0.188 C 
BRANCH  27  28
ATOM     28  O   UNL A   1      48.173  25.841  23.642  1.00  0.00    -0.376 OA
BRANCH  28  29
ATOM     29  C   UNL A   1      48.973  26.894  23.125  1.00  0.00     0.202 C 
BRANCH  29  30
ATOM     30  C   UNL A   1      50.348  27.369  23.658  1.00  0.00     0.261 C 
BRANCH  30  31
ATOM     31  O   UNL A   1      50.386  28.344  24.699  1.00  0.00    -0.460 OA
BRANCH  31  32
ATOM     32  C   UNL A   1      50.190  27.881  25.954  1.00  0.00     0.338 C 
ATOM     33  O   UNL A   1      50.908  27.114  26.571  1.00  0.00    -0.246 OA
BRANCH  32  34
ATOM     34  C   UNL A   1      49.109  28.683  26.573  1.00  0.00     0.060 A 
ATOM     35  C   UNL A   1      49.480  29.705  27.464  1.00  0.00     0.016 A 
ATOM     36  C   UNL A   1      47.766  28.478  26.249  1.00  0.00     0.016 A 
ATOM     37  C   UNL A   1      48.510  30.482  28.080  1.00  0.00     0.010 A 
ATOM     38  C   UNL A   1      46.785  29.223  26.913  1.00  0.00     0.010 A 
ATOM     39  C   UNL A   1      47.159  30.179  27.875  1.00  0.00    -0.014 A 
BRANCH  39  40
ATOM     40  C   UNL A   1      46.209  30.588  28.935  1.00  0.00     0.031 A 
ATOM     41  C   UNL A   1      45.996  29.613  30.066  1.00  0.00     0.074 A 
ATOM     42  C   UNL A   1      45.644  31.807  28.962  1.00  0.00     0.049 A 
ATOM     43  N   UNL A   1      45.277  29.738  31.148  1.00  0.00    -0.248 NA
ATOM     44  C   UNL A   1      46.703  28.323  29.962  1.00  0.00     0.031 C 
ATOM     45  C   UNL A   1      45.837  32.857  27.963  1.00  0.00     0.029 A 
ATOM     46  N   UNL A   1      44.798  32.366  29.884  1.00  0.00    -0.354 N 
ATOM     47  C   UNL A   1      45.433  28.543  31.841  1.00  0.00     0.074 A 
ATOM     48  C   UNL A   1      46.290  27.694  31.048  1.00  0.00     0.031 C 
ATOM     49  C   UNL A   1      45.126  33.939  28.330  1.00  0.00     0.029 A 
ATOM     50  C   UNL A   1      44.410  33.647  29.572  1.00  0.00     0.049 A 
ATOM     51  H   UNL A   1      44.497  31.895  30.695  1.00  0.00     0.167 HD
ATOM     52  C   UNL A   1      44.915  28.182  33.037  1.00  0.00     0.031 A 
ATOM     53  C   UNL A   1      43.566  34.478  30.215  1.00  0.00     0.031 A 
ATOM     54  C   UNL A   1      44.051  29.025  33.815  1.00  0.00     0.049 A 
ATOM     55  C   UNL A   1      42.935  34.023  31.509  1.00  0.00     0.074 A 
ATOM     56  C   UNL A   1      43.473  28.763  35.043  1.00  0.00     0.029 A 
ATOM     57  N   UNL A   1      43.635  30.292  33.434  1.00  0.00    -0.354 N 
ATOM     58  N   UNL A   1      43.104  32.897  32.162  1.00  0.00    -0.248 NA
ATOM     59  C   UNL A   1      42.016  34.965  32.163  1.00  0.00     0.031 C 
ATOM     60  C   UNL A   1      42.650  29.843  35.372  1.00  0.00     0.029 A 
ATOM     61  C   UNL A   1      42.783  30.814  34.391  1.00  0.00     0.049 A 
ATOM     62  H   UNL A   1      43.905  30.751  32.606  1.00  0.00     0.167 HD
ATOM     63  C   UNL A   1      42.345  33.013  33.324  1.00  0.00     0.074 A 
ATOM     64  C   UNL A   1      41.728  34.323  33.287  1.00  0.00     0.031 C 
ATOM     65  C   UNL A   1      42.180  32.122  34.336  1.00  0.00     0.031 A 
BRANCH  52  66
ATOM     66  C   UNL A   1      45.226  26.797  33.540  1.00  0.00    -0.014 A 
ATOM     67  C   UNL A   1      46.366  26.533  34.321  1.00  0.00     0.010 A 
ATOM     68  C   UNL A   1      44.349  25.741  33.234  1.00  0.00     0.010 A 
ATOM     69  C   UNL A   1      46.640  25.233  34.755  1.00  0.00     0.020 A 
ATOM     70  C   UNL A   1      44.601  24.447  33.693  1.00  0.00     0.020 A 
ATOM     71  C   UNL A   1      45.755  24.198  34.439  1.00  0.00     0.054 A 
BRANCH  71  72
ATOM     72  S   UNL A   1      46.118  22.526  35.041  1.00  0.00     0.124 S 
ATOM     73  O   UNL A   1      47.569  22.460  34.889  1.00  0.00    -0.237 OA
ATOM     74  O   UNL A   1      45.631  22.572  36.417  1.00  0.00    -0.237 OA
ATOM     75  O   UNL A   1      45.358  21.661  34.142  1.00  0.00    -0.744 OA
ENDBRANCH  71  72
ENDBRANCH  52  66
BRANCH  53  76
ATOM     76  C   UNL A   1      43.261  35.822  29.650  1.00  0.00    -0.014 A 
ATOM     77  C   UNL A   1      42.328  35.973  28.608  1.00  0.00     0.010 A 
ATOM     78  C   UNL A   1      43.917  36.964  30.146  1.00  0.00     0.010 A 
ATOM     79  C   UNL A   1      42.075  37.234  28.059  1.00  0.00     0.020 A 
ATOM     80  C   UNL A   1      43.642  38.231  29.622  1.00  0.00     0.020 A 
ATOM     81  C   UNL A   1      42.731  38.356  28.573  1.00  0.00     0.054 A 
BRANCH  81  82
ATOM     82  S   UNL A   1      42.348  39.986  27.876  1.00  0.00     0.124 S 
ATOM     83  O   UNL A   1      41.327  39.662  26.884  1.00  0.00    -0.237 OA
ATOM     84  O   UNL A   1      41.882  40.725  29.046  1.00  0.00    -0.237 OA
ATOM     85  O   UNL A   1      43.628  40.436  27.333  1.00  0.00    -0.744 OA
ENDBRANCH  81  82
ENDBRANCH  53  76
BRANCH  65  86
ATOM     86  C   UNL A   1      41.352  32.558  35.519  1.00  0.00    -0.014 A 
ATOM     87  C   UNL A   1      39.981  32.264  35.614  1.00  0.00     0.010 A 
ATOM     88  C   UNL A   1      41.979  33.245  36.576  1.00  0.00     0.010 A 
ATOM     89  C   UNL A   1      39.241  32.699  36.719  1.00  0.00     0.020 A 
ATOM     90  C   UNL A   1      41.253  33.647  37.697  1.00  0.00     0.020 A 
ATOM     91  C   UNL A   1      39.882  33.392  37.751  1.00  0.00     0.054 A 
BRANCH  91  92
ATOM     92  S   UNL A   1      38.903  33.937  39.177  1.00  0.00     0.124 S 
ATOM     93  O   UNL A   1      37.632  33.256  38.950  1.00  0.00    -0.237 OA
ATOM     94  O   UNL A   1      39.687  33.448  40.309  1.00  0.00    -0.237 OA
ATOM     95  O   UNL A   1      38.866  35.391  39.035  1.00  0.00    -0.744 OA
ENDBRANCH  91  92
ENDBRANCH  65  86
ENDBRANCH  39  40
ENDBRANCH  32  34
ENDBRANCH  31  32
ENDBRANCH  30  31
ENDBRANCH  29  30
ENDBRANCH  28  29
ENDBRANCH  27  28
ENDBRANCH  26  27
ENDBRANCH   1  26
TORSDOF 26
ENDMDL
MODEL 3
REMARK VINA RESULT:      -7.2      2.067      2.585
REMARK SMILES O=C(C[C@H]1CN(S(=O)(=O)N2CCCCC2)CCO1)OCCOCCOCCOCCOC(=O)c1ccc(-c2c3nc(c(-c4ccc(S(=O)(=O)[O-])cc4)c4ccc([nH]4)c(-c4ccc(S(=O)(=O)[O-])cc4)c4nc(c(-c5ccc(S(=O)(=O)[O-])cc5)c5ccc2[nH]5)C=C4)C=C3)cc1
REMARK SMILES IDX 25 1 24 2 23 3 22 4 21 5 20 6 19 7 2 8 1 9 3 10 4 11 5 12
REMARK SMILES IDX 18 13 6 14 17 15 16 16 7 17 8 18 9 19 10 20 11 21 15 22
REMARK SMILES IDX 12 23 14 24 13 25 26 26 27 27 28 28 29 29 30 30 31 31 32 32
REMARK SMILES IDX 33 33 34 34 35 35 93 36 36 37 92 38 37 39 38 40 39 41 86 42
REMARK SMILES IDX 40 43 91 44 85 45 87 46 41 47 90 48 84 49 83 50 42 52 72 53
REMARK SMILES IDX 53 54 71 55 54 56 57 57 70 58 88 59 55 60 56 61 69 63 89 64
REMARK SMILES IDX 58 65 43 66 44 67 52 68 45 69 51 70 46 71 47 72 48 73 49 74
REMARK SMILES IDX 50 75 73 76 74 77 82 78 75 79 81 80 76 81 77 82 78 83 79 84
REMARK SMILES IDX 80 85 59 86 60 87 68 88 61 89 67 90 62 91 63 92 64 93 65 94
REMARK SMILES IDX 66 95
REMARK H PARENT 87 51 57 62
REMARK Flexibility Score: inf
ROOT
ATOM      1  O   UNL A   1      31.900  26.245  21.565  1.00  0.00    -0.377 OA
ENDROOT
BRANCH   1   2
ATOM      2  C   UNL A   1      31.673  26.929  22.779  1.00  0.00     0.188 C 
BRANCH   2   3
ATOM      3  C   UNL A   1      31.257  28.409  22.746  1.00  0.00     0.188 C 
BRANCH   3   4
ATOM      4  O   UNL A   1      30.857  29.257  23.819  1.00  0.00    -0.376 OA
BRANCH   4   5
ATOM      5  C   UNL A   1      31.442  29.547  25.080  1.00  0.00     0.202 C 
BRANCH   5   6
ATOM      6  C   UNL A   1      32.820  29.057  25.520  1.00  0.00     0.261 C 
BRANCH   6   7
ATOM      7  O   UNL A   1      32.805  28.246  26.680  1.00  0.00    -0.463 OA
BRANCH   7   8
ATOM      8  C   UNL A   1      31.790  27.373  26.879  1.00  0.00     0.308 C 
ATOM      9  O   UNL A   1      30.938  27.648  27.718  1.00  0.00    -0.252 OA
BRANCH   8  10
ATOM     10  C   UNL A   1      31.892  26.017  26.204  1.00  0.00     0.156 C 
BRANCH  10  11
ATOM     11  C   UNL A   1      30.701  25.374  25.542  1.00  0.00     0.144 C 
ATOM     12  C   UNL A   1      31.147  24.097  24.789  1.00  0.00     0.136 C 
ATOM     13  O   UNL A   1      29.576  25.155  26.377  1.00  0.00    -0.375 OA
ATOM     14  N   UNL A   1      31.304  22.895  25.656  1.00  0.00    -0.184 NA
ATOM     15  C   UNL A   1      29.746  24.046  27.263  1.00  0.00     0.177 C 
ATOM     16  C   UNL A   1      30.073  22.756  26.513  1.00  0.00     0.132 C 
BRANCH  14  17
ATOM     17  S   UNL A   1      32.743  22.430  26.421  1.00  0.00     0.282 S 
ATOM     18  O   UNL A   1      33.750  23.430  26.216  1.00  0.00    -0.195 OA
ATOM     19  O   UNL A   1      32.370  22.070  27.778  1.00  0.00    -0.195 OA
BRANCH  17  20
ATOM     20  N   UNL A   1      33.230  21.015  25.654  1.00  0.00    -0.189 NA
ATOM     21  C   UNL A   1      32.205  20.233  24.940  1.00  0.00     0.103 C 
ATOM     22  C   UNL A   1      34.619  20.845  25.172  1.00  0.00     0.103 C 
ATOM     23  C   UNL A   1      32.605  18.759  24.893  1.00  0.00     0.017 C 
ATOM     24  C   UNL A   1      35.007  19.370  25.057  1.00  0.00     0.017 C 
ATOM     25  C   UNL A   1      33.974  18.589  24.252  1.00  0.00     0.003 C 
ENDBRANCH  17  20
ENDBRANCH  14  17
ENDBRANCH  10  11
ENDBRANCH   8  10
ENDBRANCH   7   8
ENDBRANCH   6   7
ENDBRANCH   5   6
ENDBRANCH   4   5
ENDBRANCH   3   4
ENDBRANCH   2   3
ENDBRANCH   1   2
BRANCH   1  26
ATOM     26  C   UNL A   1      33.012  25.383  21.614  1.00  0.00     0.188 C 
BRANCH  26  27
ATOM     27  C   UNL A   1      33.797  25.524  22.935  1.00  0.00     0.188 C 
BRANCH  27  28
ATOM     28  O   UNL A   1      34.369  24.364  23.507  1.00  0.00    -0.376 OA
BRANCH  28  29
ATOM     29  C   UNL A   1      35.611  23.850  23.048  1.00  0.00     0.202 C 
BRANCH  29  30
ATOM     30  C   UNL A   1      36.719  23.186  23.902  1.00  0.00     0.261 C 
BRANCH  30  31
ATOM     31  O   UNL A   1      37.380  23.961  24.902  1.00  0.00    -0.460 OA
BRANCH  31  32
ATOM     32  C   UNL A   1      38.010  23.264  25.874  1.00  0.00     0.338 C 
ATOM     33  O   UNL A   1      37.977  22.058  26.048  1.00  0.00    -0.246 OA
BRANCH  32  34
ATOM     34  C   UNL A   1      38.985  24.168  26.526  1.00  0.00     0.060 A 
ATOM     35  C   UNL A   1      38.697  24.612  27.828  1.00  0.00     0.016 A 
ATOM     36  C   UNL A   1      40.182  24.530  25.902  1.00  0.00     0.016 A 
ATOM     37  C   UNL A   1      39.571  25.467  28.485  1.00  0.00     0.010 A 
ATOM     38  C   UNL A   1      41.035  25.437  26.540  1.00  0.00     0.010 A 
ATOM     39  C   UNL A   1      40.694  25.952  27.804  1.00  0.00    -0.014 A 
BRANCH  39  40
ATOM     40  C   UNL A   1      41.250  27.247  28.262  1.00  0.00     0.031 A 
ATOM     41  C   UNL A   1      42.733  27.449  28.076  1.00  0.00     0.074 A 
ATOM     42  C   UNL A   1      40.472  28.241  28.718  1.00  0.00     0.049 A 
ATOM     43  N   UNL A   1      43.467  28.500  28.326  1.00  0.00    -0.248 NA
ATOM     44  C   UNL A   1      43.487  26.309  27.521  1.00  0.00     0.031 C 
ATOM     45  C   UNL A   1      39.019  28.185  28.870  1.00  0.00     0.029 A 
ATOM     46  N   UNL A   1      40.806  29.507  29.126  1.00  0.00    -0.354 N 
ATOM     47  C   UNL A   1      44.764  28.142  27.973  1.00  0.00     0.074 A 
ATOM     48  C   UNL A   1      44.725  26.772  27.521  1.00  0.00     0.031 C 
ATOM     49  C   UNL A   1      38.586  29.370  29.338  1.00  0.00     0.029 A 
ATOM     50  C   UNL A   1      39.732  30.255  29.543  1.00  0.00     0.049 A 
ATOM     51  H   UNL A   1      41.730  29.848  29.119  1.00  0.00     0.167 HD
ATOM     52  C   UNL A   1      45.891  28.889  28.016  1.00  0.00     0.031 A 
ATOM     53  C   UNL A   1      39.689  31.506  30.043  1.00  0.00     0.031 A 
ATOM     54  C   UNL A   1      45.926  30.246  28.482  1.00  0.00     0.049 A 
ATOM     55  C   UNL A   1      40.972  32.294  30.157  1.00  0.00     0.074 A 
ATOM     56  C   UNL A   1      47.012  31.098  28.564  1.00  0.00     0.029 A 
ATOM     57  N   UNL A   1      44.826  30.947  28.953  1.00  0.00    -0.354 N 
ATOM     58  N   UNL A   1      42.190  31.950  29.805  1.00  0.00    -0.248 NA
ATOM     59  C   UNL A   1      40.869  33.649  30.716  1.00  0.00     0.031 C 
ATOM     60  C   UNL A   1      46.582  32.291  29.150  1.00  0.00     0.029 A 
ATOM     61  C   UNL A   1      45.212  32.213  29.354  1.00  0.00     0.049 A 
ATOM     62  H   UNL A   1      43.908  30.595  28.995  1.00  0.00     0.167 HD
ATOM     63  C   UNL A   1      42.989  33.061  30.062  1.00  0.00     0.074 A 
ATOM     64  C   UNL A   1      42.113  34.089  30.587  1.00  0.00     0.031 C 
ATOM     65  C   UNL A   1      44.323  33.223  29.872  1.00  0.00     0.031 A 
BRANCH  52  66
ATOM     66  C   UNL A   1      47.179  28.227  27.602  1.00  0.00    -0.014 A 
ATOM     67  C   UNL A   1      47.433  27.876  26.263  1.00  0.00     0.010 A 
ATOM     68  C   UNL A   1      48.161  27.964  28.574  1.00  0.00     0.010 A 
ATOM     69  C   UNL A   1      48.628  27.243  25.912  1.00  0.00     0.020 A 
ATOM     70  C   UNL A   1      49.371  27.363  28.223  1.00  0.00     0.020 A 
ATOM     71  C   UNL A   1      49.591  26.991  26.895  1.00  0.00     0.054 A 
BRANCH  71  72
ATOM     72  S   UNL A   1      51.147  26.197  26.407  1.00  0.00     0.124 S 
ATOM     73  O   UNL A   1      51.198  26.488  24.976  1.00  0.00    -0.237 OA
ATOM     74  O   UNL A   1      52.131  26.899  27.226  1.00  0.00    -0.237 OA
ATOM     75  O   UNL A   1      50.942  24.792  26.750  1.00  0.00    -0.744 OA
ENDBRANCH  71  72
ENDBRANCH  52  66
BRANCH  53  76
ATOM     76  C   UNL A   1      38.392  32.097  30.477  1.00  0.00    -0.014 A 
ATOM     77  C   UNL A   1      38.285  32.784  31.700  1.00  0.00     0.010 A 
ATOM     78  C   UNL A   1      37.247  31.961  29.670  1.00  0.00     0.010 A 
ATOM     79  C   UNL A   1      37.055  33.303  32.116  1.00  0.00     0.020 A 
ATOM     80  C   UNL A   1      36.023  32.507  30.068  1.00  0.00     0.020 A 
ATOM     81  C   UNL A   1      35.933  33.165  31.295  1.00  0.00     0.054 A 
BRANCH  81  82
ATOM     82  S   UNL A   1      34.360  33.890  31.837  1.00  0.00     0.124 S 
ATOM     83  O   UNL A   1      33.775  34.328  30.573  1.00  0.00    -0.237 OA
ATOM     84  O   UNL A   1      33.700  32.758  32.482  1.00  0.00    -0.237 OA
ATOM     85  O   UNL A   1      34.770  34.961  32.742  1.00  0.00    -0.744 OA
ENDBRANCH  81  82
ENDBRANCH  53  76
BRANCH  65  86
ATOM     86  C   UNL A   1      44.910  34.580  30.170  1.00  0.00    -0.014 A 
ATOM     87  C   UNL A   1      44.960  35.596  29.199  1.00  0.00     0.010 A 
ATOM     88  C   UNL A   1      45.386  34.850  31.467  1.00  0.00     0.010 A 
ATOM     89  C   UNL A   1      45.526  36.838  29.507  1.00  0.00     0.020 A 
ATOM     90  C   UNL A   1      45.918  36.100  31.788  1.00  0.00     0.020 A 
ATOM     91  C   UNL A   1      46.005  37.079  30.798  1.00  0.00     0.054 A 
BRANCH  91  92
ATOM     92  S   UNL A   1      46.728  38.699  31.174  1.00  0.00     0.124 S 
ATOM     93  O   UNL A   1      47.243  39.110  29.871  1.00  0.00    -0.237 OA
ATOM     94  O   UNL A   1      45.578  39.456  31.663  1.00  0.00    -0.237 OA
ATOM     95  O   UNL A   1      47.743  38.401  32.180  1.00  0.00    -0.744 OA
ENDBRANCH  91  92
ENDBRANCH  65  86
ENDBRANCH  39  40
ENDBRANCH  32  34
ENDBRANCH  31  32
ENDBRANCH  30  31
ENDBRANCH  29  30
ENDBRANCH  28  29
ENDBRANCH  27  28
ENDBRANCH  26  27
ENDBRANCH   1  26
TORSDOF 26
ENDMDL
