MODEL 1
REMARK VINA RESULT:      -9.5      0.000      0.000
REMARK SMILES O=C(OCCOCCOCCOCCOC(=O)c1ccc2c(=O)n(Cc3cccnc3)c(=O)[nH]c2c1)c1ccc(-c2c3nc(c(-c4ccc(S(=O)(=O)[O-])cc4)c4ccc([nH]4)c(-c4ccc(S(=O)(=O)[O-])cc4)c4nc(c(-c5ccc(S(=O)(=O)[O-])cc5)c5ccc2[nH]5)C=C4)C=C3)cc1
REMARK SMILES IDX 8 1 7 2 6 3 5 4 4 5 3 6 2 7 1 8 37 9 38 10 96 11 39 12 95 13
REMARK SMILES IDX 40 14 41 15 42 16 89 17 43 18 94 19 88 20 90 21 44 22 93 23
REMARK SMILES IDX 87 24 86 25 45 27 75 28 56 29 74 30 57 31 60 32 73 33 91 34
REMARK SMILES IDX 58 35 59 36 72 38 92 39 61 40 46 41 47 42 55 43 48 44 54 45
REMARK SMILES IDX 49 46 50 47 51 48 52 49 53 50 76 51 77 52 85 53 78 54 84 55
REMARK SMILES IDX 79 56 80 57 81 58 82 59 83 60 62 61 63 62 71 63 64 64 70 65
REMARK SMILES IDX 65 66 66 67 67 68 68 69 69 70 9 71 10 72 11 73 12 74 13 75
REMARK SMILES IDX 14 76 15 77 16 78 17 79 18 80 19 81 36 82 20 83 35 84 21 85
REMARK SMILES IDX 34 86 22 87 32 88 23 90 24 91 33 92 25 93 26 94 27 95 31 96
REMARK SMILES IDX 28 97 30 98 29 99
REMARK H PARENT 90 26 60 37 34 89
REMARK Flexibility Score: inf
ROOT
ATOM      1  C   UNL A   1      31.505  27.511  25.226  1.00  0.00     0.188 C 
ENDROOT
BRANCH   1   2
ATOM      2  C   UNL A   1      31.881  28.620  26.213  1.00  0.00     0.188 C 
BRANCH   2   3
ATOM      3  O   UNL A   1      31.768  29.920  25.637  1.00  0.00    -0.376 OA
BRANCH   3   4
ATOM      4  C   UNL A   1      31.687  31.015  26.540  1.00  0.00     0.202 C 
BRANCH   4   5
ATOM      5  C   UNL A   1      32.958  31.335  27.315  1.00  0.00     0.261 C 
BRANCH   5   6
ATOM      6  O   UNL A   1      32.972  32.598  27.991  1.00  0.00    -0.460 OA
BRANCH   6   7
ATOM      7  C   UNL A   1      33.956  33.496  28.224  1.00  0.00     0.338 C 
ATOM      8  O   UNL A   1      33.860  34.578  27.643  1.00  0.00    -0.246 OA
BRANCH   7   9
ATOM      9  C   UNL A   1      35.187  33.276  29.056  1.00  0.00     0.060 A 
ATOM     10  C   UNL A   1      35.086  32.286  30.057  1.00  0.00     0.016 A 
ATOM     11  C   UNL A   1      36.383  33.988  28.980  1.00  0.00     0.016 A 
ATOM     12  C   UNL A   1      36.132  32.034  30.951  1.00  0.00     0.010 A 
ATOM     13  C   UNL A   1      37.408  33.792  29.904  1.00  0.00     0.010 A 
ATOM     14  C   UNL A   1      37.301  32.792  30.872  1.00  0.00    -0.014 A 
BRANCH  14  15
ATOM     15  C   UNL A   1      38.540  32.386  31.558  1.00  0.00     0.031 A 
ATOM     16  C   UNL A   1      39.462  31.361  30.983  1.00  0.00     0.074 A 
ATOM     17  C   UNL A   1      38.672  32.832  32.821  1.00  0.00     0.049 A 
ATOM     18  N   UNL A   1      40.564  30.885  31.496  1.00  0.00    -0.248 NA
ATOM     19  C   UNL A   1      39.094  30.773  29.687  1.00  0.00     0.031 C 
ATOM     20  C   UNL A   1      37.724  33.741  33.477  1.00  0.00     0.029 A 
ATOM     21  N   UNL A   1      39.596  32.559  33.790  1.00  0.00    -0.354 N 
ATOM     22  C   UNL A   1      41.032  29.945  30.586  1.00  0.00     0.074 A 
ATOM     23  C   UNL A   1      40.069  29.887  29.507  1.00  0.00     0.031 C 
ATOM     24  C   UNL A   1      38.108  33.938  34.743  1.00  0.00     0.029 A 
ATOM     25  C   UNL A   1      39.321  33.170  34.990  1.00  0.00     0.049 A 
ATOM     26  H   UNL A   1      40.380  31.981  33.644  1.00  0.00     0.167 HD
ATOM     27  C   UNL A   1      42.171  29.217  30.665  1.00  0.00     0.031 A 
ATOM     28  C   UNL A   1      39.979  33.130  36.163  1.00  0.00     0.031 A 
ATOM     29  C   UNL A   1      43.070  29.300  31.791  1.00  0.00     0.049 A 
ATOM     30  C   UNL A   1      41.258  32.357  36.215  1.00  0.00     0.074 A 
ATOM     31  C   UNL A   1      44.318  28.722  31.937  1.00  0.00     0.029 A 
ATOM     32  N   UNL A   1      42.805  29.982  32.973  1.00  0.00    -0.354 N 
ATOM     33  N   UNL A   1      41.800  31.624  35.269  1.00  0.00    -0.248 NA
ATOM     34  C   UNL A   1      42.033  32.420  37.457  1.00  0.00     0.031 C 
ATOM     35  C   UNL A   1      44.760  28.973  33.238  1.00  0.00     0.029 A 
ATOM     36  C   UNL A   1      43.836  29.789  33.877  1.00  0.00     0.049 A 
ATOM     37  H   UNL A   1      42.000  30.525  33.144  1.00  0.00     0.167 HD
ATOM     38  C   UNL A   1      42.988  31.143  35.796  1.00  0.00     0.074 A 
ATOM     39  C   UNL A   1      43.095  31.687  37.138  1.00  0.00     0.031 C 
ATOM     40  C   UNL A   1      43.902  30.324  35.219  1.00  0.00     0.031 A 
BRANCH  27  41
ATOM     41  C   UNL A   1      42.537  28.291  29.526  1.00  0.00    -0.014 A 
ATOM     42  C   UNL A   1      43.172  28.802  28.377  1.00  0.00     0.010 A 
ATOM     43  C   UNL A   1      42.127  26.945  29.524  1.00  0.00     0.010 A 
ATOM     44  C   UNL A   1      43.356  28.004  27.242  1.00  0.00     0.020 A 
ATOM     45  C   UNL A   1      42.337  26.133  28.403  1.00  0.00     0.020 A 
ATOM     46  C   UNL A   1      42.927  26.675  27.260  1.00  0.00     0.054 A 
BRANCH  46  47
ATOM     47  S   UNL A   1      43.133  25.665  25.765  1.00  0.00     0.124 S 
ATOM     48  O   UNL A   1      42.182  24.581  25.988  1.00  0.00    -0.237 OA
ATOM     49  O   UNL A   1      42.789  26.601  24.698  1.00  0.00    -0.237 OA
ATOM     50  O   UNL A   1      44.542  25.276  25.806  1.00  0.00    -0.744 OA
ENDBRANCH  46  47
ENDBRANCH  27  41
BRANCH  28  51
ATOM     51  C   UNL A   1      39.457  33.962  37.280  1.00  0.00    -0.014 A 
ATOM     52  C   UNL A   1      39.961  35.260  37.499  1.00  0.00     0.010 A 
ATOM     53  C   UNL A   1      38.659  33.364  38.269  1.00  0.00     0.010 A 
ATOM     54  C   UNL A   1      39.760  35.901  38.726  1.00  0.00     0.020 A 
ATOM     55  C   UNL A   1      38.432  34.013  39.487  1.00  0.00     0.020 A 
ATOM     56  C   UNL A   1      39.021  35.258  39.723  1.00  0.00     0.054 A 
BRANCH  56  57
ATOM     57  S   UNL A   1      38.915  36.030  41.362  1.00  0.00     0.124 S 
ATOM     58  O   UNL A   1      40.152  35.569  41.990  1.00  0.00    -0.237 OA
ATOM     59  O   UNL A   1      38.867  37.453  41.040  1.00  0.00    -0.237 OA
ATOM     60  O   UNL A   1      37.686  35.477  41.924  1.00  0.00    -0.744 OA
ENDBRANCH  56  57
ENDBRANCH  28  51
BRANCH  40  61
ATOM     61  C   UNL A   1      45.087  29.908  36.048  1.00  0.00    -0.014 A 
ATOM     62  C   UNL A   1      44.999  28.772  36.875  1.00  0.00     0.010 A 
ATOM     63  C   UNL A   1      46.209  30.749  36.145  1.00  0.00     0.010 A 
ATOM     64  C   UNL A   1      45.979  28.526  37.838  1.00  0.00     0.020 A 
ATOM     65  C   UNL A   1      47.208  30.485  37.083  1.00  0.00     0.020 A 
ATOM     66  C   UNL A   1      47.066  29.397  37.949  1.00  0.00     0.054 A 
BRANCH  66  67
ATOM     67  S   UNL A   1      48.269  29.120  39.276  1.00  0.00     0.124 S 
ATOM     68  O   UNL A   1      47.460  29.331  40.472  1.00  0.00    -0.237 OA
ATOM     69  O   UNL A   1      48.695  27.744  39.036  1.00  0.00    -0.237 OA
ATOM     70  O   UNL A   1      49.293  30.134  39.029  1.00  0.00    -0.744 OA
ENDBRANCH  66  67
ENDBRANCH  40  61
ENDBRANCH  14  15
ENDBRANCH   7   9
ENDBRANCH   6   7
ENDBRANCH   5   6
ENDBRANCH   4   5
ENDBRANCH   3   4
ENDBRANCH   2   3
ENDBRANCH   1   2
BRANCH   1  71
ATOM     71  O   UNL A   1      30.771  26.414  25.763  1.00  0.00    -0.377 OA
BRANCH  71  72
ATOM     72  C   UNL A   1      31.200  25.110  25.390  1.00  0.00     0.188 C 
BRANCH  72  73
ATOM     73  C   UNL A   1      30.601  24.448  24.125  1.00  0.00     0.188 C 
BRANCH  73  74
ATOM     74  O   UNL A   1      31.568  24.064  23.167  1.00  0.00    -0.376 OA
BRANCH  74  75
ATOM     75  C   UNL A   1      32.812  24.748  23.208  1.00  0.00     0.202 C 
BRANCH  75  76
ATOM     76  C   UNL A   1      34.071  24.033  22.681  1.00  0.00     0.261 C 
BRANCH  76  77
ATOM     77  O   UNL A   1      34.369  22.730  23.223  1.00  0.00    -0.460 OA
BRANCH  77  78
ATOM     78  C   UNL A   1      34.416  22.594  24.560  1.00  0.00     0.338 C 
ATOM     79  O   UNL A   1      33.479  22.415  25.326  1.00  0.00    -0.246 OA
BRANCH  78  80
ATOM     80  C   UNL A   1      35.833  22.504  24.972  1.00  0.00     0.062 A 
ATOM     81  C   UNL A   1      36.551  23.675  25.232  1.00  0.00     0.016 A 
ATOM     82  C   UNL A   1      36.453  21.239  25.076  1.00  0.00     0.042 A 
ATOM     83  C   UNL A   1      37.838  23.575  25.754  1.00  0.00     0.017 A 
ATOM     84  C   UNL A   1      37.782  21.161  25.474  1.00  0.00     0.056 A 
ATOM     85  C   UNL A   1      38.411  22.310  25.920  1.00  0.00     0.064 A 
ATOM     86  N   UNL A   1      38.518  19.974  25.418  1.00  0.00    -0.307 N 
ATOM     87  C   UNL A   1      39.634  22.125  26.695  1.00  0.00     0.264 A 
ATOM     88  C   UNL A   1      39.840  19.880  25.794  1.00  0.00     0.329 A 
ATOM     89  H   UNL A   1      38.067  19.162  25.091  1.00  0.00     0.171 HD
ATOM     90  O   UNL A   1      39.866  22.933  27.591  1.00  0.00    -0.268 OA
ATOM     91  N   UNL A   1      40.385  20.992  26.422  1.00  0.00    -0.255 N 
ATOM     92  O   UNL A   1      40.447  18.828  25.604  1.00  0.00    -0.248 OA
BRANCH  91  93
ATOM     93  C   UNL A   1      41.704  20.889  27.043  1.00  0.00     0.168 C 
BRANCH  93  94
ATOM     94  C   UNL A   1      42.819  20.604  26.060  1.00  0.00    -0.010 A 
ATOM     95  C   UNL A   1      43.284  19.308  25.804  1.00  0.00     0.009 A 
ATOM     96  C   UNL A   1      43.417  21.629  25.335  1.00  0.00     0.116 A 
ATOM     97  C   UNL A   1      44.329  19.089  24.915  1.00  0.00     0.020 A 
ATOM     98  N   UNL A   1      44.418  21.446  24.439  1.00  0.00    -0.264 NA
ATOM     99  C   UNL A   1      44.858  20.182  24.261  1.00  0.00     0.111 A 
ENDBRANCH  93  94
ENDBRANCH  91  93
ENDBRANCH  78  80
ENDBRANCH  77  78
ENDBRANCH  76  77
ENDBRANCH  75  76
ENDBRANCH  74  75
ENDBRANCH  73  74
ENDBRANCH  72  73
ENDBRANCH  71  72
ENDBRANCH   1  71
TORSDOF 25
ENDMDL
MODEL 2
REMARK VINA RESULT:      -8.6      4.769      7.064
REMARK SMILES O=C(OCCOCCOCCOCCOC(=O)c1ccc2c(=O)n(Cc3cccnc3)c(=O)[nH]c2c1)c1ccc(-c2c3nc(c(-c4ccc(S(=O)(=O)[O-])cc4)c4ccc([nH]4)c(-c4ccc(S(=O)(=O)[O-])cc4)c4nc(c(-c5ccc(S(=O)(=O)[O-])cc5)c5ccc2[nH]5)C=C4)C=C3)cc1
REMARK SMILES IDX 8 1 7 2 6 3 5 4 4 5 3 6 2 7 1 8 37 9 38 10 96 11 39 12 95 13
REMARK SMILES IDX 40 14 41 15 42 16 89 17 43 18 94 19 88 20 90 21 44 22 93 23
REMARK SMILES IDX 87 24 86 25 45 27 75 28 56 29 74 30 57 31 60 32 73 33 91 34
REMARK SMILES IDX 58 35 59 36 72 38 92 39 61 40 46 41 47 42 55 43 48 44 54 45
REMARK SMILES IDX 49 46 50 47 51 48 52 49 53 50 76 51 77 52 85 53 78 54 84 55
REMARK SMILES IDX 79 56 80 57 81 58 82 59 83 60 62 61 63 62 71 63 64 64 70 65
REMARK SMILES IDX 65 66 66 67 67 68 68 69 69 70 9 71 10 72 11 73 12 74 13 75
REMARK SMILES IDX 14 76 15 77 16 78 17 79 18 80 19 81 36 82 20 83 35 84 21 85
REMARK SMILES IDX 34 86 22 87 32 88 23 90 24 91 33 92 25 93 26 94 27 95 31 96
REMARK SMILES IDX 28 97 30 98 29 99
REMARK H PARENT 90 26 60 37 34 89
REMARK Flexibility Score: inf
ROOT
ATOM      1  C   UNL A   1      31.867  27.849  25.276  1.00  0.00     0.188 C 
ENDROOT
BRANCH   1   2
ATOM      2  C   UNL A   1      32.402  28.789  26.361  1.00  0.00     0.188 C 
BRANCH   2   3
ATOM      3  O   UNL A   1      32.568  30.125  25.886  1.00  0.00    -0.376 OA
BRANCH   3   4
ATOM      4  C   UNL A   1      32.762  31.132  26.871  1.00  0.00     0.202 C 
BRANCH   4   5
ATOM      5  C   UNL A   1      34.135  31.164  27.528  1.00  0.00     0.261 C 
BRANCH   5   6
ATOM      6  O   UNL A   1      34.161  31.602  28.892  1.00  0.00    -0.460 OA
BRANCH   6   7
ATOM      7  C   UNL A   1      34.836  32.592  29.518  1.00  0.00     0.338 C 
ATOM      8  O   UNL A   1      34.215  33.639  29.714  1.00  0.00    -0.246 OA
BRANCH   7   9
ATOM      9  C   UNL A   1      36.280  32.569  29.928  1.00  0.00     0.060 A 
ATOM     10  C   UNL A   1      37.141  31.805  29.111  1.00  0.00     0.016 A 
ATOM     11  C   UNL A   1      36.837  33.168  31.057  1.00  0.00     0.016 A 
ATOM     12  C   UNL A   1      38.494  31.637  29.421  1.00  0.00     0.010 A 
ATOM     13  C   UNL A   1      38.168  32.955  31.413  1.00  0.00     0.010 A 
ATOM     14  C   UNL A   1      39.010  32.217  30.580  1.00  0.00    -0.014 A 
BRANCH  14  15
ATOM     15  C   UNL A   1      40.460  32.346  30.808  1.00  0.00     0.031 A 
ATOM     16  C   UNL A   1      41.243  33.504  30.282  1.00  0.00     0.074 A 
ATOM     17  C   UNL A   1      41.061  31.257  31.325  1.00  0.00     0.049 A 
ATOM     18  N   UNL A   1      42.527  33.723  30.377  1.00  0.00    -0.248 NA
ATOM     19  C   UNL A   1      40.507  34.532  29.531  1.00  0.00     0.031 C 
ATOM     20  C   UNL A   1      40.349  30.042  31.740  1.00  0.00     0.029 A 
ATOM     21  N   UNL A   1      42.377  30.962  31.542  1.00  0.00    -0.354 N 
ATOM     22  C   UNL A   1      42.758  34.918  29.707  1.00  0.00     0.074 A 
ATOM     23  C   UNL A   1      41.487  35.354  29.171  1.00  0.00     0.031 C 
ATOM     24  C   UNL A   1      41.237  29.130  32.148  1.00  0.00     0.029 A 
ATOM     25  C   UNL A   1      42.576  29.689  32.020  1.00  0.00     0.049 A 
ATOM     26  H   UNL A   1      43.111  31.598  31.373  1.00  0.00     0.167 HD
ATOM     27  C   UNL A   1      43.936  35.573  29.573  1.00  0.00     0.031 A 
ATOM     28  C   UNL A   1      43.712  29.041  32.335  1.00  0.00     0.031 A 
ATOM     29  C   UNL A   1      45.176  35.060  30.105  1.00  0.00     0.049 A 
ATOM     30  C   UNL A   1      44.998  29.799  32.224  1.00  0.00     0.074 A 
ATOM     31  C   UNL A   1      46.410  35.682  30.158  1.00  0.00     0.029 A 
ATOM     32  N   UNL A   1      45.344  33.791  30.650  1.00  0.00    -0.354 N 
ATOM     33  N   UNL A   1      45.181  31.017  31.770  1.00  0.00    -0.248 NA
ATOM     34  C   UNL A   1      46.216  29.130  32.687  1.00  0.00     0.031 C 
ATOM     35  C   UNL A   1      47.339  34.758  30.641  1.00  0.00     0.029 A 
ATOM     36  C   UNL A   1      46.672  33.589  30.983  1.00  0.00     0.049 A 
ATOM     37  H   UNL A   1      44.623  33.133  30.780  1.00  0.00     0.167 HD
ATOM     38  C   UNL A   1      46.538  31.270  31.900  1.00  0.00     0.074 A 
ATOM     39  C   UNL A   1      47.123  30.082  32.496  1.00  0.00     0.031 C 
ATOM     40  C   UNL A   1      47.231  32.382  31.554  1.00  0.00     0.031 A 
BRANCH  27  41
ATOM     41  C   UNL A   1      43.963  36.907  28.859  1.00  0.00    -0.014 A 
ATOM     42  C   UNL A   1      43.715  38.095  29.573  1.00  0.00     0.010 A 
ATOM     43  C   UNL A   1      44.090  36.978  27.459  1.00  0.00     0.010 A 
ATOM     44  C   UNL A   1      43.557  39.315  28.905  1.00  0.00     0.020 A 
ATOM     45  C   UNL A   1      43.965  38.200  26.789  1.00  0.00     0.020 A 
ATOM     46  C   UNL A   1      43.673  39.357  27.513  1.00  0.00     0.054 A 
BRANCH  46  47
ATOM     47  S   UNL A   1      43.422  40.938  26.658  1.00  0.00     0.124 S 
ATOM     48  O   UNL A   1      43.938  41.901  27.626  1.00  0.00    -0.237 OA
ATOM     49  O   UNL A   1      44.217  40.774  25.443  1.00  0.00    -0.237 OA
ATOM     50  O   UNL A   1      41.976  40.985  26.442  1.00  0.00    -0.744 OA
ENDBRANCH  46  47
ENDBRANCH  27  41
BRANCH  28  51
ATOM     51  C   UNL A   1      43.596  27.668  32.896  1.00  0.00    -0.014 A 
ATOM     52  C   UNL A   1      43.288  27.477  34.258  1.00  0.00     0.010 A 
ATOM     53  C   UNL A   1      44.047  26.575  32.137  1.00  0.00     0.010 A 
ATOM     54  C   UNL A   1      43.530  26.244  34.872  1.00  0.00     0.020 A 
ATOM     55  C   UNL A   1      44.264  25.333  32.742  1.00  0.00     0.020 A 
ATOM     56  C   UNL A   1      44.046  25.189  34.114  1.00  0.00     0.054 A 
BRANCH  56  57
ATOM     57  S   UNL A   1      44.512  23.654  34.964  1.00  0.00     0.124 S 
ATOM     58  O   UNL A   1      43.247  22.923  34.977  1.00  0.00    -0.237 OA
ATOM     59  O   UNL A   1      45.544  23.107  34.087  1.00  0.00    -0.237 OA
ATOM     60  O   UNL A   1      44.982  24.112  36.268  1.00  0.00    -0.744 OA
ENDBRANCH  56  57
ENDBRANCH  28  51
BRANCH  40  61
ATOM     61  C   UNL A   1      48.723  32.365  31.755  1.00  0.00    -0.014 A 
ATOM     62  C   UNL A   1      49.550  31.738  30.805  1.00  0.00     0.010 A 
ATOM     63  C   UNL A   1      49.274  32.803  32.971  1.00  0.00     0.010 A 
ATOM     64  C   UNL A   1      50.890  31.482  31.099  1.00  0.00     0.020 A 
ATOM     65  C   UNL A   1      50.623  32.580  33.254  1.00  0.00     0.020 A 
ATOM     66  C   UNL A   1      51.411  31.887  32.331  1.00  0.00     0.054 A 
BRANCH  66  67
ATOM     67  S   UNL A   1      53.122  31.448  32.737  1.00  0.00     0.124 S 
ATOM     68  O   UNL A   1      53.106  29.995  32.604  1.00  0.00    -0.237 OA
ATOM     69  O   UNL A   1      53.883  32.167  31.718  1.00  0.00    -0.237 OA
ATOM     70  O   UNL A   1      53.292  31.948  34.100  1.00  0.00    -0.744 OA
ENDBRANCH  66  67
ENDBRANCH  40  61
ENDBRANCH  14  15
ENDBRANCH   7   9
ENDBRANCH   6   7
ENDBRANCH   5   6
ENDBRANCH   4   5
ENDBRANCH   3   4
ENDBRANCH   2   3
ENDBRANCH   1   2
BRANCH   1  71
ATOM     71  O   UNL A   1      30.904  26.887  25.698  1.00  0.00    -0.377 OA
BRANCH  71  72
ATOM     72  C   UNL A   1      31.110  25.544  25.276  1.00  0.00     0.188 C 
BRANCH  72  73
ATOM     73  C   UNL A   1      30.512  25.072  23.928  1.00  0.00     0.188 C 
BRANCH  73  74
ATOM     74  O   UNL A   1      31.468  24.540  23.032  1.00  0.00    -0.376 OA
BRANCH  74  75
ATOM     75  C   UNL A   1      32.783  25.069  23.117  1.00  0.00     0.202 C 
BRANCH  75  76
ATOM     76  C   UNL A   1      33.971  24.175  22.708  1.00  0.00     0.261 C 
BRANCH  76  77
ATOM     77  O   UNL A   1      33.956  22.807  23.161  1.00  0.00    -0.460 OA
BRANCH  77  78
ATOM     78  C   UNL A   1      34.042  22.574  24.483  1.00  0.00     0.338 C 
ATOM     79  O   UNL A   1      33.136  22.274  25.248  1.00  0.00    -0.246 OA
BRANCH  78  80
ATOM     80  C   UNL A   1      35.470  22.550  24.863  1.00  0.00     0.062 A 
ATOM     81  C   UNL A   1      36.152  23.756  25.055  1.00  0.00     0.016 A 
ATOM     82  C   UNL A   1      36.136  21.313  25.005  1.00  0.00     0.042 A 
ATOM     83  C   UNL A   1      37.454  23.722  25.548  1.00  0.00     0.017 A 
ATOM     84  C   UNL A   1      37.477  21.298  25.373  1.00  0.00     0.056 A 
ATOM     85  C   UNL A   1      38.075  22.486  25.754  1.00  0.00     0.064 A 
ATOM     86  N   UNL A   1      38.252  20.136  25.350  1.00  0.00    -0.307 N 
ATOM     87  C   UNL A   1      39.322  22.378  26.506  1.00  0.00     0.264 A 
ATOM     88  C   UNL A   1      39.585  20.104  25.697  1.00  0.00     0.329 A 
ATOM     89  H   UNL A   1      37.822  19.295  25.070  1.00  0.00     0.171 HD
ATOM     90  O   UNL A   1      39.546  23.231  27.360  1.00  0.00    -0.268 OA
ATOM     91  N   UNL A   1      40.105  21.260  26.263  1.00  0.00    -0.255 N 
ATOM     92  O   UNL A   1      40.224  19.065  25.537  1.00  0.00    -0.248 OA
BRANCH  91  93
ATOM     93  C   UNL A   1      41.441  21.229  26.854  1.00  0.00     0.168 C 
BRANCH  93  94
ATOM     94  C   UNL A   1      42.534  21.690  25.914  1.00  0.00    -0.010 A 
ATOM     95  C   UNL A   1      42.718  23.037  25.575  1.00  0.00     0.009 A 
ATOM     96  C   UNL A   1      43.436  20.787  25.365  1.00  0.00     0.116 A 
ATOM     97  C   UNL A   1      43.716  23.418  24.687  1.00  0.00     0.020 A 
ATOM     98  N   UNL A   1      44.439  21.129  24.519  1.00  0.00    -0.264 NA
ATOM     99  C   UNL A   1      44.546  22.435  24.190  1.00  0.00     0.111 A 
ENDBRANCH  93  94
ENDBRANCH  91  93
ENDBRANCH  78  80
ENDBRANCH  77  78
ENDBRANCH  76  77
ENDBRANCH  75  76
ENDBRANCH  74  75
ENDBRANCH  73  74
ENDBRANCH  72  73
ENDBRANCH  71  72
ENDBRANCH   1  71
TORSDOF 25
ENDMDL
MODEL 3
REMARK VINA RESULT:      -8.3      5.098     11.135
REMARK SMILES O=C(OCCOCCOCCOCCOC(=O)c1ccc2c(=O)n(Cc3cccnc3)c(=O)[nH]c2c1)c1ccc(-c2c3nc(c(-c4ccc(S(=O)(=O)[O-])cc4)c4ccc([nH]4)c(-c4ccc(S(=O)(=O)[O-])cc4)c4nc(c(-c5ccc(S(=O)(=O)[O-])cc5)c5ccc2[nH]5)C=C4)C=C3)cc1
REMARK SMILES IDX 8 1 7 2 6 3 5 4 4 5 3 6 2 7 1 8 37 9 38 10 96 11 39 12 95 13
REMARK SMILES IDX 40 14 41 15 42 16 89 17 43 18 94 19 88 20 90 21 44 22 93 23
REMARK SMILES IDX 87 24 86 25 45 27 75 28 56 29 74 30 57 31 60 32 73 33 91 34
REMARK SMILES IDX 58 35 59 36 72 38 92 39 61 40 46 41 47 42 55 43 48 44 54 45
REMARK SMILES IDX 49 46 50 47 51 48 52 49 53 50 76 51 77 52 85 53 78 54 84 55
REMARK SMILES IDX 79 56 80 57 81 58 82 59 83 60 62 61 63 62 71 63 64 64 70 65
REMARK SMILES IDX 65 66 66 67 67 68 68 69 69 70 9 71 10 72 11 73 12 74 13 75
REMARK SMILES IDX 14 76 15 77 16 78 17 79 18 80 19 81 36 82 20 83 35 84 21 85
REMARK SMILES IDX 34 86 22 87 32 88 23 90 24 91 33 92 25 93 26 94 27 95 31 96
REMARK SMILES IDX 28 97 30 98 29 99
REMARK H PARENT 90 26 60 37 34 89
REMARK Flexibility Score: inf
ROOT
ATOM      1  C   UNL A   1      45.369  22.000  24.749  1.00  0.00     0.188 C 
ENDROOT
BRANCH   1   2
ATOM      2  C   UNL A   1      46.013  23.260  25.335  1.00  0.00     0.188 C 
BRANCH   2   3
ATOM      3  O   UNL A   1      46.558  24.110  24.326  1.00  0.00    -0.376 OA
BRANCH   3   4
ATOM      4  C   UNL A   1      47.061  25.368  24.755  1.00  0.00     0.202 C 
BRANCH   4   5
ATOM      5  C   UNL A   1      46.095  26.236  25.550  1.00  0.00     0.261 C 
BRANCH   5   6
ATOM      6  O   UNL A   1      46.209  27.648  25.335  1.00  0.00    -0.460 OA
BRANCH   6   7
ATOM      7  C   UNL A   1      46.908  28.614  25.973  1.00  0.00     0.338 C 
ATOM      8  O   UNL A   1      48.107  28.694  25.699  1.00  0.00    -0.246 OA
BRANCH   7   9
ATOM      9  C   UNL A   1      46.387  29.541  27.033  1.00  0.00     0.060 A 
ATOM     10  C   UNL A   1      44.992  29.756  27.034  1.00  0.00     0.016 A 
ATOM     11  C   UNL A   1      47.143  30.250  27.966  1.00  0.00     0.016 A 
ATOM     12  C   UNL A   1      44.386  30.654  27.918  1.00  0.00     0.010 A 
ATOM     13  C   UNL A   1      46.560  31.196  28.809  1.00  0.00     0.010 A 
ATOM     14  C   UNL A   1      45.177  31.378  28.812  1.00  0.00    -0.014 A 
BRANCH  14  15
ATOM     15  C   UNL A   1      44.596  32.093  29.962  1.00  0.00     0.031 A 
ATOM     16  C   UNL A   1      44.651  33.581  30.076  1.00  0.00     0.074 A 
ATOM     17  C   UNL A   1      44.214  31.315  30.991  1.00  0.00     0.049 A 
ATOM     18  N   UNL A   1      44.214  34.335  31.049  1.00  0.00    -0.248 NA
ATOM     19  C   UNL A   1      45.301  34.319  28.983  1.00  0.00     0.031 C 
ATOM     20  C   UNL A   1      44.261  29.847  30.977  1.00  0.00     0.029 A 
ATOM     21  N   UNL A   1      43.770  31.620  32.247  1.00  0.00    -0.354 N 
ATOM     22  C   UNL A   1      44.526  35.640  30.687  1.00  0.00     0.074 A 
ATOM     23  C   UNL A   1      45.228  35.571  29.424  1.00  0.00     0.031 C 
ATOM     24  C   UNL A   1      43.875  29.382  32.169  1.00  0.00     0.029 A 
ATOM     25  C   UNL A   1      43.559  30.512  33.033  1.00  0.00     0.049 A 
ATOM     26  H   UNL A   1      43.617  32.542  32.559  1.00  0.00     0.167 HD
ATOM     27  C   UNL A   1      44.231  36.775  31.364  1.00  0.00     0.031 A 
ATOM     28  C   UNL A   1      43.144  30.412  34.309  1.00  0.00     0.031 A 
ATOM     29  C   UNL A   1      43.556  36.767  32.640  1.00  0.00     0.049 A 
ATOM     30  C   UNL A   1      42.780  31.676  35.023  1.00  0.00     0.074 A 
ATOM     31  C   UNL A   1      43.080  37.843  33.366  1.00  0.00     0.029 A 
ATOM     32  N   UNL A   1      43.289  35.628  33.391  1.00  0.00    -0.354 N 
ATOM     33  N   UNL A   1      42.892  32.910  34.589  1.00  0.00    -0.248 NA
ATOM     34  C   UNL A   1      42.211  31.550  36.366  1.00  0.00     0.031 C 
ATOM     35  C   UNL A   1      42.616  37.365  34.593  1.00  0.00     0.029 A 
ATOM     36  C   UNL A   1      42.711  35.980  34.599  1.00  0.00     0.049 A 
ATOM     37  H   UNL A   1      43.481  34.705  33.106  1.00  0.00     0.167 HD
ATOM     38  C   UNL A   1      42.398  33.715  35.603  1.00  0.00     0.074 A 
ATOM     39  C   UNL A   1      41.967  32.822  36.665  1.00  0.00     0.031 C 
ATOM     40  C   UNL A   1      42.314  35.067  35.649  1.00  0.00     0.031 A 
BRANCH  27  41
ATOM     41  C   UNL A   1      44.599  38.113  30.760  1.00  0.00    -0.014 A 
ATOM     42  C   UNL A   1      43.739  38.729  29.830  1.00  0.00     0.010 A 
ATOM     43  C   UNL A   1      45.859  38.694  30.997  1.00  0.00     0.010 A 
ATOM     44  C   UNL A   1      44.141  39.870  29.126  1.00  0.00     0.020 A 
ATOM     45  C   UNL A   1      46.253  39.854  30.320  1.00  0.00     0.020 A 
ATOM     46  C   UNL A   1      45.401  40.420  29.369  1.00  0.00     0.054 A 
BRANCH  46  47
ATOM     47  S   UNL A   1      45.924  41.874  28.417  1.00  0.00     0.124 S 
ATOM     48  O   UNL A   1      44.701  42.240  27.710  1.00  0.00    -0.237 OA
ATOM     49  O   UNL A   1      46.354  42.801  29.460  1.00  0.00    -0.237 OA
ATOM     50  O   UNL A   1      47.002  41.361  27.572  1.00  0.00    -0.744 OA
ENDBRANCH  46  47
ENDBRANCH  27  41
BRANCH  28  51
ATOM     51  C   UNL A   1      42.950  29.048  34.870  1.00  0.00    -0.014 A 
ATOM     52  C   UNL A   1      44.025  28.366  35.475  1.00  0.00     0.010 A 
ATOM     53  C   UNL A   1      41.776  28.340  34.566  1.00  0.00     0.010 A 
ATOM     54  C   UNL A   1      43.965  26.983  35.672  1.00  0.00     0.020 A 
ATOM     55  C   UNL A   1      41.701  26.961  34.788  1.00  0.00     0.020 A 
ATOM     56  C   UNL A   1      42.813  26.285  35.297  1.00  0.00     0.054 A 
BRANCH  56  57
ATOM     57  S   UNL A   1      42.820  24.473  35.403  1.00  0.00     0.124 S 
ATOM     58  O   UNL A   1      41.397  24.177  35.550  1.00  0.00    -0.237 OA
ATOM     59  O   UNL A   1      43.414  24.084  34.127  1.00  0.00    -0.237 OA
ATOM     60  O   UNL A   1      43.639  24.200  36.580  1.00  0.00    -0.744 OA
ENDBRANCH  56  57
ENDBRANCH  28  51
BRANCH  40  61
ATOM     61  C   UNL A   1      41.782  35.690  36.912  1.00  0.00    -0.014 A 
ATOM     62  C   UNL A   1      42.656  35.960  37.982  1.00  0.00     0.010 A 
ATOM     63  C   UNL A   1      40.396  35.828  37.100  1.00  0.00     0.010 A 
ATOM     64  C   UNL A   1      42.148  36.286  39.240  1.00  0.00     0.020 A 
ATOM     65  C   UNL A   1      39.887  36.189  38.348  1.00  0.00     0.020 A 
ATOM     66  C   UNL A   1      40.765  36.377  39.419  1.00  0.00     0.054 A 
BRANCH  66  67
ATOM     67  S   UNL A   1      40.123  36.695  41.084  1.00  0.00     0.124 S 
ATOM     68  O   UNL A   1      41.146  37.572  41.644  1.00  0.00    -0.237 OA
ATOM     69  O   UNL A   1      38.833  37.322  40.812  1.00  0.00    -0.237 OA
ATOM     70  O   UNL A   1      40.047  35.363  41.682  1.00  0.00    -0.744 OA
ENDBRANCH  66  67
ENDBRANCH  40  61
ENDBRANCH  14  15
ENDBRANCH   7   9
ENDBRANCH   6   7
ENDBRANCH   5   6
ENDBRANCH   4   5
ENDBRANCH   3   4
ENDBRANCH   2   3
ENDBRANCH   1   2
BRANCH   1  71
ATOM     71  O   UNL A   1      44.064  22.160  24.198  1.00  0.00    -0.377 OA
BRANCH  71  72
ATOM     72  C   UNL A   1      43.109  22.847  24.997  1.00  0.00     0.188 C 
BRANCH  72  73
ATOM     73  C   UNL A   1      42.222  22.043  25.979  1.00  0.00     0.188 C 
BRANCH  73  74
ATOM     74  O   UNL A   1      41.960  22.715  27.196  1.00  0.00    -0.376 OA
BRANCH  74  75
ATOM     75  C   UNL A   1      42.161  24.121  27.203  1.00  0.00     0.202 C 
BRANCH  75  76
ATOM     76  C   UNL A   1      40.930  25.047  27.203  1.00  0.00     0.261 C 
BRANCH  76  77
ATOM     77  O   UNL A   1      40.761  25.924  28.335  1.00  0.00    -0.460 OA
BRANCH  77  78
ATOM     78  C   UNL A   1      41.227  27.182  28.239  1.00  0.00     0.338 C 
ATOM     79  O   UNL A   1      42.146  27.586  27.538  1.00  0.00    -0.246 OA
BRANCH  78  80
ATOM     80  C   UNL A   1      40.320  28.078  28.987  1.00  0.00     0.062 A 
ATOM     81  C   UNL A   1      38.943  28.017  28.750  1.00  0.00     0.016 A 
ATOM     82  C   UNL A   1      40.854  29.000  29.914  1.00  0.00     0.042 A 
ATOM     83  C   UNL A   1      38.088  28.762  29.557  1.00  0.00     0.017 A 
ATOM     84  C   UNL A   1      39.993  29.831  30.621  1.00  0.00     0.056 A 
ATOM     85  C   UNL A   1      38.630  29.616  30.522  1.00  0.00     0.064 A 
ATOM     86  N   UNL A   1      40.448  30.893  31.408  1.00  0.00    -0.307 N 
ATOM     87  C   UNL A   1      37.798  30.216  31.561  1.00  0.00     0.264 A 
ATOM     88  C   UNL A   1      39.611  31.736  32.105  1.00  0.00     0.329 A 
ATOM     89  H   UNL A   1      41.420  31.045  31.468  1.00  0.00     0.171 HD
ATOM     90  O   UNL A   1      36.788  29.605  31.904  1.00  0.00    -0.268 OA
ATOM     91  N   UNL A   1      38.270  31.379  32.150  1.00  0.00    -0.255 N 
ATOM     92  O   UNL A   1      40.084  32.716  32.679  1.00  0.00    -0.248 OA
BRANCH  91  93
ATOM     93  C   UNL A   1      37.367  32.098  33.046  1.00  0.00     0.168 C 
BRANCH  93  94
ATOM     94  C   UNL A   1      37.729  31.967  34.510  1.00  0.00    -0.010 A 
ATOM     95  C   UNL A   1      37.733  33.060  35.386  1.00  0.00     0.009 A 
ATOM     96  C   UNL A   1      38.046  30.732  35.063  1.00  0.00     0.116 A 
ATOM     97  C   UNL A   1      38.097  32.905  36.717  1.00  0.00     0.020 A 
ATOM     98  N   UNL A   1      38.377  30.541  36.364  1.00  0.00    -0.264 NA
ATOM     99  C   UNL A   1      38.408  31.635  37.156  1.00  0.00     0.111 A 
ENDBRANCH  93  94
ENDBRANCH  91  93
ENDBRANCH  78  80
ENDBRANCH  77  78
ENDBRANCH  76  77
ENDBRANCH  75  76
ENDBRANCH  74  75
ENDBRANCH  73  74
ENDBRANCH  72  73
ENDBRANCH  71  72
ENDBRANCH   1  71
TORSDOF 25
ENDMDL
