MODEL 1
REMARK VINA RESULT:      -6.8      0.000      0.000
REMARK SMILES C[C@@H]1[C@H](C)CCC[C@@H]1NC(=O)COc1csc(C(=O)OCCOCCOCCOCCOC(=O)c2ccc(-c3c4nc(c(-c5ccc(S(=O)(=O)[O-])cc5)c5ccc([nH]5)c(-c5ccc(S(=O)(=O)[O-])cc5)c5nc(c(-c6ccc(S(=O)(=O)[O-])cc6)c6ccc3[nH]6)C=C5)C=C4)cc2)c1
REMARK SMILES IDX 25 1 24 2 23 3 22 4 21 5 20 6 18 7 19 8 17 9 14 10 15 11
REMARK SMILES IDX 95 12 16 13 13 14 12 15 10 16 9 17 11 19 8 20 1 21 2 22 3 23
REMARK SMILES IDX 4 24 5 25 7 26 6 27 26 28 27 29 28 30 29 31 30 32 31 33
REMARK SMILES IDX 32 34 33 35 34 36 35 37 36 38 94 39 37 40 93 41 38 42 39 43
REMARK SMILES IDX 40 44 87 45 41 46 92 47 86 48 88 49 42 50 91 51 85 52 84 53
REMARK SMILES IDX 43 55 73 56 54 57 72 58 55 59 58 60 71 61 89 62 56 63 57 64
REMARK SMILES IDX 70 66 90 67 59 68 44 69 45 70 53 71 46 72 52 73 47 74 48 75
REMARK SMILES IDX 49 76 50 77 51 78 74 79 75 80 83 81 76 82 82 83 77 84 78 85
REMARK SMILES IDX 79 86 80 87 81 88 60 89 61 90 69 91 62 92 68 93 63 94 64 95
REMARK SMILES IDX 65 96 66 97 67 98
REMARK H PARENT 9 18 88 54 58 65
REMARK Flexibility Score: inf
ROOT
ATOM      1  C   UNL A   1      37.290  30.212  28.202  1.00  0.00     0.188 C 
ENDROOT
BRANCH   1   2
ATOM      2  C   UNL A   1      37.838  28.799  28.455  1.00  0.00     0.188 C 
BRANCH   2   3
ATOM      3  O   UNL A   1      38.869  28.755  29.443  1.00  0.00    -0.376 OA
BRANCH   3   4
ATOM      4  C   UNL A   1      39.948  29.671  29.271  1.00  0.00     0.202 C 
BRANCH   4   5
ATOM      5  C   UNL A   1      41.322  29.030  29.027  1.00  0.00     0.261 C 
BRANCH   5   6
ATOM      6  O   UNL A   1      41.271  27.734  28.411  1.00  0.00    -0.459 OA
BRANCH   6   7
ATOM      7  C   UNL A   1      41.236  27.682  27.055  1.00  0.00     0.348 C 
ATOM      8  O   UNL A   1      40.857  28.594  26.331  1.00  0.00    -0.245 OA
BRANCH   7   9
ATOM      9  C   UNL A   1      41.867  26.449  26.635  1.00  0.00     0.116 A 
ATOM     10  C   UNL A   1      43.158  24.901  25.469  1.00  0.00     0.131 A 
ATOM     11  C   UNL A   1      42.271  24.072  26.116  1.00  0.00     0.112 A 
ATOM     12  C   UNL A   1      42.936  26.268  25.780  1.00  0.00     0.074 A 
ATOM     13  S   UNL A   1      41.202  24.949  27.127  1.00  0.00    -0.133 S 
BRANCH  10  14
ATOM     14  O   UNL A   1      44.185  24.522  24.675  1.00  0.00    -0.483 OA
BRANCH  14  15
ATOM     15  C   UNL A   1      45.469  24.556  25.261  1.00  0.00     0.329 C 
BRANCH  15  16
ATOM     16  C   UNL A   1      45.800  23.575  26.387  1.00  0.00     0.258 C 
ATOM     17  N   UNL A   1      45.744  23.945  27.696  1.00  0.00    -0.350 N 
ATOM     18  H   UNL A   1      46.141  23.294  28.319  1.00  0.00     0.163 HD
ATOM     19  O   UNL A   1      46.183  22.428  26.133  1.00  0.00    -0.271 OA
BRANCH  17  20
ATOM     20  C   UNL A   1      45.197  25.142  28.341  1.00  0.00     0.085 C 
ATOM     21  C   UNL A   1      47.478  25.760  29.343  1.00  0.00     0.010 C 
ATOM     22  C   UNL A   1      46.232  26.268  28.603  1.00  0.00     0.011 C 
ATOM     23  C   UNL A   1      45.523  27.454  29.309  1.00  0.00    -0.009 C 
ATOM     24  C   UNL A   1      46.440  28.659  29.521  1.00  0.00     0.008 C 
ATOM     25  C   UNL A   1      44.871  27.023  30.628  1.00  0.00     0.004 C 
ATOM     26  C   UNL A   1      44.496  24.716  29.646  1.00  0.00     0.025 C 
ATOM     27  C   UNL A   1      43.880  25.885  30.406  1.00  0.00     0.002 C 
ENDBRANCH  17  20
ENDBRANCH  15  16
ENDBRANCH  14  15
ENDBRANCH  10  14
ENDBRANCH   7   9
ENDBRANCH   6   7
ENDBRANCH   5   6
ENDBRANCH   4   5
ENDBRANCH   3   4
ENDBRANCH   2   3
ENDBRANCH   1   2
BRANCH   1  28
ATOM     28  O   UNL A   1      36.243  30.251  27.249  1.00  0.00    -0.377 OA
BRANCH  28  29
ATOM     29  C   UNL A   1      34.901  30.353  27.721  1.00  0.00     0.188 C 
BRANCH  29  30
ATOM     30  C   UNL A   1      34.280  31.706  28.131  1.00  0.00     0.188 C 
BRANCH  30  31
ATOM     31  O   UNL A   1      34.884  32.841  27.510  1.00  0.00    -0.376 OA
BRANCH  31  32
ATOM     32  C   UNL A   1      34.320  34.108  27.834  1.00  0.00     0.202 C 
BRANCH  32  33
ATOM     33  C   UNL A   1      33.742  34.160  29.253  1.00  0.00     0.261 C 
BRANCH  33  34
ATOM     34  O   UNL A   1      34.637  34.694  30.239  1.00  0.00    -0.460 OA
BRANCH  34  35
ATOM     35  C   UNL A   1      35.182  33.811  31.105  1.00  0.00     0.338 C 
ATOM     36  O   UNL A   1      34.595  33.002  31.799  1.00  0.00    -0.246 OA
BRANCH  35  37
ATOM     37  C   UNL A   1      36.646  33.863  30.941  1.00  0.00     0.060 A 
ATOM     38  C   UNL A   1      37.220  33.241  29.825  1.00  0.00     0.016 A 
ATOM     39  C   UNL A   1      37.442  34.513  31.887  1.00  0.00     0.016 A 
ATOM     40  C   UNL A   1      38.606  33.228  29.680  1.00  0.00     0.010 A 
ATOM     41  C   UNL A   1      38.829  34.488  31.747  1.00  0.00     0.010 A 
ATOM     42  C   UNL A   1      39.416  33.813  30.663  1.00  0.00    -0.014 A 
BRANCH  42  43
ATOM     43  C   UNL A   1      40.873  33.559  30.668  1.00  0.00     0.031 A 
ATOM     44  C   UNL A   1      41.399  32.447  31.533  1.00  0.00     0.074 A 
ATOM     45  C   UNL A   1      41.716  34.312  29.942  1.00  0.00     0.049 A 
ATOM     46  N   UNL A   1      42.632  32.057  31.721  1.00  0.00    -0.248 NA
ATOM     47  C   UNL A   1      40.398  31.679  32.291  1.00  0.00     0.031 C 
ATOM     48  C   UNL A   1      41.325  35.410  29.061  1.00  0.00     0.029 A 
ATOM     49  N   UNL A   1      43.084  34.271  29.850  1.00  0.00    -0.354 N 
ATOM     50  C   UNL A   1      42.556  31.002  32.623  1.00  0.00     0.074 A 
ATOM     51  C   UNL A   1      41.160  30.833  32.964  1.00  0.00     0.031 C 
ATOM     52  C   UNL A   1      42.434  35.954  28.529  1.00  0.00     0.029 A 
ATOM     53  C   UNL A   1      43.609  35.256  29.050  1.00  0.00     0.049 A 
ATOM     54  H   UNL A   1      43.636  33.601  30.313  1.00  0.00     0.167 HD
ATOM     55  C   UNL A   1      43.558  30.243  33.124  1.00  0.00     0.031 A 
ATOM     56  C   UNL A   1      44.893  35.570  28.784  1.00  0.00     0.031 A 
ATOM     57  C   UNL A   1      44.948  30.433  32.811  1.00  0.00     0.049 A 
ATOM     58  C   UNL A   1      45.997  34.745  29.387  1.00  0.00     0.074 A 
ATOM     59  C   UNL A   1      46.037  29.699  33.244  1.00  0.00     0.029 A 
ATOM     60  N   UNL A   1      45.441  31.446  32.003  1.00  0.00    -0.354 N 
ATOM     61  N   UNL A   1      45.909  33.711  30.193  1.00  0.00    -0.248 NA
ATOM     62  C   UNL A   1      47.374  35.121  29.039  1.00  0.00     0.031 C 
ATOM     63  C   UNL A   1      47.195  30.300  32.737  1.00  0.00     0.029 A 
ATOM     64  C   UNL A   1      46.823  31.377  31.947  1.00  0.00     0.049 A 
ATOM     65  H   UNL A   1      44.890  32.116  31.536  1.00  0.00     0.167 HD
ATOM     66  C   UNL A   1      47.217  33.302  30.432  1.00  0.00     0.074 A 
ATOM     67  C   UNL A   1      48.077  34.193  29.679  1.00  0.00     0.031 C 
ATOM     68  C   UNL A   1      47.665  32.280  31.202  1.00  0.00     0.031 A 
BRANCH  55  69
ATOM     69  C   UNL A   1      43.171  29.168  34.103  1.00  0.00    -0.014 A 
ATOM     70  C   UNL A   1      42.827  27.876  33.668  1.00  0.00     0.010 A 
ATOM     71  C   UNL A   1      43.127  29.465  35.477  1.00  0.00     0.010 A 
ATOM     72  C   UNL A   1      42.387  26.916  34.583  1.00  0.00     0.020 A 
ATOM     73  C   UNL A   1      42.710  28.500  36.398  1.00  0.00     0.020 A 
ATOM     74  C   UNL A   1      42.319  27.240  35.941  1.00  0.00     0.054 A 
BRANCH  74  75
ATOM     75  S   UNL A   1      41.720  25.987  37.109  1.00  0.00     0.124 S 
ATOM     76  O   UNL A   1      42.778  25.986  38.116  1.00  0.00    -0.237 OA
ATOM     77  O   UNL A   1      40.440  26.538  37.545  1.00  0.00    -0.237 OA
ATOM     78  O   UNL A   1      41.629  24.775  36.298  1.00  0.00    -0.744 OA
ENDBRANCH  74  75
ENDBRANCH  55  69
BRANCH  56  79
ATOM     79  C   UNL A   1      45.192  36.731  27.906  1.00  0.00    -0.014 A 
ATOM     80  C   UNL A   1      44.889  38.040  28.320  1.00  0.00     0.010 A 
ATOM     81  C   UNL A   1      45.830  36.534  26.668  1.00  0.00     0.010 A 
ATOM     82  C   UNL A   1      45.228  39.131  27.513  1.00  0.00     0.020 A 
ATOM     83  C   UNL A   1      46.188  37.623  25.869  1.00  0.00     0.020 A 
ATOM     84  C   UNL A   1      45.883  38.916  26.297  1.00  0.00     0.054 A 
BRANCH  84  85
ATOM     85  S   UNL A   1      46.401  40.351  25.314  1.00  0.00     0.124 S 
ATOM     86  O   UNL A   1      45.163  41.116  25.215  1.00  0.00    -0.237 OA
ATOM     87  O   UNL A   1      47.447  40.943  26.146  1.00  0.00    -0.237 OA
ATOM     88  O   UNL A   1      46.874  39.756  24.066  1.00  0.00    -0.744 OA
ENDBRANCH  84  85
ENDBRANCH  56  79
BRANCH  68  89
ATOM     89  C   UNL A   1      49.152  32.051  31.259  1.00  0.00    -0.014 A 
ATOM     90  C   UNL A   1      49.778  31.123  30.411  1.00  0.00     0.010 A 
ATOM     91  C   UNL A   1      49.941  32.828  32.128  1.00  0.00     0.010 A 
ATOM     92  C   UNL A   1      51.165  30.956  30.447  1.00  0.00     0.020 A 
ATOM     93  C   UNL A   1      51.330  32.682  32.150  1.00  0.00     0.020 A 
ATOM     94  C   UNL A   1      51.933  31.737  31.317  1.00  0.00     0.054 A 
BRANCH  94  95
ATOM     95  S   UNL A   1      53.736  31.541  31.311  1.00  0.00     0.124 S 
ATOM     96  O   UNL A   1      54.120  32.225  32.544  1.00  0.00    -0.237 OA
ATOM     97  O   UNL A   1      53.904  30.090  31.319  1.00  0.00    -0.237 OA
ATOM     98  O   UNL A   1      54.151  32.202  30.077  1.00  0.00    -0.744 OA
ENDBRANCH  94  95
ENDBRANCH  68  89
ENDBRANCH  42  43
ENDBRANCH  35  37
ENDBRANCH  34  35
ENDBRANCH  33  34
ENDBRANCH  32  33
ENDBRANCH  31  32
ENDBRANCH  30  31
ENDBRANCH  29  30
ENDBRANCH  28  29
ENDBRANCH   1  28
TORSDOF 27
ENDMDL
MODEL 2
REMARK VINA RESULT:      -6.2      5.853     10.548
REMARK SMILES C[C@@H]1[C@H](C)CCC[C@@H]1NC(=O)COc1csc(C(=O)OCCOCCOCCOCCOC(=O)c2ccc(-c3c4nc(c(-c5ccc(S(=O)(=O)[O-])cc5)c5ccc([nH]5)c(-c5ccc(S(=O)(=O)[O-])cc5)c5nc(c(-c6ccc(S(=O)(=O)[O-])cc6)c6ccc3[nH]6)C=C5)C=C4)cc2)c1
REMARK SMILES IDX 25 1 24 2 23 3 22 4 21 5 20 6 18 7 19 8 17 9 14 10 15 11
REMARK SMILES IDX 95 12 16 13 13 14 12 15 10 16 9 17 11 19 8 20 1 21 2 22 3 23
REMARK SMILES IDX 4 24 5 25 7 26 6 27 26 28 27 29 28 30 29 31 30 32 31 33
REMARK SMILES IDX 32 34 33 35 34 36 35 37 36 38 94 39 37 40 93 41 38 42 39 43
REMARK SMILES IDX 40 44 87 45 41 46 92 47 86 48 88 49 42 50 91 51 85 52 84 53
REMARK SMILES IDX 43 55 73 56 54 57 72 58 55 59 58 60 71 61 89 62 56 63 57 64
REMARK SMILES IDX 70 66 90 67 59 68 44 69 45 70 53 71 46 72 52 73 47 74 48 75
REMARK SMILES IDX 49 76 50 77 51 78 74 79 75 80 83 81 76 82 82 83 77 84 78 85
REMARK SMILES IDX 79 86 80 87 81 88 60 89 61 90 69 91 62 92 68 93 63 94 64 95
REMARK SMILES IDX 65 96 66 97 67 98
REMARK H PARENT 9 18 88 54 58 65
REMARK Flexibility Score: inf
ROOT
ATOM      1  C   UNL A   1      47.369  24.830  27.838  1.00  0.00     0.188 C 
ENDROOT
BRANCH   1   2
ATOM      2  C   UNL A   1      48.509  25.728  27.333  1.00  0.00     0.188 C 
BRANCH   2   3
ATOM      3  O   UNL A   1      49.669  25.003  26.925  1.00  0.00    -0.376 OA
BRANCH   3   4
ATOM      4  C   UNL A   1      50.926  25.551  27.314  1.00  0.00     0.202 C 
BRANCH   4   5
ATOM      5  C   UNL A   1      51.403  26.754  26.487  1.00  0.00     0.261 C 
BRANCH   5   6
ATOM      6  O   UNL A   1      51.024  26.710  25.103  1.00  0.00    -0.459 OA
BRANCH   6   7
ATOM      7  C   UNL A   1      50.643  27.874  24.517  1.00  0.00     0.348 C 
ATOM      8  O   UNL A   1      50.724  28.979  25.040  1.00  0.00    -0.245 OA
BRANCH   7   9
ATOM      9  C   UNL A   1      50.291  27.593  23.142  1.00  0.00     0.116 A 
ATOM     10  C   UNL A   1      50.196  27.660  20.817  1.00  0.00     0.131 A 
ATOM     11  C   UNL A   1      49.014  27.021  21.111  1.00  0.00     0.112 A 
ATOM     12  C   UNL A   1      50.939  27.975  21.984  1.00  0.00     0.074 A 
ATOM     13  S   UNL A   1      48.829  26.770  22.796  1.00  0.00    -0.133 S 
BRANCH  10  14
ATOM     14  O   UNL A   1      50.685  27.925  19.583  1.00  0.00    -0.483 OA
BRANCH  14  15
ATOM     15  C   UNL A   1      52.018  28.385  19.530  1.00  0.00     0.329 C 
BRANCH  15  16
ATOM     16  C   UNL A   1      52.387  29.485  18.533  1.00  0.00     0.258 C 
ATOM     17  N   UNL A   1      52.961  30.652  18.936  1.00  0.00    -0.350 N 
ATOM     18  H   UNL A   1      52.995  31.349  18.242  1.00  0.00     0.163 HD
ATOM     19  O   UNL A   1      52.120  29.365  17.332  1.00  0.00    -0.271 OA
BRANCH  17  20
ATOM     20  C   UNL A   1      53.539  31.051  20.222  1.00  0.00     0.085 C 
ATOM     21  C   UNL A   1      53.810  33.484  19.451  1.00  0.00     0.010 C 
ATOM     22  C   UNL A   1      53.352  32.550  20.580  1.00  0.00     0.011 C 
ATOM     23  C   UNL A   1      54.032  32.834  21.945  1.00  0.00    -0.009 C 
ATOM     24  C   UNL A   1      53.816  34.265  22.435  1.00  0.00     0.008 C 
ATOM     25  C   UNL A   1      55.525  32.482  21.921  1.00  0.00     0.004 C 
ATOM     26  C   UNL A   1      55.030  30.660  20.229  1.00  0.00     0.025 C 
ATOM     27  C   UNL A   1      55.740  31.025  21.528  1.00  0.00     0.002 C 
ENDBRANCH  17  20
ENDBRANCH  15  16
ENDBRANCH  14  15
ENDBRANCH  10  14
ENDBRANCH   7   9
ENDBRANCH   6   7
ENDBRANCH   5   6
ENDBRANCH   4   5
ENDBRANCH   3   4
ENDBRANCH   2   3
ENDBRANCH   1   2
BRANCH   1  28
ATOM     28  O   UNL A   1      46.091  25.434  27.752  1.00  0.00    -0.377 OA
BRANCH  28  29
ATOM     29  C   UNL A   1      45.860  26.387  26.716  1.00  0.00     0.188 C 
BRANCH  29  30
ATOM     30  C   UNL A   1      45.705  25.965  25.239  1.00  0.00     0.188 C 
BRANCH  30  31
ATOM     31  O   UNL A   1      44.551  25.166  24.974  1.00  0.00    -0.376 OA
BRANCH  31  32
ATOM     32  C   UNL A   1      43.303  25.851  24.964  1.00  0.00     0.202 C 
BRANCH  32  33
ATOM     33  C   UNL A   1      42.198  25.094  25.710  1.00  0.00     0.261 C 
BRANCH  33  34
ATOM     34  O   UNL A   1      40.868  25.543  25.414  1.00  0.00    -0.460 OA
BRANCH  34  35
ATOM     35  C   UNL A   1      39.916  25.262  26.332  1.00  0.00     0.338 C 
ATOM     36  O   UNL A   1      39.111  24.351  26.303  1.00  0.00    -0.246 OA
BRANCH  35  37
ATOM     37  C   UNL A   1      40.129  26.152  27.488  1.00  0.00     0.060 A 
ATOM     38  C   UNL A   1      39.505  25.838  28.702  1.00  0.00     0.016 A 
ATOM     39  C   UNL A   1      40.928  27.291  27.368  1.00  0.00     0.016 A 
ATOM     40  C   UNL A   1      39.644  26.696  29.792  1.00  0.00     0.010 A 
ATOM     41  C   UNL A   1      41.057  28.154  28.455  1.00  0.00     0.010 A 
ATOM     42  C   UNL A   1      40.385  27.878  29.658  1.00  0.00    -0.014 A 
BRANCH  42  43
ATOM     43  C   UNL A   1      40.304  28.924  30.701  1.00  0.00     0.031 A 
ATOM     44  C   UNL A   1      41.225  28.823  31.885  1.00  0.00     0.074 A 
ATOM     45  C   UNL A   1      39.415  29.928  30.614  1.00  0.00     0.049 A 
ATOM     46  N   UNL A   1      41.317  29.600  32.931  1.00  0.00    -0.248 NA
ATOM     47  C   UNL A   1      42.162  27.686  31.889  1.00  0.00     0.031 C 
ATOM     48  C   UNL A   1      38.478  30.137  29.514  1.00  0.00     0.029 A 
ATOM     49  N   UNL A   1      39.151  30.952  31.487  1.00  0.00    -0.354 N 
ATOM     50  C   UNL A   1      42.317  29.045  33.721  1.00  0.00     0.074 A 
ATOM     51  C   UNL A   1      42.780  27.852  33.046  1.00  0.00     0.031 C 
ATOM     52  C   UNL A   1      37.724  31.217  29.786  1.00  0.00     0.029 A 
ATOM     53  C   UNL A   1      38.113  31.758  31.088  1.00  0.00     0.049 A 
ATOM     54  H   UNL A   1      39.657  31.098  32.319  1.00  0.00     0.167 HD
ATOM     55  C   UNL A   1      42.806  29.488  34.903  1.00  0.00     0.031 A 
ATOM     56  C   UNL A   1      37.531  32.802  31.712  1.00  0.00     0.031 A 
ATOM     57  C   UNL A   1      42.322  30.655  35.589  1.00  0.00     0.049 A 
ATOM     58  C   UNL A   1      38.056  33.253  33.048  1.00  0.00     0.074 A 
ATOM     59  C   UNL A   1      42.771  31.203  36.777  1.00  0.00     0.029 A 
ATOM     60  N   UNL A   1      41.265  31.440  35.157  1.00  0.00    -0.354 N 
ATOM     61  N   UNL A   1      39.042  32.754  33.757  1.00  0.00    -0.248 NA
ATOM     62  C   UNL A   1      37.396  34.411  33.666  1.00  0.00     0.031 C 
ATOM     63  C   UNL A   1      41.949  32.292  37.090  1.00  0.00     0.029 A 
ATOM     64  C   UNL A   1      41.023  32.453  36.070  1.00  0.00     0.049 A 
ATOM     65  H   UNL A   1      40.760  31.299  34.323  1.00  0.00     0.167 HD
ATOM     66  C   UNL A   1      39.133  33.551  34.895  1.00  0.00     0.074 A 
ATOM     67  C   UNL A   1      38.109  34.569  34.774  1.00  0.00     0.031 C 
ATOM     68  C   UNL A   1      39.990  33.451  35.941  1.00  0.00     0.031 A 
BRANCH  55  69
ATOM     69  C   UNL A   1      43.892  28.664  35.540  1.00  0.00    -0.014 A 
ATOM     70  C   UNL A   1      43.586  27.631  36.445  1.00  0.00     0.010 A 
ATOM     71  C   UNL A   1      45.238  28.945  35.248  1.00  0.00     0.010 A 
ATOM     72  C   UNL A   1      44.609  26.934  37.093  1.00  0.00     0.020 A 
ATOM     73  C   UNL A   1      46.264  28.233  35.876  1.00  0.00     0.020 A 
ATOM     74  C   UNL A   1      45.942  27.250  36.812  1.00  0.00     0.054 A 
BRANCH  74  75
ATOM     75  S   UNL A   1      47.254  26.350  37.684  1.00  0.00     0.124 S 
ATOM     76  O   UNL A   1      48.207  27.419  37.976  1.00  0.00    -0.237 OA
ATOM     77  O   UNL A   1      46.555  25.800  38.842  1.00  0.00    -0.237 OA
ATOM     78  O   UNL A   1      47.705  25.363  36.706  1.00  0.00    -0.744 OA
ENDBRANCH  74  75
ENDBRANCH  55  69
BRANCH  56  79
ATOM     79  C   UNL A   1      36.375  33.482  31.070  1.00  0.00    -0.014 A 
ATOM     80  C   UNL A   1      35.272  33.898  31.834  1.00  0.00     0.010 A 
ATOM     81  C   UNL A   1      36.400  33.762  29.691  1.00  0.00     0.010 A 
ATOM     82  C   UNL A   1      34.217  34.590  31.232  1.00  0.00     0.020 A 
ATOM     83  C   UNL A   1      35.357  34.471  29.090  1.00  0.00     0.020 A 
ATOM     84  C   UNL A   1      34.270  34.880  29.865  1.00  0.00     0.054 A 
BRANCH  84  85
ATOM     85  S   UNL A   1      32.937  35.864  29.125  1.00  0.00     0.124 S 
ATOM     86  O   UNL A   1      32.084  36.138  30.276  1.00  0.00    -0.237 OA
ATOM     87  O   UNL A   1      33.658  37.014  28.582  1.00  0.00    -0.237 OA
ATOM     88  O   UNL A   1      32.368  34.968  28.121  1.00  0.00    -0.744 OA
ENDBRANCH  84  85
ENDBRANCH  56  79
BRANCH  68  89
ATOM     89  C   UNL A   1      39.875  34.477  37.036  1.00  0.00    -0.014 A 
ATOM     90  C   UNL A   1      40.515  35.723  36.935  1.00  0.00     0.010 A 
ATOM     91  C   UNL A   1      39.056  34.214  38.150  1.00  0.00     0.010 A 
ATOM     92  C   UNL A   1      40.360  36.681  37.941  1.00  0.00     0.020 A 
ATOM     93  C   UNL A   1      38.879  35.178  39.146  1.00  0.00     0.020 A 
ATOM     94  C   UNL A   1      39.542  36.402  39.041  1.00  0.00     0.054 A 
BRANCH  94  95
ATOM     95  S   UNL A   1      39.314  37.679  40.310  1.00  0.00     0.124 S 
ATOM     96  O   UNL A   1      38.838  36.895  41.447  1.00  0.00    -0.237 OA
ATOM     97  O   UNL A   1      40.656  38.239  40.450  1.00  0.00    -0.237 OA
ATOM     98  O   UNL A   1      38.328  38.580  39.719  1.00  0.00    -0.744 OA
ENDBRANCH  94  95
ENDBRANCH  68  89
ENDBRANCH  42  43
ENDBRANCH  35  37
ENDBRANCH  34  35
ENDBRANCH  33  34
ENDBRANCH  32  33
ENDBRANCH  31  32
ENDBRANCH  30  31
ENDBRANCH  29  30
ENDBRANCH  28  29
ENDBRANCH   1  28
TORSDOF 27
ENDMDL
MODEL 3
REMARK VINA RESULT:      -6.1      6.796     14.365
REMARK SMILES C[C@@H]1[C@H](C)CCC[C@@H]1NC(=O)COc1csc(C(=O)OCCOCCOCCOCCOC(=O)c2ccc(-c3c4nc(c(-c5ccc(S(=O)(=O)[O-])cc5)c5ccc([nH]5)c(-c5ccc(S(=O)(=O)[O-])cc5)c5nc(c(-c6ccc(S(=O)(=O)[O-])cc6)c6ccc3[nH]6)C=C5)C=C4)cc2)c1
REMARK SMILES IDX 25 1 24 2 23 3 22 4 21 5 20 6 18 7 19 8 17 9 14 10 15 11
REMARK SMILES IDX 95 12 16 13 13 14 12 15 10 16 9 17 11 19 8 20 1 21 2 22 3 23
REMARK SMILES IDX 4 24 5 25 7 26 6 27 26 28 27 29 28 30 29 31 30 32 31 33
REMARK SMILES IDX 32 34 33 35 34 36 35 37 36 38 94 39 37 40 93 41 38 42 39 43
REMARK SMILES IDX 40 44 87 45 41 46 92 47 86 48 88 49 42 50 91 51 85 52 84 53
REMARK SMILES IDX 43 55 73 56 54 57 72 58 55 59 58 60 71 61 89 62 56 63 57 64
REMARK SMILES IDX 70 66 90 67 59 68 44 69 45 70 53 71 46 72 52 73 47 74 48 75
REMARK SMILES IDX 49 76 50 77 51 78 74 79 75 80 83 81 76 82 82 83 77 84 78 85
REMARK SMILES IDX 79 86 80 87 81 88 60 89 61 90 69 91 62 92 68 93 63 94 64 95
REMARK SMILES IDX 65 96 66 97 67 98
REMARK H PARENT 9 18 88 54 58 65
REMARK Flexibility Score: inf
ROOT
ATOM      1  C   UNL A   1      46.964  42.279  25.044  1.00  0.00     0.188 C 
ENDROOT
BRANCH   1   2
ATOM      2  C   UNL A   1      46.933  42.063  23.523  1.00  0.00     0.188 C 
BRANCH   2   3
ATOM      3  O   UNL A   1      47.790  42.951  22.803  1.00  0.00    -0.376 OA
BRANCH   3   4
ATOM      4  C   UNL A   1      47.501  43.123  21.419  1.00  0.00     0.202 C 
BRANCH   4   5
ATOM      5  C   UNL A   1      48.726  43.198  20.496  1.00  0.00     0.261 C 
BRANCH   5   6
ATOM      6  O   UNL A   1      48.706  44.296  19.571  1.00  0.00    -0.459 OA
BRANCH   6   7
ATOM      7  C   UNL A   1      49.859  44.590  18.916  1.00  0.00     0.348 C 
ATOM      8  O   UNL A   1      50.788  43.808  18.754  1.00  0.00    -0.245 OA
BRANCH   7   9
ATOM      9  C   UNL A   1      49.718  45.901  18.322  1.00  0.00     0.116 A 
ATOM     10  C   UNL A   1      48.808  47.816  17.359  1.00  0.00     0.131 A 
ATOM     11  C   UNL A   1      50.127  47.936  16.988  1.00  0.00     0.112 A 
ATOM     12  C   UNL A   1      48.574  46.654  18.140  1.00  0.00     0.074 A 
ATOM     13  S   UNL A   1      51.083  46.663  17.622  1.00  0.00    -0.133 S 
BRANCH  10  14
ATOM     14  O   UNL A   1      47.814  48.698  17.103  1.00  0.00    -0.483 OA
BRANCH  14  15
ATOM     15  C   UNL A   1      47.211  49.297  18.231  1.00  0.00     0.329 C 
BRANCH  15  16
ATOM     16  C   UNL A   1      45.850  49.977  18.073  1.00  0.00     0.258 C 
ATOM     17  N   UNL A   1      44.741  49.278  17.707  1.00  0.00    -0.350 N 
ATOM     18  H   UNL A   1      43.967  49.839  17.469  1.00  0.00     0.163 HD
ATOM     19  O   UNL A   1      45.732  51.198  18.222  1.00  0.00    -0.271 OA
BRANCH  17  20
ATOM     20  C   UNL A   1      44.496  47.837  17.604  1.00  0.00     0.085 C 
ATOM     21  C   UNL A   1      41.964  48.188  17.369  1.00  0.00     0.010 C 
ATOM     22  C   UNL A   1      43.202  47.452  16.839  1.00  0.00     0.011 C 
ATOM     23  C   UNL A   1      43.058  45.907  16.832  1.00  0.00    -0.009 C 
ATOM     24  C   UNL A   1      41.863  45.421  16.012  1.00  0.00     0.008 C 
ATOM     25  C   UNL A   1      43.017  45.333  18.253  1.00  0.00     0.004 C 
ATOM     26  C   UNL A   1      44.499  47.239  19.025  1.00  0.00     0.025 C 
ATOM     27  C   UNL A   1      44.257  45.734  19.044  1.00  0.00     0.002 C 
ENDBRANCH  17  20
ENDBRANCH  15  16
ENDBRANCH  14  15
ENDBRANCH  10  14
ENDBRANCH   7   9
ENDBRANCH   6   7
ENDBRANCH   5   6
ENDBRANCH   4   5
ENDBRANCH   3   4
ENDBRANCH   2   3
ENDBRANCH   1   2
BRANCH   1  28
ATOM     28  O   UNL A   1      46.184  43.379  25.476  1.00  0.00    -0.377 OA
BRANCH  28  29
ATOM     29  C   UNL A   1      44.804  43.160  25.762  1.00  0.00     0.188 C 
BRANCH  29  30
ATOM     30  C   UNL A   1      43.725  43.201  24.659  1.00  0.00     0.188 C 
BRANCH  30  31
ATOM     31  O   UNL A   1      43.285  41.915  24.220  1.00  0.00    -0.376 OA
BRANCH  31  32
ATOM     32  C   UNL A   1      41.910  41.616  24.435  1.00  0.00     0.202 C 
BRANCH  32  33
ATOM     33  C   UNL A   1      41.646  40.952  25.792  1.00  0.00     0.261 C 
BRANCH  33  34
ATOM     34  O   UNL A   1      42.581  39.920  26.138  1.00  0.00    -0.460 OA
BRANCH  34  35
ATOM     35  C   UNL A   1      43.062  39.938  27.401  1.00  0.00     0.338 C 
ATOM     36  O   UNL A   1      43.164  40.901  28.137  1.00  0.00    -0.246 OA
BRANCH  35  37
ATOM     37  C   UNL A   1      43.285  38.541  27.819  1.00  0.00     0.060 A 
ATOM     38  C   UNL A   1      42.230  37.629  27.703  1.00  0.00     0.016 A 
ATOM     39  C   UNL A   1      44.523  38.144  28.329  1.00  0.00     0.016 A 
ATOM     40  C   UNL A   1      42.399  36.317  28.146  1.00  0.00     0.010 A 
ATOM     41  C   UNL A   1      44.687  36.836  28.783  1.00  0.00     0.010 A 
ATOM     42  C   UNL A   1      43.614  35.930  28.727  1.00  0.00    -0.014 A 
BRANCH  42  43
ATOM     43  C   UNL A   1      43.710  34.644  29.452  1.00  0.00     0.031 A 
ATOM     44  C   UNL A   1      43.309  34.611  30.900  1.00  0.00     0.074 A 
ATOM     45  C   UNL A   1      44.166  33.534  28.847  1.00  0.00     0.049 A 
ATOM     46  N   UNL A   1      43.333  33.614  31.744  1.00  0.00    -0.248 NA
ATOM     47  C   UNL A   1      42.822  35.878  31.473  1.00  0.00     0.031 C 
ATOM     48  C   UNL A   1      44.576  33.440  27.448  1.00  0.00     0.029 A 
ATOM     49  N   UNL A   1      44.375  32.276  29.350  1.00  0.00    -0.354 N 
ATOM     50  C   UNL A   1      42.871  34.132  32.948  1.00  0.00     0.074 A 
ATOM     51  C   UNL A   1      42.601  35.537  32.732  1.00  0.00     0.031 C 
ATOM     52  C   UNL A   1      45.007  32.189  27.207  1.00  0.00     0.029 A 
ATOM     53  C   UNL A   1      44.923  31.405  28.440  1.00  0.00     0.049 A 
ATOM     54  H   UNL A   1      44.154  32.019  30.274  1.00  0.00     0.167 HD
ATOM     55  C   UNL A   1      42.688  33.496  34.129  1.00  0.00     0.031 A 
ATOM     56  C   UNL A   1      45.328  30.128  28.590  1.00  0.00     0.031 A 
ATOM     57  C   UNL A   1      42.988  32.109  34.352  1.00  0.00     0.049 A 
ATOM     58  C   UNL A   1      45.162  29.450  29.923  1.00  0.00     0.074 A 
ATOM     59  C   UNL A   1      42.812  31.364  35.504  1.00  0.00     0.029 A 
ATOM     60  N   UNL A   1      43.549  31.262  33.408  1.00  0.00    -0.354 N 
ATOM     61  N   UNL A   1      44.668  29.935  31.038  1.00  0.00    -0.248 NA
ATOM     62  C   UNL A   1      45.599  28.051  30.016  1.00  0.00     0.031 C 
ATOM     63  C   UNL A   1      43.314  30.078  35.271  1.00  0.00     0.029 A 
ATOM     64  C   UNL A   1      43.755  30.009  33.958  1.00  0.00     0.049 A 
ATOM     65  H   UNL A   1      43.768  31.515  32.481  1.00  0.00     0.167 HD
ATOM     66  C   UNL A   1      44.717  28.895  31.961  1.00  0.00     0.074 A 
ATOM     67  C   UNL A   1      45.280  27.752  31.269  1.00  0.00     0.031 C 
ATOM     68  C   UNL A   1      44.328  28.885  33.260  1.00  0.00     0.031 A 
BRANCH  55  69
ATOM     69  C   UNL A   1      42.182  34.327  35.276  1.00  0.00    -0.014 A 
ATOM     70  C   UNL A   1      43.066  34.883  36.219  1.00  0.00     0.010 A 
ATOM     71  C   UNL A   1      40.799  34.534  35.427  1.00  0.00     0.010 A 
ATOM     72  C   UNL A   1      42.573  35.578  37.326  1.00  0.00     0.020 A 
ATOM     73  C   UNL A   1      40.304  35.251  36.519  1.00  0.00     0.020 A 
ATOM     74  C   UNL A   1      41.193  35.746  37.474  1.00  0.00     0.054 A 
BRANCH  74  75
ATOM     75  S   UNL A   1      40.573  36.631  38.932  1.00  0.00     0.124 S 
ATOM     76  O   UNL A   1      40.482  35.556  39.917  1.00  0.00    -0.237 OA
ATOM     77  O   UNL A   1      41.617  37.621  39.178  1.00  0.00    -0.237 OA
ATOM     78  O   UNL A   1      39.293  37.177  38.486  1.00  0.00    -0.744 OA
ENDBRANCH  74  75
ENDBRANCH  55  69
BRANCH  56  79
ATOM     79  C   UNL A   1      45.939  29.418  27.435  1.00  0.00    -0.014 A 
ATOM     80  C   UNL A   1      47.326  29.471  27.213  1.00  0.00     0.010 A 
ATOM     81  C   UNL A   1      45.136  28.641  26.581  1.00  0.00     0.010 A 
ATOM     82  C   UNL A   1      47.899  28.751  26.160  1.00  0.00     0.020 A 
ATOM     83  C   UNL A   1      45.708  27.904  25.541  1.00  0.00     0.020 A 
ATOM     84  C   UNL A   1      47.088  27.966  25.336  1.00  0.00     0.054 A 
BRANCH  84  85
ATOM     85  S   UNL A   1      47.866  26.963  24.038  1.00  0.00     0.124 S 
ATOM     86  O   UNL A   1      49.268  26.981  24.438  1.00  0.00    -0.237 OA
ATOM     87  O   UNL A   1      47.182  25.679  24.180  1.00  0.00    -0.237 OA
ATOM     88  O   UNL A   1      47.553  27.692  22.811  1.00  0.00    -0.744 OA
ENDBRANCH  84  85
ENDBRANCH  56  79
BRANCH  68  89
ATOM     89  C   UNL A   1      44.477  27.595  34.022  1.00  0.00    -0.014 A 
ATOM     90  C   UNL A   1      43.445  26.642  34.046  1.00  0.00     0.010 A 
ATOM     91  C   UNL A   1      45.696  27.305  34.664  1.00  0.00     0.010 A 
ATOM     92  C   UNL A   1      43.619  25.431  34.722  1.00  0.00     0.020 A 
ATOM     93  C   UNL A   1      45.882  26.086  35.320  1.00  0.00     0.020 A 
ATOM     94  C   UNL A   1      44.837  25.161  35.355  1.00  0.00     0.054 A 
BRANCH  94  95
ATOM     95  S   UNL A   1      45.059  23.561  36.182  1.00  0.00     0.124 S 
ATOM     96  O   UNL A   1      44.761  23.895  37.573  1.00  0.00    -0.237 OA
ATOM     97  O   UNL A   1      44.074  22.713  35.515  1.00  0.00    -0.237 OA
ATOM     98  O   UNL A   1      46.453  23.221  35.908  1.00  0.00    -0.744 OA
ENDBRANCH  94  95
ENDBRANCH  68  89
ENDBRANCH  42  43
ENDBRANCH  35  37
ENDBRANCH  34  35
ENDBRANCH  33  34
ENDBRANCH  32  33
ENDBRANCH  31  32
ENDBRANCH  30  31
ENDBRANCH  29  30
ENDBRANCH  28  29
ENDBRANCH   1  28
TORSDOF 27
ENDMDL
