MODEL 1
REMARK VINA RESULT:      -9.7      0.000      0.000
REMARK SMILES Cc1c(C(=O)N[C@H]2C=C[C@@H](C(=O)OCCOCCOCCOCCOC(=O)c3ccc(-c4c5nc(c(-c6ccc(S(=O)(=O)[O-])cc6)c6ccc([nH]6)c(-c6ccc(S(=O)(=O)[O-])cc6)c6nc(c(-c7ccc(S(=O)(=O)[O-])cc7)c7ccc4[nH]7)C=C6)C=C5)cc3)C2)oc2ccccc12
REMARK SMILES IDX 20 1 19 2 18 3 17 4 16 5 15 6 14 7 13 8 11 9 12 10 10 11
REMARK SMILES IDX 7 12 8 13 88 14 9 15 6 16 4 17 5 18 3 20 1 21 2 22 95 23
REMARK SMILES IDX 89 24 90 25 94 26 91 27 93 28 92 29 21 30 22 31 23 32 24 33
REMARK SMILES IDX 25 34 26 35 27 36 28 37 29 38 87 39 30 40 86 41 31 42 32 43
REMARK SMILES IDX 33 44 80 45 34 46 85 47 79 48 81 49 35 50 84 51 78 52 77 53
REMARK SMILES IDX 36 55 66 56 47 57 65 58 48 59 51 60 64 61 82 62 49 63 50 64
REMARK SMILES IDX 63 66 83 67 52 68 37 69 38 70 46 71 39 72 45 73 40 74 41 75
REMARK SMILES IDX 42 76 43 77 44 78 67 79 68 80 76 81 69 82 75 83 70 84 71 85
REMARK SMILES IDX 72 86 73 87 74 88 53 89 54 90 62 91 55 92 61 93 56 94 57 95
REMARK SMILES IDX 58 96 59 97 60 98
REMARK H PARENT 6 19 81 54 51 65
REMARK Flexibility Score: inf
ROOT
ATOM      1  C   UNL A   1      31.944  29.151  26.848  1.00  0.00     0.188 C 
ENDROOT
BRANCH   1   2
ATOM      2  O   UNL A   1      31.205  28.875  25.661  1.00  0.00    -0.377 OA
BRANCH   2   3
ATOM      3  C   UNL A   1      31.167  29.841  24.635  1.00  0.00     0.188 C 
BRANCH   3   4
ATOM      4  C   UNL A   1      30.006  29.718  23.644  1.00  0.00     0.188 C 
BRANCH   4   5
ATOM      5  O   UNL A   1      29.960  28.639  22.731  1.00  0.00    -0.376 OA
BRANCH   5   6
ATOM      6  C   UNL A   1      29.546  27.342  23.140  1.00  0.00     0.202 C 
BRANCH   6   7
ATOM      7  C   UNL A   1      30.510  26.166  23.362  1.00  0.00     0.261 C 
BRANCH   7   8
ATOM      8  O   UNL A   1      31.650  26.427  24.200  1.00  0.00    -0.463 OA
BRANCH   8   9
ATOM      9  C   UNL A   1      32.843  26.373  23.573  1.00  0.00     0.312 C 
ATOM     10  O   UNL A   1      33.481  27.362  23.212  1.00  0.00    -0.252 OA
BRANCH   9  11
ATOM     11  C   UNL A   1      33.440  24.991  23.407  1.00  0.00     0.124 C 
ATOM     12  C   UNL A   1      33.841  22.699  23.446  1.00  0.00     0.106 C 
ATOM     13  C   UNL A   1      33.332  23.040  22.092  1.00  0.00    -0.006 C 
ATOM     14  C   UNL A   1      33.126  23.772  24.270  1.00  0.00     0.048 C 
ATOM     15  C   UNL A   1      33.183  24.379  22.044  1.00  0.00    -0.014 C 
BRANCH  12  16
ATOM     16  N   UNL A   1      33.716  21.375  23.930  1.00  0.00    -0.343 N 
ATOM     17  C   UNL A   1      34.622  20.679  24.721  1.00  0.00     0.287 C 
ATOM     18  O   UNL A   1      34.231  19.553  25.056  1.00  0.00    -0.266 OA
ATOM     19  H   UNL A   1      32.895  20.894  23.678  1.00  0.00     0.164 HD
BRANCH  17  20
ATOM     20  C   UNL A   1      35.969  21.167  25.109  1.00  0.00     0.195 A 
ATOM     21  C   UNL A   1      37.985  19.453  24.851  1.00  0.00     0.049 C 
ATOM     22  C   UNL A   1      37.300  20.720  25.214  1.00  0.00     0.008 A 
ATOM     23  C   UNL A   1      38.067  21.796  25.771  1.00  0.00     0.024 A 
ATOM     24  O   UNL A   1      35.971  22.513  25.468  1.00  0.00    -0.451 OA
ATOM     25  C   UNL A   1      37.219  22.879  25.848  1.00  0.00     0.135 A 
ATOM     26  C   UNL A   1      39.410  21.954  26.169  1.00  0.00     0.012 A 
ATOM     27  C   UNL A   1      37.623  24.149  26.256  1.00  0.00     0.048 A 
ATOM     28  C   UNL A   1      39.848  23.210  26.595  1.00  0.00     0.001 A 
ATOM     29  C   UNL A   1      38.969  24.293  26.623  1.00  0.00     0.004 A 
ENDBRANCH  17  20
ENDBRANCH  12  16
ENDBRANCH   9  11
ENDBRANCH   8   9
ENDBRANCH   7   8
ENDBRANCH   6   7
ENDBRANCH   5   6
ENDBRANCH   4   5
ENDBRANCH   3   4
ENDBRANCH   2   3
ENDBRANCH   1   2
BRANCH   1  30
ATOM     30  C   UNL A   1      32.505  30.566  27.119  1.00  0.00     0.188 C 
BRANCH  30  31
ATOM     31  O   UNL A   1      33.908  30.691  26.956  1.00  0.00    -0.376 OA
BRANCH  31  32
ATOM     32  C   UNL A   1      34.642  31.397  27.945  1.00  0.00     0.202 C 
BRANCH  32  33
ATOM     33  C   UNL A   1      36.145  31.104  28.066  1.00  0.00     0.261 C 
BRANCH  33  34
ATOM     34  O   UNL A   1      36.525  29.722  28.167  1.00  0.00    -0.460 OA
BRANCH  34  35
ATOM     35  C   UNL A   1      37.226  29.329  29.249  1.00  0.00     0.338 C 
ATOM     36  O   UNL A   1      36.785  29.100  30.365  1.00  0.00    -0.246 OA
BRANCH  35  37
ATOM     37  C   UNL A   1      38.605  29.023  28.811  1.00  0.00     0.060 A 
ATOM     38  C   UNL A   1      39.514  28.500  29.740  1.00  0.00     0.016 A 
ATOM     39  C   UNL A   1      38.998  29.252  27.492  1.00  0.00     0.016 A 
ATOM     40  C   UNL A   1      40.834  28.247  29.362  1.00  0.00     0.010 A 
ATOM     41  C   UNL A   1      40.326  29.017  27.120  1.00  0.00     0.010 A 
ATOM     42  C   UNL A   1      41.259  28.549  28.063  1.00  0.00    -0.014 A 
BRANCH  42  43
ATOM     43  C   UNL A   1      42.709  28.570  27.743  1.00  0.00     0.031 A 
ATOM     44  C   UNL A   1      43.325  27.334  27.141  1.00  0.00     0.074 A 
ATOM     45  C   UNL A   1      43.464  29.661  27.963  1.00  0.00     0.049 A 
ATOM     46  N   UNL A   1      44.570  27.098  26.819  1.00  0.00    -0.248 NA
ATOM     47  C   UNL A   1      42.409  26.212  26.870  1.00  0.00     0.031 C 
ATOM     48  C   UNL A   1      42.981  30.936  28.488  1.00  0.00     0.029 A 
ATOM     49  N   UNL A   1      44.810  29.863  27.773  1.00  0.00    -0.354 N 
ATOM     50  C   UNL A   1      44.592  25.798  26.327  1.00  0.00     0.074 A 
ATOM     51  C   UNL A   1      43.241  25.288  26.414  1.00  0.00     0.031 C 
ATOM     52  C   UNL A   1      44.018  31.789  28.582  1.00  0.00     0.029 A 
ATOM     53  C   UNL A   1      45.242  31.109  28.163  1.00  0.00     0.049 A 
ATOM     54  H   UNL A   1      45.409  29.180  27.393  1.00  0.00     0.167 HD
ATOM     55  C   UNL A   1      45.641  25.092  25.844  1.00  0.00     0.031 A 
ATOM     56  C   UNL A   1      46.485  31.631  28.197  1.00  0.00     0.031 A 
ATOM     57  C   UNL A   1      46.986  25.597  25.771  1.00  0.00     0.049 A 
ATOM     58  C   UNL A   1      47.652  30.796  27.734  1.00  0.00     0.074 A 
ATOM     59  C   UNL A   1      48.115  24.967  25.276  1.00  0.00     0.029 A 
ATOM     60  N   UNL A   1      47.390  26.846  26.220  1.00  0.00    -0.354 N 
ATOM     61  N   UNL A   1      47.655  29.579  27.242  1.00  0.00    -0.248 NA
ATOM     62  C   UNL A   1      48.986  31.408  27.825  1.00  0.00     0.031 C 
ATOM     63  C   UNL A   1      49.213  25.806  25.492  1.00  0.00     0.029 A 
ATOM     64  C   UNL A   1      48.756  26.991  26.048  1.00  0.00     0.049 A 
ATOM     65  H   UNL A   1      46.793  27.528  26.603  1.00  0.00     0.167 HD
ATOM     66  C   UNL A   1      48.982  29.295  26.932  1.00  0.00     0.074 A 
ATOM     67  C   UNL A   1      49.752  30.471  27.283  1.00  0.00     0.031 C 
ATOM     68  C   UNL A   1      49.514  28.166  26.401  1.00  0.00     0.031 A 
BRANCH  55  69
ATOM     69  C   UNL A   1      45.385  23.673  25.404  1.00  0.00    -0.014 A 
ATOM     70  C   UNL A   1      45.153  23.351  24.054  1.00  0.00     0.010 A 
ATOM     71  C   UNL A   1      45.407  22.640  26.358  1.00  0.00     0.010 A 
ATOM     72  C   UNL A   1      44.908  22.027  23.675  1.00  0.00     0.020 A 
ATOM     73  C   UNL A   1      45.196  21.311  25.978  1.00  0.00     0.020 A 
ATOM     74  C   UNL A   1      44.931  21.016  24.641  1.00  0.00     0.054 A 
BRANCH  74  75
ATOM     75  S   UNL A   1      44.631  19.306  24.117  1.00  0.00     0.124 S 
ATOM     76  O   UNL A   1      44.520  19.451  22.666  1.00  0.00    -0.237 OA
ATOM     77  O   UNL A   1      45.827  18.614  24.588  1.00  0.00    -0.237 OA
ATOM     78  O   UNL A   1      43.393  18.944  24.801  1.00  0.00    -0.744 OA
ENDBRANCH  74  75
ENDBRANCH  55  69
BRANCH  56  79
ATOM     79  C   UNL A   1      46.699  33.018  28.700  1.00  0.00    -0.014 A 
ATOM     80  C   UNL A   1      46.988  33.251  30.057  1.00  0.00     0.010 A 
ATOM     81  C   UNL A   1      46.610  34.115  27.825  1.00  0.00     0.010 A 
ATOM     82  C   UNL A   1      47.172  34.554  30.529  1.00  0.00     0.020 A 
ATOM     83  C   UNL A   1      46.823  35.418  28.286  1.00  0.00     0.020 A 
ATOM     84  C   UNL A   1      47.095  35.630  29.639  1.00  0.00     0.054 A 
BRANCH  84  85
ATOM     85  S   UNL A   1      47.399  37.304  30.266  1.00  0.00     0.124 S 
ATOM     86  O   UNL A   1      46.383  38.082  29.564  1.00  0.00    -0.237 OA
ATOM     87  O   UNL A   1      47.193  37.142  31.703  1.00  0.00    -0.237 OA
ATOM     88  O   UNL A   1      48.779  37.573  29.869  1.00  0.00    -0.744 OA
ENDBRANCH  84  85
ENDBRANCH  56  79
BRANCH  68  89
ATOM     89  C   UNL A   1      50.996  28.154  26.117  1.00  0.00    -0.014 A 
ATOM     90  C   UNL A   1      51.514  28.586  24.885  1.00  0.00     0.010 A 
ATOM     91  C   UNL A   1      51.889  27.758  27.132  1.00  0.00     0.010 A 
ATOM     92  C   UNL A   1      52.894  28.591  24.659  1.00  0.00     0.020 A 
ATOM     93  C   UNL A   1      53.270  27.794  26.924  1.00  0.00     0.020 A 
ATOM     94  C   UNL A   1      53.763  28.197  25.682  1.00  0.00     0.054 A 
BRANCH  94  95
ATOM     95  S   UNL A   1      55.551  28.255  25.379  1.00  0.00     0.124 S 
ATOM     96  O   UNL A   1      56.091  27.799  26.656  1.00  0.00    -0.237 OA
ATOM     97  O   UNL A   1      55.715  27.329  24.261  1.00  0.00    -0.237 OA
ATOM     98  O   UNL A   1      55.805  29.659  25.061  1.00  0.00    -0.744 OA
ENDBRANCH  94  95
ENDBRANCH  68  89
ENDBRANCH  42  43
ENDBRANCH  35  37
ENDBRANCH  34  35
ENDBRANCH  33  34
ENDBRANCH  32  33
ENDBRANCH  31  32
ENDBRANCH  30  31
ENDBRANCH   1  30
TORSDOF 25
ENDMDL
MODEL 2
REMARK VINA RESULT:      -9.6      1.564      8.164
REMARK SMILES Cc1c(C(=O)N[C@H]2C=C[C@@H](C(=O)OCCOCCOCCOCCOC(=O)c3ccc(-c4c5nc(c(-c6ccc(S(=O)(=O)[O-])cc6)c6ccc([nH]6)c(-c6ccc(S(=O)(=O)[O-])cc6)c6nc(c(-c7ccc(S(=O)(=O)[O-])cc7)c7ccc4[nH]7)C=C6)C=C5)cc3)C2)oc2ccccc12
REMARK SMILES IDX 20 1 19 2 18 3 17 4 16 5 15 6 14 7 13 8 11 9 12 10 10 11
REMARK SMILES IDX 7 12 8 13 88 14 9 15 6 16 4 17 5 18 3 20 1 21 2 22 95 23
REMARK SMILES IDX 89 24 90 25 94 26 91 27 93 28 92 29 21 30 22 31 23 32 24 33
REMARK SMILES IDX 25 34 26 35 27 36 28 37 29 38 87 39 30 40 86 41 31 42 32 43
REMARK SMILES IDX 33 44 80 45 34 46 85 47 79 48 81 49 35 50 84 51 78 52 77 53
REMARK SMILES IDX 36 55 66 56 47 57 65 58 48 59 51 60 64 61 82 62 49 63 50 64
REMARK SMILES IDX 63 66 83 67 52 68 37 69 38 70 46 71 39 72 45 73 40 74 41 75
REMARK SMILES IDX 42 76 43 77 44 78 67 79 68 80 76 81 69 82 75 83 70 84 71 85
REMARK SMILES IDX 72 86 73 87 74 88 53 89 54 90 62 91 55 92 61 93 56 94 57 95
REMARK SMILES IDX 58 96 59 97 60 98
REMARK H PARENT 6 19 81 54 51 65
REMARK Flexibility Score: inf
ROOT
ATOM      1  C   UNL A   1      32.052  28.178  26.170  1.00  0.00     0.188 C 
ENDROOT
BRANCH   1   2
ATOM      2  O   UNL A   1      31.033  28.073  25.179  1.00  0.00    -0.377 OA
BRANCH   2   3
ATOM      3  C   UNL A   1      30.894  29.102  24.225  1.00  0.00     0.188 C 
BRANCH   3   4
ATOM      4  C   UNL A   1      31.613  28.877  22.891  1.00  0.00     0.188 C 
BRANCH   4   5
ATOM      5  O   UNL A   1      32.922  29.373  22.695  1.00  0.00    -0.376 OA
BRANCH   5   6
ATOM      6  C   UNL A   1      34.063  28.556  22.924  1.00  0.00     0.202 C 
BRANCH   6   7
ATOM      7  C   UNL A   1      33.989  27.079  23.342  1.00  0.00     0.261 C 
BRANCH   7   8
ATOM      8  O   UNL A   1      34.254  26.112  22.310  1.00  0.00    -0.463 OA
BRANCH   8   9
ATOM      9  C   UNL A   1      33.165  25.665  21.653  1.00  0.00     0.312 C 
ATOM     10  O   UNL A   1      33.016  25.729  20.433  1.00  0.00    -0.252 OA
BRANCH   9  11
ATOM     11  C   UNL A   1      32.125  24.963  22.503  1.00  0.00     0.124 C 
ATOM     12  C   UNL A   1      30.779  24.228  24.254  1.00  0.00     0.106 C 
ATOM     13  C   UNL A   1      30.000  25.233  23.483  1.00  0.00    -0.006 C 
ATOM     14  C   UNL A   1      32.195  24.757  24.013  1.00  0.00     0.048 C 
ATOM     15  C   UNL A   1      30.748  25.592  22.421  1.00  0.00    -0.014 C 
BRANCH  12  16
ATOM     16  N   UNL A   1      30.447  23.968  25.604  1.00  0.00    -0.343 N 
ATOM     17  C   UNL A   1      31.055  23.059  26.460  1.00  0.00     0.287 C 
ATOM     18  O   UNL A   1      30.606  23.080  27.613  1.00  0.00    -0.266 OA
ATOM     19  H   UNL A   1      29.701  24.490  25.979  1.00  0.00     0.164 HD
BRANCH  17  20
ATOM     20  C   UNL A   1      32.108  22.088  26.068  1.00  0.00     0.195 A 
ATOM     21  C   UNL A   1      34.601  22.670  26.786  1.00  0.00     0.049 C 
ATOM     22  C   UNL A   1      33.504  21.909  26.136  1.00  0.00     0.008 A 
ATOM     23  C   UNL A   1      33.812  20.703  25.426  1.00  0.00     0.024 A 
ATOM     24  O   UNL A   1      31.591  20.953  25.449  1.00  0.00    -0.451 OA
ATOM     25  C   UNL A   1      32.606  20.134  25.082  1.00  0.00     0.135 A 
ATOM     26  C   UNL A   1      35.004  20.029  25.089  1.00  0.00     0.012 A 
ATOM     27  C   UNL A   1      32.487  18.894  24.456  1.00  0.00     0.048 A 
ATOM     28  C   UNL A   1      34.923  18.789  24.450  1.00  0.00     0.001 A 
ATOM     29  C   UNL A   1      33.682  18.226  24.152  1.00  0.00     0.004 A 
ENDBRANCH  17  20
ENDBRANCH  12  16
ENDBRANCH   9  11
ENDBRANCH   8   9
ENDBRANCH   7   8
ENDBRANCH   6   7
ENDBRANCH   5   6
ENDBRANCH   4   5
ENDBRANCH   3   4
ENDBRANCH   2   3
ENDBRANCH   1   2
BRANCH   1  30
ATOM     30  C   UNL A   1      32.093  29.384  27.137  1.00  0.00     0.188 C 
BRANCH  30  31
ATOM     31  O   UNL A   1      32.962  30.434  26.742  1.00  0.00    -0.376 OA
BRANCH  31  32
ATOM     32  C   UNL A   1      34.107  30.696  27.538  1.00  0.00     0.202 C 
BRANCH  32  33
ATOM     33  C   UNL A   1      35.346  29.814  27.322  1.00  0.00     0.261 C 
BRANCH  33  34
ATOM     34  O   UNL A   1      35.903  29.188  28.489  1.00  0.00    -0.460 OA
BRANCH  34  35
ATOM     35  C   UNL A   1      36.830  29.866  29.196  1.00  0.00     0.338 C 
ATOM     36  O   UNL A   1      36.627  30.636  30.122  1.00  0.00    -0.246 OA
BRANCH  35  37
ATOM     37  C   UNL A   1      38.162  29.366  28.794  1.00  0.00     0.060 A 
ATOM     38  C   UNL A   1      38.978  28.755  29.756  1.00  0.00     0.016 A 
ATOM     39  C   UNL A   1      38.605  29.502  27.478  1.00  0.00     0.016 A 
ATOM     40  C   UNL A   1      40.258  28.318  29.413  1.00  0.00     0.010 A 
ATOM     41  C   UNL A   1      39.895  29.081  27.140  1.00  0.00     0.010 A 
ATOM     42  C   UNL A   1      40.742  28.522  28.115  1.00  0.00    -0.014 A 
BRANCH  42  43
ATOM     43  C   UNL A   1      42.187  28.341  27.824  1.00  0.00     0.031 A 
ATOM     44  C   UNL A   1      43.114  29.503  28.064  1.00  0.00     0.074 A 
ATOM     45  C   UNL A   1      42.675  27.171  27.373  1.00  0.00     0.049 A 
ATOM     46  N   UNL A   1      44.399  29.601  27.845  1.00  0.00    -0.248 NA
ATOM     47  C   UNL A   1      42.504  30.722  28.624  1.00  0.00     0.031 C 
ATOM     48  C   UNL A   1      41.896  25.955  27.153  1.00  0.00     0.029 A 
ATOM     49  N   UNL A   1      43.954  26.822  27.015  1.00  0.00    -0.354 N 
ATOM     50  C   UNL A   1      44.749  30.894  28.220  1.00  0.00     0.074 A 
ATOM     51  C   UNL A   1      43.537  31.550  28.659  1.00  0.00     0.031 C 
ATOM     52  C   UNL A   1      42.714  24.991  26.691  1.00  0.00     0.029 A 
ATOM     53  C   UNL A   1      44.065  25.533  26.547  1.00  0.00     0.049 A 
ATOM     54  H   UNL A   1      44.720  27.436  27.086  1.00  0.00     0.167 HD
ATOM     55  C   UNL A   1      45.968  31.481  28.203  1.00  0.00     0.031 A 
ATOM     56  C   UNL A   1      45.128  24.875  26.041  1.00  0.00     0.031 A 
ATOM     57  C   UNL A   1      47.170  30.829  27.753  1.00  0.00     0.049 A 
ATOM     58  C   UNL A   1      46.459  25.578  25.952  1.00  0.00     0.074 A 
ATOM     59  C   UNL A   1      48.458  31.332  27.719  1.00  0.00     0.029 A 
ATOM     60  N   UNL A   1      47.230  29.541  27.243  1.00  0.00    -0.354 N 
ATOM     61  N   UNL A   1      46.783  26.790  26.340  1.00  0.00    -0.248 NA
ATOM     62  C   UNL A   1      47.573  24.821  25.362  1.00  0.00     0.031 C 
ATOM     63  C   UNL A   1      49.284  30.375  27.122  1.00  0.00     0.029 A 
ATOM     64  C   UNL A   1      48.526  29.245  26.857  1.00  0.00     0.049 A 
ATOM     65  H   UNL A   1      46.464  28.927  27.168  1.00  0.00     0.167 HD
ATOM     66  C   UNL A   1      48.142  26.925  26.074  1.00  0.00     0.074 A 
ATOM     67  C   UNL A   1      48.582  25.669  25.502  1.00  0.00     0.031 C 
ATOM     68  C   UNL A   1      48.954  27.991  26.288  1.00  0.00     0.031 A 
BRANCH  55  69
ATOM     69  C   UNL A   1      46.055  32.922  28.637  1.00  0.00    -0.014 A 
ATOM     70  C   UNL A   1      45.864  33.978  27.727  1.00  0.00     0.010 A 
ATOM     71  C   UNL A   1      46.302  33.222  29.989  1.00  0.00     0.010 A 
ATOM     72  C   UNL A   1      45.960  35.306  28.155  1.00  0.00     0.020 A 
ATOM     73  C   UNL A   1      46.366  34.548  30.427  1.00  0.00     0.020 A 
ATOM     74  C   UNL A   1      46.211  35.581  29.503  1.00  0.00     0.054 A 
BRANCH  74  75
ATOM     75  S   UNL A   1      46.309  37.313  30.033  1.00  0.00     0.124 S 
ATOM     76  O   UNL A   1      45.037  37.848  29.551  1.00  0.00    -0.237 OA
ATOM     77  O   UNL A   1      46.431  37.196  31.484  1.00  0.00    -0.237 OA
ATOM     78  O   UNL A   1      47.495  37.820  29.348  1.00  0.00    -0.744 OA
ENDBRANCH  74  75
ENDBRANCH  55  69
BRANCH  56  79
ATOM     79  C   UNL A   1      44.980  23.470  25.565  1.00  0.00    -0.014 A 
ATOM     80  C   UNL A   1      45.357  23.114  24.257  1.00  0.00     0.010 A 
ATOM     81  C   UNL A   1      44.455  22.481  26.416  1.00  0.00     0.010 A 
ATOM     82  C   UNL A   1      45.201  21.799  23.808  1.00  0.00     0.020 A 
ATOM     83  C   UNL A   1      44.327  21.158  25.981  1.00  0.00     0.020 A 
ATOM     84  C   UNL A   1      44.693  20.828  24.675  1.00  0.00     0.054 A 
BRANCH  84  85
ATOM     85  S   UNL A   1      44.560  19.117  24.087  1.00  0.00     0.124 S 
ATOM     86  O   UNL A   1      44.290  19.303  22.665  1.00  0.00    -0.237 OA
ATOM     87  O   UNL A   1      45.874  18.570  24.417  1.00  0.00    -0.237 OA
ATOM     88  O   UNL A   1      43.453  18.572  24.869  1.00  0.00    -0.744 OA
ENDBRANCH  84  85
ENDBRANCH  56  79
BRANCH  68  89
ATOM     89  C   UNL A   1      50.416  27.839  25.950  1.00  0.00    -0.014 A 
ATOM     90  C   UNL A   1      51.339  27.327  26.878  1.00  0.00     0.010 A 
ATOM     91  C   UNL A   1      50.861  28.160  24.653  1.00  0.00     0.010 A 
ATOM     92  C   UNL A   1      52.683  27.170  26.528  1.00  0.00     0.020 A 
ATOM     93  C   UNL A   1      52.196  27.974  24.287  1.00  0.00     0.020 A 
ATOM     94  C   UNL A   1      53.103  27.493  25.233  1.00  0.00     0.054 A 
BRANCH  94  95
ATOM     95  S   UNL A   1      54.843  27.239  24.790  1.00  0.00     0.124 S 
ATOM     96  O   UNL A   1      55.538  27.907  25.887  1.00  0.00    -0.237 OA
ATOM     97  O   UNL A   1      54.958  25.782  24.769  1.00  0.00    -0.237 OA
ATOM     98  O   UNL A   1      54.969  27.887  23.487  1.00  0.00    -0.744 OA
ENDBRANCH  94  95
ENDBRANCH  68  89
ENDBRANCH  42  43
ENDBRANCH  35  37
ENDBRANCH  34  35
ENDBRANCH  33  34
ENDBRANCH  32  33
ENDBRANCH  31  32
ENDBRANCH  30  31
ENDBRANCH   1  30
TORSDOF 25
ENDMDL
MODEL 3
REMARK VINA RESULT:      -9.3      1.784      2.880
REMARK SMILES Cc1c(C(=O)N[C@H]2C=C[C@@H](C(=O)OCCOCCOCCOCCOC(=O)c3ccc(-c4c5nc(c(-c6ccc(S(=O)(=O)[O-])cc6)c6ccc([nH]6)c(-c6ccc(S(=O)(=O)[O-])cc6)c6nc(c(-c7ccc(S(=O)(=O)[O-])cc7)c7ccc4[nH]7)C=C6)C=C5)cc3)C2)oc2ccccc12
REMARK SMILES IDX 20 1 19 2 18 3 17 4 16 5 15 6 14 7 13 8 11 9 12 10 10 11
REMARK SMILES IDX 7 12 8 13 88 14 9 15 6 16 4 17 5 18 3 20 1 21 2 22 95 23
REMARK SMILES IDX 89 24 90 25 94 26 91 27 93 28 92 29 21 30 22 31 23 32 24 33
REMARK SMILES IDX 25 34 26 35 27 36 28 37 29 38 87 39 30 40 86 41 31 42 32 43
REMARK SMILES IDX 33 44 80 45 34 46 85 47 79 48 81 49 35 50 84 51 78 52 77 53
REMARK SMILES IDX 36 55 66 56 47 57 65 58 48 59 51 60 64 61 82 62 49 63 50 64
REMARK SMILES IDX 63 66 83 67 52 68 37 69 38 70 46 71 39 72 45 73 40 74 41 75
REMARK SMILES IDX 42 76 43 77 44 78 67 79 68 80 76 81 69 82 75 83 70 84 71 85
REMARK SMILES IDX 72 86 73 87 74 88 53 89 54 90 62 91 55 92 61 93 56 94 57 95
REMARK SMILES IDX 58 96 59 97 60 98
REMARK H PARENT 6 19 81 54 51 65
REMARK Flexibility Score: inf
ROOT
ATOM      1  C   UNL A   1      32.352  27.375  27.039  1.00  0.00     0.188 C 
ENDROOT
BRANCH   1   2
ATOM      2  O   UNL A   1      31.873  26.558  25.975  1.00  0.00    -0.377 OA
BRANCH   2   3
ATOM      3  C   UNL A   1      30.586  26.796  25.452  1.00  0.00     0.188 C 
BRANCH   3   4
ATOM      4  C   UNL A   1      30.524  27.147  23.962  1.00  0.00     0.188 C 
BRANCH   4   5
ATOM      5  O   UNL A   1      30.978  28.406  23.508  1.00  0.00    -0.376 OA
BRANCH   5   6
ATOM      6  C   UNL A   1      32.363  28.727  23.481  1.00  0.00     0.202 C 
BRANCH   6   7
ATOM      7  C   UNL A   1      33.478  27.689  23.278  1.00  0.00     0.261 C 
BRANCH   7   8
ATOM      8  O   UNL A   1      33.793  27.350  21.916  1.00  0.00    -0.463 OA
BRANCH   8   9
ATOM      9  C   UNL A   1      33.368  26.133  21.519  1.00  0.00     0.312 C 
ATOM     10  O   UNL A   1      33.007  25.864  20.373  1.00  0.00    -0.252 OA
BRANCH   9  11
ATOM     11  C   UNL A   1      33.446  25.035  22.560  1.00  0.00     0.124 C 
ATOM     12  C   UNL A   1      33.480  23.821  24.546  1.00  0.00     0.106 C 
ATOM     13  C   UNL A   1      32.129  23.659  23.946  1.00  0.00    -0.006 C 
ATOM     14  C   UNL A   1      33.828  25.218  24.026  1.00  0.00     0.048 C 
ATOM     15  C   UNL A   1      32.140  24.290  22.755  1.00  0.00    -0.014 C 
BRANCH  12  16
ATOM     16  N   UNL A   1      33.659  23.627  25.935  1.00  0.00    -0.343 N 
ATOM     17  C   UNL A   1      34.034  22.454  26.580  1.00  0.00     0.287 C 
ATOM     18  O   UNL A   1      34.180  22.579  27.802  1.00  0.00    -0.266 OA
ATOM     19  H   UNL A   1      33.499  24.410  26.511  1.00  0.00     0.164 HD
BRANCH  17  20
ATOM     20  C   UNL A   1      34.201  21.134  25.921  1.00  0.00     0.195 A 
ATOM     21  C   UNL A   1      36.615  20.571  24.960  1.00  0.00     0.049 C 
ATOM     22  C   UNL A   1      35.171  20.371  25.243  1.00  0.00     0.008 A 
ATOM     23  C   UNL A   1      34.533  19.164  24.805  1.00  0.00     0.024 A 
ATOM     24  O   UNL A   1      33.056  20.344  25.998  1.00  0.00    -0.451 OA
ATOM     25  C   UNL A   1      33.265  19.177  25.344  1.00  0.00     0.135 A 
ATOM     26  C   UNL A   1      34.937  18.050  24.041  1.00  0.00     0.012 A 
ATOM     27  C   UNL A   1      32.362  18.122  25.220  1.00  0.00     0.048 A 
ATOM     28  C   UNL A   1      34.053  16.980  23.885  1.00  0.00     0.001 A 
ATOM     29  C   UNL A   1      32.791  17.011  24.479  1.00  0.00     0.004 A 
ENDBRANCH  17  20
ENDBRANCH  12  16
ENDBRANCH   9  11
ENDBRANCH   8   9
ENDBRANCH   7   8
ENDBRANCH   6   7
ENDBRANCH   5   6
ENDBRANCH   4   5
ENDBRANCH   3   4
ENDBRANCH   2   3
ENDBRANCH   1   2
BRANCH   1  30
ATOM     30  C   UNL A   1      31.650  28.707  27.392  1.00  0.00     0.188 C 
BRANCH  30  31
ATOM     31  O   UNL A   1      32.371  29.874  27.032  1.00  0.00    -0.376 OA
BRANCH  31  32
ATOM     32  C   UNL A   1      33.777  29.770  26.857  1.00  0.00     0.202 C 
BRANCH  32  33
ATOM     33  C   UNL A   1      34.675  30.173  28.036  1.00  0.00     0.261 C 
BRANCH  33  34
ATOM     34  O   UNL A   1      35.965  29.544  28.106  1.00  0.00    -0.460 OA
BRANCH  34  35
ATOM     35  C   UNL A   1      36.670  29.660  29.249  1.00  0.00     0.338 C 
ATOM     36  O   UNL A   1      36.234  29.607  30.389  1.00  0.00    -0.246 OA
BRANCH  35  37
ATOM     37  C   UNL A   1      38.107  29.659  28.899  1.00  0.00     0.060 A 
ATOM     38  C   UNL A   1      38.482  29.449  27.565  1.00  0.00     0.016 A 
ATOM     39  C   UNL A   1      39.078  29.863  29.881  1.00  0.00     0.016 A 
ATOM     40  C   UNL A   1      39.834  29.397  27.218  1.00  0.00     0.010 A 
ATOM     41  C   UNL A   1      40.431  29.791  29.535  1.00  0.00     0.010 A 
ATOM     42  C   UNL A   1      40.815  29.520  28.209  1.00  0.00    -0.014 A 
BRANCH  42  43
ATOM     43  C   UNL A   1      42.225  29.167  27.904  1.00  0.00     0.031 A 
ATOM     44  C   UNL A   1      42.551  27.729  27.600  1.00  0.00     0.074 A 
ATOM     45  C   UNL A   1      43.196  30.098  27.881  1.00  0.00     0.049 A 
ATOM     46  N   UNL A   1      43.707  27.173  27.349  1.00  0.00    -0.248 NA
ATOM     47  C   UNL A   1      41.415  26.790  27.579  1.00  0.00     0.031 C 
ATOM     48  C   UNL A   1      43.005  31.529  28.103  1.00  0.00     0.029 A 
ATOM     49  N   UNL A   1      44.546  29.968  27.662  1.00  0.00    -0.354 N 
ATOM     50  C   UNL A   1      43.444  25.821  27.160  1.00  0.00     0.074 A 
ATOM     51  C   UNL A   1      42.022  25.636  27.348  1.00  0.00     0.031 C 
ATOM     52  C   UNL A   1      44.197  32.147  28.013  1.00  0.00     0.029 A 
ATOM     53  C   UNL A   1      45.239  31.151  27.767  1.00  0.00     0.049 A 
ATOM     54  H   UNL A   1      44.977  29.108  27.450  1.00  0.00     0.167 HD
ATOM     55  C   UNL A   1      44.307  24.823  26.857  1.00  0.00     0.031 A 
ATOM     56  C   UNL A   1      46.563  31.397  27.694  1.00  0.00     0.031 A 
ATOM     57  C   UNL A   1      45.723  25.008  26.684  1.00  0.00     0.049 A 
ATOM     58  C   UNL A   1      47.515  30.256  27.439  1.00  0.00     0.074 A 
ATOM     59  C   UNL A   1      46.678  24.064  26.352  1.00  0.00     0.029 A 
ATOM     60  N   UNL A   1      46.391  26.213  26.845  1.00  0.00    -0.354 N 
ATOM     61  N   UNL A   1      47.249  28.987  27.231  1.00  0.00    -0.248 NA
ATOM     62  C   UNL A   1      48.949  30.581  27.402  1.00  0.00     0.031 C 
ATOM     63  C   UNL A   1      47.932  24.682  26.384  1.00  0.00     0.029 A 
ATOM     64  C   UNL A   1      47.750  26.028  26.656  1.00  0.00     0.049 A 
ATOM     65  H   UNL A   1      45.962  27.072  27.061  1.00  0.00     0.167 HD
ATOM     66  C   UNL A   1      48.477  28.372  27.004  1.00  0.00     0.074 A 
ATOM     67  C   UNL A   1      49.485  29.409  27.090  1.00  0.00     0.031 C 
ATOM     68  C   UNL A   1      48.746  27.068  26.743  1.00  0.00     0.031 A 
BRANCH  55  69
ATOM     69  C   UNL A   1      43.748  23.427  26.743  1.00  0.00    -0.014 A 
ATOM     70  C   UNL A   1      43.448  22.659  27.884  1.00  0.00     0.010 A 
ATOM     71  C   UNL A   1      43.490  22.889  25.470  1.00  0.00     0.010 A 
ATOM     72  C   UNL A   1      42.940  21.363  27.749  1.00  0.00     0.020 A 
ATOM     73  C   UNL A   1      42.950  21.606  25.332  1.00  0.00     0.020 A 
ATOM     74  C   UNL A   1      42.695  20.846  26.473  1.00  0.00     0.054 A 
BRANCH  74  75
ATOM     75  S   UNL A   1      42.016  19.170  26.331  1.00  0.00     0.124 S 
ATOM     76  O   UNL A   1      42.969  18.535  25.423  1.00  0.00    -0.237 OA
ATOM     77  O   UNL A   1      42.051  18.694  27.711  1.00  0.00    -0.237 OA
ATOM     78  O   UNL A   1      40.680  19.382  25.780  1.00  0.00    -0.744 OA
ENDBRANCH  74  75
ENDBRANCH  55  69
BRANCH  56  79
ATOM     79  C   UNL A   1      47.076  32.785  27.875  1.00  0.00    -0.014 A 
ATOM     80  C   UNL A   1      47.401  33.267  29.156  1.00  0.00     0.010 A 
ATOM     81  C   UNL A   1      47.238  33.635  26.766  1.00  0.00     0.010 A 
ATOM     82  C   UNL A   1      47.866  34.575  29.326  1.00  0.00     0.020 A 
ATOM     83  C   UNL A   1      47.733  34.934  26.927  1.00  0.00     0.020 A 
ATOM     84  C   UNL A   1      48.035  35.398  28.209  1.00  0.00     0.054 A 
BRANCH  84  85
ATOM     85  S   UNL A   1      48.699  37.069  28.449  1.00  0.00     0.124 S 
ATOM     86  O   UNL A   1      47.483  37.863  28.593  1.00  0.00    -0.237 OA
ATOM     87  O   UNL A   1      49.502  36.914  29.659  1.00  0.00    -0.237 OA
ATOM     88  O   UNL A   1      49.466  37.312  27.229  1.00  0.00    -0.744 OA
ENDBRANCH  84  85
ENDBRANCH  56  79
BRANCH  68  89
ATOM     89  C   UNL A   1      50.182  26.685  26.482  1.00  0.00    -0.014 A 
ATOM     90  C   UNL A   1      50.736  26.740  25.192  1.00  0.00     0.010 A 
ATOM     91  C   UNL A   1      51.007  26.322  27.564  1.00  0.00     0.010 A 
ATOM     92  C   UNL A   1      52.078  26.407  24.983  1.00  0.00     0.020 A 
ATOM     93  C   UNL A   1      52.356  26.022  27.366  1.00  0.00     0.020 A 
ATOM     94  C   UNL A   1      52.880  26.052  26.073  1.00  0.00     0.054 A 
BRANCH  94  95
ATOM     95  S   UNL A   1      54.629  25.668  25.781  1.00  0.00     0.124 S 
ATOM     96  O   UNL A   1      54.666  25.498  24.332  1.00  0.00    -0.237 OA
ATOM     97  O   UNL A   1      55.307  26.857  26.293  1.00  0.00    -0.237 OA
ATOM     98  O   UNL A   1      54.851  24.448  26.557  1.00  0.00    -0.744 OA
ENDBRANCH  94  95
ENDBRANCH  68  89
ENDBRANCH  42  43
ENDBRANCH  35  37
ENDBRANCH  34  35
ENDBRANCH  33  34
ENDBRANCH  32  33
ENDBRANCH  31  32
ENDBRANCH  30  31
ENDBRANCH   1  30
TORSDOF 25
ENDMDL
