MODEL 1
REMARK VINA RESULT:      -8.9      0.000      0.000
REMARK SMILES CCc1c(Cl)ccc2c1C=C(C(=O)OCCOCCOCCOCCOC(=O)c1ccc(-c3c4nc(c(-c5ccc(S(=O)(=O)[O-])cc5)c5ccc([nH]5)c(-c5ccc(S(=O)(=O)[O-])cc5)c5nc(c(-c6ccc(S(=O)(=O)[O-])cc6)c6ccc3[nH]6)C=C5)C=C4)cc1)[C@@H](C(F)(F)F)O2
REMARK SMILES IDX 21 1 20 2 19 3 18 4 17 5 16 6 15 7 14 8 12 9 13 10 11 11
REMARK SMILES IDX 3 12 4 13 9 14 5 15 6 16 8 17 10 18 7 19 94 20 89 21 2 22
REMARK SMILES IDX 1 23 90 24 91 25 92 26 93 27 22 28 23 29 24 30 25 31 26 32
REMARK SMILES IDX 27 33 28 34 29 35 30 36 88 37 31 38 87 39 32 40 33 41 34 42
REMARK SMILES IDX 81 43 35 44 86 45 80 46 82 47 36 48 85 49 79 50 78 51 37 53
REMARK SMILES IDX 67 54 48 55 66 56 49 57 52 58 65 59 83 60 50 61 51 62 64 64
REMARK SMILES IDX 84 65 53 66 38 67 39 68 47 69 40 70 46 71 41 72 42 73 43 74
REMARK SMILES IDX 44 75 45 76 68 77 69 78 77 79 70 80 76 81 71 82 72 83 73 84
REMARK SMILES IDX 74 85 75 86 54 87 55 88 63 89 56 90 62 91 57 92 58 93 59 94
REMARK SMILES IDX 60 95 61 96
REMARK H PARENT 82 52 52 63
REMARK Flexibility Score: inf
ROOT
ATOM      1  C   UNL A   1      31.102  29.556  24.553  1.00  0.00     0.188 C 
ENDROOT
BRANCH   1   2
ATOM      2  O   UNL A   1      30.049  29.329  23.616  1.00  0.00    -0.377 OA
BRANCH   2   3
ATOM      3  C   UNL A   1      30.006  28.089  22.934  1.00  0.00     0.188 C 
BRANCH   3   4
ATOM      4  C   UNL A   1      29.205  26.999  23.666  1.00  0.00     0.188 C 
BRANCH   4   5
ATOM      5  O   UNL A   1      30.005  25.902  24.101  1.00  0.00    -0.376 OA
BRANCH   5   6
ATOM      6  C   UNL A   1      30.259  25.804  25.498  1.00  0.00     0.202 C 
BRANCH   6   7
ATOM      7  C   UNL A   1      31.660  26.220  25.972  1.00  0.00     0.261 C 
BRANCH   7   8
ATOM      8  O   UNL A   1      32.656  25.190  25.880  1.00  0.00    -0.460 OA
BRANCH   8   9
ATOM      9  C   UNL A   1      33.514  25.239  24.841  1.00  0.00     0.338 C 
ATOM     10  O   UNL A   1      33.711  26.183  24.097  1.00  0.00    -0.246 OA
BRANCH   9  11
ATOM     11  C   UNL A   1      34.335  24.007  24.880  1.00  0.00     0.087 C 
ATOM     12  C   UNL A   1      37.826  22.992  25.799  1.00  0.00    -0.019 A 
ATOM     13  C   UNL A   1      38.575  21.789  25.662  1.00  0.00     0.045 A 
ATOM     14  C   UNL A   1      36.470  22.963  25.374  1.00  0.00     0.022 A 
ATOM     15  Cl  UNL A   1      40.284  21.710  25.969  1.00  0.00    -0.084 Cl
ATOM     16  C   UNL A   1      37.988  20.594  25.240  1.00  0.00     0.024 A 
ATOM     17  C   UNL A   1      35.885  21.733  25.006  1.00  0.00     0.128 A 
ATOM     18  C   UNL A   1      35.623  24.144  25.227  1.00  0.00     0.027 C 
ATOM     19  C   UNL A   1      36.636  20.562  24.945  1.00  0.00     0.048 A 
ATOM     20  O   UNL A   1      34.572  21.553  24.673  1.00  0.00    -0.475 OA
ATOM     21  C   UNL A   1      33.678  22.689  24.603  1.00  0.00     0.316 C 
BRANCH  12  22
ATOM     22  C   UNL A   1      38.568  24.207  26.350  1.00  0.00     0.034 C 
ATOM     23  C   UNL A   1      38.609  24.511  27.844  1.00  0.00     0.009 C 
ENDBRANCH  12  22
BRANCH  21  24
ATOM     24  C   UNL A   1      33.002  22.668  23.222  1.00  0.00     0.430 C 
ATOM     25  F   UNL A   1      33.787  23.246  22.283  1.00  0.00    -0.167 F 
ATOM     26  F   UNL A   1      32.741  21.410  22.805  1.00  0.00    -0.167 F 
ATOM     27  F   UNL A   1      31.827  23.342  23.239  1.00  0.00    -0.167 F 
ENDBRANCH  21  24
ENDBRANCH   9  11
ENDBRANCH   8   9
ENDBRANCH   7   8
ENDBRANCH   6   7
ENDBRANCH   5   6
ENDBRANCH   4   5
ENDBRANCH   3   4
ENDBRANCH   2   3
ENDBRANCH   1   2
BRANCH   1  28
ATOM     28  C   UNL A   1      31.140  30.792  25.484  1.00  0.00     0.188 C 
BRANCH  28  29
ATOM     29  O   UNL A   1      32.174  30.760  26.465  1.00  0.00    -0.376 OA
BRANCH  29  30
ATOM     30  C   UNL A   1      33.073  29.662  26.400  1.00  0.00     0.202 C 
BRANCH  30  31
ATOM     31  C   UNL A   1      34.356  29.873  27.212  1.00  0.00     0.261 C 
BRANCH  31  32
ATOM     32  O   UNL A   1      34.744  31.243  27.391  1.00  0.00    -0.460 OA
BRANCH  32  33
ATOM     33  C   UNL A   1      34.963  31.677  28.654  1.00  0.00     0.338 C 
ATOM     34  O   UNL A   1      34.187  32.285  29.368  1.00  0.00    -0.246 OA
BRANCH  33  35
ATOM     35  C   UNL A   1      36.249  31.097  29.093  1.00  0.00     0.060 A 
ATOM     36  C   UNL A   1      37.454  31.667  28.674  1.00  0.00     0.016 A 
ATOM     37  C   UNL A   1      36.246  29.945  29.888  1.00  0.00     0.016 A 
ATOM     38  C   UNL A   1      38.662  31.094  29.073  1.00  0.00     0.010 A 
ATOM     39  C   UNL A   1      37.457  29.367  30.280  1.00  0.00     0.010 A 
ATOM     40  C   UNL A   1      38.672  29.952  29.892  1.00  0.00    -0.014 A 
BRANCH  40  41
ATOM     41  C   UNL A   1      39.950  29.504  30.495  1.00  0.00     0.031 A 
ATOM     42  C   UNL A   1      40.803  28.446  29.869  1.00  0.00     0.074 A 
ATOM     43  C   UNL A   1      40.338  30.105  31.637  1.00  0.00     0.049 A 
ATOM     44  N   UNL A   1      41.996  28.048  30.229  1.00  0.00    -0.248 NA
ATOM     45  C   UNL A   1      40.260  27.746  28.697  1.00  0.00     0.031 C 
ATOM     46  C   UNL A   1      39.573  31.142  32.333  1.00  0.00     0.029 A 
ATOM     47  N   UNL A   1      41.467  29.951  32.400  1.00  0.00    -0.354 N 
ATOM     48  C   UNL A   1      42.364  27.068  29.316  1.00  0.00     0.074 A 
ATOM     49  C   UNL A   1      41.245  26.899  28.411  1.00  0.00     0.031 C 
ATOM     50  C   UNL A   1      40.270  31.554  33.403  1.00  0.00     0.029 A 
ATOM     51  C   UNL A   1      41.514  30.795  33.484  1.00  0.00     0.049 A 
ATOM     52  H   UNL A   1      42.175  29.299  32.190  1.00  0.00     0.167 HD
ATOM     53  C   UNL A   1      43.534  26.391  29.238  1.00  0.00     0.031 A 
ATOM     54  C   UNL A   1      42.455  30.955  34.435  1.00  0.00     0.031 A 
ATOM     55  C   UNL A   1      44.629  26.557  30.164  1.00  0.00     0.049 A 
ATOM     56  C   UNL A   1      43.722  30.156  34.353  1.00  0.00     0.074 A 
ATOM     57  C   UNL A   1      45.871  25.943  30.137  1.00  0.00     0.029 A 
ATOM     58  N   UNL A   1      44.619  27.377  31.282  1.00  0.00    -0.354 N 
ATOM     59  N   UNL A   1      44.086  29.290  33.438  1.00  0.00    -0.248 NA
ATOM     60  C   UNL A   1      44.714  30.364  35.417  1.00  0.00     0.031 C 
ATOM     61  C   UNL A   1      46.579  26.333  31.276  1.00  0.00     0.029 A 
ATOM     62  C   UNL A   1      45.814  27.254  31.974  1.00  0.00     0.049 A 
ATOM     63  H   UNL A   1      43.872  27.963  31.546  1.00  0.00     0.167 HD
ATOM     64  C   UNL A   1      45.356  28.861  33.805  1.00  0.00     0.074 A 
ATOM     65  C   UNL A   1      45.705  29.575  35.015  1.00  0.00     0.031 C 
ATOM     66  C   UNL A   1      46.154  27.957  33.188  1.00  0.00     0.031 A 
BRANCH  53  67
ATOM     67  C   UNL A   1      43.729  25.413  28.107  1.00  0.00    -0.014 A 
ATOM     68  C   UNL A   1      43.458  24.046  28.304  1.00  0.00     0.010 A 
ATOM     69  C   UNL A   1      44.328  25.822  26.901  1.00  0.00     0.010 A 
ATOM     70  C   UNL A   1      43.815  23.102  27.336  1.00  0.00     0.020 A 
ATOM     71  C   UNL A   1      44.662  24.884  25.919  1.00  0.00     0.020 A 
ATOM     72  C   UNL A   1      44.426  23.527  26.153  1.00  0.00     0.054 A 
BRANCH  72  73
ATOM     73  S   UNL A   1      44.921  22.284  24.927  1.00  0.00     0.124 S 
ATOM     74  O   UNL A   1      43.746  21.421  24.870  1.00  0.00    -0.237 OA
ATOM     75  O   UNL A   1      45.168  23.094  23.736  1.00  0.00    -0.237 OA
ATOM     76  O   UNL A   1      46.114  21.679  25.515  1.00  0.00    -0.744 OA
ENDBRANCH  72  73
ENDBRANCH  53  67
BRANCH  54  77
ATOM     77  C   UNL A   1      42.228  31.966  35.501  1.00  0.00    -0.014 A 
ATOM     78  C   UNL A   1      41.486  31.632  36.651  1.00  0.00     0.010 A 
ATOM     79  C   UNL A   1      42.651  33.293  35.322  1.00  0.00     0.010 A 
ATOM     80  C   UNL A   1      41.117  32.618  37.568  1.00  0.00     0.020 A 
ATOM     81  C   UNL A   1      42.310  34.279  36.255  1.00  0.00     0.020 A 
ATOM     82  C   UNL A   1      41.518  33.938  37.354  1.00  0.00     0.054 A 
BRANCH  82  83
ATOM     83  S   UNL A   1      40.968  35.214  38.520  1.00  0.00     0.124 S 
ATOM     84  O   UNL A   1      39.516  35.060  38.469  1.00  0.00    -0.237 OA
ATOM     85  O   UNL A   1      41.601  34.799  39.769  1.00  0.00    -0.237 OA
ATOM     86  O   UNL A   1      41.486  36.452  37.943  1.00  0.00    -0.744 OA
ENDBRANCH  82  83
ENDBRANCH  54  77
BRANCH  66  87
ATOM     87  C   UNL A   1      47.498  27.656  33.804  1.00  0.00    -0.014 A 
ATOM     88  C   UNL A   1      47.606  26.665  34.797  1.00  0.00     0.010 A 
ATOM     89  C   UNL A   1      48.622  28.445  33.500  1.00  0.00     0.010 A 
ATOM     90  C   UNL A   1      48.799  26.498  35.506  1.00  0.00     0.020 A 
ATOM     91  C   UNL A   1      49.826  28.260  34.187  1.00  0.00     0.020 A 
ATOM     92  C   UNL A   1      49.897  27.306  35.206  1.00  0.00     0.054 A 
BRANCH  92  93
ATOM     93  S   UNL A   1      51.421  27.107  36.170  1.00  0.00     0.124 S 
ATOM     94  O   UNL A   1      52.067  28.405  35.995  1.00  0.00    -0.237 OA
ATOM     95  O   UNL A   1      50.918  26.829  37.512  1.00  0.00    -0.237 OA
ATOM     96  O   UNL A   1      52.093  25.983  35.520  1.00  0.00    -0.744 OA
ENDBRANCH  92  93
ENDBRANCH  66  87
ENDBRANCH  40  41
ENDBRANCH  33  35
ENDBRANCH  32  33
ENDBRANCH  31  32
ENDBRANCH  30  31
ENDBRANCH  29  30
ENDBRANCH  28  29
ENDBRANCH   1  28
TORSDOF 25
ENDMDL
MODEL 2
REMARK VINA RESULT:      -8.3      1.673      2.440
REMARK SMILES CCc1c(Cl)ccc2c1C=C(C(=O)OCCOCCOCCOCCOC(=O)c1ccc(-c3c4nc(c(-c5ccc(S(=O)(=O)[O-])cc5)c5ccc([nH]5)c(-c5ccc(S(=O)(=O)[O-])cc5)c5nc(c(-c6ccc(S(=O)(=O)[O-])cc6)c6ccc3[nH]6)C=C5)C=C4)cc1)[C@@H](C(F)(F)F)O2
REMARK SMILES IDX 21 1 20 2 19 3 18 4 17 5 16 6 15 7 14 8 12 9 13 10 11 11
REMARK SMILES IDX 3 12 4 13 9 14 5 15 6 16 8 17 10 18 7 19 94 20 89 21 2 22
REMARK SMILES IDX 1 23 90 24 91 25 92 26 93 27 22 28 23 29 24 30 25 31 26 32
REMARK SMILES IDX 27 33 28 34 29 35 30 36 88 37 31 38 87 39 32 40 33 41 34 42
REMARK SMILES IDX 81 43 35 44 86 45 80 46 82 47 36 48 85 49 79 50 78 51 37 53
REMARK SMILES IDX 67 54 48 55 66 56 49 57 52 58 65 59 83 60 50 61 51 62 64 64
REMARK SMILES IDX 84 65 53 66 38 67 39 68 47 69 40 70 46 71 41 72 42 73 43 74
REMARK SMILES IDX 44 75 45 76 68 77 69 78 77 79 70 80 76 81 71 82 72 83 73 84
REMARK SMILES IDX 74 85 75 86 54 87 55 88 63 89 56 90 62 91 57 92 58 93 59 94
REMARK SMILES IDX 60 95 61 96
REMARK H PARENT 82 52 52 63
REMARK Flexibility Score: inf
ROOT
ATOM      1  C   UNL A   1      31.615  29.706  25.206  1.00  0.00     0.188 C 
ENDROOT
BRANCH   1   2
ATOM      2  O   UNL A   1      30.534  29.325  24.356  1.00  0.00    -0.377 OA
BRANCH   2   3
ATOM      3  C   UNL A   1      30.658  28.138  23.595  1.00  0.00     0.188 C 
BRANCH   3   4
ATOM      4  C   UNL A   1      29.386  27.274  23.569  1.00  0.00     0.188 C 
BRANCH   4   5
ATOM      5  O   UNL A   1      29.610  25.921  23.957  1.00  0.00    -0.376 OA
BRANCH   5   6
ATOM      6  C   UNL A   1      29.835  25.678  25.342  1.00  0.00     0.202 C 
BRANCH   6   7
ATOM      7  C   UNL A   1      31.237  25.188  25.734  1.00  0.00     0.261 C 
BRANCH   7   8
ATOM      8  O   UNL A   1      31.626  23.941  25.138  1.00  0.00    -0.460 OA
BRANCH   8   9
ATOM      9  C   UNL A   1      32.443  23.985  24.068  1.00  0.00     0.338 C 
ATOM     10  O   UNL A   1      32.433  24.811  23.172  1.00  0.00    -0.246 OA
BRANCH   9  11
ATOM     11  C   UNL A   1      33.502  22.970  24.269  1.00  0.00     0.087 C 
ATOM     12  C   UNL A   1      33.839  19.235  24.285  1.00  0.00    -0.019 A 
ATOM     13  C   UNL A   1      34.886  18.337  24.637  1.00  0.00     0.045 A 
ATOM     14  C   UNL A   1      34.125  20.625  24.356  1.00  0.00     0.022 A 
ATOM     15  Cl  UNL A   1      34.643  16.621  24.772  1.00  0.00    -0.084 Cl
ATOM     16  C   UNL A   1      36.177  18.783  24.930  1.00  0.00     0.024 A 
ATOM     17  C   UNL A   1      35.449  21.049  24.597  1.00  0.00     0.128 A 
ATOM     18  C   UNL A   1      33.123  21.684  24.254  1.00  0.00     0.027 C 
ATOM     19  C   UNL A   1      36.464  20.136  24.876  1.00  0.00     0.048 A 
ATOM     20  O   UNL A   1      35.875  22.347  24.593  1.00  0.00    -0.475 OA
ATOM     21  C   UNL A   1      34.924  23.423  24.407  1.00  0.00     0.316 C 
BRANCH  12  22
ATOM     22  C   UNL A   1      32.497  18.613  23.907  1.00  0.00     0.034 C 
ATOM     23  C   UNL A   1      32.274  17.952  22.550  1.00  0.00     0.009 C 
ENDBRANCH  12  22
BRANCH  21  24
ATOM     24  C   UNL A   1      35.098  24.409  25.572  1.00  0.00     0.430 C 
ATOM     25  F   UNL A   1      36.384  24.451  25.993  1.00  0.00    -0.167 F 
ATOM     26  F   UNL A   1      34.750  25.668  25.227  1.00  0.00    -0.167 F 
ATOM     27  F   UNL A   1      34.336  24.055  26.635  1.00  0.00    -0.167 F 
ENDBRANCH  21  24
ENDBRANCH   9  11
ENDBRANCH   8   9
ENDBRANCH   7   8
ENDBRANCH   6   7
ENDBRANCH   5   6
ENDBRANCH   4   5
ENDBRANCH   3   4
ENDBRANCH   2   3
ENDBRANCH   1   2
BRANCH   1  28
ATOM     28  C   UNL A   1      31.444  30.700  26.381  1.00  0.00     0.188 C 
BRANCH  28  29
ATOM     29  O   UNL A   1      32.660  31.050  27.040  1.00  0.00    -0.376 OA
BRANCH  29  30
ATOM     30  C   UNL A   1      33.781  30.217  26.780  1.00  0.00     0.202 C 
BRANCH  30  31
ATOM     31  C   UNL A   1      34.938  30.426  27.764  1.00  0.00     0.261 C 
BRANCH  31  32
ATOM     32  O   UNL A   1      35.061  31.757  28.285  1.00  0.00    -0.460 OA
BRANCH  32  33
ATOM     33  C   UNL A   1      35.265  31.897  29.615  1.00  0.00     0.338 C 
ATOM     34  O   UNL A   1      34.470  32.304  30.443  1.00  0.00    -0.246 OA
BRANCH  33  35
ATOM     35  C   UNL A   1      36.567  31.270  29.921  1.00  0.00     0.060 A 
ATOM     36  C   UNL A   1      37.747  31.817  29.409  1.00  0.00     0.016 A 
ATOM     37  C   UNL A   1      36.600  30.097  30.685  1.00  0.00     0.016 A 
ATOM     38  C   UNL A   1      38.967  31.199  29.682  1.00  0.00     0.010 A 
ATOM     39  C   UNL A   1      37.823  29.475  30.951  1.00  0.00     0.010 A 
ATOM     40  C   UNL A   1      39.016  30.035  30.469  1.00  0.00    -0.014 A 
BRANCH  40  41
ATOM     41  C   UNL A   1      40.328  29.535  30.942  1.00  0.00     0.031 A 
ATOM     42  C   UNL A   1      41.115  28.512  30.186  1.00  0.00     0.074 A 
ATOM     43  C   UNL A   1      40.810  30.055  32.089  1.00  0.00     0.049 A 
ATOM     44  N   UNL A   1      42.326  28.078  30.427  1.00  0.00    -0.248 NA
ATOM     45  C   UNL A   1      40.475  27.896  29.015  1.00  0.00     0.031 C 
ATOM     46  C   UNL A   1      40.116  31.051  32.907  1.00  0.00     0.029 A 
ATOM     47  N   UNL A   1      41.991  29.839  32.751  1.00  0.00    -0.354 N 
ATOM     48  C   UNL A   1      42.609  27.157  29.427  1.00  0.00     0.074 A 
ATOM     49  C   UNL A   1      41.422  27.060  28.601  1.00  0.00     0.031 C 
ATOM     50  C   UNL A   1      40.898  31.384  33.945  1.00  0.00     0.029 A 
ATOM     51  C   UNL A   1      42.133  30.609  33.881  1.00  0.00     0.049 A 
ATOM     52  H   UNL A   1      42.671  29.196  32.446  1.00  0.00     0.167 HD
ATOM     53  C   UNL A   1      43.760  26.475  29.216  1.00  0.00     0.031 A 
ATOM     54  C   UNL A   1      43.145  30.696  34.766  1.00  0.00     0.031 A 
ATOM     55  C   UNL A   1      44.924  26.567  30.065  1.00  0.00     0.049 A 
ATOM     56  C   UNL A   1      44.390  29.891  34.536  1.00  0.00     0.074 A 
ATOM     57  C   UNL A   1      46.150  25.943  29.903  1.00  0.00     0.029 A 
ATOM     58  N   UNL A   1      45.010  27.312  31.232  1.00  0.00    -0.354 N 
ATOM     59  N   UNL A   1      44.671  29.084  33.542  1.00  0.00    -0.248 NA
ATOM     60  C   UNL A   1      45.462  30.017  35.533  1.00  0.00     0.031 C 
ATOM     61  C   UNL A   1      46.948  26.250  31.008  1.00  0.00     0.029 A 
ATOM     62  C   UNL A   1      46.252  27.131  31.821  1.00  0.00     0.049 A 
ATOM     63  H   UNL A   1      44.294  27.887  31.589  1.00  0.00     0.167 HD
ATOM     64  C   UNL A   1      45.958  28.618  33.782  1.00  0.00     0.074 A 
ATOM     65  C   UNL A   1      46.408  29.247  35.006  1.00  0.00     0.031 C 
ATOM     66  C   UNL A   1      46.694  27.749  33.048  1.00  0.00     0.031 A 
BRANCH  53  67
ATOM     67  C   UNL A   1      43.853  25.571  28.012  1.00  0.00    -0.014 A 
ATOM     68  C   UNL A   1      43.658  24.185  28.156  1.00  0.00     0.010 A 
ATOM     69  C   UNL A   1      44.289  26.074  26.772  1.00  0.00     0.010 A 
ATOM     70  C   UNL A   1      43.931  23.314  27.097  1.00  0.00     0.020 A 
ATOM     71  C   UNL A   1      44.536  25.209  25.701  1.00  0.00     0.020 A 
ATOM     72  C   UNL A   1      44.381  23.831  25.878  1.00  0.00     0.054 A 
BRANCH  72  73
ATOM     73  S   UNL A   1      44.770  22.683  24.529  1.00  0.00     0.124 S 
ATOM     74  O   UNL A   1      45.187  21.485  25.251  1.00  0.00    -0.237 OA
ATOM     75  O   UNL A   1      43.496  22.582  23.820  1.00  0.00    -0.237 OA
ATOM     76  O   UNL A   1      45.829  23.368  23.791  1.00  0.00    -0.744 OA
ENDBRANCH  72  73
ENDBRANCH  53  67
BRANCH  54  77
ATOM     77  C   UNL A   1      43.015  31.636  35.910  1.00  0.00    -0.014 A 
ATOM     78  C   UNL A   1      42.409  31.216  37.110  1.00  0.00     0.010 A 
ATOM     79  C   UNL A   1      43.389  32.983  35.769  1.00  0.00     0.010 A 
ATOM     80  C   UNL A   1      42.121  32.137  38.120  1.00  0.00     0.020 A 
ATOM     81  C   UNL A   1      43.131  33.903  36.790  1.00  0.00     0.020 A 
ATOM     82  C   UNL A   1      42.470  33.478  37.945  1.00  0.00     0.054 A 
BRANCH  82  83
ATOM     83  S   UNL A   1      42.024  34.668  39.239  1.00  0.00     0.124 S 
ATOM     84  O   UNL A   1      42.463  33.975  40.447  1.00  0.00    -0.237 OA
ATOM     85  O   UNL A   1      42.804  35.847  38.871  1.00  0.00    -0.237 OA
ATOM     86  O   UNL A   1      40.578  34.811  39.090  1.00  0.00    -0.744 OA
ENDBRANCH  82  83
ENDBRANCH  54  77
BRANCH  66  87
ATOM     87  C   UNL A   1      48.075  27.394  33.539  1.00  0.00    -0.014 A 
ATOM     88  C   UNL A   1      49.190  28.119  33.079  1.00  0.00     0.010 A 
ATOM     89  C   UNL A   1      48.283  26.261  34.345  1.00  0.00     0.010 A 
ATOM     90  C   UNL A   1      50.487  27.694  33.376  1.00  0.00     0.020 A 
ATOM     91  C   UNL A   1      49.579  25.849  34.670  1.00  0.00     0.020 A 
ATOM     92  C   UNL A   1      50.673  26.553  34.159  1.00  0.00     0.054 A 
BRANCH  92  93
ATOM     93  S   UNL A   1      52.365  25.987  34.495  1.00  0.00     0.124 S 
ATOM     94  O   UNL A   1      53.045  26.290  33.239  1.00  0.00    -0.237 OA
ATOM     95  O   UNL A   1      52.757  26.809  35.637  1.00  0.00    -0.237 OA
ATOM     96  O   UNL A   1      52.199  24.565  34.788  1.00  0.00    -0.744 OA
ENDBRANCH  92  93
ENDBRANCH  66  87
ENDBRANCH  40  41
ENDBRANCH  33  35
ENDBRANCH  32  33
ENDBRANCH  31  32
ENDBRANCH  30  31
ENDBRANCH  29  30
ENDBRANCH  28  29
ENDBRANCH   1  28
TORSDOF 25
ENDMDL
MODEL 3
REMARK VINA RESULT:      -7.9      5.296      6.515
REMARK SMILES CCc1c(Cl)ccc2c1C=C(C(=O)OCCOCCOCCOCCOC(=O)c1ccc(-c3c4nc(c(-c5ccc(S(=O)(=O)[O-])cc5)c5ccc([nH]5)c(-c5ccc(S(=O)(=O)[O-])cc5)c5nc(c(-c6ccc(S(=O)(=O)[O-])cc6)c6ccc3[nH]6)C=C5)C=C4)cc1)[C@@H](C(F)(F)F)O2
REMARK SMILES IDX 21 1 20 2 19 3 18 4 17 5 16 6 15 7 14 8 12 9 13 10 11 11
REMARK SMILES IDX 3 12 4 13 9 14 5 15 6 16 8 17 10 18 7 19 94 20 89 21 2 22
REMARK SMILES IDX 1 23 90 24 91 25 92 26 93 27 22 28 23 29 24 30 25 31 26 32
REMARK SMILES IDX 27 33 28 34 29 35 30 36 88 37 31 38 87 39 32 40 33 41 34 42
REMARK SMILES IDX 81 43 35 44 86 45 80 46 82 47 36 48 85 49 79 50 78 51 37 53
REMARK SMILES IDX 67 54 48 55 66 56 49 57 52 58 65 59 83 60 50 61 51 62 64 64
REMARK SMILES IDX 84 65 53 66 38 67 39 68 47 69 40 70 46 71 41 72 42 73 43 74
REMARK SMILES IDX 44 75 45 76 68 77 69 78 77 79 70 80 76 81 71 82 72 83 73 84
REMARK SMILES IDX 74 85 75 86 54 87 55 88 63 89 56 90 62 91 57 92 58 93 59 94
REMARK SMILES IDX 60 95 61 96
REMARK H PARENT 82 52 52 63
REMARK Flexibility Score: inf
ROOT
ATOM      1  C   UNL A   1      32.052  30.121  25.347  1.00  0.00     0.188 C 
ENDROOT
BRANCH   1   2
ATOM      2  O   UNL A   1      30.975  29.879  24.442  1.00  0.00    -0.377 OA
BRANCH   2   3
ATOM      3  C   UNL A   1      31.134  28.878  23.453  1.00  0.00     0.188 C 
BRANCH   3   4
ATOM      4  C   UNL A   1      30.013  27.825  23.440  1.00  0.00     0.188 C 
BRANCH   4   5
ATOM      5  O   UNL A   1      30.456  26.519  23.798  1.00  0.00    -0.376 OA
BRANCH   5   6
ATOM      6  C   UNL A   1      31.762  26.144  23.372  1.00  0.00     0.202 C 
BRANCH   6   7
ATOM      7  C   UNL A   1      31.842  25.119  22.230  1.00  0.00     0.261 C 
BRANCH   7   8
ATOM      8  O   UNL A   1      32.117  23.773  22.649  1.00  0.00    -0.460 OA
BRANCH   8   9
ATOM      9  C   UNL A   1      33.376  23.478  23.026  1.00  0.00     0.338 C 
ATOM     10  O   UNL A   1      34.383  24.119  22.782  1.00  0.00    -0.246 OA
BRANCH   9  11
ATOM     11  C   UNL A   1      33.307  22.342  23.973  1.00  0.00     0.087 C 
ATOM     12  C   UNL A   1      33.045  18.603  23.852  1.00  0.00    -0.019 A 
ATOM     13  C   UNL A   1      32.836  17.593  24.834  1.00  0.00     0.045 A 
ATOM     14  C   UNL A   1      33.150  19.943  24.312  1.00  0.00     0.022 A 
ATOM     15  Cl  UNL A   1      32.512  15.937  24.419  1.00  0.00    -0.084 Cl
ATOM     16  C   UNL A   1      32.846  17.876  26.201  1.00  0.00     0.024 A 
ATOM     17  C   UNL A   1      33.216  20.197  25.699  1.00  0.00     0.128 A 
ATOM     18  C   UNL A   1      33.138  21.120  23.447  1.00  0.00     0.027 C 
ATOM     19  C   UNL A   1      33.070  19.173  26.631  1.00  0.00     0.048 A 
ATOM     20  O   UNL A   1      33.414  21.423  26.268  1.00  0.00    -0.475 OA
ATOM     21  C   UNL A   1      33.495  22.605  25.437  1.00  0.00     0.316 C 
BRANCH  12  22
ATOM     22  C   UNL A   1      33.093  18.148  22.395  1.00  0.00     0.034 C 
ATOM     23  C   UNL A   1      32.009  18.542  21.397  1.00  0.00     0.009 C 
ENDBRANCH  12  22
BRANCH  21  24
ATOM     24  C   UNL A   1      32.475  23.624  25.968  1.00  0.00     0.430 C 
ATOM     25  F   UNL A   1      32.897  24.894  25.764  1.00  0.00    -0.167 F 
ATOM     26  F   UNL A   1      31.273  23.501  25.362  1.00  0.00    -0.167 F 
ATOM     27  F   UNL A   1      32.275  23.472  27.299  1.00  0.00    -0.167 F 
ENDBRANCH  21  24
ENDBRANCH   9  11
ENDBRANCH   8   9
ENDBRANCH   7   8
ENDBRANCH   6   7
ENDBRANCH   5   6
ENDBRANCH   4   5
ENDBRANCH   3   4
ENDBRANCH   2   3
ENDBRANCH   1   2
BRANCH   1  28
ATOM     28  C   UNL A   1      31.861  30.161  26.882  1.00  0.00     0.188 C 
BRANCH  28  29
ATOM     29  O   UNL A   1      33.054  30.418  27.619  1.00  0.00    -0.376 OA
BRANCH  29  30
ATOM     30  C   UNL A   1      34.278  30.121  26.962  1.00  0.00     0.202 C 
BRANCH  30  31
ATOM     31  C   UNL A   1      35.274  29.357  27.843  1.00  0.00     0.261 C 
BRANCH  31  32
ATOM     32  O   UNL A   1      36.251  30.173  28.505  1.00  0.00    -0.460 OA
BRANCH  32  33
ATOM     33  C   UNL A   1      36.832  29.679  29.622  1.00  0.00     0.338 C 
ATOM     34  O   UNL A   1      36.294  29.434  30.686  1.00  0.00    -0.246 OA
BRANCH  33  35
ATOM     35  C   UNL A   1      38.211  29.291  29.257  1.00  0.00     0.060 A 
ATOM     36  C   UNL A   1      38.630  29.364  27.926  1.00  0.00     0.016 A 
ATOM     37  C   UNL A   1      39.071  28.803  30.248  1.00  0.00     0.016 A 
ATOM     38  C   UNL A   1      39.925  28.968  27.589  1.00  0.00     0.010 A 
ATOM     39  C   UNL A   1      40.365  28.400  29.908  1.00  0.00     0.010 A 
ATOM     40  C   UNL A   1      40.807  28.500  28.580  1.00  0.00    -0.014 A 
BRANCH  40  41
ATOM     41  C   UNL A   1      42.238  28.314  28.245  1.00  0.00     0.031 A 
ATOM     42  C   UNL A   1      42.792  26.995  27.804  1.00  0.00     0.074 A 
ATOM     43  C   UNL A   1      43.039  29.394  28.333  1.00  0.00     0.049 A 
ATOM     44  N   UNL A   1      43.996  26.725  27.370  1.00  0.00    -0.248 NA
ATOM     45  C   UNL A   1      41.892  25.834  27.854  1.00  0.00     0.031 C 
ATOM     46  C   UNL A   1      42.599  30.723  28.762  1.00  0.00     0.029 A 
ATOM     47  N   UNL A   1      44.372  29.555  28.052  1.00  0.00    -0.354 N 
ATOM     48  C   UNL A   1      43.999  25.370  27.067  1.00  0.00     0.074 A 
ATOM     49  C   UNL A   1      42.686  24.862  27.412  1.00  0.00     0.031 C 
ATOM     50  C   UNL A   1      43.635  31.571  28.685  1.00  0.00     0.029 A 
ATOM     51  C   UNL A   1      44.815  30.844  28.228  1.00  0.00     0.049 A 
ATOM     52  H   UNL A   1      44.953  28.819  27.753  1.00  0.00     0.167 HD
ATOM     53  C   UNL A   1      45.001  24.631  26.535  1.00  0.00     0.031 A 
ATOM     54  C   UNL A   1      46.032  31.391  28.035  1.00  0.00     0.031 A 
ATOM     55  C   UNL A   1      46.311  25.150  26.219  1.00  0.00     0.049 A 
ATOM     56  C   UNL A   1      47.140  30.538  27.491  1.00  0.00     0.074 A 
ATOM     57  C   UNL A   1      47.376  24.483  25.637  1.00  0.00     0.029 A 
ATOM     58  N   UNL A   1      46.742  26.446  26.465  1.00  0.00    -0.354 N 
ATOM     59  N   UNL A   1      47.103  29.276  27.136  1.00  0.00    -0.248 NA
ATOM     60  C   UNL A   1      48.448  31.179  27.303  1.00  0.00     0.031 C 
ATOM     61  C   UNL A   1      48.471  25.351  25.601  1.00  0.00     0.029 A 
ATOM     62  C   UNL A   1      48.068  26.585  26.085  1.00  0.00     0.049 A 
ATOM     63  H   UNL A   1      46.187  27.162  26.852  1.00  0.00     0.167 HD
ATOM     64  C   UNL A   1      48.376  28.975  26.667  1.00  0.00     0.074 A 
ATOM     65  C   UNL A   1      49.156  30.191  26.766  1.00  0.00     0.031 C 
ATOM     66  C   UNL A   1      48.847  27.795  26.197  1.00  0.00     0.031 A 
BRANCH  53  67
ATOM     67  C   UNL A   1      44.743  23.177  26.229  1.00  0.00    -0.014 A 
ATOM     68  C   UNL A   1      45.806  22.253  26.254  1.00  0.00     0.010 A 
ATOM     69  C   UNL A   1      43.484  22.755  25.765  1.00  0.00     0.010 A 
ATOM     70  C   UNL A   1      45.624  20.948  25.788  1.00  0.00     0.020 A 
ATOM     71  C   UNL A   1      43.292  21.443  25.323  1.00  0.00     0.020 A 
ATOM     72  C   UNL A   1      44.370  20.554  25.313  1.00  0.00     0.054 A 
BRANCH  72  73
ATOM     73  S   UNL A   1      44.166  18.869  24.672  1.00  0.00     0.124 S 
ATOM     74  O   UNL A   1      44.230  19.077  23.229  1.00  0.00    -0.237 OA
ATOM     75  O   UNL A   1      45.303  18.165  25.260  1.00  0.00    -0.237 OA
ATOM     76  O   UNL A   1      42.860  18.463  25.188  1.00  0.00    -0.744 OA
ENDBRANCH  72  73
ENDBRANCH  53  67
BRANCH  54  77
ATOM     77  C   UNL A   1      46.216  32.840  28.312  1.00  0.00    -0.014 A 
ATOM     78  C   UNL A   1      46.022  33.789  27.290  1.00  0.00     0.010 A 
ATOM     79  C   UNL A   1      46.697  33.267  29.561  1.00  0.00     0.010 A 
ATOM     80  C   UNL A   1      46.365  35.128  27.492  1.00  0.00     0.020 A 
ATOM     81  C   UNL A   1      47.013  34.613  29.776  1.00  0.00     0.020 A 
ATOM     82  C   UNL A   1      46.875  35.527  28.729  1.00  0.00     0.054 A 
BRANCH  82  83
ATOM     83  S   UNL A   1      47.380  37.255  28.945  1.00  0.00     0.124 S 
ATOM     84  O   UNL A   1      47.185  37.446  30.380  1.00  0.00    -0.237 OA
ATOM     85  O   UNL A   1      48.770  37.240  28.496  1.00  0.00    -0.237 OA
ATOM     86  O   UNL A   1      46.459  37.992  28.084  1.00  0.00    -0.744 OA
ENDBRANCH  82  83
ENDBRANCH  54  77
BRANCH  66  87
ATOM     87  C   UNL A   1      50.288  27.729  25.756  1.00  0.00    -0.014 A 
ATOM     88  C   UNL A   1      50.618  27.952  24.406  1.00  0.00     0.010 A 
ATOM     89  C   UNL A   1      51.295  27.313  26.646  1.00  0.00     0.010 A 
ATOM     90  C   UNL A   1      51.916  27.718  23.944  1.00  0.00     0.020 A 
ATOM     91  C   UNL A   1      52.601  27.107  26.192  1.00  0.00     0.020 A 
ATOM     92  C   UNL A   1      52.896  27.283  24.838  1.00  0.00     0.054 A 
BRANCH  92  93
ATOM     93  S   UNL A   1      54.563  26.938  24.210  1.00  0.00     0.124 S 
ATOM     94  O   UNL A   1      54.893  25.686  24.886  1.00  0.00    -0.237 OA
ATOM     95  O   UNL A   1      54.350  26.838  22.769  1.00  0.00    -0.237 OA
ATOM     96  O   UNL A   1      55.338  28.100  24.638  1.00  0.00    -0.744 OA
ENDBRANCH  92  93
ENDBRANCH  66  87
ENDBRANCH  40  41
ENDBRANCH  33  35
ENDBRANCH  32  33
ENDBRANCH  31  32
ENDBRANCH  30  31
ENDBRANCH  29  30
ENDBRANCH  28  29
ENDBRANCH   1  28
TORSDOF 25
ENDMDL
