MODEL 1
REMARK VINA RESULT:      -7.5      0.000      0.000
REMARK SMILES COc1ccc(-c2ccc(CCC(=O)OCCOCCOCCOCCOC(=O)c3ccc(-c4c5nc(c(-c6ccc(S(=O)(=O)[O-])cc6)c6ccc([nH]6)c(-c6ccc(S(=O)(=O)[O-])cc6)c6nc(c(-c7ccc(S(=O)(=O)[O-])cc7)c7ccc4[nH]7)C=C6)C=C5)cc3)n2-c2ccc(C(C)=O)cc2)cc1
REMARK SMILES IDX 20 1 19 2 18 3 17 4 16 5 15 6 13 7 14 8 12 9 11 10 10 11
REMARK SMILES IDX 7 12 8 13 90 14 9 15 6 16 3 17 4 18 101 19 5 20 100 21 2 22
REMARK SMILES IDX 1 23 91 24 92 25 99 26 93 27 98 28 94 29 95 30 96 31 97 32
REMARK SMILES IDX 21 33 22 34 23 35 24 36 25 37 26 38 27 39 28 40 29 41 30 42
REMARK SMILES IDX 31 43 89 44 32 45 88 46 33 47 34 48 35 49 82 50 36 51 87 52
REMARK SMILES IDX 81 53 83 54 37 55 86 56 80 57 79 58 38 60 68 61 49 62 67 63
REMARK SMILES IDX 50 64 53 65 66 66 84 67 51 68 52 69 65 71 85 72 54 73 39 74
REMARK SMILES IDX 40 75 48 76 41 77 47 78 42 79 43 80 44 81 45 82 46 83 69 84
REMARK SMILES IDX 70 85 78 86 71 87 77 88 72 89 73 90 74 91 75 92 76 93 55 94
REMARK SMILES IDX 56 95 64 96 57 97 63 98 58 99 59 100 60 101 61 102 62 103
REMARK H PARENT 83 59 53 70
REMARK Flexibility Score: inf
ROOT
ATOM      1  C   UNL A   1      52.052  42.849  28.805  1.00  0.00     0.188 C 
ENDROOT
BRANCH   1   2
ATOM      2  C   UNL A   1      51.522  44.250  29.156  1.00  0.00     0.188 C 
BRANCH   2   3
ATOM      3  O   UNL A   1      51.486  45.084  28.018  1.00  0.00    -0.376 OA
BRANCH   3   4
ATOM      4  C   UNL A   1      51.175  46.448  28.142  1.00  0.00     0.202 C 
BRANCH   4   5
ATOM      5  C   UNL A   1      51.088  47.373  26.919  1.00  0.00     0.261 C 
BRANCH   5   6
ATOM      6  O   UNL A   1      49.794  47.671  26.385  1.00  0.00    -0.463 OA
BRANCH   6   7
ATOM      7  C   UNL A   1      49.176  46.700  25.679  1.00  0.00     0.306 C 
ATOM      8  O   UNL A   1      48.447  45.848  26.180  1.00  0.00    -0.252 OA
BRANCH   7   9
ATOM      9  C   UNL A   1      49.584  46.652  24.219  1.00  0.00     0.129 C 
BRANCH   9  10
ATOM     10  C   UNL A   1      48.857  45.730  23.237  1.00  0.00     0.066 C 
BRANCH  10  11
ATOM     11  C   UNL A   1      48.051  46.445  22.177  1.00  0.00     0.024 A 
ATOM     12  C   UNL A   1      46.507  46.645  20.540  1.00  0.00     0.053 A 
ATOM     13  C   UNL A   1      47.399  47.694  20.414  1.00  0.00     0.029 A 
ATOM     14  N   UNL A   1      46.796  46.012  21.743  1.00  0.00    -0.314 N 
ATOM     15  C   UNL A   1      48.340  47.588  21.454  1.00  0.00     0.024 A 
BRANCH  12  16
ATOM     16  C   UNL A   1      45.420  46.316  19.628  1.00  0.00    -0.001 A 
ATOM     17  C   UNL A   1      43.347  45.579  17.903  1.00  0.00     0.118 A 
ATOM     18  C   UNL A   1      43.441  46.893  18.363  1.00  0.00     0.047 A 
ATOM     19  C   UNL A   1      44.325  44.649  18.248  1.00  0.00     0.047 A 
ATOM     20  C   UNL A   1      44.472  47.263  19.231  1.00  0.00     0.014 A 
ATOM     21  C   UNL A   1      45.357  45.018  19.109  1.00  0.00     0.014 A 
BRANCH  17  22
ATOM     22  O   UNL A   1      42.291  45.293  17.084  1.00  0.00    -0.497 OA
ATOM     23  C   UNL A   1      41.941  46.367  16.215  1.00  0.00     0.278 C 
ENDBRANCH  17  22
ENDBRANCH  12  16
BRANCH  14  24
ATOM     24  C   UNL A   1      45.989  45.077  22.437  1.00  0.00     0.046 A 
ATOM     25  C   UNL A   1      46.144  43.715  22.140  1.00  0.00     0.027 A 
ATOM     26  C   UNL A   1      45.014  45.502  23.334  1.00  0.00     0.027 A 
ATOM     27  C   UNL A   1      45.283  42.773  22.708  1.00  0.00     0.014 A 
ATOM     28  C   UNL A   1      44.141  44.556  23.879  1.00  0.00     0.014 A 
ATOM     29  C   UNL A   1      44.255  43.190  23.561  1.00  0.00     0.017 A 
BRANCH  29  30
ATOM     30  C   UNL A   1      43.230  42.255  24.122  1.00  0.00     0.159 C 
ATOM     31  C   UNL A   1      43.359  41.703  25.520  1.00  0.00     0.093 C 
ATOM     32  O   UNL A   1      42.265  41.938  23.425  1.00  0.00    -0.295 OA
ENDBRANCH  29  30
ENDBRANCH  14  24
ENDBRANCH  10  11
ENDBRANCH   9  10
ENDBRANCH   7   9
ENDBRANCH   6   7
ENDBRANCH   5   6
ENDBRANCH   4   5
ENDBRANCH   3   4
ENDBRANCH   2   3
ENDBRANCH   1   2
BRANCH   1  33
ATOM     33  O   UNL A   1      51.275  41.659  28.883  1.00  0.00    -0.377 OA
BRANCH  33  34
ATOM     34  C   UNL A   1      50.502  41.390  30.038  1.00  0.00     0.188 C 
BRANCH  34  35
ATOM     35  C   UNL A   1      49.167  40.685  29.751  1.00  0.00     0.188 C 
BRANCH  35  36
ATOM     36  O   UNL A   1      48.773  39.762  30.770  1.00  0.00    -0.376 OA
BRANCH  36  37
ATOM     37  C   UNL A   1      47.373  39.601  30.966  1.00  0.00     0.202 C 
BRANCH  37  38
ATOM     38  C   UNL A   1      46.955  38.684  32.129  1.00  0.00     0.261 C 
BRANCH  38  39
ATOM     39  O   UNL A   1      45.643  38.122  32.049  1.00  0.00    -0.460 OA
BRANCH  39  40
ATOM     40  C   UNL A   1      45.125  38.043  30.834  1.00  0.00     0.338 C 
ATOM     41  O   UNL A   1      44.650  38.979  30.143  1.00  0.00    -0.246 OA
BRANCH  40  42
ATOM     42  C   UNL A   1      45.099  36.685  30.341  1.00  0.00     0.060 A 
ATOM     43  C   UNL A   1      44.500  36.478  29.094  1.00  0.00     0.016 A 
ATOM     44  C   UNL A   1      45.244  35.670  31.289  1.00  0.00     0.016 A 
ATOM     45  C   UNL A   1      43.841  35.290  28.872  1.00  0.00     0.010 A 
ATOM     46  C   UNL A   1      44.548  34.496  31.085  1.00  0.00     0.010 A 
ATOM     47  C   UNL A   1      43.785  34.358  29.915  1.00  0.00    -0.014 A 
BRANCH  47  48
ATOM     48  C   UNL A   1      42.826  33.252  29.807  1.00  0.00     0.031 A 
ATOM     49  C   UNL A   1      43.369  32.068  29.039  1.00  0.00     0.074 A 
ATOM     50  C   UNL A   1      41.606  33.473  30.383  1.00  0.00     0.049 A 
ATOM     51  N   UNL A   1      42.724  31.102  28.466  1.00  0.00    -0.248 NA
ATOM     52  C   UNL A   1      44.835  31.968  28.814  1.00  0.00     0.031 C 
ATOM     53  C   UNL A   1      41.222  34.725  31.081  1.00  0.00     0.029 A 
ATOM     54  N   UNL A   1      40.457  32.725  30.507  1.00  0.00    -0.354 N 
ATOM     55  C   UNL A   1      43.685  30.208  27.970  1.00  0.00     0.074 A 
ATOM     56  C   UNL A   1      44.963  30.837  28.123  1.00  0.00     0.031 C 
ATOM     57  C   UNL A   1      39.941  34.670  31.496  1.00  0.00     0.029 A 
ATOM     58  C   UNL A   1      39.376  33.383  31.138  1.00  0.00     0.049 A 
ATOM     59  H   UNL A   1      40.392  31.799  30.179  1.00  0.00     0.167 HD
ATOM     60  C   UNL A   1      43.398  28.941  27.569  1.00  0.00     0.031 A 
ATOM     61  C   UNL A   1      38.102  32.945  31.350  1.00  0.00     0.031 A 
ATOM     62  C   UNL A   1      42.001  28.670  27.632  1.00  0.00     0.049 A 
ATOM     63  C   UNL A   1      38.060  31.533  30.930  1.00  0.00     0.074 A 
ATOM     64  C   UNL A   1      40.932  29.046  26.861  1.00  0.00     0.029 A 
ATOM     65  N   UNL A   1      41.524  28.136  28.806  1.00  0.00    -0.354 N 
ATOM     66  N   UNL A   1      38.641  30.555  31.552  1.00  0.00    -0.248 NA
ATOM     67  C   UNL A   1      37.353  31.173  29.696  1.00  0.00     0.031 C 
ATOM     68  C   UNL A   1      39.840  29.091  27.760  1.00  0.00     0.029 A 
ATOM     69  C   UNL A   1      40.281  28.687  29.023  1.00  0.00     0.049 A 
ATOM     70  H   UNL A   1      41.984  27.483  29.381  1.00  0.00     0.167 HD
ATOM     71  C   UNL A   1      38.704  29.571  30.595  1.00  0.00     0.074 A 
ATOM     72  C   UNL A   1      37.677  29.883  29.625  1.00  0.00     0.031 C 
ATOM     73  C   UNL A   1      39.871  28.905  30.396  1.00  0.00     0.031 A 
BRANCH  60  74
ATOM     74  C   UNL A   1      44.337  27.806  27.304  1.00  0.00    -0.014 A 
ATOM     75  C   UNL A   1      45.157  27.379  28.371  1.00  0.00     0.010 A 
ATOM     76  C   UNL A   1      44.653  27.364  26.009  1.00  0.00     0.010 A 
ATOM     77  C   UNL A   1      46.309  26.627  28.146  1.00  0.00     0.020 A 
ATOM     78  C   UNL A   1      45.791  26.578  25.779  1.00  0.00     0.020 A 
ATOM     79  C   UNL A   1      46.637  26.260  26.842  1.00  0.00     0.054 A 
BRANCH  79  80
ATOM     80  S   UNL A   1      48.226  25.439  26.554  1.00  0.00     0.124 S 
ATOM     81  O   UNL A   1      49.148  26.292  27.298  1.00  0.00    -0.237 OA
ATOM     82  O   UNL A   1      48.007  24.111  27.122  1.00  0.00    -0.237 OA
ATOM     83  O   UNL A   1      48.371  25.470  25.102  1.00  0.00    -0.744 OA
ENDBRANCH  79  80
ENDBRANCH  60  74
BRANCH  61  84
ATOM     84  C   UNL A   1      36.795  33.548  31.795  1.00  0.00    -0.014 A 
ATOM     85  C   UNL A   1      36.602  34.292  32.967  1.00  0.00     0.010 A 
ATOM     86  C   UNL A   1      35.705  33.523  30.884  1.00  0.00     0.010 A 
ATOM     87  C   UNL A   1      35.437  35.067  33.156  1.00  0.00     0.020 A 
ATOM     88  C   UNL A   1      34.571  34.325  31.034  1.00  0.00     0.020 A 
ATOM     89  C   UNL A   1      34.453  35.118  32.166  1.00  0.00     0.054 A 
BRANCH  89  90
ATOM     90  S   UNL A   1      33.097  36.321  32.255  1.00  0.00     0.124 S 
ATOM     91  O   UNL A   1      31.917  35.464  32.251  1.00  0.00    -0.237 OA
ATOM     92  O   UNL A   1      33.360  37.025  33.509  1.00  0.00    -0.237 OA
ATOM     93  O   UNL A   1      33.293  37.129  31.051  1.00  0.00    -0.744 OA
ENDBRANCH  89  90
ENDBRANCH  61  84
BRANCH  73  94
ATOM     94  C   UNL A   1      40.817  28.923  31.591  1.00  0.00    -0.014 A 
ATOM     95  C   UNL A   1      41.914  29.805  31.624  1.00  0.00     0.010 A 
ATOM     96  C   UNL A   1      40.707  27.994  32.644  1.00  0.00     0.010 A 
ATOM     97  C   UNL A   1      42.866  29.747  32.657  1.00  0.00     0.020 A 
ATOM     98  C   UNL A   1      41.644  27.933  33.687  1.00  0.00     0.020 A 
ATOM     99  C   UNL A   1      42.727  28.808  33.683  1.00  0.00     0.054 A 
BRANCH  99 100
ATOM    100  S   UNL A   1      43.991  28.727  34.985  1.00  0.00     0.124 S 
ATOM    101  O   UNL A   1      43.210  28.409  36.177  1.00  0.00    -0.237 OA
ATOM    102  O   UNL A   1      44.866  27.660  34.508  1.00  0.00    -0.237 OA
ATOM    103  O   UNL A   1      44.587  30.063  34.981  1.00  0.00    -0.744 OA
ENDBRANCH  99 100
ENDBRANCH  73  94
ENDBRANCH  47  48
ENDBRANCH  40  42
ENDBRANCH  39  40
ENDBRANCH  38  39
ENDBRANCH  37  38
ENDBRANCH  36  37
ENDBRANCH  35  36
ENDBRANCH  34  35
ENDBRANCH  33  34
ENDBRANCH   1  33
TORSDOF 29
ENDMDL
MODEL 2
REMARK VINA RESULT:      -7.3      3.843      9.265
REMARK SMILES COc1ccc(-c2ccc(CCC(=O)OCCOCCOCCOCCOC(=O)c3ccc(-c4c5nc(c(-c6ccc(S(=O)(=O)[O-])cc6)c6ccc([nH]6)c(-c6ccc(S(=O)(=O)[O-])cc6)c6nc(c(-c7ccc(S(=O)(=O)[O-])cc7)c7ccc4[nH]7)C=C6)C=C5)cc3)n2-c2ccc(C(C)=O)cc2)cc1
REMARK SMILES IDX 20 1 19 2 18 3 17 4 16 5 15 6 13 7 14 8 12 9 11 10 10 11
REMARK SMILES IDX 7 12 8 13 90 14 9 15 6 16 3 17 4 18 101 19 5 20 100 21 2 22
REMARK SMILES IDX 1 23 91 24 92 25 99 26 93 27 98 28 94 29 95 30 96 31 97 32
REMARK SMILES IDX 21 33 22 34 23 35 24 36 25 37 26 38 27 39 28 40 29 41 30 42
REMARK SMILES IDX 31 43 89 44 32 45 88 46 33 47 34 48 35 49 82 50 36 51 87 52
REMARK SMILES IDX 81 53 83 54 37 55 86 56 80 57 79 58 38 60 68 61 49 62 67 63
REMARK SMILES IDX 50 64 53 65 66 66 84 67 51 68 52 69 65 71 85 72 54 73 39 74
REMARK SMILES IDX 40 75 48 76 41 77 47 78 42 79 43 80 44 81 45 82 46 83 69 84
REMARK SMILES IDX 70 85 78 86 71 87 77 88 72 89 73 90 74 91 75 92 76 93 55 94
REMARK SMILES IDX 56 95 64 96 57 97 63 98 58 99 59 100 60 101 61 102 62 103
REMARK H PARENT 83 59 53 70
REMARK Flexibility Score: inf
ROOT
ATOM      1  C   UNL A   1      53.797  37.535  26.125  1.00  0.00     0.188 C 
ENDROOT
BRANCH   1   2
ATOM      2  C   UNL A   1      54.370  38.405  27.257  1.00  0.00     0.188 C 
BRANCH   2   3
ATOM      3  O   UNL A   1      53.870  39.722  27.194  1.00  0.00    -0.376 OA
BRANCH   3   4
ATOM      4  C   UNL A   1      53.092  40.242  28.243  1.00  0.00     0.202 C 
BRANCH   4   5
ATOM      5  C   UNL A   1      51.805  39.552  28.716  1.00  0.00     0.261 C 
BRANCH   5   6
ATOM      6  O   UNL A   1      50.658  39.598  27.863  1.00  0.00    -0.463 OA
BRANCH   6   7
ATOM      7  C   UNL A   1      49.499  39.107  28.354  1.00  0.00     0.306 C 
ATOM      8  O   UNL A   1      49.093  37.968  28.138  1.00  0.00    -0.252 OA
BRANCH   7   9
ATOM      9  C   UNL A   1      48.653  40.140  29.073  1.00  0.00     0.129 C 
BRANCH   9  10
ATOM     10  C   UNL A   1      48.176  41.399  28.344  1.00  0.00     0.066 C 
BRANCH  10  11
ATOM     11  C   UNL A   1      47.511  41.143  27.011  1.00  0.00     0.024 A 
ATOM     12  C   UNL A   1      46.003  41.461  25.360  1.00  0.00     0.053 A 
ATOM     13  C   UNL A   1      46.525  40.188  25.220  1.00  0.00     0.029 A 
ATOM     14  N   UNL A   1      46.763  42.105  26.328  1.00  0.00    -0.314 N 
ATOM     15  C   UNL A   1      47.490  40.004  26.227  1.00  0.00     0.024 A 
BRANCH  12  16
ATOM     16  C   UNL A   1      44.915  42.042  24.584  1.00  0.00    -0.001 A 
ATOM     17  C   UNL A   1      42.763  43.142  23.181  1.00  0.00     0.118 A 
ATOM     18  C   UNL A   1      44.071  43.414  22.780  1.00  0.00     0.047 A 
ATOM     19  C   UNL A   1      42.525  42.268  24.239  1.00  0.00     0.047 A 
ATOM     20  C   UNL A   1      45.149  42.871  23.484  1.00  0.00     0.014 A 
ATOM     21  C   UNL A   1      43.600  41.722  24.938  1.00  0.00     0.014 A 
BRANCH  17  22
ATOM     22  O   UNL A   1      41.766  43.738  22.459  1.00  0.00    -0.497 OA
ATOM     23  C   UNL A   1      41.606  43.188  21.155  1.00  0.00     0.278 C 
ENDBRANCH  17  22
ENDBRANCH  12  16
BRANCH  14  24
ATOM     24  C   UNL A   1      46.797  43.493  26.611  1.00  0.00     0.046 A 
ATOM     25  C   UNL A   1      47.960  44.209  26.296  1.00  0.00     0.027 A 
ATOM     26  C   UNL A   1      45.733  44.115  27.257  1.00  0.00     0.027 A 
ATOM     27  C   UNL A   1      48.082  45.548  26.674  1.00  0.00     0.014 A 
ATOM     28  C   UNL A   1      45.871  45.448  27.654  1.00  0.00     0.014 A 
ATOM     29  C   UNL A   1      47.049  46.171  27.382  1.00  0.00     0.017 A 
BRANCH  29  30
ATOM     30  C   UNL A   1      47.148  47.566  27.913  1.00  0.00     0.159 C 
ATOM     31  C   UNL A   1      48.485  48.247  28.073  1.00  0.00     0.093 C 
ATOM     32  O   UNL A   1      46.116  48.165  28.221  1.00  0.00    -0.295 OA
ENDBRANCH  29  30
ENDBRANCH  14  24
ENDBRANCH  10  11
ENDBRANCH   9  10
ENDBRANCH   7   9
ENDBRANCH   6   7
ENDBRANCH   5   6
ENDBRANCH   4   5
ENDBRANCH   3   4
ENDBRANCH   2   3
ENDBRANCH   1   2
BRANCH   1  33
ATOM     33  O   UNL A   1      52.678  36.668  26.273  1.00  0.00    -0.377 OA
BRANCH  33  34
ATOM     34  C   UNL A   1      51.672  36.631  25.278  1.00  0.00     0.188 C 
BRANCH  34  35
ATOM     35  C   UNL A   1      50.769  35.389  25.342  1.00  0.00     0.188 C 
BRANCH  35  36
ATOM     36  O   UNL A   1      49.465  35.653  25.866  1.00  0.00    -0.376 OA
BRANCH  36  37
ATOM     37  C   UNL A   1      48.695  34.516  26.238  1.00  0.00     0.202 C 
BRANCH  37  38
ATOM     38  C   UNL A   1      47.936  34.622  27.572  1.00  0.00     0.261 C 
BRANCH  38  39
ATOM     39  O   UNL A   1      46.517  34.466  27.505  1.00  0.00    -0.460 OA
BRANCH  39  40
ATOM     40  C   UNL A   1      45.815  35.589  27.507  1.00  0.00     0.338 C 
ATOM     41  O   UNL A   1      46.142  36.694  27.007  1.00  0.00    -0.246 OA
BRANCH  40  42
ATOM     42  C   UNL A   1      44.570  35.452  28.226  1.00  0.00     0.060 A 
ATOM     43  C   UNL A   1      44.520  35.999  29.513  1.00  0.00     0.016 A 
ATOM     44  C   UNL A   1      43.708  34.438  27.801  1.00  0.00     0.016 A 
ATOM     45  C   UNL A   1      43.740  35.376  30.460  1.00  0.00     0.010 A 
ATOM     46  C   UNL A   1      42.958  33.789  28.759  1.00  0.00     0.010 A 
ATOM     47  C   UNL A   1      43.052  34.213  30.093  1.00  0.00    -0.014 A 
BRANCH  47  48
ATOM     48  C   UNL A   1      42.492  33.373  31.159  1.00  0.00     0.031 A 
ATOM     49  C   UNL A   1      41.086  33.769  31.550  1.00  0.00     0.074 A 
ATOM     50  C   UNL A   1      43.324  32.401  31.639  1.00  0.00     0.049 A 
ATOM     51  N   UNL A   1      40.435  33.499  32.637  1.00  0.00    -0.248 NA
ATOM     52  C   UNL A   1      40.306  34.646  30.638  1.00  0.00     0.031 C 
ATOM     53  C   UNL A   1      44.707  32.166  31.157  1.00  0.00     0.029 A 
ATOM     54  N   UNL A   1      43.200  31.427  32.605  1.00  0.00    -0.354 N 
ATOM     55  C   UNL A   1      39.140  34.014  32.474  1.00  0.00     0.074 A 
ATOM     56  C   UNL A   1      39.145  34.792  31.272  1.00  0.00     0.031 C 
ATOM     57  C   UNL A   1      45.298  31.177  31.856  1.00  0.00     0.029 A 
ATOM     58  C   UNL A   1      44.363  30.656  32.834  1.00  0.00     0.049 A 
ATOM     59  H   UNL A   1      42.363  31.279  33.102  1.00  0.00     0.167 HD
ATOM     60  C   UNL A   1      38.091  33.675  33.270  1.00  0.00     0.031 A 
ATOM     61  C   UNL A   1      44.581  29.674  33.755  1.00  0.00     0.031 A 
ATOM     62  C   UNL A   1      38.489  32.811  34.330  1.00  0.00     0.049 A 
ATOM     63  C   UNL A   1      43.292  29.417  34.421  1.00  0.00     0.074 A 
ATOM     64  C   UNL A   1      39.177  33.009  35.499  1.00  0.00     0.029 A 
ATOM     65  N   UNL A   1      38.416  31.459  34.091  1.00  0.00    -0.354 N 
ATOM     66  N   UNL A   1      42.268  28.849  33.863  1.00  0.00    -0.248 NA
ATOM     67  C   UNL A   1      43.098  29.862  35.805  1.00  0.00     0.031 C 
ATOM     68  C   UNL A   1      39.848  31.784  35.730  1.00  0.00     0.029 A 
ATOM     69  C   UNL A   1      39.493  30.880  34.725  1.00  0.00     0.049 A 
ATOM     70  H   UNL A   1      37.726  30.994  33.566  1.00  0.00     0.167 HD
ATOM     71  C   UNL A   1      41.224  29.226  34.673  1.00  0.00     0.074 A 
ATOM     72  C   UNL A   1      41.807  29.571  35.951  1.00  0.00     0.031 C 
ATOM     73  C   UNL A   1      40.084  29.707  34.114  1.00  0.00     0.031 A 
BRANCH  60  74
ATOM     74  C   UNL A   1      36.630  33.906  33.044  1.00  0.00    -0.014 A 
ATOM     75  C   UNL A   1      36.105  33.557  31.780  1.00  0.00     0.010 A 
ATOM     76  C   UNL A   1      35.844  34.709  33.887  1.00  0.00     0.010 A 
ATOM     77  C   UNL A   1      34.891  34.074  31.329  1.00  0.00     0.020 A 
ATOM     78  C   UNL A   1      34.606  35.205  33.453  1.00  0.00     0.020 A 
ATOM     79  C   UNL A   1      34.165  34.926  32.159  1.00  0.00     0.054 A 
BRANCH  79  80
ATOM     80  S   UNL A   1      32.685  35.725  31.487  1.00  0.00     0.124 S 
ATOM     81  O   UNL A   1      32.637  35.186  30.132  1.00  0.00    -0.237 OA
ATOM     82  O   UNL A   1      31.632  35.254  32.385  1.00  0.00    -0.237 OA
ATOM     83  O   UNL A   1      32.987  37.150  31.589  1.00  0.00    -0.744 OA
ENDBRANCH  79  80
ENDBRANCH  60  74
BRANCH  61  84
ATOM     84  C   UNL A   1      45.768  28.909  34.281  1.00  0.00    -0.014 A 
ATOM     85  C   UNL A   1      46.126  27.607  33.905  1.00  0.00     0.010 A 
ATOM     86  C   UNL A   1      46.709  29.608  35.086  1.00  0.00     0.010 A 
ATOM     87  C   UNL A   1      47.401  27.083  34.210  1.00  0.00     0.020 A 
ATOM     88  C   UNL A   1      47.991  29.122  35.350  1.00  0.00     0.020 A 
ATOM     89  C   UNL A   1      48.343  27.863  34.885  1.00  0.00     0.054 A 
BRANCH  89  90
ATOM     90  S   UNL A   1      50.070  27.326  35.031  1.00  0.00     0.124 S 
ATOM     91  O   UNL A   1      50.766  28.270  34.164  1.00  0.00    -0.237 OA
ATOM     92  O   UNL A   1      50.343  27.464  36.460  1.00  0.00    -0.237 OA
ATOM     93  O   UNL A   1      50.028  25.945  34.551  1.00  0.00    -0.744 OA
ENDBRANCH  89  90
ENDBRANCH  61  84
BRANCH  73  94
ATOM     94  C   UNL A   1      39.863  29.278  32.667  1.00  0.00    -0.014 A 
ATOM     95  C   UNL A   1      40.346  30.065  31.605  1.00  0.00     0.010 A 
ATOM     96  C   UNL A   1      39.079  28.157  32.333  1.00  0.00     0.010 A 
ATOM     97  C   UNL A   1      40.042  29.752  30.268  1.00  0.00     0.020 A 
ATOM     98  C   UNL A   1      38.778  27.827  31.003  1.00  0.00     0.020 A 
ATOM     99  C   UNL A   1      39.257  28.634  29.975  1.00  0.00     0.054 A 
BRANCH  99 100
ATOM    100  S   UNL A   1      38.846  28.272  28.242  1.00  0.00     0.124 S 
ATOM    101  O   UNL A   1      39.048  26.828  28.155  1.00  0.00    -0.237 OA
ATOM    102  O   UNL A   1      37.458  28.715  28.148  1.00  0.00    -0.237 OA
ATOM    103  O   UNL A   1      39.804  29.072  27.479  1.00  0.00    -0.744 OA
ENDBRANCH  99 100
ENDBRANCH  73  94
ENDBRANCH  47  48
ENDBRANCH  40  42
ENDBRANCH  39  40
ENDBRANCH  38  39
ENDBRANCH  37  38
ENDBRANCH  36  37
ENDBRANCH  35  36
ENDBRANCH  34  35
ENDBRANCH  33  34
ENDBRANCH   1  33
TORSDOF 29
ENDMDL
MODEL 3
REMARK VINA RESULT:      -7.3      5.654     13.930
REMARK SMILES COc1ccc(-c2ccc(CCC(=O)OCCOCCOCCOCCOC(=O)c3ccc(-c4c5nc(c(-c6ccc(S(=O)(=O)[O-])cc6)c6ccc([nH]6)c(-c6ccc(S(=O)(=O)[O-])cc6)c6nc(c(-c7ccc(S(=O)(=O)[O-])cc7)c7ccc4[nH]7)C=C6)C=C5)cc3)n2-c2ccc(C(C)=O)cc2)cc1
REMARK SMILES IDX 20 1 19 2 18 3 17 4 16 5 15 6 13 7 14 8 12 9 11 10 10 11
REMARK SMILES IDX 7 12 8 13 90 14 9 15 6 16 3 17 4 18 101 19 5 20 100 21 2 22
REMARK SMILES IDX 1 23 91 24 92 25 99 26 93 27 98 28 94 29 95 30 96 31 97 32
REMARK SMILES IDX 21 33 22 34 23 35 24 36 25 37 26 38 27 39 28 40 29 41 30 42
REMARK SMILES IDX 31 43 89 44 32 45 88 46 33 47 34 48 35 49 82 50 36 51 87 52
REMARK SMILES IDX 81 53 83 54 37 55 86 56 80 57 79 58 38 60 68 61 49 62 67 63
REMARK SMILES IDX 50 64 53 65 66 66 84 67 51 68 52 69 65 71 85 72 54 73 39 74
REMARK SMILES IDX 40 75 48 76 41 77 47 78 42 79 43 80 44 81 45 82 46 83 69 84
REMARK SMILES IDX 70 85 78 86 71 87 77 88 72 89 73 90 74 91 75 92 76 93 55 94
REMARK SMILES IDX 56 95 64 96 57 97 63 98 58 99 59 100 60 101 61 102 62 103
REMARK H PARENT 83 59 53 70
REMARK Flexibility Score: inf
ROOT
ATOM      1  C   UNL A   1      50.287  39.097  33.559  1.00  0.00     0.188 C 
ENDROOT
BRANCH   1   2
ATOM      2  C   UNL A   1      49.777  39.499  34.952  1.00  0.00     0.188 C 
BRANCH   2   3
ATOM      3  O   UNL A   1      48.735  38.651  35.381  1.00  0.00    -0.376 OA
BRANCH   3   4
ATOM      4  C   UNL A   1      49.019  37.384  35.919  1.00  0.00     0.202 C 
BRANCH   4   5
ATOM      5  C   UNL A   1      48.014  36.638  36.808  1.00  0.00     0.261 C 
BRANCH   5   6
ATOM      6  O   UNL A   1      46.621  36.761  36.509  1.00  0.00    -0.463 OA
BRANCH   6   7
ATOM      7  C   UNL A   1      45.875  37.530  37.332  1.00  0.00     0.306 C 
ATOM      8  O   UNL A   1      46.300  38.035  38.368  1.00  0.00    -0.252 OA
BRANCH   7   9
ATOM      9  C   UNL A   1      44.409  37.591  36.948  1.00  0.00     0.129 C 
BRANCH   9  10
ATOM     10  C   UNL A   1      43.320  37.444  38.014  1.00  0.00     0.066 C 
BRANCH  10  11
ATOM     11  C   UNL A   1      42.258  36.416  37.694  1.00  0.00     0.024 A 
ATOM     12  C   UNL A   1      40.668  34.878  38.151  1.00  0.00     0.053 A 
ATOM     13  C   UNL A   1      41.111  34.661  36.859  1.00  0.00     0.029 A 
ATOM     14  N   UNL A   1      41.226  36.078  38.573  1.00  0.00    -0.314 N 
ATOM     15  C   UNL A   1      42.076  35.641  36.564  1.00  0.00     0.024 A 
BRANCH  12  16
ATOM     16  C   UNL A   1      39.731  34.049  38.897  1.00  0.00    -0.001 A 
ATOM     17  C   UNL A   1      37.994  32.473  40.419  1.00  0.00     0.118 A 
ATOM     18  C   UNL A   1      37.557  33.040  39.221  1.00  0.00     0.047 A 
ATOM     19  C   UNL A   1      39.318  32.635  40.824  1.00  0.00     0.047 A 
ATOM     20  C   UNL A   1      38.420  33.834  38.462  1.00  0.00     0.014 A 
ATOM     21  C   UNL A   1      40.181  33.423  40.065  1.00  0.00     0.014 A 
BRANCH  17  22
ATOM     22  O   UNL A   1      37.078  31.737  41.117  1.00  0.00    -0.497 OA
ATOM     23  C   UNL A   1      35.733  32.153  40.898  1.00  0.00     0.278 C 
ENDBRANCH  17  22
ENDBRANCH  12  16
BRANCH  14  24
ATOM     24  C   UNL A   1      40.849  36.852  39.698  1.00  0.00     0.046 A 
ATOM     25  C   UNL A   1      39.826  37.799  39.543  1.00  0.00     0.027 A 
ATOM     26  C   UNL A   1      41.528  36.733  40.907  1.00  0.00     0.027 A 
ATOM     27  C   UNL A   1      39.512  38.668  40.590  1.00  0.00     0.014 A 
ATOM     28  C   UNL A   1      41.226  37.622  41.942  1.00  0.00     0.014 A 
ATOM     29  C   UNL A   1      40.230  38.606  41.789  1.00  0.00     0.017 A 
BRANCH  29  30
ATOM     30  C   UNL A   1      40.025  39.570  42.915  1.00  0.00     0.159 C 
ATOM     31  C   UNL A   1      41.080  39.769  43.974  1.00  0.00     0.093 C 
ATOM     32  O   UNL A   1      38.974  40.212  42.969  1.00  0.00    -0.295 OA
ENDBRANCH  29  30
ENDBRANCH  14  24
ENDBRANCH  10  11
ENDBRANCH   9  10
ENDBRANCH   7   9
ENDBRANCH   6   7
ENDBRANCH   5   6
ENDBRANCH   4   5
ENDBRANCH   3   4
ENDBRANCH   2   3
ENDBRANCH   1   2
BRANCH   1  33
ATOM     33  O   UNL A   1      50.045  39.845  32.372  1.00  0.00    -0.377 OA
BRANCH  33  34
ATOM     34  C   UNL A   1      50.623  41.126  32.210  1.00  0.00     0.188 C 
BRANCH  34  35
ATOM     35  C   UNL A   1      49.676  42.291  32.542  1.00  0.00     0.188 C 
BRANCH  35  36
ATOM     36  O   UNL A   1      50.007  42.974  33.753  1.00  0.00    -0.376 OA
BRANCH  36  37
ATOM     37  C   UNL A   1      49.503  44.298  33.885  1.00  0.00     0.202 C 
BRANCH  37  38
ATOM     38  C   UNL A   1      48.195  44.447  34.682  1.00  0.00     0.261 C 
BRANCH  38  39
ATOM     39  O   UNL A   1      47.033  43.850  34.102  1.00  0.00    -0.460 OA
BRANCH  39  40
ATOM     40  C   UNL A   1      46.086  43.491  34.955  1.00  0.00     0.338 C 
ATOM     41  O   UNL A   1      45.642  44.153  35.926  1.00  0.00    -0.246 OA
BRANCH  40  42
ATOM     42  C   UNL A   1      45.597  42.157  34.695  1.00  0.00     0.060 A 
ATOM     43  C   UNL A   1      46.524  41.228  34.209  1.00  0.00     0.016 A 
ATOM     44  C   UNL A   1      44.219  42.016  34.512  1.00  0.00     0.016 A 
ATOM     45  C   UNL A   1      46.085  40.256  33.340  1.00  0.00     0.010 A 
ATOM     46  C   UNL A   1      43.784  41.069  33.609  1.00  0.00     0.010 A 
ATOM     47  C   UNL A   1      44.734  40.259  32.970  1.00  0.00    -0.014 A 
BRANCH  47  48
ATOM     48  C   UNL A   1      44.330  39.448  31.814  1.00  0.00     0.031 A 
ATOM     49  C   UNL A   1      44.377  40.209  30.509  1.00  0.00     0.074 A 
ATOM     50  C   UNL A   1      43.957  38.164  32.099  1.00  0.00     0.049 A 
ATOM     51  N   UNL A   1      43.785  39.944  29.388  1.00  0.00    -0.248 NA
ATOM     52  C   UNL A   1      45.135  41.486  30.449  1.00  0.00     0.031 C 
ATOM     53  C   UNL A   1      43.939  37.577  33.461  1.00  0.00     0.029 A 
ATOM     54  N   UNL A   1      43.524  37.103  31.336  1.00  0.00    -0.354 N 
ATOM     55  C   UNL A   1      44.222  40.901  28.459  1.00  0.00     0.074 A 
ATOM     56  C   UNL A   1      44.972  41.881  29.187  1.00  0.00     0.031 C 
ATOM     57  C   UNL A   1      43.475  36.313  33.433  1.00  0.00     0.029 A 
ATOM     58  C   UNL A   1      43.171  35.943  32.065  1.00  0.00     0.049 A 
ATOM     59  H   UNL A   1      43.463  37.147  30.354  1.00  0.00     0.167 HD
ATOM     60  C   UNL A   1      44.052  40.778  27.116  1.00  0.00     0.031 A 
ATOM     61  C   UNL A   1      42.652  34.765  31.616  1.00  0.00     0.031 A 
ATOM     62  C   UNL A   1      43.305  39.613  26.782  1.00  0.00     0.049 A 
ATOM     63  C   UNL A   1      42.653  34.830  30.143  1.00  0.00     0.074 A 
ATOM     64  C   UNL A   1      41.977  39.285  26.875  1.00  0.00     0.029 A 
ATOM     65  N   UNL A   1      44.021  38.464  26.541  1.00  0.00    -0.354 N 
ATOM     66  N   UNL A   1      43.715  34.798  29.400  1.00  0.00    -0.248 NA
ATOM     67  C   UNL A   1      41.381  34.986  29.431  1.00  0.00     0.031 C 
ATOM     68  C   UNL A   1      41.967  37.886  27.082  1.00  0.00     0.029 A 
ATOM     69  C   UNL A   1      43.284  37.417  27.049  1.00  0.00     0.049 A 
ATOM     70  H   UNL A   1      44.894  38.401  26.091  1.00  0.00     0.167 HD
ATOM     71  C   UNL A   1      43.275  35.320  28.208  1.00  0.00     0.074 A 
ATOM     72  C   UNL A   1      41.840  35.140  28.190  1.00  0.00     0.031 C 
ATOM     73  C   UNL A   1      44.007  36.283  27.589  1.00  0.00     0.031 A 
BRANCH  60  74
ATOM     74  C   UNL A   1      44.708  41.550  26.014  1.00  0.00    -0.014 A 
ATOM     75  C   UNL A   1      43.875  42.337  25.188  1.00  0.00     0.010 A 
ATOM     76  C   UNL A   1      46.021  41.299  25.583  1.00  0.00     0.010 A 
ATOM     77  C   UNL A   1      44.298  42.769  23.932  1.00  0.00     0.020 A 
ATOM     78  C   UNL A   1      46.464  41.760  24.335  1.00  0.00     0.020 A 
ATOM     79  C   UNL A   1      45.583  42.446  23.499  1.00  0.00     0.054 A 
BRANCH  79  80
ATOM     80  S   UNL A   1      46.047  42.862  21.798  1.00  0.00     0.124 S 
ATOM     81  O   UNL A   1      47.467  43.171  21.937  1.00  0.00    -0.237 OA
ATOM     82  O   UNL A   1      45.743  41.629  21.074  1.00  0.00    -0.237 OA
ATOM     83  O   UNL A   1      45.184  43.994  21.473  1.00  0.00    -0.744 OA
ENDBRANCH  79  80
ENDBRANCH  60  74
BRANCH  61  84
ATOM     84  C   UNL A   1      42.033  33.535  32.229  1.00  0.00    -0.014 A 
ATOM     85  C   UNL A   1      42.640  32.274  32.307  1.00  0.00     0.010 A 
ATOM     86  C   UNL A   1      40.815  33.688  32.946  1.00  0.00     0.010 A 
ATOM     87  C   UNL A   1      42.127  31.267  33.152  1.00  0.00     0.020 A 
ATOM     88  C   UNL A   1      40.326  32.719  33.826  1.00  0.00     0.020 A 
ATOM     89  C   UNL A   1      41.003  31.515  33.945  1.00  0.00     0.054 A 
BRANCH  89  90
ATOM     90  S   UNL A   1      40.500  30.352  35.244  1.00  0.00     0.124 S 
ATOM     91  O   UNL A   1      40.517  31.189  36.438  1.00  0.00    -0.237 OA
ATOM     92  O   UNL A   1      39.178  29.910  34.803  1.00  0.00    -0.237 OA
ATOM     93  O   UNL A   1      41.537  29.321  35.184  1.00  0.00    -0.744 OA
ENDBRANCH  89  90
ENDBRANCH  61  84
BRANCH  73  94
ATOM     94  C   UNL A   1      45.482  36.300  27.977  1.00  0.00    -0.014 A 
ATOM     95  C   UNL A   1      46.407  35.473  27.313  1.00  0.00     0.010 A 
ATOM     96  C   UNL A   1      45.956  37.042  29.076  1.00  0.00     0.010 A 
ATOM     97  C   UNL A   1      47.743  35.383  27.741  1.00  0.00     0.020 A 
ATOM     98  C   UNL A   1      47.288  36.970  29.507  1.00  0.00     0.020 A 
ATOM     99  C   UNL A   1      48.176  36.131  28.839  1.00  0.00     0.054 A 
BRANCH  99 100
ATOM    100  S   UNL A   1      49.897  35.967  29.397  1.00  0.00     0.124 S 
ATOM    101  O   UNL A   1      49.927  34.624  29.970  1.00  0.00    -0.237 OA
ATOM    102  O   UNL A   1      50.649  36.134  28.156  1.00  0.00    -0.237 OA
ATOM    103  O   UNL A   1      50.057  37.050  30.367  1.00  0.00    -0.744 OA
ENDBRANCH  99 100
ENDBRANCH  73  94
ENDBRANCH  47  48
ENDBRANCH  40  42
ENDBRANCH  39  40
ENDBRANCH  38  39
ENDBRANCH  37  38
ENDBRANCH  36  37
ENDBRANCH  35  36
ENDBRANCH  34  35
ENDBRANCH  33  34
ENDBRANCH   1  33
TORSDOF 29
ENDMDL
