MODEL 1
REMARK VINA RESULT:      -8.5      0.000      0.000
REMARK SMILES O=C(OCCOCCOCCOCCOC(=O)c1ccc(-c2c3nc(c(-c4ccc(S(=O)(=O)[O-])cc4)c4ccc([nH]4)c(-c4ccc(S(=O)(=O)[O-])cc4)c4nc(c(-c5ccc(S(=O)(=O)[O-])cc5)c5ccc2[nH]5)C=C4)C=C3)cc1)C1=Cc2cc(Cl)cc(-c3ccc(Cl)cc3)c2O[C@@H]1C(F)(F)F
REMARK SMILES IDX 10 1 9 2 8 3 7 4 6 5 5 6 4 7 3 8 2 9 1 10 78 11 79 12 95 13
REMARK SMILES IDX 80 14 94 15 81 16 93 17 82 18 85 19 83 20 84 21 96 22 97 23
REMARK SMILES IDX 98 24 99 25 86 26 87 27 92 28 88 29 91 30 89 31 90 32 11 33
REMARK SMILES IDX 12 34 13 35 14 36 15 37 16 38 17 39 18 40 19 41 77 42 20 43
REMARK SMILES IDX 76 44 21 45 22 46 23 47 70 48 24 49 75 50 69 51 71 52 25 53
REMARK SMILES IDX 74 54 68 55 67 56 26 58 56 59 37 60 55 61 38 62 41 63 54 64
REMARK SMILES IDX 72 65 39 66 40 67 53 69 73 70 42 71 27 72 28 73 36 74 29 75
REMARK SMILES IDX 35 76 30 77 31 78 32 79 33 80 34 81 57 82 58 83 66 84 59 85
REMARK SMILES IDX 65 86 60 87 61 88 62 89 63 90 64 91 43 92 44 93 52 94 45 95
REMARK SMILES IDX 51 96 46 97 47 98 48 99 49 100 50 101
REMARK H PARENT 71 57 41 68
REMARK Flexibility Score: inf
ROOT
ATOM      1  C   UNL A   1      50.198  42.491  30.227  1.00  0.00     0.188 C 
ENDROOT
BRANCH   1   2
ATOM      2  O   UNL A   1      49.212  43.515  30.348  1.00  0.00    -0.377 OA
BRANCH   2   3
ATOM      3  C   UNL A   1      47.879  43.113  30.036  1.00  0.00     0.188 C 
BRANCH   3   4
ATOM      4  C   UNL A   1      47.204  42.400  31.202  1.00  0.00     0.188 C 
BRANCH   4   5
ATOM      5  O   UNL A   1      45.922  42.919  31.487  1.00  0.00    -0.376 OA
BRANCH   5   6
ATOM      6  C   UNL A   1      45.035  42.135  32.262  1.00  0.00     0.202 C 
BRANCH   6   7
ATOM      7  C   UNL A   1      43.636  41.885  31.671  1.00  0.00     0.261 C 
BRANCH   7   8
ATOM      8  O   UNL A   1      43.612  41.143  30.425  1.00  0.00    -0.460 OA
BRANCH   8   9
ATOM      9  C   UNL A   1      42.398  40.919  29.838  1.00  0.00     0.338 C 
ATOM     10  O   UNL A   1      41.335  41.205  30.369  1.00  0.00    -0.246 OA
BRANCH   9  11
ATOM     11  C   UNL A   1      42.501  40.259  28.519  1.00  0.00     0.087 C 
ATOM     12  C   UNL A   1      41.603  40.496  27.549  1.00  0.00     0.027 C 
ATOM     13  C   UNL A   1      43.792  39.613  28.155  1.00  0.00     0.316 C 
ATOM     14  C   UNL A   1      42.247  40.825  26.253  1.00  0.00     0.019 A 
ATOM     15  O   UNL A   1      44.459  40.405  27.143  1.00  0.00    -0.475 OA
ATOM     16  C   UNL A   1      41.494  41.252  25.162  1.00  0.00     0.032 A 
ATOM     17  C   UNL A   1      43.635  41.088  26.271  1.00  0.00     0.135 A 
ATOM     18  C   UNL A   1      42.114  41.987  24.150  1.00  0.00     0.042 A 
ATOM     19  C   UNL A   1      44.169  42.094  25.434  1.00  0.00     0.026 A 
ATOM     20  Cl  UNL A   1      41.224  42.433  22.750  1.00  0.00    -0.084 Cl
ATOM     21  C   UNL A   1      43.415  42.462  24.314  1.00  0.00     0.033 A 
BRANCH  13  22
ATOM     22  C   UNL A   1      43.661  38.097  27.947  1.00  0.00     0.430 C 
ATOM     23  F   UNL A   1      43.868  37.745  26.657  1.00  0.00    -0.167 F 
ATOM     24  F   UNL A   1      44.625  37.450  28.667  1.00  0.00    -0.167 F 
ATOM     25  F   UNL A   1      42.475  37.589  28.335  1.00  0.00    -0.167 F 
ENDBRANCH  13  22
BRANCH  19  26
ATOM     26  C   UNL A   1      45.282  42.988  25.840  1.00  0.00    -0.015 A 
ATOM     27  C   UNL A   1      46.602  42.702  25.405  1.00  0.00     0.010 A 
ATOM     28  C   UNL A   1      45.106  44.118  26.635  1.00  0.00     0.010 A 
ATOM     29  C   UNL A   1      47.686  43.545  25.698  1.00  0.00     0.021 A 
ATOM     30  C   UNL A   1      46.184  44.982  26.897  1.00  0.00     0.021 A 
ATOM     31  C   UNL A   1      47.463  44.705  26.420  1.00  0.00     0.041 A 
ATOM     32  Cl  UNL A   1      48.755  45.792  26.749  1.00  0.00    -0.084 Cl
ENDBRANCH  19  26
ENDBRANCH   9  11
ENDBRANCH   8   9
ENDBRANCH   7   8
ENDBRANCH   6   7
ENDBRANCH   5   6
ENDBRANCH   4   5
ENDBRANCH   3   4
ENDBRANCH   2   3
ENDBRANCH   1   2
BRANCH   1  33
ATOM     33  C   UNL A   1      50.115  41.657  28.931  1.00  0.00     0.188 C 
BRANCH  33  34
ATOM     34  O   UNL A   1      49.601  40.332  28.890  1.00  0.00    -0.376 OA
BRANCH  34  35
ATOM     35  C   UNL A   1      49.396  39.645  30.104  1.00  0.00     0.202 C 
BRANCH  35  36
ATOM     36  C   UNL A   1      48.272  38.594  30.075  1.00  0.00     0.261 C 
BRANCH  36  37
ATOM     37  O   UNL A   1      48.662  37.298  29.581  1.00  0.00    -0.460 OA
BRANCH  37  38
ATOM     38  C   UNL A   1      48.257  36.977  28.328  1.00  0.00     0.338 C 
ATOM     39  O   UNL A   1      48.502  37.605  27.308  1.00  0.00    -0.246 OA
BRANCH  38  40
ATOM     40  C   UNL A   1      47.563  35.651  28.346  1.00  0.00     0.060 A 
ATOM     41  C   UNL A   1      47.799  34.788  29.426  1.00  0.00     0.016 A 
ATOM     42  C   UNL A   1      46.682  35.247  27.335  1.00  0.00     0.016 A 
ATOM     43  C   UNL A   1      47.217  33.509  29.465  1.00  0.00     0.010 A 
ATOM     44  C   UNL A   1      46.089  33.972  27.382  1.00  0.00     0.010 A 
ATOM     45  C   UNL A   1      46.389  33.069  28.424  1.00  0.00    -0.014 A 
BRANCH  45  46
ATOM     46  C   UNL A   1      46.027  31.621  28.297  1.00  0.00     0.031 A 
ATOM     47  C   UNL A   1      44.668  31.187  28.787  1.00  0.00     0.074 A 
ATOM     48  C   UNL A   1      46.836  30.690  27.748  1.00  0.00     0.049 A 
ATOM     49  N   UNL A   1      44.099  30.010  28.717  1.00  0.00    -0.248 NA
ATOM     50  C   UNL A   1      43.832  32.221  29.420  1.00  0.00     0.031 C 
ATOM     51  C   UNL A   1      48.151  30.936  27.173  1.00  0.00     0.029 A 
ATOM     52  N   UNL A   1      46.672  29.329  27.606  1.00  0.00    -0.354 N 
ATOM     53  C   UNL A   1      42.824  30.178  29.238  1.00  0.00     0.074 A 
ATOM     54  C   UNL A   1      42.738  31.539  29.719  1.00  0.00     0.031 C 
ATOM     55  C   UNL A   1      48.720  29.766  26.831  1.00  0.00     0.029 A 
ATOM     56  C   UNL A   1      47.782  28.682  27.109  1.00  0.00     0.049 A 
ATOM     57  H   UNL A   1      45.838  28.861  27.839  1.00  0.00     0.167 HD
ATOM     58  C   UNL A   1      41.789  29.306  29.262  1.00  0.00     0.031 A 
ATOM     59  C   UNL A   1      48.018  27.372  26.882  1.00  0.00     0.031 A 
ATOM     60  C   UNL A   1      41.864  27.939  28.830  1.00  0.00     0.049 A 
ATOM     61  C   UNL A   1      46.897  26.378  27.048  1.00  0.00     0.074 A 
ATOM     62  C   UNL A   1      40.858  26.987  28.806  1.00  0.00     0.029 A 
ATOM     63  N   UNL A   1      43.011  27.318  28.362  1.00  0.00    -0.354 N 
ATOM     64  N   UNL A   1      45.663  26.584  27.442  1.00  0.00    -0.248 NA
ATOM     65  C   UNL A   1      47.182  24.984  26.675  1.00  0.00     0.031 C 
ATOM     66  C   UNL A   1      41.412  25.776  28.379  1.00  0.00     0.029 A 
ATOM     67  C   UNL A   1      42.747  25.990  28.075  1.00  0.00     0.049 A 
ATOM     68  H   UNL A   1      43.885  27.757  28.250  1.00  0.00     0.167 HD
ATOM     69  C   UNL A   1      45.011  25.361  27.304  1.00  0.00     0.074 A 
ATOM     70  C   UNL A   1      45.986  24.424  26.790  1.00  0.00     0.031 C 
ATOM     71  C   UNL A   1      43.716  25.053  27.564  1.00  0.00     0.031 A 
BRANCH  58  72
ATOM     72  C   UNL A   1      40.472  29.836  29.761  1.00  0.00    -0.014 A 
ATOM     73  C   UNL A   1      39.459  30.194  28.850  1.00  0.00     0.010 A 
ATOM     74  C   UNL A   1      40.235  29.969  31.139  1.00  0.00     0.010 A 
ATOM     75  C   UNL A   1      38.250  30.718  29.306  1.00  0.00     0.020 A 
ATOM     76  C   UNL A   1      39.013  30.466  31.602  1.00  0.00     0.020 A 
ATOM     77  C   UNL A   1      38.036  30.854  30.680  1.00  0.00     0.054 A 
BRANCH  77  78
ATOM     78  S   UNL A   1      36.448  31.525  31.243  1.00  0.00     0.124 S 
ATOM     79  O   UNL A   1      35.763  31.775  29.978  1.00  0.00    -0.237 OA
ATOM     80  O   UNL A   1      35.907  30.432  32.046  1.00  0.00    -0.237 OA
ATOM     81  O   UNL A   1      36.825  32.720  31.995  1.00  0.00    -0.744 OA
ENDBRANCH  77  78
ENDBRANCH  58  72
BRANCH  59  82
ATOM     82  C   UNL A   1      49.365  26.909  26.435  1.00  0.00    -0.014 A 
ATOM     83  C   UNL A   1      49.749  26.981  25.084  1.00  0.00     0.010 A 
ATOM     84  C   UNL A   1      50.255  26.337  27.364  1.00  0.00     0.010 A 
ATOM     85  C   UNL A   1      50.977  26.457  24.664  1.00  0.00     0.020 A 
ATOM     86  C   UNL A   1      51.494  25.834  26.953  1.00  0.00     0.020 A 
ATOM     87  C   UNL A   1      51.841  25.885  25.601  1.00  0.00     0.054 A 
BRANCH  87  88
ATOM     88  S   UNL A   1      53.439  25.234  25.036  1.00  0.00     0.124 S 
ATOM     89  O   UNL A   1      54.378  25.920  25.917  1.00  0.00    -0.237 OA
ATOM     90  O   UNL A   1      53.290  23.799  25.264  1.00  0.00    -0.237 OA
ATOM     91  O   UNL A   1      53.492  25.631  23.631  1.00  0.00    -0.744 OA
ENDBRANCH  87  88
ENDBRANCH  59  82
BRANCH  71  92
ATOM     92  C   UNL A   1      43.254  23.651  27.251  1.00  0.00    -0.014 A 
ATOM     93  C   UNL A   1      43.057  22.696  28.263  1.00  0.00     0.010 A 
ATOM     94  C   UNL A   1      42.984  23.294  25.915  1.00  0.00     0.010 A 
ATOM     95  C   UNL A   1      42.649  21.398  27.942  1.00  0.00     0.020 A 
ATOM     96  C   UNL A   1      42.542  22.007  25.594  1.00  0.00     0.020 A 
ATOM     97  C   UNL A   1      42.397  21.061  26.608  1.00  0.00     0.054 A 
BRANCH  97  98
ATOM     98  S   UNL A   1      41.853  19.374  26.220  1.00  0.00     0.124 S 
ATOM     99  O   UNL A   1      42.648  19.063  25.036  1.00  0.00    -0.237 OA
ATOM    100  O   UNL A   1      42.209  18.636  27.429  1.00  0.00    -0.237 OA
ATOM    101  O   UNL A   1      40.418  19.519  25.987  1.00  0.00    -0.744 OA
ENDBRANCH  97  98
ENDBRANCH  71  92
ENDBRANCH  45  46
ENDBRANCH  38  40
ENDBRANCH  37  38
ENDBRANCH  36  37
ENDBRANCH  35  36
ENDBRANCH  34  35
ENDBRANCH  33  34
ENDBRANCH   1  33
TORSDOF 25
ENDMDL
MODEL 2
REMARK VINA RESULT:      -7.7      4.229     10.463
REMARK SMILES O=C(OCCOCCOCCOCCOC(=O)c1ccc(-c2c3nc(c(-c4ccc(S(=O)(=O)[O-])cc4)c4ccc([nH]4)c(-c4ccc(S(=O)(=O)[O-])cc4)c4nc(c(-c5ccc(S(=O)(=O)[O-])cc5)c5ccc2[nH]5)C=C4)C=C3)cc1)C1=Cc2cc(Cl)cc(-c3ccc(Cl)cc3)c2O[C@@H]1C(F)(F)F
REMARK SMILES IDX 10 1 9 2 8 3 7 4 6 5 5 6 4 7 3 8 2 9 1 10 78 11 79 12 95 13
REMARK SMILES IDX 80 14 94 15 81 16 93 17 82 18 85 19 83 20 84 21 96 22 97 23
REMARK SMILES IDX 98 24 99 25 86 26 87 27 92 28 88 29 91 30 89 31 90 32 11 33
REMARK SMILES IDX 12 34 13 35 14 36 15 37 16 38 17 39 18 40 19 41 77 42 20 43
REMARK SMILES IDX 76 44 21 45 22 46 23 47 70 48 24 49 75 50 69 51 71 52 25 53
REMARK SMILES IDX 74 54 68 55 67 56 26 58 56 59 37 60 55 61 38 62 41 63 54 64
REMARK SMILES IDX 72 65 39 66 40 67 53 69 73 70 42 71 27 72 28 73 36 74 29 75
REMARK SMILES IDX 35 76 30 77 31 78 32 79 33 80 34 81 57 82 58 83 66 84 59 85
REMARK SMILES IDX 65 86 60 87 61 88 62 89 63 90 64 91 43 92 44 93 52 94 45 95
REMARK SMILES IDX 51 96 46 97 47 98 48 99 49 100 50 101
REMARK H PARENT 71 57 41 68
REMARK Flexibility Score: inf
ROOT
ATOM      1  C   UNL A   1      37.350  33.734  31.086  1.00  0.00     0.188 C 
ENDROOT
BRANCH   1   2
ATOM      2  O   UNL A   1      38.371  34.659  30.718  1.00  0.00    -0.377 OA
BRANCH   2   3
ATOM      3  C   UNL A   1      39.041  34.367  29.491  1.00  0.00     0.188 C 
BRANCH   3   4
ATOM      4  C   UNL A   1      40.279  35.234  29.292  1.00  0.00     0.188 C 
BRANCH   4   5
ATOM      5  O   UNL A   1      41.459  34.470  29.157  1.00  0.00    -0.376 OA
BRANCH   5   6
ATOM      6  C   UNL A   1      42.492  34.967  28.327  1.00  0.00     0.202 C 
BRANCH   6   7
ATOM      7  C   UNL A   1      42.588  36.496  28.180  1.00  0.00     0.261 C 
BRANCH   7   8
ATOM      8  O   UNL A   1      43.739  37.110  28.812  1.00  0.00    -0.460 OA
BRANCH   8   9
ATOM      9  C   UNL A   1      44.242  38.252  28.253  1.00  0.00     0.338 C 
ATOM     10  O   UNL A   1      45.370  38.329  27.789  1.00  0.00    -0.246 OA
BRANCH   9  11
ATOM     11  C   UNL A   1      43.300  39.390  28.304  1.00  0.00     0.087 C 
ATOM     12  C   UNL A   1      42.751  39.788  29.464  1.00  0.00     0.027 C 
ATOM     13  C   UNL A   1      43.243  40.309  27.134  1.00  0.00     0.316 C 
ATOM     14  C   UNL A   1      42.876  41.252  29.674  1.00  0.00     0.019 A 
ATOM     15  O   UNL A   1      43.855  41.574  27.483  1.00  0.00    -0.475 OA
ATOM     16  C   UNL A   1      42.508  41.840  30.881  1.00  0.00     0.032 A 
ATOM     17  C   UNL A   1      43.738  41.956  28.803  1.00  0.00     0.135 A 
ATOM     18  C   UNL A   1      43.052  43.077  31.232  1.00  0.00     0.042 A 
ATOM     19  C   UNL A   1      44.525  43.019  29.305  1.00  0.00     0.026 A 
ATOM     20  Cl  UNL A   1      42.531  43.864  32.667  1.00  0.00    -0.084 Cl
ATOM     21  C   UNL A   1      44.098  43.628  30.491  1.00  0.00     0.033 A 
BRANCH  13  22
ATOM     22  C   UNL A   1      41.870  40.312  26.447  1.00  0.00     0.430 C 
ATOM     23  F   UNL A   1      41.936  40.802  25.187  1.00  0.00    -0.167 F 
ATOM     24  F   UNL A   1      41.416  39.030  26.322  1.00  0.00    -0.167 F 
ATOM     25  F   UNL A   1      40.922  41.000  27.114  1.00  0.00    -0.167 F 
ENDBRANCH  13  22
BRANCH  19  26
ATOM     26  C   UNL A   1      45.908  43.297  28.847  1.00  0.00    -0.015 A 
ATOM     27  C   UNL A   1      46.224  44.571  28.309  1.00  0.00     0.010 A 
ATOM     28  C   UNL A   1      46.941  42.365  28.919  1.00  0.00     0.010 A 
ATOM     29  C   UNL A   1      47.528  44.919  27.921  1.00  0.00     0.021 A 
ATOM     30  C   UNL A   1      48.254  42.724  28.566  1.00  0.00     0.021 A 
ATOM     31  C   UNL A   1      48.548  43.997  28.084  1.00  0.00     0.041 A 
ATOM     32  Cl  UNL A   1      50.169  44.407  27.675  1.00  0.00    -0.084 Cl
ENDBRANCH  19  26
ENDBRANCH   9  11
ENDBRANCH   8   9
ENDBRANCH   7   8
ENDBRANCH   6   7
ENDBRANCH   5   6
ENDBRANCH   4   5
ENDBRANCH   3   4
ENDBRANCH   2   3
ENDBRANCH   1   2
BRANCH   1  33
ATOM     33  C   UNL A   1      36.300  34.282  32.074  1.00  0.00     0.188 C 
BRANCH  33  34
ATOM     34  O   UNL A   1      35.769  33.519  33.150  1.00  0.00    -0.376 OA
BRANCH  34  35
ATOM     35  C   UNL A   1      35.365  34.188  34.324  1.00  0.00     0.202 C 
BRANCH  35  36
ATOM     36  C   UNL A   1      36.082  33.737  35.608  1.00  0.00     0.261 C 
BRANCH  36  37
ATOM     37  O   UNL A   1      37.147  32.786  35.411  1.00  0.00    -0.460 OA
BRANCH  37  38
ATOM     38  C   UNL A   1      38.243  32.927  36.196  1.00  0.00     0.338 C 
ATOM     39  O   UNL A   1      38.309  32.681  37.391  1.00  0.00    -0.246 OA
BRANCH  38  40
ATOM     40  C   UNL A   1      39.420  33.310  35.355  1.00  0.00     0.060 A 
ATOM     41  C   UNL A   1      39.211  34.162  34.261  1.00  0.00     0.016 A 
ATOM     42  C   UNL A   1      40.718  32.860  35.625  1.00  0.00     0.016 A 
ATOM     43  C   UNL A   1      40.272  34.508  33.405  1.00  0.00     0.010 A 
ATOM     44  C   UNL A   1      41.782  33.219  34.776  1.00  0.00     0.010 A 
ATOM     45  C   UNL A   1      41.561  34.007  33.628  1.00  0.00    -0.014 A 
BRANCH  45  46
ATOM     46  C   UNL A   1      42.611  34.106  32.565  1.00  0.00     0.031 A 
ATOM     47  C   UNL A   1      43.402  35.387  32.471  1.00  0.00     0.074 A 
ATOM     48  C   UNL A   1      42.906  33.108  31.705  1.00  0.00     0.049 A 
ATOM     49  N   UNL A   1      44.409  35.682  31.687  1.00  0.00    -0.248 NA
ATOM     50  C   UNL A   1      43.023  36.469  33.395  1.00  0.00     0.031 C 
ATOM     51  C   UNL A   1      42.289  31.789  31.687  1.00  0.00     0.029 A 
ATOM     52  N   UNL A   1      43.796  33.061  30.654  1.00  0.00    -0.354 N 
ATOM     53  C   UNL A   1      44.819  36.953  32.067  1.00  0.00     0.074 A 
ATOM     54  C   UNL A   1      43.888  37.416  33.072  1.00  0.00     0.031 C 
ATOM     55  C   UNL A   1      42.737  31.096  30.625  1.00  0.00     0.029 A 
ATOM     56  C   UNL A   1      43.724  31.902  29.913  1.00  0.00     0.049 A 
ATOM     57  H   UNL A   1      44.425  33.790  30.450  1.00  0.00     0.167 HD
ATOM     58  C   UNL A   1      45.905  37.655  31.669  1.00  0.00     0.031 A 
ATOM     59  C   UNL A   1      44.387  31.517  28.801  1.00  0.00     0.031 A 
ATOM     60  C   UNL A   1      46.818  37.234  30.643  1.00  0.00     0.049 A 
ATOM     61  C   UNL A   1      45.508  32.376  28.273  1.00  0.00     0.074 A 
ATOM     62  C   UNL A   1      47.955  37.878  30.185  1.00  0.00     0.029 A 
ATOM     63  N   UNL A   1      46.692  36.071  29.900  1.00  0.00    -0.354 N 
ATOM     64  N   UNL A   1      45.946  33.528  28.720  1.00  0.00    -0.248 NA
ATOM     65  C   UNL A   1      46.268  31.849  27.129  1.00  0.00     0.031 C 
ATOM     66  C   UNL A   1      48.483  37.133  29.126  1.00  0.00     0.029 A 
ATOM     67  C   UNL A   1      47.713  35.992  28.968  1.00  0.00     0.049 A 
ATOM     68  H   UNL A   1      45.982  35.400  30.018  1.00  0.00     0.167 HD
ATOM     69  C   UNL A   1      47.067  33.832  27.953  1.00  0.00     0.074 A 
ATOM     70  C   UNL A   1      47.241  32.742  27.017  1.00  0.00     0.031 C 
ATOM     71  C   UNL A   1      47.888  34.909  28.033  1.00  0.00     0.031 A 
BRANCH  58  72
ATOM     72  C   UNL A   1      46.166  38.955  32.380  1.00  0.00    -0.014 A 
ATOM     73  C   UNL A   1      46.882  38.970  33.593  1.00  0.00     0.010 A 
ATOM     74  C   UNL A   1      45.709  40.168  31.837  1.00  0.00     0.010 A 
ATOM     75  C   UNL A   1      47.096  40.169  34.273  1.00  0.00     0.020 A 
ATOM     76  C   UNL A   1      45.947  41.374  32.501  1.00  0.00     0.020 A 
ATOM     77  C   UNL A   1      46.624  41.363  33.724  1.00  0.00     0.054 A 
BRANCH  77  78
ATOM     78  S   UNL A   1      46.930  42.907  34.625  1.00  0.00     0.124 S 
ATOM     79  O   UNL A   1      48.266  42.677  35.170  1.00  0.00    -0.237 OA
ATOM     80  O   UNL A   1      46.846  43.913  33.571  1.00  0.00    -0.237 OA
ATOM     81  O   UNL A   1      45.855  42.951  35.613  1.00  0.00    -0.744 OA
ENDBRANCH  77  78
ENDBRANCH  58  72
BRANCH  59  82
ATOM     82  C   UNL A   1      44.042  30.236  28.116  1.00  0.00    -0.014 A 
ATOM     83  C   UNL A   1      43.068  30.190  27.103  1.00  0.00     0.010 A 
ATOM     84  C   UNL A   1      44.657  29.036  28.521  1.00  0.00     0.010 A 
ATOM     85  C   UNL A   1      42.686  28.969  26.537  1.00  0.00     0.020 A 
ATOM     86  C   UNL A   1      44.297  27.816  27.940  1.00  0.00     0.020 A 
ATOM     87  C   UNL A   1      43.303  27.789  26.960  1.00  0.00     0.054 A 
BRANCH  87  88
ATOM     88  S   UNL A   1      42.810  26.219  26.192  1.00  0.00     0.124 S 
ATOM     89  O   UNL A   1      42.527  26.625  24.819  1.00  0.00    -0.237 OA
ATOM     90  O   UNL A   1      44.000  25.393  26.377  1.00  0.00    -0.237 OA
ATOM     91  O   UNL A   1      41.647  25.805  26.975  1.00  0.00    -0.744 OA
ENDBRANCH  87  88
ENDBRANCH  59  82
BRANCH  71  92
ATOM     92  C   UNL A   1      49.086  34.947  27.117  1.00  0.00    -0.014 A 
ATOM     93  C   UNL A   1      49.045  35.606  25.876  1.00  0.00     0.010 A 
ATOM     94  C   UNL A   1      50.287  34.333  27.522  1.00  0.00     0.010 A 
ATOM     95  C   UNL A   1      50.163  35.607  25.037  1.00  0.00     0.020 A 
ATOM     96  C   UNL A   1      51.417  34.362  26.701  1.00  0.00     0.020 A 
ATOM     97  C   UNL A   1      51.342  34.981  25.454  1.00  0.00     0.054 A 
BRANCH  97  98
ATOM     98  S   UNL A   1      52.784  35.011  24.353  1.00  0.00     0.124 S 
ATOM     99  O   UNL A   1      52.336  35.906  23.290  1.00  0.00    -0.237 OA
ATOM    100  O   UNL A   1      53.837  35.538  25.218  1.00  0.00    -0.237 OA
ATOM    101  O   UNL A   1      52.949  33.613  23.962  1.00  0.00    -0.744 OA
ENDBRANCH  97  98
ENDBRANCH  71  92
ENDBRANCH  45  46
ENDBRANCH  38  40
ENDBRANCH  37  38
ENDBRANCH  36  37
ENDBRANCH  35  36
ENDBRANCH  34  35
ENDBRANCH  33  34
ENDBRANCH   1  33
TORSDOF 25
ENDMDL
MODEL 3
REMARK VINA RESULT:      -7.6      6.073     13.522
REMARK SMILES O=C(OCCOCCOCCOCCOC(=O)c1ccc(-c2c3nc(c(-c4ccc(S(=O)(=O)[O-])cc4)c4ccc([nH]4)c(-c4ccc(S(=O)(=O)[O-])cc4)c4nc(c(-c5ccc(S(=O)(=O)[O-])cc5)c5ccc2[nH]5)C=C4)C=C3)cc1)C1=Cc2cc(Cl)cc(-c3ccc(Cl)cc3)c2O[C@@H]1C(F)(F)F
REMARK SMILES IDX 10 1 9 2 8 3 7 4 6 5 5 6 4 7 3 8 2 9 1 10 78 11 79 12 95 13
REMARK SMILES IDX 80 14 94 15 81 16 93 17 82 18 85 19 83 20 84 21 96 22 97 23
REMARK SMILES IDX 98 24 99 25 86 26 87 27 92 28 88 29 91 30 89 31 90 32 11 33
REMARK SMILES IDX 12 34 13 35 14 36 15 37 16 38 17 39 18 40 19 41 77 42 20 43
REMARK SMILES IDX 76 44 21 45 22 46 23 47 70 48 24 49 75 50 69 51 71 52 25 53
REMARK SMILES IDX 74 54 68 55 67 56 26 58 56 59 37 60 55 61 38 62 41 63 54 64
REMARK SMILES IDX 72 65 39 66 40 67 53 69 73 70 42 71 27 72 28 73 36 74 29 75
REMARK SMILES IDX 35 76 30 77 31 78 32 79 33 80 34 81 57 82 58 83 66 84 59 85
REMARK SMILES IDX 65 86 60 87 61 88 62 89 63 90 64 91 43 92 44 93 52 94 45 95
REMARK SMILES IDX 51 96 46 97 47 98 48 99 49 100 50 101
REMARK H PARENT 71 57 41 68
REMARK Flexibility Score: inf
ROOT
ATOM      1  C   UNL A   1      46.989  25.086  28.245  1.00  0.00     0.188 C 
ENDROOT
BRANCH   1   2
ATOM      2  O   UNL A   1      46.949  26.508  28.135  1.00  0.00    -0.377 OA
BRANCH   2   3
ATOM      3  C   UNL A   1      46.616  27.200  29.338  1.00  0.00     0.188 C 
BRANCH   3   4
ATOM      4  C   UNL A   1      45.223  27.816  29.281  1.00  0.00     0.188 C 
BRANCH   4   5
ATOM      5  O   UNL A   1      44.829  28.381  30.514  1.00  0.00    -0.376 OA
BRANCH   5   6
ATOM      6  C   UNL A   1      44.468  29.749  30.543  1.00  0.00     0.202 C 
BRANCH   6   7
ATOM      7  C   UNL A   1      44.561  30.519  29.214  1.00  0.00     0.261 C 
BRANCH   7   8
ATOM      8  O   UNL A   1      43.642  31.632  29.075  1.00  0.00    -0.460 OA
BRANCH   8   9
ATOM      9  C   UNL A   1      44.132  32.893  29.273  1.00  0.00     0.338 C 
ATOM     10  O   UNL A   1      45.181  33.288  28.787  1.00  0.00    -0.246 OA
BRANCH   9  11
ATOM     11  C   UNL A   1      43.285  33.713  30.166  1.00  0.00     0.087 C 
ATOM     12  C   UNL A   1      43.668  33.994  31.423  1.00  0.00     0.027 C 
ATOM     13  C   UNL A   1      42.189  34.514  29.556  1.00  0.00     0.316 C 
ATOM     14  C   UNL A   1      43.556  35.442  31.734  1.00  0.00     0.019 A 
ATOM     15  O   UNL A   1      42.542  35.919  29.588  1.00  0.00    -0.475 OA
ATOM     16  C   UNL A   1      44.046  35.961  32.930  1.00  0.00     0.032 A 
ATOM     17  C   UNL A   1      43.326  36.319  30.651  1.00  0.00     0.135 A 
ATOM     18  C   UNL A   1      44.363  37.318  33.007  1.00  0.00     0.042 A 
ATOM     19  C   UNL A   1      43.950  37.587  30.631  1.00  0.00     0.026 A 
ATOM     20  Cl  UNL A   1      44.870  37.994  34.502  1.00  0.00    -0.084 Cl
ATOM     21  C   UNL A   1      44.382  38.108  31.857  1.00  0.00     0.033 A 
BRANCH  13  22
ATOM     22  C   UNL A   1      40.797  34.086  30.043  1.00  0.00     0.430 C 
ATOM     23  F   UNL A   1      39.812  34.592  29.265  1.00  0.00    -0.167 F 
ATOM     24  F   UNL A   1      40.678  32.728  29.956  1.00  0.00    -0.167 F 
ATOM     25  F   UNL A   1      40.534  34.422  31.321  1.00  0.00    -0.167 F 
ENDBRANCH  13  22
BRANCH  19  26
ATOM     26  C   UNL A   1      44.458  38.228  29.393  1.00  0.00    -0.015 A 
ATOM     27  C   UNL A   1      45.556  37.648  28.706  1.00  0.00     0.010 A 
ATOM     28  C   UNL A   1      43.909  39.386  28.849  1.00  0.00     0.010 A 
ATOM     29  C   UNL A   1      46.040  38.166  27.494  1.00  0.00     0.021 A 
ATOM     30  C   UNL A   1      44.368  39.884  27.616  1.00  0.00     0.021 A 
ATOM     31  C   UNL A   1      45.417  39.270  26.936  1.00  0.00     0.041 A 
ATOM     32  Cl  UNL A   1      45.944  39.899  25.424  1.00  0.00    -0.084 Cl
ENDBRANCH  19  26
ENDBRANCH   9  11
ENDBRANCH   8   9
ENDBRANCH   7   8
ENDBRANCH   6   7
ENDBRANCH   5   6
ENDBRANCH   4   5
ENDBRANCH   3   4
ENDBRANCH   2   3
ENDBRANCH   1   2
BRANCH   1  33
ATOM     33  C   UNL A   1      45.953  24.336  27.382  1.00  0.00     0.188 C 
BRANCH  33  34
ATOM     34  O   UNL A   1      44.853  24.980  26.751  1.00  0.00    -0.376 OA
BRANCH  34  35
ATOM     35  C   UNL A   1      43.971  24.206  25.969  1.00  0.00     0.202 C 
BRANCH  35  36
ATOM     36  C   UNL A   1      42.503  24.228  26.430  1.00  0.00     0.261 C 
BRANCH  36  37
ATOM     37  O   UNL A   1      41.891  25.532  26.455  1.00  0.00    -0.460 OA
BRANCH  37  38
ATOM     38  C   UNL A   1      40.555  25.574  26.680  1.00  0.00     0.338 C 
ATOM     39  O   UNL A   1      39.715  24.855  26.162  1.00  0.00    -0.246 OA
BRANCH  38  40
ATOM     40  C   UNL A   1      40.258  26.557  27.768  1.00  0.00     0.060 A 
ATOM     41  C   UNL A   1      41.017  27.734  27.832  1.00  0.00     0.016 A 
ATOM     42  C   UNL A   1      39.246  26.351  28.715  1.00  0.00     0.016 A 
ATOM     43  C   UNL A   1      40.817  28.665  28.867  1.00  0.00     0.010 A 
ATOM     44  C   UNL A   1      39.037  27.290  29.742  1.00  0.00     0.010 A 
ATOM     45  C   UNL A   1      39.854  28.434  29.858  1.00  0.00    -0.014 A 
BRANCH  45  46
ATOM     46  C   UNL A   1      39.849  29.242  31.119  1.00  0.00     0.031 A 
ATOM     47  C   UNL A   1      40.861  28.895  32.183  1.00  0.00     0.074 A 
ATOM     48  C   UNL A   1      39.011  30.275  31.347  1.00  0.00     0.049 A 
ATOM     49  N   UNL A   1      41.102  29.494  33.323  1.00  0.00    -0.248 NA
ATOM     50  C   UNL A   1      41.728  27.734  31.919  1.00  0.00     0.031 C 
ATOM     51  C   UNL A   1      38.015  30.786  30.415  1.00  0.00     0.029 A 
ATOM     52  N   UNL A   1      38.850  31.074  32.458  1.00  0.00    -0.354 N 
ATOM     53  C   UNL A   1      42.184  28.823  33.877  1.00  0.00     0.074 A 
ATOM     54  C   UNL A   1      42.483  27.707  33.006  1.00  0.00     0.031 C 
ATOM     55  C   UNL A   1      37.280  31.737  31.017  1.00  0.00     0.029 A 
ATOM     56  C   UNL A   1      37.792  31.951  32.367  1.00  0.00     0.049 A 
ATOM     57  H   UNL A   1      39.437  31.021  33.247  1.00  0.00     0.167 HD
ATOM     58  C   UNL A   1      42.910  29.133  34.976  1.00  0.00     0.031 A 
ATOM     59  C   UNL A   1      37.297  32.840  33.255  1.00  0.00     0.031 A 
ATOM     60  C   UNL A   1      42.606  30.208  35.878  1.00  0.00     0.049 A 
ATOM     61  C   UNL A   1      38.033  33.082  34.549  1.00  0.00     0.074 A 
ATOM     62  C   UNL A   1      43.298  30.603  37.010  1.00  0.00     0.029 A 
ATOM     63  N   UNL A   1      41.512  31.051  35.764  1.00  0.00    -0.354 N 
ATOM     64  N   UNL A   1      39.120  32.504  35.000  1.00  0.00    -0.248 NA
ATOM     65  C   UNL A   1      37.511  34.144  35.423  1.00  0.00     0.031 C 
ATOM     66  C   UNL A   1      42.589  31.648  37.614  1.00  0.00     0.029 A 
ATOM     67  C   UNL A   1      41.492  31.946  36.821  1.00  0.00     0.049 A 
ATOM     68  H   UNL A   1      40.847  31.019  35.040  1.00  0.00     0.167 HD
ATOM     69  C   UNL A   1      39.445  33.175  36.176  1.00  0.00     0.074 A 
ATOM     70  C   UNL A   1      38.442  34.200  36.365  1.00  0.00     0.031 C 
ATOM     71  C   UNL A   1      40.493  32.967  37.012  1.00  0.00     0.031 A 
BRANCH  58  72
ATOM     72  C   UNL A   1      44.129  28.291  35.239  1.00  0.00    -0.014 A 
ATOM     73  C   UNL A   1      44.037  27.141  36.047  1.00  0.00     0.010 A 
ATOM     74  C   UNL A   1      45.368  28.637  34.674  1.00  0.00     0.010 A 
ATOM     75  C   UNL A   1      45.171  26.377  36.322  1.00  0.00     0.020 A 
ATOM     76  C   UNL A   1      46.501  27.857  34.923  1.00  0.00     0.020 A 
ATOM     77  C   UNL A   1      46.397  26.742  35.760  1.00  0.00     0.054 A 
BRANCH  77  78
ATOM     78  S   UNL A   1      47.851  25.721  36.124  1.00  0.00     0.124 S 
ATOM     79  O   UNL A   1      47.242  24.531  36.713  1.00  0.00    -0.237 OA
ATOM     80  O   UNL A   1      48.448  25.535  34.805  1.00  0.00    -0.237 OA
ATOM     81  O   UNL A   1      48.629  26.544  37.048  1.00  0.00    -0.744 OA
ENDBRANCH  77  78
ENDBRANCH  58  72
BRANCH  59  82
ATOM     82  C   UNL A   1      36.053  33.606  32.950  1.00  0.00    -0.014 A 
ATOM     83  C   UNL A   1      36.093  34.787  32.186  1.00  0.00     0.010 A 
ATOM     84  C   UNL A   1      34.819  33.181  33.476  1.00  0.00     0.010 A 
ATOM     85  C   UNL A   1      34.935  35.547  31.988  1.00  0.00     0.020 A 
ATOM     86  C   UNL A   1      33.653  33.923  33.259  1.00  0.00     0.020 A 
ATOM     87  C   UNL A   1      33.722  35.110  32.528  1.00  0.00     0.054 A 
BRANCH  87  88
ATOM     88  S   UNL A   1      32.227  36.099  32.235  1.00  0.00     0.124 S 
ATOM     89  O   UNL A   1      32.410  37.212  33.161  1.00  0.00    -0.237 OA
ATOM     90  O   UNL A   1      32.344  36.429  30.817  1.00  0.00    -0.237 OA
ATOM     91  O   UNL A   1      31.140  35.181  32.565  1.00  0.00    -0.744 OA
ENDBRANCH  87  88
ENDBRANCH  59  82
BRANCH  71  92
ATOM     92  C   UNL A   1      40.645  33.899  38.189  1.00  0.00    -0.014 A 
ATOM     93  C   UNL A   1      41.399  35.083  38.101  1.00  0.00     0.010 A 
ATOM     94  C   UNL A   1      39.992  33.596  39.400  1.00  0.00     0.010 A 
ATOM     95  C   UNL A   1      41.540  35.917  39.214  1.00  0.00     0.020 A 
ATOM     96  C   UNL A   1      40.102  34.446  40.504  1.00  0.00     0.020 A 
ATOM     97  C   UNL A   1      40.893  35.591  40.410  1.00  0.00     0.054 A 
BRANCH  97  98
ATOM     98  S   UNL A   1      41.079  36.700  41.834  1.00  0.00     0.124 S 
ATOM     99  O   UNL A   1      39.700  36.834  42.296  1.00  0.00    -0.237 OA
ATOM    100  O   UNL A   1      41.967  35.945  42.715  1.00  0.00    -0.237 OA
ATOM    101  O   UNL A   1      41.663  37.908  41.258  1.00  0.00    -0.744 OA
ENDBRANCH  97  98
ENDBRANCH  71  92
ENDBRANCH  45  46
ENDBRANCH  38  40
ENDBRANCH  37  38
ENDBRANCH  36  37
ENDBRANCH  35  36
ENDBRANCH  34  35
ENDBRANCH  33  34
ENDBRANCH   1  33
TORSDOF 25
ENDMDL
