MODEL 1
REMARK VINA RESULT:      -7.7      0.000      0.000
REMARK SMILES C[N@H+](CCC(=O)Nc1sccc1C#N)CC(=O)OCCOCCOCCOCCOC(=O)c1ccc(-c2c3nc(c(-c4ccc(S(=O)(=O)[O-])cc4)c4ccc([nH]4)c(-c4ccc(S(=O)(=O)[O-])cc4)c4nc(c(-c5ccc(S(=O)(=O)[O-])cc5)c5ccc2[nH]5)C=C4)C=C3)cc1
REMARK SMILES IDX 22 1 21 2 20 3 19 4 18 5 16 6 17 7 15 8 2 9 1 10 3 12 4 13
REMARK SMILES IDX 5 14 6 15 7 16 8 18 9 19 12 20 10 21 11 22 13 23 14 24 23 25
REMARK SMILES IDX 24 26 25 27 26 28 27 29 28 30 29 31 30 32 31 33 32 34 33 35
REMARK SMILES IDX 34 36 92 37 35 38 91 39 36 40 37 41 38 42 85 43 39 44 90 45
REMARK SMILES IDX 84 46 86 47 40 48 89 49 83 50 82 51 41 53 71 54 52 55 70 56
REMARK SMILES IDX 53 57 56 58 69 59 87 60 54 61 55 62 68 64 88 65 57 66 42 67
REMARK SMILES IDX 43 68 51 69 44 70 50 71 45 72 46 73 47 74 48 75 49 76 72 77
REMARK SMILES IDX 73 78 81 79 74 80 80 81 75 82 76 83 77 84 78 85 79 86 58 87
REMARK SMILES IDX 59 88 67 89 60 90 66 91 61 92 62 93 63 94 64 95 65 96
REMARK H PARENT 2 11 7 17 86 52 56 63
REMARK Flexibility Score: inf
ROOT
ATOM      1  C   UNL A   1      35.706  21.983  25.795  1.00  0.00     0.188 C 
ENDROOT
BRANCH   1   2
ATOM      2  O   UNL A   1      34.727  21.550  26.718  1.00  0.00    -0.376 OA
BRANCH   2   3
ATOM      3  C   UNL A   1      33.648  20.724  26.271  1.00  0.00     0.202 C 
BRANCH   3   4
ATOM      4  C   UNL A   1      32.641  21.165  25.189  1.00  0.00     0.261 C 
BRANCH   4   5
ATOM      5  O   UNL A   1      33.148  21.086  23.845  1.00  0.00    -0.459 OA
BRANCH   5   6
ATOM      6  C   UNL A   1      32.340  21.643  22.908  1.00  0.00     0.361 C 
ATOM      7  O   UNL A   1      31.849  20.996  21.984  1.00  0.00    -0.245 OA
BRANCH   6   8
ATOM      8  C   UNL A   1      31.967  23.109  23.123  1.00  0.00     0.386 C 
BRANCH   8   9
ATOM      9  N   UNL A   1      32.915  24.135  22.689  1.00  0.00    -0.328 N 
ATOM     10  C   UNL A   1      33.676  24.598  23.869  1.00  0.00     0.333 C 
ATOM     11  H   UNL A   1      33.557  23.747  21.997  1.00  0.00     0.348 HD
BRANCH   9  12
ATOM     12  C   UNL A   1      32.194  25.266  22.062  1.00  0.00     0.272 C 
BRANCH  12  13
ATOM     13  C   UNL A   1      32.956  26.575  21.834  1.00  0.00     0.161 C 
BRANCH  13  14
ATOM     14  C   UNL A   1      32.899  27.941  22.568  1.00  0.00     0.230 C 
ATOM     15  O   UNL A   1      34.009  28.497  22.701  1.00  0.00    -0.274 OA
ATOM     16  N   UNL A   1      31.876  28.756  22.930  1.00  0.00    -0.316 N 
ATOM     17  H   UNL A   1      32.192  29.673  23.096  1.00  0.00     0.170 HD
BRANCH  16  18
ATOM     18  C   UNL A   1      30.518  28.656  23.132  1.00  0.00     0.113 A 
ATOM     19  S   UNL A   1      29.672  30.036  22.533  1.00  0.00    -0.125 S 
ATOM     20  C   UNL A   1      29.630  27.743  23.650  1.00  0.00     0.087 A 
ATOM     21  C   UNL A   1      28.208  29.151  22.434  1.00  0.00     0.068 A 
ATOM     22  C   UNL A   1      28.294  27.990  23.176  1.00  0.00     0.033 A 
BRANCH  20  23
ATOM     23  C   UNL A   1      29.987  26.649  24.497  1.00  0.00     0.102 C 
ATOM     24  N   UNL A   1      30.314  25.778  25.182  1.00  0.00    -0.192 NA
ENDBRANCH  20  23
ENDBRANCH  16  18
ENDBRANCH  13  14
ENDBRANCH  12  13
ENDBRANCH   9  12
ENDBRANCH   8   9
ENDBRANCH   6   8
ENDBRANCH   5   6
ENDBRANCH   4   5
ENDBRANCH   3   4
ENDBRANCH   2   3
ENDBRANCH   1   2
BRANCH   1  25
ATOM     25  C   UNL A   1      36.415  20.796  25.145  1.00  0.00     0.188 C 
BRANCH  25  26
ATOM     26  O   UNL A   1      37.820  20.908  25.038  1.00  0.00    -0.377 OA
BRANCH  26  27
ATOM     27  C   UNL A   1      38.547  21.913  25.725  1.00  0.00     0.188 C 
BRANCH  27  28
ATOM     28  C   UNL A   1      39.672  21.365  26.582  1.00  0.00     0.188 C 
BRANCH  28  29
ATOM     29  O   UNL A   1      40.170  20.067  26.243  1.00  0.00    -0.376 OA
BRANCH  29  30
ATOM     30  C   UNL A   1      41.411  19.635  26.793  1.00  0.00     0.202 C 
BRANCH  30  31
ATOM     31  C   UNL A   1      42.662  20.293  26.217  1.00  0.00     0.261 C 
BRANCH  31  32
ATOM     32  O   UNL A   1      42.408  21.588  25.657  1.00  0.00    -0.460 OA
BRANCH  32  33
ATOM     33  C   UNL A   1      43.489  22.400  25.595  1.00  0.00     0.338 C 
ATOM     34  O   UNL A   1      44.142  22.695  24.610  1.00  0.00    -0.246 OA
BRANCH  33  35
ATOM     35  C   UNL A   1      43.734  22.982  26.922  1.00  0.00     0.060 A 
ATOM     36  C   UNL A   1      42.669  23.562  27.625  1.00  0.00     0.016 A 
ATOM     37  C   UNL A   1      45.042  23.068  27.396  1.00  0.00     0.016 A 
ATOM     38  C   UNL A   1      42.924  24.298  28.778  1.00  0.00     0.010 A 
ATOM     39  C   UNL A   1      45.297  23.813  28.544  1.00  0.00     0.010 A 
ATOM     40  C   UNL A   1      44.245  24.472  29.203  1.00  0.00    -0.014 A 
BRANCH  40  41
ATOM     41  C   UNL A   1      44.562  25.496  30.219  1.00  0.00     0.031 A 
ATOM     42  C   UNL A   1      44.654  26.932  29.780  1.00  0.00     0.074 A 
ATOM     43  C   UNL A   1      44.772  25.146  31.497  1.00  0.00     0.049 A 
ATOM     44  N   UNL A   1      45.017  27.983  30.464  1.00  0.00    -0.248 NA
ATOM     45  C   UNL A   1      44.298  27.217  28.379  1.00  0.00     0.031 C 
ATOM     46  C   UNL A   1      44.653  23.790  32.032  1.00  0.00     0.029 A 
ATOM     47  N   UNL A   1      45.145  25.906  32.574  1.00  0.00    -0.354 N 
ATOM     48  C   UNL A   1      44.959  29.049  29.572  1.00  0.00     0.074 A 
ATOM     49  C   UNL A   1      44.554  28.513  28.293  1.00  0.00     0.031 C 
ATOM     50  C   UNL A   1      44.959  23.813  33.341  1.00  0.00     0.029 A 
ATOM     51  C   UNL A   1      45.342  25.171  33.718  1.00  0.00     0.049 A 
ATOM     52  H   UNL A   1      45.261  26.883  32.533  1.00  0.00     0.167 HD
ATOM     53  C   UNL A   1      45.223  30.356  29.805  1.00  0.00     0.031 A 
ATOM     54  C   UNL A   1      45.810  25.552  34.921  1.00  0.00     0.031 A 
ATOM     55  C   UNL A   1      45.642  30.866  31.085  1.00  0.00     0.049 A 
ATOM     56  C   UNL A   1      46.176  26.998  35.133  1.00  0.00     0.074 A 
ATOM     57  C   UNL A   1      45.916  32.173  31.442  1.00  0.00     0.029 A 
ATOM     58  N   UNL A   1      45.860  30.087  32.213  1.00  0.00    -0.354 N 
ATOM     59  N   UNL A   1      46.094  28.003  34.293  1.00  0.00    -0.248 NA
ATOM     60  C   UNL A   1      46.688  27.362  36.460  1.00  0.00     0.031 C 
ATOM     61  C   UNL A   1      46.377  32.175  32.761  1.00  0.00     0.029 A 
ATOM     62  C   UNL A   1      46.302  30.882  33.257  1.00  0.00     0.049 A 
ATOM     63  H   UNL A   1      45.720  29.114  32.265  1.00  0.00     0.167 HD
ATOM     64  C   UNL A   1      46.510  29.126  35.001  1.00  0.00     0.074 A 
ATOM     65  C   UNL A   1      46.828  28.675  36.342  1.00  0.00     0.031 C 
ATOM     66  C   UNL A   1      46.615  30.412  34.585  1.00  0.00     0.031 A 
BRANCH  53  67
ATOM     67  C   UNL A   1      45.118  31.312  28.644  1.00  0.00    -0.014 A 
ATOM     68  C   UNL A   1      46.114  31.383  27.652  1.00  0.00     0.010 A 
ATOM     69  C   UNL A   1      43.982  32.133  28.525  1.00  0.00     0.010 A 
ATOM     70  C   UNL A   1      45.992  32.282  26.589  1.00  0.00     0.020 A 
ATOM     71  C   UNL A   1      43.839  33.007  27.445  1.00  0.00     0.020 A 
ATOM     72  C   UNL A   1      44.854  33.087  26.490  1.00  0.00     0.054 A 
BRANCH  72  73
ATOM     73  S   UNL A   1      44.711  34.221  25.083  1.00  0.00     0.124 S 
ATOM     74  O   UNL A   1      44.469  33.301  23.975  1.00  0.00    -0.237 OA
ATOM     75  O   UNL A   1      43.575  35.057  25.465  1.00  0.00    -0.237 OA
ATOM     76  O   UNL A   1      46.002  34.904  25.053  1.00  0.00    -0.744 OA
ENDBRANCH  72  73
ENDBRANCH  53  67
BRANCH  54  77
ATOM     77  C   UNL A   1      45.970  24.548  36.008  1.00  0.00    -0.014 A 
ATOM     78  C   UNL A   1      47.219  23.951  36.250  1.00  0.00     0.010 A 
ATOM     79  C   UNL A   1      44.874  24.192  36.815  1.00  0.00     0.010 A 
ATOM     80  C   UNL A   1      47.365  23.003  37.267  1.00  0.00     0.020 A 
ATOM     81  C   UNL A   1      45.023  23.271  37.856  1.00  0.00     0.020 A 
ATOM     82  C   UNL A   1      46.267  22.675  38.067  1.00  0.00     0.054 A 
BRANCH  82  83
ATOM     83  S   UNL A   1      46.498  21.481  39.414  1.00  0.00     0.124 S 
ATOM     84  O   UNL A   1      45.498  21.918  40.382  1.00  0.00    -0.237 OA
ATOM     85  O   UNL A   1      46.226  20.209  38.752  1.00  0.00    -0.237 OA
ATOM     86  O   UNL A   1      47.888  21.683  39.815  1.00  0.00    -0.744 OA
ENDBRANCH  82  83
ENDBRANCH  54  77
BRANCH  66  87
ATOM     87  C   UNL A   1      47.046  31.440  35.601  1.00  0.00    -0.014 A 
ATOM     88  C   UNL A   1      48.393  31.818  35.742  1.00  0.00     0.010 A 
ATOM     89  C   UNL A   1      46.071  32.078  36.390  1.00  0.00     0.010 A 
ATOM     90  C   UNL A   1      48.759  32.790  36.679  1.00  0.00     0.020 A 
ATOM     91  C   UNL A   1      46.427  33.077  37.298  1.00  0.00     0.020 A 
ATOM     92  C   UNL A   1      47.773  33.416  37.447  1.00  0.00     0.054 A 
BRANCH  92  93
ATOM     93  S   UNL A   1      48.270  34.707  38.619  1.00  0.00     0.124 S 
ATOM     94  O   UNL A   1      49.474  35.243  37.988  1.00  0.00    -0.237 OA
ATOM     95  O   UNL A   1      47.112  35.596  38.621  1.00  0.00    -0.237 OA
ATOM     96  O   UNL A   1      48.493  33.978  39.865  1.00  0.00    -0.744 OA
ENDBRANCH  92  93
ENDBRANCH  66  87
ENDBRANCH  40  41
ENDBRANCH  33  35
ENDBRANCH  32  33
ENDBRANCH  31  32
ENDBRANCH  30  31
ENDBRANCH  29  30
ENDBRANCH  28  29
ENDBRANCH  27  28
ENDBRANCH  26  27
ENDBRANCH  25  26
ENDBRANCH   1  25
TORSDOF 29
ENDMDL
MODEL 2
REMARK VINA RESULT:      -7.2      1.406      2.102
REMARK SMILES C[N@H+](CCC(=O)Nc1sccc1C#N)CC(=O)OCCOCCOCCOCCOC(=O)c1ccc(-c2c3nc(c(-c4ccc(S(=O)(=O)[O-])cc4)c4ccc([nH]4)c(-c4ccc(S(=O)(=O)[O-])cc4)c4nc(c(-c5ccc(S(=O)(=O)[O-])cc5)c5ccc2[nH]5)C=C4)C=C3)cc1
REMARK SMILES IDX 22 1 21 2 20 3 19 4 18 5 16 6 17 7 15 8 2 9 1 10 3 12 4 13
REMARK SMILES IDX 5 14 6 15 7 16 8 18 9 19 12 20 10 21 11 22 13 23 14 24 23 25
REMARK SMILES IDX 24 26 25 27 26 28 27 29 28 30 29 31 30 32 31 33 32 34 33 35
REMARK SMILES IDX 34 36 92 37 35 38 91 39 36 40 37 41 38 42 85 43 39 44 90 45
REMARK SMILES IDX 84 46 86 47 40 48 89 49 83 50 82 51 41 53 71 54 52 55 70 56
REMARK SMILES IDX 53 57 56 58 69 59 87 60 54 61 55 62 68 64 88 65 57 66 42 67
REMARK SMILES IDX 43 68 51 69 44 70 50 71 45 72 46 73 47 74 48 75 49 76 72 77
REMARK SMILES IDX 73 78 81 79 74 80 80 81 75 82 76 83 77 84 78 85 79 86 58 87
REMARK SMILES IDX 59 88 67 89 60 90 66 91 61 92 62 93 63 94 64 95 65 96
REMARK H PARENT 2 11 7 17 86 52 56 63
REMARK Flexibility Score: inf
ROOT
ATOM      1  C   UNL A   1      35.563  22.597  26.017  1.00  0.00     0.188 C 
ENDROOT
BRANCH   1   2
ATOM      2  O   UNL A   1      35.018  21.631  26.892  1.00  0.00    -0.376 OA
BRANCH   2   3
ATOM      3  C   UNL A   1      33.600  21.533  27.045  1.00  0.00     0.202 C 
BRANCH   3   4
ATOM      4  C   UNL A   1      32.674  22.763  27.122  1.00  0.00     0.261 C 
BRANCH   4   5
ATOM      5  O   UNL A   1      31.482  22.655  26.325  1.00  0.00    -0.459 OA
BRANCH   5   6
ATOM      6  C   UNL A   1      30.789  23.814  26.191  1.00  0.00     0.361 C 
ATOM      7  O   UNL A   1      30.044  24.248  27.068  1.00  0.00    -0.245 OA
BRANCH   6   8
ATOM      8  C   UNL A   1      31.072  24.628  24.929  1.00  0.00     0.386 C 
BRANCH   8   9
ATOM      9  N   UNL A   1      31.013  26.086  25.019  1.00  0.00    -0.328 N 
ATOM     10  C   UNL A   1      29.673  26.528  24.577  1.00  0.00     0.333 C 
ATOM     11  H   UNL A   1      31.173  26.383  25.982  1.00  0.00     0.348 HD
BRANCH   9  12
ATOM     12  C   UNL A   1      32.065  26.693  24.171  1.00  0.00     0.272 C 
BRANCH  12  13
ATOM     13  C   UNL A   1      31.970  28.190  23.859  1.00  0.00     0.161 C 
BRANCH  13  14
ATOM     14  C   UNL A   1      31.367  29.373  24.663  1.00  0.00     0.230 C 
ATOM     15  O   UNL A   1      31.924  29.583  25.760  1.00  0.00    -0.274 OA
ATOM     16  N   UNL A   1      30.484  30.355  24.345  1.00  0.00    -0.316 N 
ATOM     17  H   UNL A   1      30.554  31.112  24.970  1.00  0.00     0.170 HD
BRANCH  16  18
ATOM     18  C   UNL A   1      29.519  30.585  23.392  1.00  0.00     0.113 A 
ATOM     19  S   UNL A   1      29.071  29.140  22.562  1.00  0.00    -0.125 S 
ATOM     20  C   UNL A   1      28.774  31.647  22.934  1.00  0.00     0.087 A 
ATOM     21  C   UNL A   1      27.572  29.823  22.089  1.00  0.00     0.068 A 
ATOM     22  C   UNL A   1      27.596  31.194  22.240  1.00  0.00     0.033 A 
BRANCH  20  23
ATOM     23  C   UNL A   1      29.086  33.022  23.166  1.00  0.00     0.102 C 
ATOM     24  N   UNL A   1      29.376  34.122  23.362  1.00  0.00    -0.192 NA
ENDBRANCH  20  23
ENDBRANCH  16  18
ENDBRANCH  13  14
ENDBRANCH  12  13
ENDBRANCH   9  12
ENDBRANCH   8   9
ENDBRANCH   6   8
ENDBRANCH   5   6
ENDBRANCH   4   5
ENDBRANCH   3   4
ENDBRANCH   2   3
ENDBRANCH   1   2
BRANCH   1  25
ATOM     25  C   UNL A   1      36.419  21.942  24.935  1.00  0.00     0.188 C 
BRANCH  25  26
ATOM     26  O   UNL A   1      37.747  22.419  24.833  1.00  0.00    -0.377 OA
BRANCH  26  27
ATOM     27  C   UNL A   1      38.412  23.024  25.930  1.00  0.00     0.188 C 
BRANCH  27  28
ATOM     28  C   UNL A   1      39.367  22.090  26.647  1.00  0.00     0.188 C 
BRANCH  28  29
ATOM     29  O   UNL A   1      39.735  20.889  25.961  1.00  0.00    -0.376 OA
BRANCH  29  30
ATOM     30  C   UNL A   1      40.764  20.067  26.503  1.00  0.00     0.202 C 
BRANCH  30  31
ATOM     31  C   UNL A   1      42.182  20.627  26.416  1.00  0.00     0.261 C 
BRANCH  31  32
ATOM     32  O   UNL A   1      42.262  21.832  25.643  1.00  0.00    -0.460 OA
BRANCH  32  33
ATOM     33  C   UNL A   1      43.471  22.440  25.669  1.00  0.00     0.338 C 
ATOM     34  O   UNL A   1      44.254  22.577  24.745  1.00  0.00    -0.246 OA
BRANCH  33  35
ATOM     35  C   UNL A   1      43.692  23.024  26.999  1.00  0.00     0.060 A 
ATOM     36  C   UNL A   1      42.620  23.628  27.671  1.00  0.00     0.016 A 
ATOM     37  C   UNL A   1      44.988  23.088  27.507  1.00  0.00     0.016 A 
ATOM     38  C   UNL A   1      42.858  24.364  28.827  1.00  0.00     0.010 A 
ATOM     39  C   UNL A   1      45.226  23.833  28.658  1.00  0.00     0.010 A 
ATOM     40  C   UNL A   1      44.170  24.515  29.286  1.00  0.00    -0.014 A 
BRANCH  40  41
ATOM     41  C   UNL A   1      44.479  25.539  30.306  1.00  0.00     0.031 A 
ATOM     42  C   UNL A   1      44.590  26.973  29.866  1.00  0.00     0.074 A 
ATOM     43  C   UNL A   1      44.666  25.188  31.587  1.00  0.00     0.049 A 
ATOM     44  N   UNL A   1      44.951  28.022  30.554  1.00  0.00    -0.248 NA
ATOM     45  C   UNL A   1      44.259  27.258  28.459  1.00  0.00     0.031 C 
ATOM     46  C   UNL A   1      44.527  23.835  32.122  1.00  0.00     0.029 A 
ATOM     47  N   UNL A   1      45.028  25.947  32.669  1.00  0.00    -0.354 N 
ATOM     48  C   UNL A   1      44.917  29.087  29.661  1.00  0.00     0.074 A 
ATOM     49  C   UNL A   1      44.527  28.552  28.375  1.00  0.00     0.031 C 
ATOM     50  C   UNL A   1      44.811  23.857  33.436  1.00  0.00     0.029 A 
ATOM     51  C   UNL A   1      45.200  25.212  33.817  1.00  0.00     0.049 A 
ATOM     52  H   UNL A   1      45.153  26.922  32.628  1.00  0.00     0.167 HD
ATOM     53  C   UNL A   1      45.188  30.392  29.896  1.00  0.00     0.031 A 
ATOM     54  C   UNL A   1      45.652  25.591  35.027  1.00  0.00     0.031 A 
ATOM     55  C   UNL A   1      45.590  30.900  31.181  1.00  0.00     0.049 A 
ATOM     56  C   UNL A   1      46.026  27.034  35.243  1.00  0.00     0.074 A 
ATOM     57  C   UNL A   1      45.870  32.205  31.541  1.00  0.00     0.029 A 
ATOM     58  N   UNL A   1      45.783  30.121  32.314  1.00  0.00    -0.354 N 
ATOM     59  N   UNL A   1      45.967  28.038  34.400  1.00  0.00    -0.248 NA
ATOM     60  C   UNL A   1      46.520  27.396  36.578  1.00  0.00     0.031 C 
ATOM     61  C   UNL A   1      46.309  32.206  32.868  1.00  0.00     0.029 A 
ATOM     62  C   UNL A   1      46.215  30.914  33.364  1.00  0.00     0.049 A 
ATOM     63  H   UNL A   1      45.635  29.150  32.365  1.00  0.00     0.167 HD
ATOM     64  C   UNL A   1      46.381  29.159  35.114  1.00  0.00     0.074 A 
ATOM     65  C   UNL A   1      46.673  28.707  36.460  1.00  0.00     0.031 C 
ATOM     66  C   UNL A   1      46.503  30.444  34.697  1.00  0.00     0.031 A 
BRANCH  53  67
ATOM     67  C   UNL A   1      45.109  31.348  28.732  1.00  0.00    -0.014 A 
ATOM     68  C   UNL A   1      43.901  31.583  28.050  1.00  0.00     0.010 A 
ATOM     69  C   UNL A   1      46.262  32.050  28.335  1.00  0.00     0.010 A 
ATOM     70  C   UNL A   1      43.858  32.472  26.971  1.00  0.00     0.020 A 
ATOM     71  C   UNL A   1      46.215  32.966  27.282  1.00  0.00     0.020 A 
ATOM     72  C   UNL A   1      45.016  33.159  26.596  1.00  0.00     0.054 A 
BRANCH  72  73
ATOM     73  S   UNL A   1      44.922  34.328  25.212  1.00  0.00     0.124 S 
ATOM     74  O   UNL A   1      46.243  34.952  25.252  1.00  0.00    -0.237 OA
ATOM     75  O   UNL A   1      44.677  33.448  24.071  1.00  0.00    -0.237 OA
ATOM     76  O   UNL A   1      43.810  35.205  25.570  1.00  0.00    -0.744 OA
ENDBRANCH  72  73
ENDBRANCH  53  67
BRANCH  54  77
ATOM     77  C   UNL A   1      45.786  24.587  36.118  1.00  0.00    -0.014 A 
ATOM     78  C   UNL A   1      46.876  23.700  36.142  1.00  0.00     0.010 A 
ATOM     79  C   UNL A   1      44.828  24.521  37.146  1.00  0.00     0.010 A 
ATOM     80  C   UNL A   1      46.995  22.754  37.164  1.00  0.00     0.020 A 
ATOM     81  C   UNL A   1      44.962  23.601  38.189  1.00  0.00     0.020 A 
ATOM     82  C   UNL A   1      46.041  22.715  38.184  1.00  0.00     0.054 A 
BRANCH  82  83
ATOM     83  S   UNL A   1      46.251  21.512  39.525  1.00  0.00     0.124 S 
ATOM     84  O   UNL A   1      45.066  21.757  40.341  1.00  0.00    -0.237 OA
ATOM     85  O   UNL A   1      46.273  20.243  38.804  1.00  0.00    -0.237 OA
ATOM     86  O   UNL A   1      47.521  21.898  40.136  1.00  0.00    -0.744 OA
ENDBRANCH  82  83
ENDBRANCH  54  77
BRANCH  66  87
ATOM     87  C   UNL A   1      46.926  31.469  35.719  1.00  0.00    -0.014 A 
ATOM     88  C   UNL A   1      46.028  31.969  36.679  1.00  0.00     0.010 A 
ATOM     89  C   UNL A   1      48.267  31.895  35.751  1.00  0.00     0.010 A 
ATOM     90  C   UNL A   1      46.456  32.903  37.627  1.00  0.00     0.020 A 
ATOM     91  C   UNL A   1      48.708  32.798  36.720  1.00  0.00     0.020 A 
ATOM     92  C   UNL A   1      47.795  33.307  37.645  1.00  0.00     0.054 A 
BRANCH  92  93
ATOM     93  S   UNL A   1      48.333  34.483  38.916  1.00  0.00     0.124 S 
ATOM     94  O   UNL A   1      47.109  35.240  39.167  1.00  0.00    -0.237 OA
ATOM     95  O   UNL A   1      48.763  33.603  40.000  1.00  0.00    -0.237 OA
ATOM     96  O   UNL A   1      49.405  35.232  38.265  1.00  0.00    -0.744 OA
ENDBRANCH  92  93
ENDBRANCH  66  87
ENDBRANCH  40  41
ENDBRANCH  33  35
ENDBRANCH  32  33
ENDBRANCH  31  32
ENDBRANCH  30  31
ENDBRANCH  29  30
ENDBRANCH  28  29
ENDBRANCH  27  28
ENDBRANCH  26  27
ENDBRANCH  25  26
ENDBRANCH   1  25
TORSDOF 29
ENDMDL
MODEL 3
REMARK VINA RESULT:      -6.9      6.034     10.024
REMARK SMILES C[N@H+](CCC(=O)Nc1sccc1C#N)CC(=O)OCCOCCOCCOCCOC(=O)c1ccc(-c2c3nc(c(-c4ccc(S(=O)(=O)[O-])cc4)c4ccc([nH]4)c(-c4ccc(S(=O)(=O)[O-])cc4)c4nc(c(-c5ccc(S(=O)(=O)[O-])cc5)c5ccc2[nH]5)C=C4)C=C3)cc1
REMARK SMILES IDX 22 1 21 2 20 3 19 4 18 5 16 6 17 7 15 8 2 9 1 10 3 12 4 13
REMARK SMILES IDX 5 14 6 15 7 16 8 18 9 19 12 20 10 21 11 22 13 23 14 24 23 25
REMARK SMILES IDX 24 26 25 27 26 28 27 29 28 30 29 31 30 32 31 33 32 34 33 35
REMARK SMILES IDX 34 36 92 37 35 38 91 39 36 40 37 41 38 42 85 43 39 44 90 45
REMARK SMILES IDX 84 46 86 47 40 48 89 49 83 50 82 51 41 53 71 54 52 55 70 56
REMARK SMILES IDX 53 57 56 58 69 59 87 60 54 61 55 62 68 64 88 65 57 66 42 67
REMARK SMILES IDX 43 68 51 69 44 70 50 71 45 72 46 73 47 74 48 75 49 76 72 77
REMARK SMILES IDX 73 78 81 79 74 80 80 81 75 82 76 83 77 84 78 85 79 86 58 87
REMARK SMILES IDX 59 88 67 89 60 90 66 91 61 92 62 93 63 94 64 95 65 96
REMARK H PARENT 2 11 7 17 86 52 56 63
REMARK Flexibility Score: inf
ROOT
ATOM      1  C   UNL A   1      41.832  27.818  27.013  1.00  0.00     0.188 C 
ENDROOT
BRANCH   1   2
ATOM      2  O   UNL A   1      42.537  26.594  27.025  1.00  0.00    -0.376 OA
BRANCH   2   3
ATOM      3  C   UNL A   1      41.928  25.420  26.480  1.00  0.00     0.202 C 
BRANCH   3   4
ATOM      4  C   UNL A   1      41.617  24.164  27.320  1.00  0.00     0.261 C 
BRANCH   4   5
ATOM      5  O   UNL A   1      40.924  23.130  26.600  1.00  0.00    -0.459 OA
BRANCH   5   6
ATOM      6  C   UNL A   1      39.583  23.106  26.804  1.00  0.00     0.361 C 
ATOM      7  O   UNL A   1      39.002  23.938  27.499  1.00  0.00    -0.245 OA
BRANCH   6   8
ATOM      8  C   UNL A   1      38.800  22.052  26.023  1.00  0.00     0.386 C 
BRANCH   8   9
ATOM      9  N   UNL A   1      37.354  22.225  25.887  1.00  0.00    -0.328 N 
ATOM     10  C   UNL A   1      36.789  20.993  25.298  1.00  0.00     0.333 C 
ATOM     11  H   UNL A   1      36.935  22.393  26.802  1.00  0.00     0.348 HD
BRANCH   9  12
ATOM     12  C   UNL A   1      37.058  23.394  25.026  1.00  0.00     0.272 C 
BRANCH  12  13
ATOM     13  C   UNL A   1      35.739  24.141  25.248  1.00  0.00     0.161 C 
BRANCH  13  14
ATOM     14  C   UNL A   1      34.448  23.747  26.012  1.00  0.00     0.230 C 
ATOM     15  O   UNL A   1      34.647  23.044  27.025  1.00  0.00    -0.274 OA
ATOM     16  N   UNL A   1      33.158  24.161  25.927  1.00  0.00    -0.316 N 
ATOM     17  H   UNL A   1      32.660  23.945  26.748  1.00  0.00     0.170 HD
BRANCH  16  18
ATOM     18  C   UNL A   1      32.352  24.797  25.012  1.00  0.00     0.113 A 
ATOM     19  S   UNL A   1      31.080  25.681  25.773  1.00  0.00    -0.125 S 
ATOM     20  C   UNL A   1      32.293  24.960  23.647  1.00  0.00     0.087 A 
ATOM     21  C   UNL A   1      30.885  26.677  24.392  1.00  0.00     0.068 A 
ATOM     22  C   UNL A   1      31.497  26.106  23.294  1.00  0.00     0.033 A 
BRANCH  20  23
ATOM     23  C   UNL A   1      32.979  24.141  22.698  1.00  0.00     0.102 C 
ATOM     24  N   UNL A   1      33.536  23.511  21.907  1.00  0.00    -0.192 NA
ENDBRANCH  20  23
ENDBRANCH  16  18
ENDBRANCH  13  14
ENDBRANCH  12  13
ENDBRANCH   9  12
ENDBRANCH   8   9
ENDBRANCH   6   8
ENDBRANCH   5   6
ENDBRANCH   4   5
ENDBRANCH   3   4
ENDBRANCH   2   3
ENDBRANCH   1   2
BRANCH   1  25
ATOM     25  C   UNL A   1      40.338  27.593  26.788  1.00  0.00     0.188 C 
BRANCH  25  26
ATOM     26  O   UNL A   1      39.528  27.667  27.945  1.00  0.00    -0.377 OA
BRANCH  26  27
ATOM     27  C   UNL A   1      39.655  28.722  28.884  1.00  0.00     0.188 C 
BRANCH  27  28
ATOM     28  C   UNL A   1      38.797  29.928  28.557  1.00  0.00     0.188 C 
BRANCH  28  29
ATOM     29  O   UNL A   1      37.799  30.291  29.515  1.00  0.00    -0.376 OA
BRANCH  29  30
ATOM     30  C   UNL A   1      38.134  30.290  30.900  1.00  0.00     0.202 C 
BRANCH  30  31
ATOM     31  C   UNL A   1      37.775  31.554  31.676  1.00  0.00     0.261 C 
BRANCH  31  32
ATOM     32  O   UNL A   1      37.602  32.700  30.832  1.00  0.00    -0.460 OA
BRANCH  32  33
ATOM     33  C   UNL A   1      37.863  33.886  31.429  1.00  0.00     0.338 C 
ATOM     34  O   UNL A   1      37.178  34.472  32.250  1.00  0.00    -0.246 OA
BRANCH  33  35
ATOM     35  C   UNL A   1      39.188  34.360  31.007  1.00  0.00     0.060 A 
ATOM     36  C   UNL A   1      39.414  34.658  29.657  1.00  0.00     0.016 A 
ATOM     37  C   UNL A   1      40.231  34.372  31.931  1.00  0.00     0.016 A 
ATOM     38  C   UNL A   1      40.709  34.903  29.212  1.00  0.00     0.010 A 
ATOM     39  C   UNL A   1      41.528  34.608  31.483  1.00  0.00     0.010 A 
ATOM     40  C   UNL A   1      41.773  34.819  30.116  1.00  0.00    -0.014 A 
BRANCH  40  41
ATOM     41  C   UNL A   1      43.160  34.756  29.614  1.00  0.00     0.031 A 
ATOM     42  C   UNL A   1      43.866  36.047  29.302  1.00  0.00     0.074 A 
ATOM     43  C   UNL A   1      43.766  33.573  29.432  1.00  0.00     0.049 A 
ATOM     44  N   UNL A   1      45.037  36.239  28.758  1.00  0.00    -0.248 NA
ATOM     45  C   UNL A   1      43.147  37.289  29.641  1.00  0.00     0.031 C 
ATOM     46  C   UNL A   1      43.188  32.269  29.756  1.00  0.00     0.029 A 
ATOM     47  N   UNL A   1      45.000  33.279  28.916  1.00  0.00    -0.354 N 
ATOM     48  C   UNL A   1      45.186  37.618  28.665  1.00  0.00     0.074 A 
ATOM     49  C   UNL A   1      43.975  38.214  29.182  1.00  0.00     0.031 C 
ATOM     50  C   UNL A   1      44.067  31.310  29.420  1.00  0.00     0.029 A 
ATOM     51  C   UNL A   1      45.242  31.931  28.813  1.00  0.00     0.049 A 
ATOM     52  H   UNL A   1      45.651  33.967  28.645  1.00  0.00     0.167 HD
ATOM     53  C   UNL A   1      46.242  38.320  28.188  1.00  0.00     0.031 A 
ATOM     54  C   UNL A   1      46.282  31.278  28.262  1.00  0.00     0.031 A 
ATOM     55  C   UNL A   1      47.432  37.705  27.662  1.00  0.00     0.049 A 
ATOM     56  C   UNL A   1      47.408  32.080  27.663  1.00  0.00     0.074 A 
ATOM     57  C   UNL A   1      48.571  38.315  27.173  1.00  0.00     0.029 A 
ATOM     58  N   UNL A   1      47.629  36.335  27.546  1.00  0.00    -0.354 N 
ATOM     59  N   UNL A   1      47.552  33.383  27.601  1.00  0.00    -0.248 NA
ATOM     60  C   UNL A   1      48.515  31.322  27.067  1.00  0.00     0.031 C 
ATOM     61  C   UNL A   1      49.423  37.320  26.686  1.00  0.00     0.029 A 
ATOM     62  C   UNL A   1      48.856  36.084  26.957  1.00  0.00     0.049 A 
ATOM     63  H   UNL A   1      46.991  35.645  27.839  1.00  0.00     0.167 HD
ATOM     64  C   UNL A   1      48.785  33.600  26.993  1.00  0.00     0.074 A 
ATOM     65  C   UNL A   1      49.348  32.293  26.720  1.00  0.00     0.031 C 
ATOM     66  C   UNL A   1      49.398  34.772  26.692  1.00  0.00     0.031 A 
BRANCH  53  67
ATOM     67  C   UNL A   1      46.133  39.824  28.165  1.00  0.00    -0.014 A 
ATOM     68  C   UNL A   1      46.781  40.626  29.124  1.00  0.00     0.010 A 
ATOM     69  C   UNL A   1      45.397  40.448  27.143  1.00  0.00     0.010 A 
ATOM     70  C   UNL A   1      46.660  42.018  29.081  1.00  0.00     0.020 A 
ATOM     71  C   UNL A   1      45.304  41.841  27.075  1.00  0.00     0.020 A 
ATOM     72  C   UNL A   1      45.924  42.617  28.055  1.00  0.00     0.054 A 
BRANCH  72  73
ATOM     73  S   UNL A   1      45.810  44.426  28.008  1.00  0.00     0.124 S 
ATOM     74  O   UNL A   1      47.182  44.824  28.313  1.00  0.00    -0.237 OA
ATOM     75  O   UNL A   1      45.371  44.680  26.638  1.00  0.00    -0.237 OA
ATOM     76  O   UNL A   1      44.828  44.740  29.044  1.00  0.00    -0.744 OA
ENDBRANCH  72  73
ENDBRANCH  53  67
BRANCH  54  77
ATOM     77  C   UNL A   1      46.297  29.790  28.240  1.00  0.00    -0.014 A 
ATOM     78  C   UNL A   1      46.836  29.065  29.316  1.00  0.00     0.010 A 
ATOM     79  C   UNL A   1      45.760  29.089  27.144  1.00  0.00     0.010 A 
ATOM     80  C   UNL A   1      46.856  27.668  29.290  1.00  0.00     0.020 A 
ATOM     81  C   UNL A   1      45.745  27.692  27.129  1.00  0.00     0.020 A 
ATOM     82  C   UNL A   1      46.303  26.990  28.199  1.00  0.00     0.054 A 
BRANCH  82  83
ATOM     83  S   UNL A   1      46.294  25.176  28.216  1.00  0.00     0.124 S 
ATOM     84  O   UNL A   1      45.851  24.889  29.577  1.00  0.00    -0.237 OA
ATOM     85  O   UNL A   1      45.339  24.860  27.159  1.00  0.00    -0.237 OA
ATOM     86  O   UNL A   1      47.681  24.824  27.922  1.00  0.00    -0.744 OA
ENDBRANCH  82  83
ENDBRANCH  54  77
BRANCH  66  87
ATOM     87  C   UNL A   1      50.773  34.700  26.077  1.00  0.00    -0.014 A 
ATOM     88  C   UNL A   1      50.960  34.732  24.683  1.00  0.00     0.010 A 
ATOM     89  C   UNL A   1      51.901  34.658  26.918  1.00  0.00     0.010 A 
ATOM     90  C   UNL A   1      52.249  34.685  24.144  1.00  0.00     0.020 A 
ATOM     91  C   UNL A   1      53.191  34.652  26.384  1.00  0.00     0.020 A 
ATOM     92  C   UNL A   1      53.356  34.651  24.998  1.00  0.00     0.054 A 
BRANCH  92  93
ATOM     93  S   UNL A   1      55.017  34.640  24.271  1.00  0.00     0.124 S 
ATOM     94  O   UNL A   1      55.255  36.062  24.035  1.00  0.00    -0.237 OA
ATOM     95  O   UNL A   1      55.822  34.034  25.329  1.00  0.00    -0.237 OA
ATOM     96  O   UNL A   1      54.865  33.827  23.067  1.00  0.00    -0.744 OA
ENDBRANCH  92  93
ENDBRANCH  66  87
ENDBRANCH  40  41
ENDBRANCH  33  35
ENDBRANCH  32  33
ENDBRANCH  31  32
ENDBRANCH  30  31
ENDBRANCH  29  30
ENDBRANCH  28  29
ENDBRANCH  27  28
ENDBRANCH  26  27
ENDBRANCH  25  26
ENDBRANCH   1  25
TORSDOF 29
ENDMDL
