MODEL 1
REMARK VINA RESULT:      -9.9      0.000      0.000
REMARK SMILES Cc1ccccc1C(=O)N1CSC[C@H]1C(=O)OCCOCCOCCOCCOC(=O)c1ccc(-c2c3nc(c(-c4ccc(S(=O)(=O)[O-])cc4)c4ccc([nH]4)c(-c4ccc(S(=O)(=O)[O-])cc4)c4nc(c(-c5ccc(S(=O)(=O)[O-])cc5)c5ccc2[nH]5)C=C4)C=C3)cc1
REMARK SMILES IDX 24 1 23 2 22 3 21 4 20 5 19 6 18 7 17 8 15 9 16 10 14 11
REMARK SMILES IDX 10 12 11 13 12 14 13 15 8 16 9 17 7 18 1 19 2 20 3 21 4 22
REMARK SMILES IDX 6 23 5 24 25 25 26 26 27 27 28 28 29 29 30 30 31 31 32 32
REMARK SMILES IDX 33 33 91 34 34 35 90 36 35 37 36 38 37 39 84 40 38 41 89 42
REMARK SMILES IDX 83 43 85 44 39 45 88 46 82 47 81 48 40 50 70 51 51 52 69 53
REMARK SMILES IDX 52 54 55 55 68 56 86 57 53 58 54 59 67 61 87 62 56 63 41 64
REMARK SMILES IDX 42 65 50 66 43 67 49 68 44 69 45 70 46 71 47 72 48 73 71 74
REMARK SMILES IDX 72 75 80 76 73 77 79 78 74 79 75 80 76 81 77 82 78 83 57 84
REMARK SMILES IDX 58 85 66 86 59 87 65 88 60 89 61 90 62 91 63 92 64 93
REMARK H PARENT 85 49 55 60
REMARK Flexibility Score: inf
ROOT
ATOM      1  C   UNL A   1      37.486  21.020  25.022  1.00  0.00     0.188 C 
ENDROOT
BRANCH   1   2
ATOM      2  O   UNL A   1      36.336  21.507  24.326  1.00  0.00    -0.377 OA
BRANCH   2   3
ATOM      3  C   UNL A   1      35.508  22.378  25.071  1.00  0.00     0.188 C 
BRANCH   3   4
ATOM      4  C   UNL A   1      34.004  22.396  24.716  1.00  0.00     0.188 C 
BRANCH   4   5
ATOM      5  O   UNL A   1      33.240  23.590  24.699  1.00  0.00    -0.376 OA
BRANCH   5   6
ATOM      6  C   UNL A   1      33.885  24.752  24.236  1.00  0.00     0.202 C 
BRANCH   6   7
ATOM      7  C   UNL A   1      33.814  25.986  25.114  1.00  0.00     0.261 C 
BRANCH   7   8
ATOM      8  O   UNL A   1      32.895  25.840  26.203  1.00  0.00    -0.462 OA
BRANCH   8   9
ATOM      9  C   UNL A   1      32.030  26.865  26.392  1.00  0.00     0.329 C 
ATOM     10  O   UNL A   1      30.879  26.755  26.753  1.00  0.00    -0.250 OA
BRANCH   9  11
ATOM     11  C   UNL A   1      32.683  28.217  26.056  1.00  0.00     0.206 C 
ATOM     12  N   UNL A   1      31.892  29.139  25.223  1.00  0.00    -0.315 N 
ATOM     13  C   UNL A   1      31.618  30.436  25.810  1.00  0.00     0.191 C 
ATOM     14  S   UNL A   1      32.949  30.714  26.994  1.00  0.00    -0.138 SA
ATOM     15  C   UNL A   1      33.175  28.937  27.310  1.00  0.00     0.108 C 
BRANCH  12  16
ATOM     16  C   UNL A   1      31.633  28.731  23.930  1.00  0.00     0.255 C 
ATOM     17  O   UNL A   1      32.529  28.437  23.142  1.00  0.00    -0.269 OA
BRANCH  16  18
ATOM     18  C   UNL A   1      30.283  28.774  23.346  1.00  0.00     0.042 A 
ATOM     19  C   UNL A   1      30.062  26.241  23.594  1.00  0.00     0.045 C 
ATOM     20  C   UNL A   1      29.485  27.617  23.417  1.00  0.00    -0.038 A 
ATOM     21  C   UNL A   1      28.093  27.766  23.357  1.00  0.00     0.004 A 
ATOM     22  C   UNL A   1      27.512  29.031  23.247  1.00  0.00     0.000 A 
ATOM     23  C   UNL A   1      29.698  30.042  23.185  1.00  0.00     0.014 A 
ATOM     24  C   UNL A   1      28.311  30.166  23.134  1.00  0.00     0.001 A 
ENDBRANCH  16  18
ENDBRANCH  12  16
ENDBRANCH   9  11
ENDBRANCH   8   9
ENDBRANCH   7   8
ENDBRANCH   6   7
ENDBRANCH   5   6
ENDBRANCH   4   5
ENDBRANCH   3   4
ENDBRANCH   2   3
ENDBRANCH   1   2
BRANCH   1  25
ATOM     25  C   UNL A   1      38.165  22.130  25.803  1.00  0.00     0.188 C 
BRANCH  25  26
ATOM     26  O   UNL A   1      39.498  21.692  26.044  1.00  0.00    -0.376 OA
BRANCH  26  27
ATOM     27  C   UNL A   1      40.437  22.655  26.446  1.00  0.00     0.202 C 
BRANCH  27  28
ATOM     28  C   UNL A   1      39.808  23.636  27.420  1.00  0.00     0.261 C 
BRANCH  28  29
ATOM     29  O   UNL A   1      39.785  24.949  26.812  1.00  0.00    -0.460 OA
BRANCH  29  30
ATOM     30  C   UNL A   1      40.814  25.777  27.163  1.00  0.00     0.338 C 
ATOM     31  O   UNL A   1      41.747  26.034  26.422  1.00  0.00    -0.246 OA
BRANCH  30  32
ATOM     32  C   UNL A   1      40.643  26.305  28.555  1.00  0.00     0.060 A 
ATOM     33  C   UNL A   1      39.383  26.345  29.176  1.00  0.00     0.016 A 
ATOM     34  C   UNL A   1      41.705  26.949  29.171  1.00  0.00     0.016 A 
ATOM     35  C   UNL A   1      39.152  27.155  30.317  1.00  0.00     0.010 A 
ATOM     36  C   UNL A   1      41.454  27.799  30.235  1.00  0.00     0.010 A 
ATOM     37  C   UNL A   1      40.180  27.947  30.822  1.00  0.00    -0.014 A 
BRANCH  37  38
ATOM     38  C   UNL A   1      40.094  29.041  31.833  1.00  0.00     0.031 A 
ATOM     39  C   UNL A   1      40.688  28.771  33.203  1.00  0.00     0.074 A 
ATOM     40  C   UNL A   1      39.939  30.327  31.414  1.00  0.00     0.049 A 
ATOM     41  N   UNL A   1      41.030  29.656  34.082  1.00  0.00    -0.248 NA
ATOM     42  C   UNL A   1      40.997  27.415  33.677  1.00  0.00     0.031 C 
ATOM     43  C   UNL A   1      40.661  31.494  31.938  1.00  0.00     0.029 A 
ATOM     44  N   UNL A   1      39.226  30.898  30.376  1.00  0.00    -0.354 N 
ATOM     45  C   UNL A   1      41.850  29.060  35.031  1.00  0.00     0.074 A 
ATOM     46  C   UNL A   1      41.752  27.649  34.759  1.00  0.00     0.031 C 
ATOM     47  C   UNL A   1      40.336  32.609  31.270  1.00  0.00     0.029 A 
ATOM     48  C   UNL A   1      39.152  32.290  30.525  1.00  0.00     0.049 A 
ATOM     49  H   UNL A   1      38.824  30.393  29.632  1.00  0.00     0.167 HD
ATOM     50  C   UNL A   1      42.614  29.843  35.856  1.00  0.00     0.031 A 
ATOM     51  C   UNL A   1      37.958  32.896  30.815  1.00  0.00     0.031 A 
ATOM     52  C   UNL A   1      42.216  31.262  35.778  1.00  0.00     0.049 A 
ATOM     53  C   UNL A   1      37.902  33.384  32.272  1.00  0.00     0.074 A 
ATOM     54  C   UNL A   1      42.882  32.466  35.595  1.00  0.00     0.029 A 
ATOM     55  N   UNL A   1      40.859  31.576  35.740  1.00  0.00    -0.354 N 
ATOM     56  N   UNL A   1      38.665  32.893  33.226  1.00  0.00    -0.248 NA
ATOM     57  C   UNL A   1      37.132  34.530  32.756  1.00  0.00     0.031 C 
ATOM     58  C   UNL A   1      41.913  33.451  35.244  1.00  0.00     0.029 A 
ATOM     59  C   UNL A   1      40.654  32.882  35.363  1.00  0.00     0.049 A 
ATOM     60  H   UNL A   1      40.137  30.941  35.956  1.00  0.00     0.167 HD
ATOM     61  C   UNL A   1      38.566  33.645  34.364  1.00  0.00     0.074 A 
ATOM     62  C   UNL A   1      37.564  34.641  34.030  1.00  0.00     0.031 C 
ATOM     63  C   UNL A   1      39.326  33.461  35.487  1.00  0.00     0.031 A 
BRANCH  50  64
ATOM     64  C   UNL A   1      43.850  29.395  36.652  1.00  0.00    -0.014 A 
ATOM     65  C   UNL A   1      44.413  28.123  36.388  1.00  0.00     0.010 A 
ATOM     66  C   UNL A   1      44.453  30.098  37.720  1.00  0.00     0.010 A 
ATOM     67  C   UNL A   1      45.476  27.577  37.129  1.00  0.00     0.020 A 
ATOM     68  C   UNL A   1      45.553  29.581  38.448  1.00  0.00     0.020 A 
ATOM     69  C   UNL A   1      46.054  28.316  38.152  1.00  0.00     0.054 A 
BRANCH  69  70
ATOM     70  S   UNL A   1      47.480  27.613  39.037  1.00  0.00     0.124 S 
ATOM     71  O   UNL A   1      48.037  28.778  39.720  1.00  0.00    -0.237 OA
ATOM     72  O   UNL A   1      46.856  26.618  39.906  1.00  0.00    -0.237 OA
ATOM     73  O   UNL A   1      48.315  27.062  37.972  1.00  0.00    -0.744 OA
ENDBRANCH  69  70
ENDBRANCH  50  64
BRANCH  51  74
ATOM     74  C   UNL A   1      36.912  32.494  29.803  1.00  0.00    -0.014 A 
ATOM     75  C   UNL A   1      35.676  32.150  30.414  1.00  0.00     0.010 A 
ATOM     76  C   UNL A   1      36.856  33.209  28.586  1.00  0.00     0.010 A 
ATOM     77  C   UNL A   1      34.494  32.814  30.054  1.00  0.00     0.020 A 
ATOM     78  C   UNL A   1      35.662  33.871  28.215  1.00  0.00     0.020 A 
ATOM     79  C   UNL A   1      34.516  33.735  29.008  1.00  0.00     0.054 A 
BRANCH  79  80
ATOM     80  S   UNL A   1      33.170  34.970  28.926  1.00  0.00     0.124 S 
ATOM     81  O   UNL A   1      32.282  34.404  27.920  1.00  0.00    -0.237 OA
ATOM     82  O   UNL A   1      32.657  34.971  30.298  1.00  0.00    -0.237 OA
ATOM     83  O   UNL A   1      33.864  36.194  28.542  1.00  0.00    -0.744 OA
ENDBRANCH  79  80
ENDBRANCH  51  74
BRANCH  63  84
ATOM     84  C   UNL A   1      38.903  33.820  36.898  1.00  0.00    -0.014 A 
ATOM     85  C   UNL A   1      37.941  33.105  37.617  1.00  0.00     0.010 A 
ATOM     86  C   UNL A   1      39.661  34.782  37.626  1.00  0.00     0.010 A 
ATOM     87  C   UNL A   1      37.715  33.363  38.974  1.00  0.00     0.020 A 
ATOM     88  C   UNL A   1      39.482  35.010  38.989  1.00  0.00     0.020 A 
ATOM     89  C   UNL A   1      38.489  34.309  39.651  1.00  0.00     0.054 A 
BRANCH  89  90
ATOM     90  S   UNL A   1      38.208  34.563  41.416  1.00  0.00     0.124 S 
ATOM     91  O   UNL A   1      36.833  34.096  41.567  1.00  0.00    -0.237 OA
ATOM     92  O   UNL A   1      39.230  33.716  42.026  1.00  0.00    -0.237 OA
ATOM     93  O   UNL A   1      38.407  35.999  41.600  1.00  0.00    -0.744 OA
ENDBRANCH  89  90
ENDBRANCH  63  84
ENDBRANCH  37  38
ENDBRANCH  30  32
ENDBRANCH  29  30
ENDBRANCH  28  29
ENDBRANCH  27  28
ENDBRANCH  26  27
ENDBRANCH  25  26
ENDBRANCH   1  25
TORSDOF 25
ENDMDL
MODEL 2
REMARK VINA RESULT:      -9.3      6.385     11.061
REMARK SMILES Cc1ccccc1C(=O)N1CSC[C@H]1C(=O)OCCOCCOCCOCCOC(=O)c1ccc(-c2c3nc(c(-c4ccc(S(=O)(=O)[O-])cc4)c4ccc([nH]4)c(-c4ccc(S(=O)(=O)[O-])cc4)c4nc(c(-c5ccc(S(=O)(=O)[O-])cc5)c5ccc2[nH]5)C=C4)C=C3)cc1
REMARK SMILES IDX 24 1 23 2 22 3 21 4 20 5 19 6 18 7 17 8 15 9 16 10 14 11
REMARK SMILES IDX 10 12 11 13 12 14 13 15 8 16 9 17 7 18 1 19 2 20 3 21 4 22
REMARK SMILES IDX 6 23 5 24 25 25 26 26 27 27 28 28 29 29 30 30 31 31 32 32
REMARK SMILES IDX 33 33 91 34 34 35 90 36 35 37 36 38 37 39 84 40 38 41 89 42
REMARK SMILES IDX 83 43 85 44 39 45 88 46 82 47 81 48 40 50 70 51 51 52 69 53
REMARK SMILES IDX 52 54 55 55 68 56 86 57 53 58 54 59 67 61 87 62 56 63 41 64
REMARK SMILES IDX 42 65 50 66 43 67 49 68 44 69 45 70 46 71 47 72 48 73 71 74
REMARK SMILES IDX 72 75 80 76 73 77 79 78 74 79 75 80 76 81 77 82 78 83 57 84
REMARK SMILES IDX 58 85 66 86 59 87 65 88 60 89 61 90 62 91 63 92 64 93
REMARK H PARENT 85 49 55 60
REMARK Flexibility Score: inf
ROOT
ATOM      1  C   UNL A   1      38.551  21.407  25.441  1.00  0.00     0.188 C 
ENDROOT
BRANCH   1   2
ATOM      2  O   UNL A   1      37.319  21.699  26.105  1.00  0.00    -0.377 OA
BRANCH   2   3
ATOM      3  C   UNL A   1      36.320  22.275  25.288  1.00  0.00     0.188 C 
BRANCH   3   4
ATOM      4  C   UNL A   1      35.398  23.331  25.939  1.00  0.00     0.188 C 
BRANCH   4   5
ATOM      5  O   UNL A   1      34.044  23.500  25.555  1.00  0.00    -0.376 OA
BRANCH   5   6
ATOM      6  C   UNL A   1      33.695  23.094  24.253  1.00  0.00     0.202 C 
BRANCH   6   7
ATOM      7  C   UNL A   1      34.013  24.047  23.118  1.00  0.00     0.261 C 
BRANCH   7   8
ATOM      8  O   UNL A   1      33.933  25.422  23.508  1.00  0.00    -0.462 OA
BRANCH   8   9
ATOM      9  C   UNL A   1      33.496  26.285  22.559  1.00  0.00     0.329 C 
ATOM     10  O   UNL A   1      33.560  26.105  21.363  1.00  0.00    -0.250 OA
BRANCH   9  11
ATOM     11  C   UNL A   1      32.924  27.567  23.190  1.00  0.00     0.206 C 
ATOM     12  N   UNL A   1      31.762  27.399  24.080  1.00  0.00    -0.315 N 
ATOM     13  C   UNL A   1      31.935  27.883  25.435  1.00  0.00     0.191 C 
ATOM     14  S   UNL A   1      33.200  29.164  25.325  1.00  0.00    -0.138 SA
ATOM     15  C   UNL A   1      34.005  28.386  23.891  1.00  0.00     0.108 C 
BRANCH  12  16
ATOM     16  C   UNL A   1      30.599  26.945  23.492  1.00  0.00     0.255 C 
ATOM     17  O   UNL A   1      30.361  25.749  23.342  1.00  0.00    -0.269 OA
BRANCH  16  18
ATOM     18  C   UNL A   1      29.633  27.853  22.853  1.00  0.00     0.042 A 
ATOM     19  C   UNL A   1      27.691  26.626  23.972  1.00  0.00     0.045 C 
ATOM     20  C   UNL A   1      28.294  27.818  23.285  1.00  0.00    -0.038 A 
ATOM     21  C   UNL A   1      27.505  28.961  23.094  1.00  0.00     0.004 A 
ATOM     22  C   UNL A   1      28.039  30.111  22.508  1.00  0.00     0.000 A 
ATOM     23  C   UNL A   1      30.154  28.994  22.218  1.00  0.00     0.014 A 
ATOM     24  C   UNL A   1      29.353  30.121  22.046  1.00  0.00     0.001 A 
ENDBRANCH  16  18
ENDBRANCH  12  16
ENDBRANCH   9  11
ENDBRANCH   8   9
ENDBRANCH   7   8
ENDBRANCH   6   7
ENDBRANCH   5   6
ENDBRANCH   4   5
ENDBRANCH   3   4
ENDBRANCH   2   3
ENDBRANCH   1   2
BRANCH   1  25
ATOM     25  C   UNL A   1      39.682  21.226  26.438  1.00  0.00     0.188 C 
BRANCH  25  26
ATOM     26  O   UNL A   1      40.727  20.558  25.739  1.00  0.00    -0.376 OA
BRANCH  26  27
ATOM     27  C   UNL A   1      41.498  19.629  26.457  1.00  0.00     0.202 C 
BRANCH  27  28
ATOM     28  C   UNL A   1      42.434  18.882  25.521  1.00  0.00     0.261 C 
BRANCH  28  29
ATOM     29  O   UNL A   1      43.799  19.126  25.935  1.00  0.00    -0.460 OA
BRANCH  29  30
ATOM     30  C   UNL A   1      44.598  19.723  25.000  1.00  0.00     0.338 C 
ATOM     31  O   UNL A   1      45.333  19.100  24.254  1.00  0.00    -0.246 OA
BRANCH  30  32
ATOM     32  C   UNL A   1      44.455  21.215  25.028  1.00  0.00     0.060 A 
ATOM     33  C   UNL A   1      45.126  22.034  24.104  1.00  0.00     0.016 A 
ATOM     34  C   UNL A   1      43.814  21.814  26.101  1.00  0.00     0.016 A 
ATOM     35  C   UNL A   1      45.289  23.423  24.337  1.00  0.00     0.010 A 
ATOM     36  C   UNL A   1      44.046  23.155  26.363  1.00  0.00     0.010 A 
ATOM     37  C   UNL A   1      44.802  23.988  25.513  1.00  0.00    -0.014 A 
BRANCH  37  38
ATOM     38  C   UNL A   1      45.076  25.345  26.071  1.00  0.00     0.031 A 
ATOM     39  C   UNL A   1      43.914  26.318  26.142  1.00  0.00     0.074 A 
ATOM     40  C   UNL A   1      46.149  25.526  26.889  1.00  0.00     0.049 A 
ATOM     41  N   UNL A   1      43.839  27.376  26.881  1.00  0.00    -0.248 NA
ATOM     42  C   UNL A   1      42.673  26.122  25.379  1.00  0.00     0.031 C 
ATOM     43  C   UNL A   1      46.155  26.297  28.139  1.00  0.00     0.029 A 
ATOM     44  N   UNL A   1      47.426  24.996  26.896  1.00  0.00    -0.354 N 
ATOM     45  C   UNL A   1      42.516  27.792  26.945  1.00  0.00     0.074 A 
ATOM     46  C   UNL A   1      41.840  27.005  25.946  1.00  0.00     0.031 C 
ATOM     47  C   UNL A   1      47.345  26.227  28.750  1.00  0.00     0.029 A 
ATOM     48  C   UNL A   1      48.258  25.705  27.774  1.00  0.00     0.049 A 
ATOM     49  H   UNL A   1      47.712  24.225  26.356  1.00  0.00     0.167 HD
ATOM     50  C   UNL A   1      42.125  28.666  27.926  1.00  0.00     0.031 A 
ATOM     51  C   UNL A   1      49.282  26.477  27.292  1.00  0.00     0.031 A 
ATOM     52  C   UNL A   1      43.287  29.258  28.618  1.00  0.00     0.049 A 
ATOM     53  C   UNL A   1      48.969  27.979  27.401  1.00  0.00     0.074 A 
ATOM     54  C   UNL A   1      43.665  29.429  29.942  1.00  0.00     0.029 A 
ATOM     55  N   UNL A   1      44.385  29.657  27.859  1.00  0.00    -0.354 N 
ATOM     56  N   UNL A   1      47.745  28.455  27.496  1.00  0.00    -0.248 NA
ATOM     57  C   UNL A   1      49.959  29.044  27.569  1.00  0.00     0.031 C 
ATOM     58  C   UNL A   1      45.058  29.734  29.961  1.00  0.00     0.029 A 
ATOM     59  C   UNL A   1      45.485  29.895  28.651  1.00  0.00     0.049 A 
ATOM     60  H   UNL A   1      44.376  29.757  26.880  1.00  0.00     0.167 HD
ATOM     61  C   UNL A   1      47.763  29.789  27.794  1.00  0.00     0.074 A 
ATOM     62  C   UNL A   1      49.177  30.120  27.795  1.00  0.00     0.031 C 
ATOM     63  C   UNL A   1      46.654  30.539  28.074  1.00  0.00     0.031 A 
BRANCH  50  64
ATOM     64  C   UNL A   1      40.687  28.912  28.410  1.00  0.00    -0.014 A 
ATOM     65  C   UNL A   1      39.746  29.468  27.511  1.00  0.00     0.010 A 
ATOM     66  C   UNL A   1      40.208  28.725  29.726  1.00  0.00     0.010 A 
ATOM     67  C   UNL A   1      38.439  29.828  27.882  1.00  0.00     0.020 A 
ATOM     68  C   UNL A   1      38.880  29.040  30.106  1.00  0.00     0.020 A 
ATOM     69  C   UNL A   1      38.003  29.599  29.180  1.00  0.00     0.054 A 
BRANCH  69  70
ATOM     70  S   UNL A   1      36.281  30.001  29.606  1.00  0.00     0.124 S 
ATOM     71  O   UNL A   1      36.266  31.460  29.535  1.00  0.00    -0.237 OA
ATOM     72  O   UNL A   1      35.526  29.317  28.559  1.00  0.00    -0.237 OA
ATOM     73  O   UNL A   1      36.113  29.445  30.947  1.00  0.00    -0.744 OA
ENDBRANCH  69  70
ENDBRANCH  50  64
BRANCH  51  74
ATOM     74  C   UNL A   1      50.172  25.655  26.391  1.00  0.00    -0.014 A 
ATOM     75  C   UNL A   1      50.139  26.104  25.044  1.00  0.00     0.010 A 
ATOM     76  C   UNL A   1      51.419  25.228  26.902  1.00  0.00     0.010 A 
ATOM     77  C   UNL A   1      51.322  26.480  24.389  1.00  0.00     0.020 A 
ATOM     78  C   UNL A   1      52.612  25.596  26.237  1.00  0.00     0.020 A 
ATOM     79  C   UNL A   1      52.547  26.300  25.028  1.00  0.00     0.054 A 
BRANCH  79  80
ATOM     80  S   UNL A   1      53.973  27.281  24.438  1.00  0.00     0.124 S 
ATOM     81  O   UNL A   1      54.862  27.274  25.592  1.00  0.00    -0.237 OA
ATOM     82  O   UNL A   1      54.429  26.511  23.279  1.00  0.00    -0.237 OA
ATOM     83  O   UNL A   1      53.375  28.570  24.106  1.00  0.00    -0.744 OA
ENDBRANCH  79  80
ENDBRANCH  51  74
BRANCH  63  84
ATOM     84  C   UNL A   1      46.523  32.031  27.837  1.00  0.00    -0.014 A 
ATOM     85  C   UNL A   1      46.490  32.973  28.868  1.00  0.00     0.010 A 
ATOM     86  C   UNL A   1      46.663  32.538  26.513  1.00  0.00     0.010 A 
ATOM     87  C   UNL A   1      46.548  34.344  28.596  1.00  0.00     0.020 A 
ATOM     88  C   UNL A   1      46.776  33.898  26.233  1.00  0.00     0.020 A 
ATOM     89  C   UNL A   1      46.695  34.797  27.283  1.00  0.00     0.054 A 
BRANCH  89  90
ATOM     90  S   UNL A   1      46.833  36.571  26.982  1.00  0.00     0.124 S 
ATOM     91  O   UNL A   1      47.640  36.603  25.765  1.00  0.00    -0.237 OA
ATOM     92  O   UNL A   1      45.438  36.976  26.822  1.00  0.00    -0.237 OA
ATOM     93  O   UNL A   1      47.489  37.082  28.183  1.00  0.00    -0.744 OA
ENDBRANCH  89  90
ENDBRANCH  63  84
ENDBRANCH  37  38
ENDBRANCH  30  32
ENDBRANCH  29  30
ENDBRANCH  28  29
ENDBRANCH  27  28
ENDBRANCH  26  27
ENDBRANCH  25  26
ENDBRANCH   1  25
TORSDOF 25
ENDMDL
MODEL 3
REMARK VINA RESULT:      -9.3      6.339     11.045
REMARK SMILES Cc1ccccc1C(=O)N1CSC[C@H]1C(=O)OCCOCCOCCOCCOC(=O)c1ccc(-c2c3nc(c(-c4ccc(S(=O)(=O)[O-])cc4)c4ccc([nH]4)c(-c4ccc(S(=O)(=O)[O-])cc4)c4nc(c(-c5ccc(S(=O)(=O)[O-])cc5)c5ccc2[nH]5)C=C4)C=C3)cc1
REMARK SMILES IDX 24 1 23 2 22 3 21 4 20 5 19 6 18 7 17 8 15 9 16 10 14 11
REMARK SMILES IDX 10 12 11 13 12 14 13 15 8 16 9 17 7 18 1 19 2 20 3 21 4 22
REMARK SMILES IDX 6 23 5 24 25 25 26 26 27 27 28 28 29 29 30 30 31 31 32 32
REMARK SMILES IDX 33 33 91 34 34 35 90 36 35 37 36 38 37 39 84 40 38 41 89 42
REMARK SMILES IDX 83 43 85 44 39 45 88 46 82 47 81 48 40 50 70 51 51 52 69 53
REMARK SMILES IDX 52 54 55 55 68 56 86 57 53 58 54 59 67 61 87 62 56 63 41 64
REMARK SMILES IDX 42 65 50 66 43 67 49 68 44 69 45 70 46 71 47 72 48 73 71 74
REMARK SMILES IDX 72 75 80 76 73 77 79 78 74 79 75 80 76 81 77 82 78 83 57 84
REMARK SMILES IDX 58 85 66 86 59 87 65 88 60 89 61 90 62 91 63 92 64 93
REMARK H PARENT 85 49 55 60
REMARK Flexibility Score: inf
ROOT
ATOM      1  C   UNL A   1      38.032  21.913  24.955  1.00  0.00     0.188 C 
ENDROOT
BRANCH   1   2
ATOM      2  O   UNL A   1      36.682  21.512  25.202  1.00  0.00    -0.377 OA
BRANCH   2   3
ATOM      3  C   UNL A   1      35.718  22.091  24.347  1.00  0.00     0.188 C 
BRANCH   3   4
ATOM      4  C   UNL A   1      35.629  23.634  24.325  1.00  0.00     0.188 C 
BRANCH   4   5
ATOM      5  O   UNL A   1      34.596  24.327  23.646  1.00  0.00    -0.376 OA
BRANCH   5   6
ATOM      6  C   UNL A   1      33.823  23.585  22.733  1.00  0.00     0.202 C 
BRANCH   6   7
ATOM      7  C   UNL A   1      32.783  24.338  21.927  1.00  0.00     0.261 C 
BRANCH   7   8
ATOM      8  O   UNL A   1      32.125  25.359  22.686  1.00  0.00    -0.462 OA
BRANCH   8   9
ATOM      9  C   UNL A   1      31.101  24.948  23.473  1.00  0.00     0.329 C 
ATOM     10  O   UNL A   1      30.239  24.161  23.150  1.00  0.00    -0.250 OA
BRANCH   9  11
ATOM     11  C   UNL A   1      31.141  25.637  24.848  1.00  0.00     0.206 C 
ATOM     12  N   UNL A   1      32.015  25.026  25.864  1.00  0.00    -0.315 N 
ATOM     13  C   UNL A   1      33.048  25.889  26.402  1.00  0.00     0.191 C 
ATOM     14  S   UNL A   1      32.423  27.568  26.195  1.00  0.00    -0.138 SA
ATOM     15  C   UNL A   1      31.444  27.129  24.726  1.00  0.00     0.108 C 
BRANCH  12  16
ATOM     16  C   UNL A   1      31.664  23.765  26.298  1.00  0.00     0.255 C 
ATOM     17  O   UNL A   1      30.805  23.581  27.157  1.00  0.00    -0.269 OA
BRANCH  16  18
ATOM     18  C   UNL A   1      32.400  22.558  25.889  1.00  0.00     0.042 A 
ATOM     19  C   UNL A   1      33.917  22.753  27.936  1.00  0.00     0.045 C 
ATOM     20  C   UNL A   1      33.301  21.981  26.804  1.00  0.00    -0.038 A 
ATOM     21  C   UNL A   1      33.604  20.619  26.668  1.00  0.00     0.004 A 
ATOM     22  C   UNL A   1      33.013  19.850  25.663  1.00  0.00     0.000 A 
ATOM     23  C   UNL A   1      31.846  21.794  24.848  1.00  0.00     0.014 A 
ATOM     24  C   UNL A   1      32.156  20.440  24.737  1.00  0.00     0.001 A 
ENDBRANCH  16  18
ENDBRANCH  12  16
ENDBRANCH   9  11
ENDBRANCH   8   9
ENDBRANCH   7   8
ENDBRANCH   6   7
ENDBRANCH   5   6
ENDBRANCH   4   5
ENDBRANCH   3   4
ENDBRANCH   2   3
ENDBRANCH   1   2
BRANCH   1  25
ATOM     25  C   UNL A   1      38.884  21.770  26.202  1.00  0.00     0.188 C 
BRANCH  25  26
ATOM     26  O   UNL A   1      40.052  21.057  25.809  1.00  0.00    -0.376 OA
BRANCH  26  27
ATOM     27  C   UNL A   1      40.556  20.094  26.698  1.00  0.00     0.202 C 
BRANCH  27  28
ATOM     28  C   UNL A   1      41.649  19.278  26.030  1.00  0.00     0.261 C 
BRANCH  28  29
ATOM     29  O   UNL A   1      42.934  19.853  26.367  1.00  0.00    -0.460 OA
BRANCH  29  30
ATOM     30  C   UNL A   1      43.596  20.458  25.335  1.00  0.00     0.338 C 
ATOM     31  O   UNL A   1      44.173  19.838  24.458  1.00  0.00    -0.246 OA
BRANCH  30  32
ATOM     32  C   UNL A   1      43.523  21.951  25.437  1.00  0.00     0.060 A 
ATOM     33  C   UNL A   1      44.004  22.781  24.409  1.00  0.00     0.016 A 
ATOM     34  C   UNL A   1      43.163  22.532  26.642  1.00  0.00     0.016 A 
ATOM     35  C   UNL A   1      44.272  24.154  24.639  1.00  0.00     0.010 A 
ATOM     36  C   UNL A   1      43.502  23.853  26.883  1.00  0.00     0.010 A 
ATOM     37  C   UNL A   1      44.082  24.692  25.910  1.00  0.00    -0.014 A 
BRANCH  37  38
ATOM     38  C   UNL A   1      44.529  26.017  26.430  1.00  0.00     0.031 A 
ATOM     39  C   UNL A   1      43.472  27.094  26.595  1.00  0.00     0.074 A 
ATOM     40  C   UNL A   1      45.682  26.098  27.151  1.00  0.00     0.049 A 
ATOM     41  N   UNL A   1      43.560  28.155  27.329  1.00  0.00    -0.248 NA
ATOM     42  C   UNL A   1      42.156  27.014  25.945  1.00  0.00     0.031 C 
ATOM     43  C   UNL A   1      45.868  26.865  28.389  1.00  0.00     0.029 A 
ATOM     44  N   UNL A   1      46.900  25.452  27.050  1.00  0.00    -0.354 N 
ATOM     45  C   UNL A   1      42.293  28.691  27.505  1.00  0.00     0.074 A 
ATOM     46  C   UNL A   1      41.461  27.971  26.575  1.00  0.00     0.031 C 
ATOM     47  C   UNL A   1      47.095  26.685  28.894  1.00  0.00     0.029 A 
ATOM     48  C   UNL A   1      47.868  26.081  27.846  1.00  0.00     0.049 A 
ATOM     49  H   UNL A   1      47.065  24.657  26.493  1.00  0.00     0.167 HD
ATOM     50  C   UNL A   1      42.072  29.598  28.509  1.00  0.00     0.031 A 
ATOM     51  C   UNL A   1      48.912  26.754  27.270  1.00  0.00     0.031 A 
ATOM     52  C   UNL A   1      43.340  30.080  29.092  1.00  0.00     0.049 A 
ATOM     53  C   UNL A   1      48.750  28.278  27.393  1.00  0.00     0.074 A 
ATOM     54  C   UNL A   1      43.848  30.215  30.376  1.00  0.00     0.029 A 
ATOM     55  N   UNL A   1      44.400  30.375  28.237  1.00  0.00    -0.354 N 
ATOM     56  N   UNL A   1      47.589  28.865  27.591  1.00  0.00    -0.248 NA
ATOM     57  C   UNL A   1      49.845  29.246  27.465  1.00  0.00     0.031 C 
ATOM     58  C   UNL A   1      45.259  30.389  30.271  1.00  0.00     0.029 A 
ATOM     59  C   UNL A   1      45.582  30.510  28.927  1.00  0.00     0.049 A 
ATOM     60  H   UNL A   1      44.314  30.475  27.261  1.00  0.00     0.167 HD
ATOM     61  C   UNL A   1      47.757  30.192  27.876  1.00  0.00     0.074 A 
ATOM     62  C   UNL A   1      49.189  30.391  27.750  1.00  0.00     0.031 C 
ATOM     63  C   UNL A   1      46.751  31.042  28.245  1.00  0.00     0.031 A 
BRANCH  50  64
ATOM     64  C   UNL A   1      40.711  29.977  29.115  1.00  0.00    -0.014 A 
ATOM     65  C   UNL A   1      40.651  31.024  30.066  1.00  0.00     0.010 A 
ATOM     66  C   UNL A   1      39.486  29.311  28.890  1.00  0.00     0.010 A 
ATOM     67  C   UNL A   1      39.477  31.378  30.755  1.00  0.00     0.020 A 
ATOM     68  C   UNL A   1      38.284  29.684  29.543  1.00  0.00     0.020 A 
ATOM     69  C   UNL A   1      38.290  30.714  30.481  1.00  0.00     0.054 A 
BRANCH  69  70
ATOM     70  S   UNL A   1      36.774  31.251  31.330  1.00  0.00     0.124 S 
ATOM     71  O   UNL A   1      36.392  30.060  32.086  1.00  0.00    -0.237 OA
ATOM     72  O   UNL A   1      37.241  32.377  32.134  1.00  0.00    -0.237 OA
ATOM     73  O   UNL A   1      35.869  31.608  30.239  1.00  0.00    -0.744 OA
ENDBRANCH  69  70
ENDBRANCH  50  64
BRANCH  51  74
ATOM     74  C   UNL A   1      49.640  25.852  26.302  1.00  0.00    -0.014 A 
ATOM     75  C   UNL A   1      49.745  26.425  25.006  1.00  0.00     0.010 A 
ATOM     76  C   UNL A   1      50.753  25.125  26.781  1.00  0.00     0.010 A 
ATOM     77  C   UNL A   1      51.000  26.604  24.405  1.00  0.00     0.020 A 
ATOM     78  C   UNL A   1      52.017  25.295  26.170  1.00  0.00     0.020 A 
ATOM     79  C   UNL A   1      52.140  26.109  25.038  1.00  0.00     0.054 A 
BRANCH  79  80
ATOM     80  S   UNL A   1      53.758  26.820  24.565  1.00  0.00     0.124 S 
ATOM     81  O   UNL A   1      53.563  28.242  24.812  1.00  0.00    -0.237 OA
ATOM     82  O   UNL A   1      54.681  26.137  25.473  1.00  0.00    -0.237 OA
ATOM     83  O   UNL A   1      53.894  26.433  23.165  1.00  0.00    -0.744 OA
ENDBRANCH  79  80
ENDBRANCH  51  74
BRANCH  63  84
ATOM     84  C   UNL A   1      46.738  32.540  28.008  1.00  0.00    -0.014 A 
ATOM     85  C   UNL A   1      46.893  33.481  29.029  1.00  0.00     0.010 A 
ATOM     86  C   UNL A   1      46.796  33.031  26.672  1.00  0.00     0.010 A 
ATOM     87  C   UNL A   1      47.053  34.841  28.740  1.00  0.00     0.020 A 
ATOM     88  C   UNL A   1      47.009  34.375  26.370  1.00  0.00     0.020 A 
ATOM     89  C   UNL A   1      47.115  35.278  27.415  1.00  0.00     0.054 A 
BRANCH  89  90
ATOM     90  S   UNL A   1      47.389  37.031  27.086  1.00  0.00     0.124 S 
ATOM     91  O   UNL A   1      46.728  37.195  25.794  1.00  0.00    -0.237 OA
ATOM     92  O   UNL A   1      46.725  37.674  28.217  1.00  0.00    -0.237 OA
ATOM     93  O   UNL A   1      48.844  37.162  27.068  1.00  0.00    -0.744 OA
ENDBRANCH  89  90
ENDBRANCH  63  84
ENDBRANCH  37  38
ENDBRANCH  30  32
ENDBRANCH  29  30
ENDBRANCH  28  29
ENDBRANCH  27  28
ENDBRANCH  26  27
ENDBRANCH  25  26
ENDBRANCH   1  25
TORSDOF 25
ENDMDL
