MODEL 1
REMARK VINA RESULT:      -9.8      0.000      0.000
REMARK SMILES O=C(OCCOCCOCCOCCOC(=O)[C@@H]1[C@H](C(=O)Nc2ccccc2Cc2ccccc2)[C@H]2C=C[C@@H]1O2)c1ccc(-c2c3nc(c(-c4ccc(S(=O)(=O)[O-])cc4)c4ccc([nH]4)c(-c4ccc(S(=O)(=O)[O-])cc4)c4nc(c(-c5ccc(S(=O)(=O)[O-])cc5)c5ccc2[nH]5)C=C4)C=C3)cc1
REMARK SMILES IDX 10 1 9 2 8 3 7 4 6 5 5 6 4 7 3 8 2 9 1 10 41 11 42 12 100 13
REMARK SMILES IDX 43 14 99 15 44 16 45 17 46 18 93 19 47 20 98 21 92 22 94 23
REMARK SMILES IDX 48 24 97 25 91 26 90 27 49 29 79 30 60 31 78 32 61 33 64 34
REMARK SMILES IDX 77 35 95 36 62 37 63 38 76 40 96 41 65 42 50 43 51 44 59 45
REMARK SMILES IDX 52 46 58 47 53 48 54 49 55 50 56 51 57 52 80 53 81 54 89 55
REMARK SMILES IDX 82 56 88 57 83 58 84 59 85 60 86 61 87 62 66 63 67 64 75 65
REMARK SMILES IDX 68 66 74 67 69 68 70 69 71 70 72 71 73 72 11 73 12 74 13 75
REMARK SMILES IDX 14 76 15 77 16 78 17 79 18 80 19 81 39 82 36 83 38 84 40 85
REMARK SMILES IDX 37 86 20 87 21 88 22 89 23 91 24 92 28 93 25 94 27 95 26 96
REMARK SMILES IDX 29 97 30 98 31 99 35 100 32 101 34 102 33 103
REMARK H PARENT 94 28 64 39 22 90
REMARK Flexibility Score: inf
ROOT
ATOM      1  C   UNL A   1      33.220  34.541  28.615  1.00  0.00     0.188 C 
ENDROOT
BRANCH   1   2
ATOM      2  O   UNL A   1      34.509  35.088  28.398  1.00  0.00    -0.377 OA
BRANCH   2   3
ATOM      3  C   UNL A   1      35.552  34.484  29.133  1.00  0.00     0.188 C 
BRANCH   3   4
ATOM      4  C   UNL A   1      35.942  33.108  28.613  1.00  0.00     0.188 C 
BRANCH   4   5
ATOM      5  O   UNL A   1      35.202  31.995  29.092  1.00  0.00    -0.376 OA
BRANCH   5   6
ATOM      6  C   UNL A   1      34.621  31.049  28.210  1.00  0.00     0.202 C 
BRANCH   6   7
ATOM      7  C   UNL A   1      35.136  29.607  28.230  1.00  0.00     0.261 C 
BRANCH   7   8
ATOM      8  O   UNL A   1      36.548  29.422  28.048  1.00  0.00    -0.460 OA
BRANCH   8   9
ATOM      9  C   UNL A   1      37.424  29.247  29.085  1.00  0.00     0.338 C 
ATOM     10  O   UNL A   1      37.135  29.569  30.215  1.00  0.00    -0.246 OA
BRANCH   9  11
ATOM     11  C   UNL A   1      38.851  29.038  28.697  1.00  0.00     0.060 A 
ATOM     12  C   UNL A   1      39.264  29.034  27.371  1.00  0.00     0.016 A 
ATOM     13  C   UNL A   1      39.814  28.935  29.715  1.00  0.00     0.016 A 
ATOM     14  C   UNL A   1      40.607  29.186  27.060  1.00  0.00     0.010 A 
ATOM     15  C   UNL A   1      41.179  28.916  29.396  1.00  0.00     0.010 A 
ATOM     16  C   UNL A   1      41.575  29.073  28.063  1.00  0.00    -0.014 A 
BRANCH  16  17
ATOM     17  C   UNL A   1      42.941  28.784  27.584  1.00  0.00     0.031 A 
ATOM     18  C   UNL A   1      43.942  29.891  27.793  1.00  0.00     0.074 A 
ATOM     19  C   UNL A   1      43.317  27.554  27.191  1.00  0.00     0.049 A 
ATOM     20  N   UNL A   1      45.242  29.862  27.706  1.00  0.00    -0.248 NA
ATOM     21  C   UNL A   1      43.401  31.186  28.260  1.00  0.00     0.031 C 
ATOM     22  C   UNL A   1      42.448  26.378  27.119  1.00  0.00     0.029 A 
ATOM     23  N   UNL A   1      44.548  27.081  26.816  1.00  0.00    -0.354 N 
ATOM     24  C   UNL A   1      45.668  31.101  28.168  1.00  0.00     0.074 A 
ATOM     25  C   UNL A   1      44.500  31.857  28.550  1.00  0.00     0.031 C 
ATOM     26  C   UNL A   1      43.176  25.320  26.713  1.00  0.00     0.029 A 
ATOM     27  C   UNL A   1      44.552  25.749  26.473  1.00  0.00     0.049 A 
ATOM     28  H   UNL A   1      45.356  27.643  26.794  1.00  0.00     0.167 HD
ATOM     29  C   UNL A   1      46.926  31.584  28.236  1.00  0.00     0.031 A 
ATOM     30  C   UNL A   1      45.560  24.985  26.001  1.00  0.00     0.031 A 
ATOM     31  C   UNL A   1      48.048  30.886  27.687  1.00  0.00     0.049 A 
ATOM     32  C   UNL A   1      46.919  25.635  25.856  1.00  0.00     0.074 A 
ATOM     33  C   UNL A   1      49.340  31.336  27.497  1.00  0.00     0.029 A 
ATOM     34  N   UNL A   1      47.987  29.592  27.188  1.00  0.00    -0.354 N 
ATOM     35  N   UNL A   1      47.309  26.829  26.245  1.00  0.00    -0.248 NA
ATOM     36  C   UNL A   1      47.969  24.846  25.198  1.00  0.00     0.031 C 
ATOM     37  C   UNL A   1      50.043  30.335  26.821  1.00  0.00     0.029 A 
ATOM     38  C   UNL A   1      49.209  29.236  26.656  1.00  0.00     0.049 A 
ATOM     39  H   UNL A   1      47.190  29.014  27.210  1.00  0.00     0.167 HD
ATOM     40  C   UNL A   1      48.651  26.925  25.897  1.00  0.00     0.074 A 
ATOM     41  C   UNL A   1      49.012  25.661  25.286  1.00  0.00     0.031 C 
ATOM     42  C   UNL A   1      49.514  27.961  26.056  1.00  0.00     0.031 A 
BRANCH  29  43
ATOM     43  C   UNL A   1      47.085  32.972  28.786  1.00  0.00    -0.014 A 
ATOM     44  C   UNL A   1      47.402  33.185  30.139  1.00  0.00     0.010 A 
ATOM     45  C   UNL A   1      46.842  34.077  27.953  1.00  0.00     0.010 A 
ATOM     46  C   UNL A   1      47.446  34.484  30.656  1.00  0.00     0.020 A 
ATOM     47  C   UNL A   1      46.902  35.376  28.460  1.00  0.00     0.020 A 
ATOM     48  C   UNL A   1      47.189  35.571  29.813  1.00  0.00     0.054 A 
BRANCH  48  49
ATOM     49  S   UNL A   1      47.250  37.246  30.508  1.00  0.00     0.124 S 
ATOM     50  O   UNL A   1      46.006  37.300  31.272  1.00  0.00    -0.237 OA
ATOM     51  O   UNL A   1      48.474  37.219  31.303  1.00  0.00    -0.237 OA
ATOM     52  O   UNL A   1      47.294  38.109  29.330  1.00  0.00    -0.744 OA
ENDBRANCH  48  49
ENDBRANCH  29  43
BRANCH  30  53
ATOM     53  C   UNL A   1      45.326  23.581  25.542  1.00  0.00    -0.014 A 
ATOM     54  C   UNL A   1      45.687  22.471  26.330  1.00  0.00     0.010 A 
ATOM     55  C   UNL A   1      44.806  23.346  24.254  1.00  0.00     0.010 A 
ATOM     56  C   UNL A   1      45.568  21.168  25.827  1.00  0.00     0.020 A 
ATOM     57  C   UNL A   1      44.657  22.046  23.759  1.00  0.00     0.020 A 
ATOM     58  C   UNL A   1      45.060  20.963  24.540  1.00  0.00     0.054 A 
BRANCH  58  59
ATOM     59  S   UNL A   1      44.922  19.270  23.898  1.00  0.00     0.124 S 
ATOM     60  O   UNL A   1      43.961  18.672  24.818  1.00  0.00    -0.237 OA
ATOM     61  O   UNL A   1      44.444  19.486  22.533  1.00  0.00    -0.237 OA
ATOM     62  O   UNL A   1      46.286  18.755  23.996  1.00  0.00    -0.744 OA
ENDBRANCH  58  59
ENDBRANCH  30  53
BRANCH  42  63
ATOM     63  C   UNL A   1      50.925  27.760  25.586  1.00  0.00    -0.014 A 
ATOM     64  C   UNL A   1      51.969  27.526  26.498  1.00  0.00     0.010 A 
ATOM     65  C   UNL A   1      51.190  27.717  24.205  1.00  0.00     0.010 A 
ATOM     66  C   UNL A   1      53.262  27.282  26.035  1.00  0.00     0.020 A 
ATOM     67  C   UNL A   1      52.475  27.443  23.738  1.00  0.00     0.020 A 
ATOM     68  C   UNL A   1      53.507  27.240  24.658  1.00  0.00     0.054 A 
BRANCH  68  69
ATOM     69  S   UNL A   1      55.183  26.864  24.081  1.00  0.00     0.124 S 
ATOM     70  O   UNL A   1      55.460  25.603  24.760  1.00  0.00    -0.237 OA
ATOM     71  O   UNL A   1      55.012  26.777  22.633  1.00  0.00    -0.237 OA
ATOM     72  O   UNL A   1      55.970  28.007  24.541  1.00  0.00    -0.744 OA
ENDBRANCH  68  69
ENDBRANCH  42  63
ENDBRANCH  16  17
ENDBRANCH   9  11
ENDBRANCH   8   9
ENDBRANCH   7   8
ENDBRANCH   6   7
ENDBRANCH   5   6
ENDBRANCH   4   5
ENDBRANCH   3   4
ENDBRANCH   2   3
ENDBRANCH   1   2
BRANCH   1  73
ATOM     73  C   UNL A   1      32.386  33.917  27.468  1.00  0.00     0.188 C 
BRANCH  73  74
ATOM     74  O   UNL A   1      31.816  32.617  27.525  1.00  0.00    -0.376 OA
BRANCH  74  75
ATOM     75  C   UNL A   1      31.378  31.852  26.419  1.00  0.00     0.202 C 
BRANCH  75  76
ATOM     76  C   UNL A   1      32.027  30.523  26.055  1.00  0.00     0.261 C 
BRANCH  76  77
ATOM     77  O   UNL A   1      31.750  29.470  26.987  1.00  0.00    -0.463 OA
BRANCH  77  78
ATOM     78  C   UNL A   1      31.536  28.274  26.420  1.00  0.00     0.312 C 
ATOM     79  O   UNL A   1      31.585  27.229  27.069  1.00  0.00    -0.252 OA
BRANCH  78  80
ATOM     80  C   UNL A   1      31.076  28.247  24.959  1.00  0.00     0.147 C 
ATOM     81  C   UNL A   1      31.855  27.061  24.395  1.00  0.00     0.129 C 
ATOM     82  C   UNL A   1      31.196  29.186  23.720  1.00  0.00     0.157 C 
ATOM     83  C   UNL A   1      31.982  27.336  22.915  1.00  0.00     0.155 C 
ATOM     84  C   UNL A   1      30.200  28.722  22.689  1.00  0.00     0.004 C 
ATOM     85  O   UNL A   1      32.390  28.723  23.028  1.00  0.00    -0.365 OA
ATOM     86  C   UNL A   1      30.650  27.539  22.249  1.00  0.00     0.004 C 
BRANCH  81  87
ATOM     87  C   UNL A   1      33.255  26.909  24.954  1.00  0.00     0.231 C 
ATOM     88  O   UNL A   1      33.909  27.971  25.018  1.00  0.00    -0.274 OA
ATOM     89  N   UNL A   1      33.942  25.844  25.424  1.00  0.00    -0.325 N 
ATOM     90  H   UNL A   1      34.839  26.228  25.561  1.00  0.00     0.169 HD
BRANCH  89  91
ATOM     91  C   UNL A   1      34.142  24.476  25.845  1.00  0.00     0.044 A 
ATOM     92  C   UNL A   1      32.986  24.131  26.618  1.00  0.00     0.026 A 
ATOM     93  C   UNL A   1      35.076  23.399  25.659  1.00  0.00    -0.020 A 
ATOM     94  C   UNL A   1      32.651  22.845  27.032  1.00  0.00     0.002 A 
ATOM     95  C   UNL A   1      34.636  22.083  25.991  1.00  0.00     0.006 A 
ATOM     96  C   UNL A   1      33.461  21.803  26.672  1.00  0.00     0.000 A 
BRANCH  93  97
ATOM     97  C   UNL A   1      36.485  23.332  25.073  1.00  0.00     0.073 C 
BRANCH  97  98
ATOM     98  C   UNL A   1      37.809  23.388  25.899  1.00  0.00    -0.044 A 
ATOM     99  C   UNL A   1      38.627  22.231  25.918  1.00  0.00     0.004 A 
ATOM    100  C   UNL A   1      38.230  24.437  26.731  1.00  0.00     0.004 A 
ATOM    101  C   UNL A   1      39.800  22.140  26.687  1.00  0.00     0.000 A 
ATOM    102  C   UNL A   1      39.395  24.342  27.521  1.00  0.00     0.000 A 
ATOM    103  C   UNL A   1      40.186  23.199  27.493  1.00  0.00     0.000 A 
ENDBRANCH  97  98
ENDBRANCH  93  97
ENDBRANCH  89  91
ENDBRANCH  81  87
ENDBRANCH  78  80
ENDBRANCH  77  78
ENDBRANCH  76  77
ENDBRANCH  75  76
ENDBRANCH  74  75
ENDBRANCH  73  74
ENDBRANCH   1  73
TORSDOF 27
ENDMDL
MODEL 2
REMARK VINA RESULT:      -9.8      2.292      8.473
REMARK SMILES O=C(OCCOCCOCCOCCOC(=O)[C@@H]1[C@H](C(=O)Nc2ccccc2Cc2ccccc2)[C@H]2C=C[C@@H]1O2)c1ccc(-c2c3nc(c(-c4ccc(S(=O)(=O)[O-])cc4)c4ccc([nH]4)c(-c4ccc(S(=O)(=O)[O-])cc4)c4nc(c(-c5ccc(S(=O)(=O)[O-])cc5)c5ccc2[nH]5)C=C4)C=C3)cc1
REMARK SMILES IDX 10 1 9 2 8 3 7 4 6 5 5 6 4 7 3 8 2 9 1 10 41 11 42 12 100 13
REMARK SMILES IDX 43 14 99 15 44 16 45 17 46 18 93 19 47 20 98 21 92 22 94 23
REMARK SMILES IDX 48 24 97 25 91 26 90 27 49 29 79 30 60 31 78 32 61 33 64 34
REMARK SMILES IDX 77 35 95 36 62 37 63 38 76 40 96 41 65 42 50 43 51 44 59 45
REMARK SMILES IDX 52 46 58 47 53 48 54 49 55 50 56 51 57 52 80 53 81 54 89 55
REMARK SMILES IDX 82 56 88 57 83 58 84 59 85 60 86 61 87 62 66 63 67 64 75 65
REMARK SMILES IDX 68 66 74 67 69 68 70 69 71 70 72 71 73 72 11 73 12 74 13 75
REMARK SMILES IDX 14 76 15 77 16 78 17 79 18 80 19 81 39 82 36 83 38 84 40 85
REMARK SMILES IDX 37 86 20 87 21 88 22 89 23 91 24 92 28 93 25 94 27 95 26 96
REMARK SMILES IDX 29 97 30 98 31 99 35 100 32 101 34 102 33 103
REMARK H PARENT 94 28 64 39 22 90
REMARK Flexibility Score: inf
ROOT
ATOM      1  C   UNL A   1      32.348  28.666  26.396  1.00  0.00     0.188 C 
ENDROOT
BRANCH   1   2
ATOM      2  O   UNL A   1      32.547  29.826  27.186  1.00  0.00    -0.377 OA
BRANCH   2   3
ATOM      3  C   UNL A   1      33.838  30.391  27.115  1.00  0.00     0.188 C 
BRANCH   3   4
ATOM      4  C   UNL A   1      33.930  31.772  27.744  1.00  0.00     0.188 C 
BRANCH   4   5
ATOM      5  O   UNL A   1      35.194  32.419  27.720  1.00  0.00    -0.376 OA
BRANCH   5   6
ATOM      6  C   UNL A   1      35.821  32.877  28.906  1.00  0.00     0.202 C 
BRANCH   6   7
ATOM      7  C   UNL A   1      35.765  31.997  30.158  1.00  0.00     0.261 C 
BRANCH   7   8
ATOM      8  O   UNL A   1      36.011  30.594  29.973  1.00  0.00    -0.460 OA
BRANCH   8   9
ATOM      9  C   UNL A   1      36.758  29.841  30.838  1.00  0.00     0.338 C 
ATOM     10  O   UNL A   1      36.380  29.613  31.965  1.00  0.00    -0.246 OA
BRANCH   9  11
ATOM     11  C   UNL A   1      38.197  29.677  30.473  1.00  0.00     0.060 A 
ATOM     12  C   UNL A   1      38.646  29.787  29.164  1.00  0.00     0.016 A 
ATOM     13  C   UNL A   1      39.134  29.496  31.506  1.00  0.00     0.016 A 
ATOM     14  C   UNL A   1      39.995  29.975  28.904  1.00  0.00     0.010 A 
ATOM     15  C   UNL A   1      40.507  29.515  31.224  1.00  0.00     0.010 A 
ATOM     16  C   UNL A   1      40.937  29.786  29.921  1.00  0.00    -0.014 A 
BRANCH  16  17
ATOM     17  C   UNL A   1      42.318  29.550  29.457  1.00  0.00     0.031 A 
ATOM     18  C   UNL A   1      42.607  28.147  28.987  1.00  0.00     0.074 A 
ATOM     19  C   UNL A   1      43.190  30.555  29.262  1.00  0.00     0.049 A 
ATOM     20  N   UNL A   1      43.624  27.691  28.312  1.00  0.00    -0.248 NA
ATOM     21  C   UNL A   1      41.550  27.142  29.233  1.00  0.00     0.031 C 
ATOM     22  C   UNL A   1      42.934  31.971  29.532  1.00  0.00     0.029 A 
ATOM     23  N   UNL A   1      44.461  30.539  28.748  1.00  0.00    -0.354 N 
ATOM     24  C   UNL A   1      43.297  26.377  28.000  1.00  0.00     0.074 A 
ATOM     25  C   UNL A   1      41.986  26.107  28.540  1.00  0.00     0.031 C 
ATOM     26  C   UNL A   1      44.023  32.686  29.189  1.00  0.00     0.029 A 
ATOM     27  C   UNL A   1      45.058  31.778  28.701  1.00  0.00     0.049 A 
ATOM     28  H   UNL A   1      44.906  29.717  28.441  1.00  0.00     0.167 HD
ATOM     29  C   UNL A   1      44.040  25.459  27.348  1.00  0.00     0.031 A 
ATOM     30  C   UNL A   1      46.309  32.116  28.320  1.00  0.00     0.031 A 
ATOM     31  C   UNL A   1      45.403  25.695  26.980  1.00  0.00     0.049 A 
ATOM     32  C   UNL A   1      47.209  31.009  27.819  1.00  0.00     0.074 A 
ATOM     33  C   UNL A   1      46.339  24.797  26.505  1.00  0.00     0.029 A 
ATOM     34  N   UNL A   1      46.037  26.923  27.101  1.00  0.00    -0.354 N 
ATOM     35  N   UNL A   1      46.913  29.751  27.574  1.00  0.00    -0.248 NA
ATOM     36  C   UNL A   1      48.611  31.356  27.556  1.00  0.00     0.031 C 
ATOM     37  C   UNL A   1      47.560  25.472  26.403  1.00  0.00     0.029 A 
ATOM     38  C   UNL A   1      47.364  26.804  26.745  1.00  0.00     0.049 A 
ATOM     39  H   UNL A   1      45.604  27.756  27.398  1.00  0.00     0.167 HD
ATOM     40  C   UNL A   1      48.085  29.165  27.112  1.00  0.00     0.074 A 
ATOM     41  C   UNL A   1      49.089  30.210  27.089  1.00  0.00     0.031 C 
ATOM     42  C   UNL A   1      48.324  27.880  26.743  1.00  0.00     0.031 A 
BRANCH  29  43
ATOM     43  C   UNL A   1      43.420  24.106  27.153  1.00  0.00    -0.014 A 
ATOM     44  C   UNL A   1      42.706  23.796  25.982  1.00  0.00     0.010 A 
ATOM     45  C   UNL A   1      43.491  23.158  28.189  1.00  0.00     0.010 A 
ATOM     46  C   UNL A   1      42.050  22.567  25.862  1.00  0.00     0.020 A 
ATOM     47  C   UNL A   1      42.852  21.923  28.066  1.00  0.00     0.020 A 
ATOM     48  C   UNL A   1      42.123  21.640  26.909  1.00  0.00     0.054 A 
BRANCH  48  49
ATOM     49  S   UNL A   1      41.261  20.054  26.730  1.00  0.00     0.124 S 
ATOM     50  O   UNL A   1      40.168  20.405  25.826  1.00  0.00    -0.237 OA
ATOM     51  O   UNL A   1      42.293  19.191  26.162  1.00  0.00    -0.237 OA
ATOM     52  O   UNL A   1      40.858  19.723  28.094  1.00  0.00    -0.744 OA
ENDBRANCH  48  49
ENDBRANCH  29  43
BRANCH  30  53
ATOM     53  C   UNL A   1      46.823  33.512  28.482  1.00  0.00    -0.014 A 
ATOM     54  C   UNL A   1      47.325  33.981  29.709  1.00  0.00     0.010 A 
ATOM     55  C   UNL A   1      46.732  34.417  27.406  1.00  0.00     0.010 A 
ATOM     56  C   UNL A   1      47.688  35.326  29.867  1.00  0.00     0.020 A 
ATOM     57  C   UNL A   1      47.121  35.753  27.549  1.00  0.00     0.020 A 
ATOM     58  C   UNL A   1      47.577  36.207  28.786  1.00  0.00     0.054 A 
BRANCH  58  59
ATOM     59  S   UNL A   1      48.040  37.949  29.007  1.00  0.00     0.124 S 
ATOM     60  O   UNL A   1      49.467  37.851  29.294  1.00  0.00    -0.237 OA
ATOM     61  O   UNL A   1      47.691  38.537  27.715  1.00  0.00    -0.237 OA
ATOM     62  O   UNL A   1      47.206  38.385  30.125  1.00  0.00    -0.744 OA
ENDBRANCH  58  59
ENDBRANCH  30  53
BRANCH  42  63
ATOM     63  C   UNL A   1      49.707  27.546  26.266  1.00  0.00    -0.014 A 
ATOM     64  C   UNL A   1      50.708  27.139  27.166  1.00  0.00     0.010 A 
ATOM     65  C   UNL A   1      49.980  27.557  24.886  1.00  0.00     0.010 A 
ATOM     66  C   UNL A   1      51.969  26.777  26.692  1.00  0.00     0.020 A 
ATOM     67  C   UNL A   1      51.229  27.166  24.408  1.00  0.00     0.020 A 
ATOM     68  C   UNL A   1      52.222  26.790  25.316  1.00  0.00     0.054 A 
BRANCH  68  69
ATOM     69  S   UNL A   1      53.849  26.260  24.723  1.00  0.00     0.124 S 
ATOM     70  O   UNL A   1      53.529  25.012  24.038  1.00  0.00    -0.237 OA
ATOM     71  O   UNL A   1      54.253  27.367  23.860  1.00  0.00    -0.237 OA
ATOM     72  O   UNL A   1      54.634  26.116  25.949  1.00  0.00    -0.744 OA
ENDBRANCH  68  69
ENDBRANCH  42  63
ENDBRANCH  16  17
ENDBRANCH   9  11
ENDBRANCH   8   9
ENDBRANCH   7   8
ENDBRANCH   6   7
ENDBRANCH   5   6
ENDBRANCH   4   5
ENDBRANCH   3   4
ENDBRANCH   2   3
ENDBRANCH   1   2
BRANCH   1  73
ATOM     73  C   UNL A   1      31.936  27.307  27.016  1.00  0.00     0.188 C 
BRANCH  73  74
ATOM     74  O   UNL A   1      30.808  26.556  26.589  1.00  0.00    -0.376 OA
BRANCH  74  75
ATOM     75  C   UNL A   1      30.825  25.217  26.137  1.00  0.00     0.202 C 
BRANCH  75  76
ATOM     76  C   UNL A   1      31.649  24.144  26.837  1.00  0.00     0.261 C 
BRANCH  76  77
ATOM     77  O   UNL A   1      32.344  23.269  25.938  1.00  0.00    -0.463 OA
BRANCH  77  78
ATOM     78  C   UNL A   1      31.683  22.141  25.646  1.00  0.00     0.312 C 
ATOM     79  O   UNL A   1      30.473  22.136  25.420  1.00  0.00    -0.252 OA
BRANCH  78  80
ATOM     80  C   UNL A   1      32.503  20.862  25.450  1.00  0.00     0.147 C 
ATOM     81  C   UNL A   1      33.208  21.128  24.122  1.00  0.00     0.129 C 
ATOM     82  C   UNL A   1      32.200  19.348  25.228  1.00  0.00     0.157 C 
ATOM     83  C   UNL A   1      33.497  19.761  23.544  1.00  0.00     0.155 C 
ATOM     84  C   UNL A   1      33.472  18.579  25.481  1.00  0.00     0.004 C 
ATOM     85  O   UNL A   1      32.185  19.190  23.782  1.00  0.00    -0.365 OA
ATOM     86  C   UNL A   1      34.299  18.898  24.477  1.00  0.00     0.004 C 
BRANCH  81  87
ATOM     87  C   UNL A   1      32.372  21.885  23.111  1.00  0.00     0.231 C 
ATOM     88  O   UNL A   1      31.553  21.182  22.482  1.00  0.00    -0.274 OA
ATOM     89  N   UNL A   1      32.318  23.189  22.761  1.00  0.00    -0.325 N 
ATOM     90  H   UNL A   1      31.709  23.165  21.987  1.00  0.00     0.169 HD
BRANCH  89  91
ATOM     91  C   UNL A   1      32.624  24.598  22.848  1.00  0.00     0.044 A 
ATOM     92  C   UNL A   1      31.687  25.257  21.988  1.00  0.00     0.026 A 
ATOM     93  C   UNL A   1      33.499  25.487  23.565  1.00  0.00    -0.020 A 
ATOM     94  C   UNL A   1      31.472  26.631  21.936  1.00  0.00     0.002 A 
ATOM     95  C   UNL A   1      33.162  26.873  23.576  1.00  0.00     0.006 A 
ATOM     96  C   UNL A   1      32.184  27.444  22.776  1.00  0.00     0.000 A 
BRANCH  93  97
ATOM     97  C   UNL A   1      34.730  25.255  24.439  1.00  0.00     0.073 C 
BRANCH  97  98
ATOM     98  C   UNL A   1      35.470  23.890  24.609  1.00  0.00    -0.044 A 
ATOM     99  C   UNL A   1      35.573  23.352  25.917  1.00  0.00     0.004 A 
ATOM    100  C   UNL A   1      36.155  23.181  23.611  1.00  0.00     0.004 A 
ATOM    101  C   UNL A   1      36.282  22.172  26.201  1.00  0.00     0.000 A 
ATOM    102  C   UNL A   1      36.885  22.008  23.896  1.00  0.00     0.000 A 
ATOM    103  C   UNL A   1      36.941  21.496  25.187  1.00  0.00     0.000 A 
ENDBRANCH  97  98
ENDBRANCH  93  97
ENDBRANCH  89  91
ENDBRANCH  81  87
ENDBRANCH  78  80
ENDBRANCH  77  78
ENDBRANCH  76  77
ENDBRANCH  75  76
ENDBRANCH  74  75
ENDBRANCH  73  74
ENDBRANCH   1  73
TORSDOF 27
ENDMDL
MODEL 3
REMARK VINA RESULT:      -9.2      6.478     11.943
REMARK SMILES O=C(OCCOCCOCCOCCOC(=O)[C@@H]1[C@H](C(=O)Nc2ccccc2Cc2ccccc2)[C@H]2C=C[C@@H]1O2)c1ccc(-c2c3nc(c(-c4ccc(S(=O)(=O)[O-])cc4)c4ccc([nH]4)c(-c4ccc(S(=O)(=O)[O-])cc4)c4nc(c(-c5ccc(S(=O)(=O)[O-])cc5)c5ccc2[nH]5)C=C4)C=C3)cc1
REMARK SMILES IDX 10 1 9 2 8 3 7 4 6 5 5 6 4 7 3 8 2 9 1 10 41 11 42 12 100 13
REMARK SMILES IDX 43 14 99 15 44 16 45 17 46 18 93 19 47 20 98 21 92 22 94 23
REMARK SMILES IDX 48 24 97 25 91 26 90 27 49 29 79 30 60 31 78 32 61 33 64 34
REMARK SMILES IDX 77 35 95 36 62 37 63 38 76 40 96 41 65 42 50 43 51 44 59 45
REMARK SMILES IDX 52 46 58 47 53 48 54 49 55 50 56 51 57 52 80 53 81 54 89 55
REMARK SMILES IDX 82 56 88 57 83 58 84 59 85 60 86 61 87 62 66 63 67 64 75 65
REMARK SMILES IDX 68 66 74 67 69 68 70 69 71 70 72 71 73 72 11 73 12 74 13 75
REMARK SMILES IDX 14 76 15 77 16 78 17 79 18 80 19 81 39 82 36 83 38 84 40 85
REMARK SMILES IDX 37 86 20 87 21 88 22 89 23 91 24 92 28 93 25 94 27 95 26 96
REMARK SMILES IDX 29 97 30 98 31 99 35 100 32 101 34 102 33 103
REMARK H PARENT 94 28 64 39 22 90
REMARK Flexibility Score: inf
ROOT
ATOM      1  C   UNL A   1      32.569  28.608  26.425  1.00  0.00     0.188 C 
ENDROOT
BRANCH   1   2
ATOM      2  O   UNL A   1      32.589  29.735  27.285  1.00  0.00    -0.377 OA
BRANCH   2   3
ATOM      3  C   UNL A   1      33.812  30.438  27.329  1.00  0.00     0.188 C 
BRANCH   3   4
ATOM      4  C   UNL A   1      33.646  31.923  27.617  1.00  0.00     0.188 C 
BRANCH   4   5
ATOM      5  O   UNL A   1      34.822  32.718  27.645  1.00  0.00    -0.376 OA
BRANCH   5   6
ATOM      6  C   UNL A   1      34.932  33.860  28.478  1.00  0.00     0.202 C 
BRANCH   6   7
ATOM      7  C   UNL A   1      34.338  33.805  29.888  1.00  0.00     0.261 C 
BRANCH   7   8
ATOM      8  O   UNL A   1      34.688  32.668  30.693  1.00  0.00    -0.460 OA
BRANCH   8   9
ATOM      9  C   UNL A   1      34.811  32.720  32.056  1.00  0.00     0.338 C 
ATOM     10  O   UNL A   1      33.839  32.772  32.774  1.00  0.00    -0.246 OA
BRANCH   9  11
ATOM     11  C   UNL A   1      36.156  33.119  32.568  1.00  0.00     0.060 A 
ATOM     12  C   UNL A   1      36.676  34.391  32.371  1.00  0.00     0.016 A 
ATOM     13  C   UNL A   1      36.874  32.199  33.352  1.00  0.00     0.016 A 
ATOM     14  C   UNL A   1      37.744  34.833  33.137  1.00  0.00     0.010 A 
ATOM     15  C   UNL A   1      38.055  32.592  33.997  1.00  0.00     0.010 A 
ATOM     16  C   UNL A   1      38.473  33.925  33.912  1.00  0.00    -0.014 A 
BRANCH  16  17
ATOM     17  C   UNL A   1      39.823  34.377  34.300  1.00  0.00     0.031 A 
ATOM     18  C   UNL A   1      40.847  34.366  33.194  1.00  0.00     0.074 A 
ATOM     19  C   UNL A   1      40.070  34.959  35.487  1.00  0.00     0.049 A 
ATOM     20  N   UNL A   1      42.027  34.917  33.150  1.00  0.00    -0.248 NA
ATOM     21  C   UNL A   1      40.437  33.723  31.927  1.00  0.00     0.031 C 
ATOM     22  C   UNL A   1      39.091  35.166  36.556  1.00  0.00     0.029 A 
ATOM     23  N   UNL A   1      41.219  35.526  35.975  1.00  0.00    -0.354 N 
ATOM     24  C   UNL A   1      42.463  34.744  31.842  1.00  0.00     0.074 A 
ATOM     25  C   UNL A   1      41.424  34.056  31.116  1.00  0.00     0.031 C 
ATOM     26  C   UNL A   1      39.689  35.804  37.581  1.00  0.00     0.029 A 
ATOM     27  C   UNL A   1      41.094  36.030  37.250  1.00  0.00     0.049 A 
ATOM     28  H   UNL A   1      42.057  35.568  35.461  1.00  0.00     0.167 HD
ATOM     29  C   UNL A   1      43.646  35.099  31.298  1.00  0.00     0.031 A 
ATOM     30  C   UNL A   1      42.028  36.588  38.049  1.00  0.00     0.031 A 
ATOM     31  C   UNL A   1      44.726  35.620  32.080  1.00  0.00     0.049 A 
ATOM     32  C   UNL A   1      43.423  36.748  37.486  1.00  0.00     0.074 A 
ATOM     33  C   UNL A   1      46.040  35.829  31.709  1.00  0.00     0.029 A 
ATOM     34  N   UNL A   1      44.617  35.964  33.419  1.00  0.00    -0.354 N 
ATOM     35  N   UNL A   1      43.849  36.534  36.260  1.00  0.00    -0.248 NA
ATOM     36  C   UNL A   1      44.467  37.210  38.410  1.00  0.00     0.031 C 
ATOM     37  C   UNL A   1      46.741  36.238  32.848  1.00  0.00     0.029 A 
ATOM     38  C   UNL A   1      45.848  36.352  33.906  1.00  0.00     0.049 A 
ATOM     39  H   UNL A   1      43.785  35.936  33.945  1.00  0.00     0.167 HD
ATOM     40  C   UNL A   1      45.202  36.853  36.263  1.00  0.00     0.074 A 
ATOM     41  C   UNL A   1      45.519  37.296  37.606  1.00  0.00     0.031 C 
ATOM     42  C   UNL A   1      46.110  36.782  35.257  1.00  0.00     0.031 A 
BRANCH  29  43
ATOM     43  C   UNL A   1      43.839  34.783  29.843  1.00  0.00    -0.014 A 
ATOM     44  C   UNL A   1      43.345  35.638  28.842  1.00  0.00     0.010 A 
ATOM     45  C   UNL A   1      44.460  33.577  29.475  1.00  0.00     0.010 A 
ATOM     46  C   UNL A   1      43.445  35.276  27.495  1.00  0.00     0.020 A 
ATOM     47  C   UNL A   1      44.578  33.220  28.130  1.00  0.00     0.020 A 
ATOM     48  C   UNL A   1      44.056  34.066  27.149  1.00  0.00     0.054 A 
BRANCH  48  49
ATOM     49  S   UNL A   1      44.172  33.618  25.394  1.00  0.00     0.124 S 
ATOM     50  O   UNL A   1      43.900  32.183  25.431  1.00  0.00    -0.237 OA
ATOM     51  O   UNL A   1      43.129  34.439  24.785  1.00  0.00    -0.237 OA
ATOM     52  O   UNL A   1      45.539  33.982  25.033  1.00  0.00    -0.744 OA
ENDBRANCH  48  49
ENDBRANCH  29  43
BRANCH  30  53
ATOM     53  C   UNL A   1      41.727  36.942  39.470  1.00  0.00    -0.014 A 
ATOM     54  C   UNL A   1      41.606  35.961  40.471  1.00  0.00     0.010 A 
ATOM     55  C   UNL A   1      41.474  38.285  39.816  1.00  0.00     0.010 A 
ATOM     56  C   UNL A   1      41.205  36.307  41.770  1.00  0.00     0.020 A 
ATOM     57  C   UNL A   1      41.103  38.640  41.117  1.00  0.00     0.020 A 
ATOM     58  C   UNL A   1      40.948  37.646  42.083  1.00  0.00     0.054 A 
BRANCH  58  59
ATOM     59  S   UNL A   1      40.419  38.080  43.765  1.00  0.00     0.124 S 
ATOM     60  O   UNL A   1      39.467  39.157  43.517  1.00  0.00    -0.237 OA
ATOM     61  O   UNL A   1      39.847  36.826  44.252  1.00  0.00    -0.237 OA
ATOM     62  O   UNL A   1      41.662  38.483  44.421  1.00  0.00    -0.744 OA
ENDBRANCH  58  59
ENDBRANCH  30  53
BRANCH  42  63
ATOM     63  C   UNL A   1      47.514  37.214  35.565  1.00  0.00    -0.014 A 
ATOM     64  C   UNL A   1      48.439  36.324  36.136  1.00  0.00     0.010 A 
ATOM     65  C   UNL A   1      47.932  38.505  35.195  1.00  0.00     0.010 A 
ATOM     66  C   UNL A   1      49.756  36.730  36.358  1.00  0.00     0.020 A 
ATOM     67  C   UNL A   1      49.254  38.904  35.387  1.00  0.00     0.020 A 
ATOM     68  C   UNL A   1      50.155  38.017  35.981  1.00  0.00     0.054 A 
BRANCH  68  69
ATOM     69  S   UNL A   1      51.884  38.500  36.227  1.00  0.00     0.124 S 
ATOM     70  O   UNL A   1      52.514  37.221  36.539  1.00  0.00    -0.237 OA
ATOM     71  O   UNL A   1      52.242  39.081  34.936  1.00  0.00    -0.237 OA
ATOM     72  O   UNL A   1      51.822  39.452  37.336  1.00  0.00    -0.744 OA
ENDBRANCH  68  69
ENDBRANCH  42  63
ENDBRANCH  16  17
ENDBRANCH   9  11
ENDBRANCH   8   9
ENDBRANCH   7   8
ENDBRANCH   6   7
ENDBRANCH   5   6
ENDBRANCH   4   5
ENDBRANCH   3   4
ENDBRANCH   2   3
ENDBRANCH   1   2
BRANCH   1  73
ATOM     73  C   UNL A   1      32.186  27.194  26.929  1.00  0.00     0.188 C 
BRANCH  73  74
ATOM     74  O   UNL A   1      30.994  26.519  26.551  1.00  0.00    -0.376 OA
BRANCH  74  75
ATOM     75  C   UNL A   1      30.904  25.181  26.101  1.00  0.00     0.202 C 
BRANCH  75  76
ATOM     76  C   UNL A   1      31.596  24.040  26.836  1.00  0.00     0.261 C 
BRANCH  76  77
ATOM     77  O   UNL A   1      32.329  23.159  25.974  1.00  0.00    -0.463 OA
BRANCH  77  78
ATOM     78  C   UNL A   1      31.680  22.029  25.660  1.00  0.00     0.312 C 
ATOM     79  O   UNL A   1      30.477  22.022  25.397  1.00  0.00    -0.252 OA
BRANCH  78  80
ATOM     80  C   UNL A   1      32.509  20.752  25.488  1.00  0.00     0.147 C 
ATOM     81  C   UNL A   1      33.265  21.029  24.190  1.00  0.00     0.129 C 
ATOM     82  C   UNL A   1      32.216  19.240  25.242  1.00  0.00     0.157 C 
ATOM     83  C   UNL A   1      33.579  19.667  23.614  1.00  0.00     0.155 C 
ATOM     84  C   UNL A   1      33.477  18.470  25.539  1.00  0.00     0.004 C 
ATOM     85  O   UNL A   1      32.259  19.093  23.795  1.00  0.00    -0.365 OA
ATOM     86  C   UNL A   1      34.344  18.797  24.571  1.00  0.00     0.004 C 
BRANCH  81  87
ATOM     87  C   UNL A   1      32.470  21.793  23.153  1.00  0.00     0.231 C 
ATOM     88  O   UNL A   1      31.654  21.101  22.508  1.00  0.00    -0.274 OA
ATOM     89  N   UNL A   1      32.449  23.095  22.792  1.00  0.00    -0.325 N 
ATOM     90  H   UNL A   1      31.859  23.076  22.003  1.00  0.00     0.169 HD
BRANCH  89  91
ATOM     91  C   UNL A   1      32.779  24.500  22.876  1.00  0.00     0.044 A 
ATOM     92  C   UNL A   1      31.961  25.154  21.900  1.00  0.00     0.026 A 
ATOM     93  C   UNL A   1      33.590  25.388  23.664  1.00  0.00    -0.020 A 
ATOM     94  C   UNL A   1      31.787  26.531  21.789  1.00  0.00     0.002 A 
ATOM     95  C   UNL A   1      33.288  26.782  23.601  1.00  0.00     0.006 A 
ATOM     96  C   UNL A   1      32.421  27.351  22.682  1.00  0.00     0.000 A 
BRANCH  93  97
ATOM     97  C   UNL A   1      34.709  25.154  24.677  1.00  0.00     0.073 C 
BRANCH  97  98
ATOM     98  C   UNL A   1      35.578  23.861  24.776  1.00  0.00    -0.044 A 
ATOM     99  C   UNL A   1      36.150  23.354  23.583  1.00  0.00     0.004 A 
ATOM    100  C   UNL A   1      35.766  23.067  25.918  1.00  0.00     0.004 A 
ATOM    101  C   UNL A   1      36.886  22.157  23.538  1.00  0.00     0.000 A 
ATOM    102  C   UNL A   1      36.485  21.854  25.874  1.00  0.00     0.000 A 
ATOM    103  C   UNL A   1      37.054  21.403  24.688  1.00  0.00     0.000 A 
ENDBRANCH  97  98
ENDBRANCH  93  97
ENDBRANCH  89  91
ENDBRANCH  81  87
ENDBRANCH  78  80
ENDBRANCH  77  78
ENDBRANCH  76  77
ENDBRANCH  75  76
ENDBRANCH  74  75
ENDBRANCH  73  74
ENDBRANCH   1  73
TORSDOF 27
ENDMDL
