MODEL 1
REMARK VINA RESULT:      -8.0      0.000      0.000
REMARK SMILES CCCC[C@@H](C(=O)OCCOCCOCCOCCOC(=O)c1ccc(-c2c3nc(c(-c4ccc(S(=O)(=O)[O-])cc4)c4ccc([nH]4)c(-c4ccc(S(=O)(=O)[O-])cc4)c4nc(c(-c5ccc(S(=O)(=O)[O-])cc5)c5ccc2[nH]5)C=C4)C=C3)cc1)[C@@]1(O)CCC[C@H](CC)C1
REMARK SMILES IDX 14 1 13 2 12 3 11 4 10 5 9 6 8 7 6 8 7 9 5 10 4 11 3 12 2 13
REMARK SMILES IDX 1 14 83 15 85 16 91 17 86 18 88 19 87 20 84 21 89 23 90 24
REMARK SMILES IDX 15 25 16 26 17 27 18 28 19 29 20 30 21 31 22 32 23 33 24 34
REMARK SMILES IDX 82 35 25 36 81 37 26 38 27 39 28 40 75 41 29 42 80 43 74 44
REMARK SMILES IDX 76 45 30 46 79 47 73 48 72 49 31 51 61 52 42 53 60 54 43 55
REMARK SMILES IDX 46 56 59 57 77 58 44 59 45 60 58 62 78 63 47 64 32 65 33 66
REMARK SMILES IDX 41 67 34 68 40 69 35 70 36 71 37 72 38 73 39 74 62 75 63 76
REMARK SMILES IDX 71 77 64 78 70 79 65 80 66 81 67 82 68 83 69 84 48 85 49 86
REMARK SMILES IDX 57 87 50 88 56 89 51 90 52 91 53 92 54 93 55 94
REMARK H PARENT 84 22 76 50 46 61
REMARK Flexibility Score: inf
ROOT
ATOM      1  O   UNL A   1      34.258  29.247  27.119  1.00  0.00    -0.377 OA
ENDROOT
BRANCH   1   2
ATOM      2  C   UNL A   1      33.598  29.574  25.915  1.00  0.00     0.188 C 
BRANCH   2   3
ATOM      3  C   UNL A   1      32.063  29.488  25.973  1.00  0.00     0.188 C 
BRANCH   3   4
ATOM      4  O   UNL A   1      31.265  30.222  25.060  1.00  0.00    -0.376 OA
BRANCH   4   5
ATOM      5  C   UNL A   1      30.611  29.545  23.995  1.00  0.00     0.202 C 
BRANCH   5   6
ATOM      6  C   UNL A   1      30.130  28.086  24.137  1.00  0.00     0.261 C 
BRANCH   6   7
ATOM      7  O   UNL A   1      30.914  27.053  23.501  1.00  0.00    -0.463 OA
BRANCH   7   8
ATOM      8  C   UNL A   1      30.419  25.794  23.499  1.00  0.00     0.311 C 
ATOM      9  O   UNL A   1      29.214  25.547  23.500  1.00  0.00    -0.252 OA
BRANCH   8  10
ATOM     10  C   UNL A   1      31.480  24.669  23.511  1.00  0.00     0.131 C 
BRANCH  10  11
ATOM     11  C   UNL A   1      31.430  23.573  24.603  1.00  0.00     0.018 C 
BRANCH  11  12
ATOM     12  C   UNL A   1      30.904  23.852  26.013  1.00  0.00     0.001 C 
BRANCH  12  13
ATOM     13  C   UNL A   1      31.295  22.823  27.072  1.00  0.00    -0.003 C 
ATOM     14  C   UNL A   1      32.787  22.508  27.090  1.00  0.00     0.004 C 
ENDBRANCH  12  13
ENDBRANCH  11  12
ENDBRANCH  10  11
BRANCH  10  15
ATOM     15  C   UNL A   1      32.946  25.295  23.329  1.00  0.00     0.078 C 
ATOM     16  C   UNL A   1      33.511  26.251  24.410  1.00  0.00     0.036 C 
ATOM     17  C   UNL A   1      34.012  24.215  23.035  1.00  0.00     0.039 C 
ATOM     18  C   UNL A   1      34.200  25.613  25.614  1.00  0.00     0.003 C 
ATOM     19  C   UNL A   1      34.666  23.558  24.268  1.00  0.00    -0.009 C 
ATOM     20  C   UNL A   1      35.276  24.622  25.181  1.00  0.00     0.004 C 
BRANCH  15  21
ATOM     21  O   UNL A   1      32.919  26.080  22.109  1.00  0.00    -0.389 OA
ATOM     22  H   UNL A   1      32.563  26.961  22.300  1.00  0.00     0.211 HD
ENDBRANCH  15  21
BRANCH  19  23
ATOM     23  C   UNL A   1      35.685  22.495  23.836  1.00  0.00     0.000 C 
ATOM     24  C   UNL A   1      36.181  21.692  25.037  1.00  0.00     0.004 C 
ENDBRANCH  19  23
ENDBRANCH  10  15
ENDBRANCH   8  10
ENDBRANCH   7   8
ENDBRANCH   6   7
ENDBRANCH   5   6
ENDBRANCH   4   5
ENDBRANCH   3   4
ENDBRANCH   2   3
ENDBRANCH   1   2
BRANCH   1  25
ATOM     25  C   UNL A   1      35.051  30.275  27.690  1.00  0.00     0.188 C 
BRANCH  25  26
ATOM     26  C   UNL A   1      34.358  31.628  27.937  1.00  0.00     0.188 C 
BRANCH  26  27
ATOM     27  O   UNL A   1      35.164  32.748  27.581  1.00  0.00    -0.376 OA
BRANCH  27  28
ATOM     28  C   UNL A   1      35.000  33.970  28.286  1.00  0.00     0.202 C 
BRANCH  28  29
ATOM     29  C   UNL A   1      33.702  34.183  29.082  1.00  0.00     0.261 C 
BRANCH  29  30
ATOM     30  O   UNL A   1      33.635  35.334  29.935  1.00  0.00    -0.460 OA
BRANCH  30  31
ATOM     31  C   UNL A   1      33.280  35.171  31.226  1.00  0.00     0.338 C 
ATOM     32  O   UNL A   1      32.174  35.326  31.711  1.00  0.00    -0.246 OA
BRANCH  31  33
ATOM     33  C   UNL A   1      34.434  34.551  31.913  1.00  0.00     0.060 A 
ATOM     34  C   UNL A   1      35.623  35.283  32.056  1.00  0.00     0.016 A 
ATOM     35  C   UNL A   1      34.324  33.267  32.450  1.00  0.00     0.016 A 
ATOM     36  C   UNL A   1      36.714  34.724  32.723  1.00  0.00     0.010 A 
ATOM     37  C   UNL A   1      35.427  32.696  33.086  1.00  0.00     0.010 A 
ATOM     38  C   UNL A   1      36.634  33.409  33.196  1.00  0.00    -0.014 A 
BRANCH  38  39
ATOM     39  C   UNL A   1      37.863  32.669  33.565  1.00  0.00     0.031 A 
ATOM     40  C   UNL A   1      38.390  32.863  34.959  1.00  0.00     0.074 A 
ATOM     41  C   UNL A   1      38.514  31.882  32.690  1.00  0.00     0.049 A 
ATOM     42  N   UNL A   1      39.524  32.478  35.480  1.00  0.00    -0.248 NA
ATOM     43  C   UNL A   1      37.519  33.607  35.888  1.00  0.00     0.031 C 
ATOM     44  C   UNL A   1      38.063  31.557  31.338  1.00  0.00     0.029 A 
ATOM     45  N   UNL A   1      39.715  31.228  32.812  1.00  0.00    -0.354 N 
ATOM     46  C   UNL A   1      39.512  32.949  36.788  1.00  0.00     0.074 A 
ATOM     47  C   UNL A   1      38.269  33.664  36.977  1.00  0.00     0.031 C 
ATOM     48  C   UNL A   1      38.991  30.782  30.746  1.00  0.00     0.029 A 
ATOM     49  C   UNL A   1      40.120  30.600  31.658  1.00  0.00     0.049 A 
ATOM     50  H   UNL A   1      40.237  31.210  33.647  1.00  0.00     0.167 HD
ATOM     51  C   UNL A   1      40.456  32.804  37.746  1.00  0.00     0.031 A 
ATOM     52  C   UNL A   1      41.285  29.987  31.364  1.00  0.00     0.031 A 
ATOM     53  C   UNL A   1      41.698  32.114  37.540  1.00  0.00     0.049 A 
ATOM     54  C   UNL A   1      42.369  29.924  32.414  1.00  0.00     0.074 A 
ATOM     55  C   UNL A   1      42.730  31.915  38.441  1.00  0.00     0.029 A 
ATOM     56  N   UNL A   1      42.080  31.515  36.349  1.00  0.00    -0.354 N 
ATOM     57  N   UNL A   1      42.351  30.376  33.647  1.00  0.00    -0.248 NA
ATOM     58  C   UNL A   1      43.630  29.269  32.036  1.00  0.00     0.031 C 
ATOM     59  C   UNL A   1      43.761  31.248  37.775  1.00  0.00     0.029 A 
ATOM     60  C   UNL A   1      43.341  30.965  36.484  1.00  0.00     0.049 A 
ATOM     61  H   UNL A   1      41.534  31.486  35.531  1.00  0.00     0.167 HD
ATOM     62  C   UNL A   1      43.578  30.021  34.202  1.00  0.00     0.074 A 
ATOM     63  C   UNL A   1      44.315  29.321  33.170  1.00  0.00     0.031 C 
ATOM     64  C   UNL A   1      44.048  30.246  35.453  1.00  0.00     0.031 A 
BRANCH  51  65
ATOM     65  C   UNL A   1      40.197  33.449  39.081  1.00  0.00    -0.014 A 
ATOM     66  C   UNL A   1      39.630  32.723  40.145  1.00  0.00     0.010 A 
ATOM     67  C   UNL A   1      40.549  34.796  39.281  1.00  0.00     0.010 A 
ATOM     68  C   UNL A   1      39.387  33.345  41.371  1.00  0.00     0.020 A 
ATOM     69  C   UNL A   1      40.336  35.412  40.515  1.00  0.00     0.020 A 
ATOM     70  C   UNL A   1      39.741  34.687  41.549  1.00  0.00     0.054 A 
BRANCH  70  71
ATOM     71  S   UNL A   1      39.433  35.460  43.159  1.00  0.00     0.124 S 
ATOM     72  O   UNL A   1      37.991  35.690  43.112  1.00  0.00    -0.237 OA
ATOM     73  O   UNL A   1      39.874  34.430  44.098  1.00  0.00    -0.237 OA
ATOM     74  O   UNL A   1      40.257  36.666  43.130  1.00  0.00    -0.744 OA
ENDBRANCH  70  71
ENDBRANCH  51  65
BRANCH  52  75
ATOM     75  C   UNL A   1      41.508  29.408  30.008  1.00  0.00    -0.014 A 
ATOM     76  C   UNL A   1      41.050  28.115  29.697  1.00  0.00     0.010 A 
ATOM     77  C   UNL A   1      42.193  30.143  29.022  1.00  0.00     0.010 A 
ATOM     78  C   UNL A   1      41.287  27.563  28.434  1.00  0.00     0.020 A 
ATOM     79  C   UNL A   1      42.405  29.606  27.750  1.00  0.00     0.020 A 
ATOM     80  C   UNL A   1      41.962  28.314  27.467  1.00  0.00     0.054 A 
BRANCH  80  81
ATOM     81  S   UNL A   1      42.219  27.592  25.822  1.00  0.00     0.124 S 
ATOM     82  O   UNL A   1      41.083  26.685  25.707  1.00  0.00    -0.237 OA
ATOM     83  O   UNL A   1      42.181  28.768  24.954  1.00  0.00    -0.237 OA
ATOM     84  O   UNL A   1      43.526  26.950  25.931  1.00  0.00    -0.744 OA
ENDBRANCH  80  81
ENDBRANCH  52  75
BRANCH  64  85
ATOM     85  C   UNL A   1      45.390  29.674  35.823  1.00  0.00    -0.014 A 
ATOM     86  C   UNL A   1      46.583  30.380  35.589  1.00  0.00     0.010 A 
ATOM     87  C   UNL A   1      45.441  28.458  36.532  1.00  0.00     0.010 A 
ATOM     88  C   UNL A   1      47.801  29.876  36.055  1.00  0.00     0.020 A 
ATOM     89  C   UNL A   1      46.651  27.967  37.023  1.00  0.00     0.020 A 
ATOM     90  C   UNL A   1      47.826  28.678  36.778  1.00  0.00     0.054 A 
BRANCH  90  91
ATOM     91  S   UNL A   1      49.406  28.098  37.454  1.00  0.00     0.124 S 
ATOM     92  O   UNL A   1      48.973  27.277  38.581  1.00  0.00    -0.237 OA
ATOM     93  O   UNL A   1      49.984  27.366  36.328  1.00  0.00    -0.237 OA
ATOM     94  O   UNL A   1      50.105  29.330  37.812  1.00  0.00    -0.744 OA
ENDBRANCH  90  91
ENDBRANCH  64  85
ENDBRANCH  38  39
ENDBRANCH  31  33
ENDBRANCH  30  31
ENDBRANCH  29  30
ENDBRANCH  28  29
ENDBRANCH  27  28
ENDBRANCH  26  27
ENDBRANCH  25  26
ENDBRANCH   1  25
TORSDOF 29
ENDMDL
MODEL 2
REMARK VINA RESULT:      -7.9      5.157      6.762
REMARK SMILES CCCC[C@@H](C(=O)OCCOCCOCCOCCOC(=O)c1ccc(-c2c3nc(c(-c4ccc(S(=O)(=O)[O-])cc4)c4ccc([nH]4)c(-c4ccc(S(=O)(=O)[O-])cc4)c4nc(c(-c5ccc(S(=O)(=O)[O-])cc5)c5ccc2[nH]5)C=C4)C=C3)cc1)[C@@]1(O)CCC[C@H](CC)C1
REMARK SMILES IDX 14 1 13 2 12 3 11 4 10 5 9 6 8 7 6 8 7 9 5 10 4 11 3 12 2 13
REMARK SMILES IDX 1 14 83 15 85 16 91 17 86 18 88 19 87 20 84 21 89 23 90 24
REMARK SMILES IDX 15 25 16 26 17 27 18 28 19 29 20 30 21 31 22 32 23 33 24 34
REMARK SMILES IDX 82 35 25 36 81 37 26 38 27 39 28 40 75 41 29 42 80 43 74 44
REMARK SMILES IDX 76 45 30 46 79 47 73 48 72 49 31 51 61 52 42 53 60 54 43 55
REMARK SMILES IDX 46 56 59 57 77 58 44 59 45 60 58 62 78 63 47 64 32 65 33 66
REMARK SMILES IDX 41 67 34 68 40 69 35 70 36 71 37 72 38 73 39 74 62 75 63 76
REMARK SMILES IDX 71 77 64 78 70 79 65 80 66 81 67 82 68 83 69 84 48 85 49 86
REMARK SMILES IDX 57 87 50 88 56 89 51 90 52 91 53 92 54 93 55 94
REMARK H PARENT 84 22 76 50 46 61
REMARK Flexibility Score: inf
ROOT
ATOM      1  O   UNL A   1      34.207  31.023  27.759  1.00  0.00    -0.377 OA
ENDROOT
BRANCH   1   2
ATOM      2  C   UNL A   1      32.870  30.908  27.323  1.00  0.00     0.188 C 
BRANCH   2   3
ATOM      3  C   UNL A   1      32.584  29.692  26.425  1.00  0.00     0.188 C 
BRANCH   3   4
ATOM      4  O   UNL A   1      33.326  29.485  25.235  1.00  0.00    -0.376 OA
BRANCH   4   5
ATOM      5  C   UNL A   1      32.663  29.028  24.063  1.00  0.00     0.202 C 
BRANCH   5   6
ATOM      6  C   UNL A   1      31.821  27.735  24.061  1.00  0.00     0.261 C 
BRANCH   6   7
ATOM      7  O   UNL A   1      32.522  26.475  24.142  1.00  0.00    -0.463 OA
BRANCH   7   8
ATOM      8  C   UNL A   1      32.557  25.697  23.036  1.00  0.00     0.311 C 
ATOM      9  O   UNL A   1      32.963  26.099  21.947  1.00  0.00    -0.252 OA
BRANCH   8  10
ATOM     10  C   UNL A   1      32.030  24.256  23.225  1.00  0.00     0.131 C 
BRANCH  10  11
ATOM     11  C   UNL A   1      31.431  23.825  24.586  1.00  0.00     0.018 C 
BRANCH  11  12
ATOM     12  C   UNL A   1      32.178  24.033  25.906  1.00  0.00     0.001 C 
BRANCH  12  13
ATOM     13  C   UNL A   1      31.838  23.036  27.013  1.00  0.00    -0.003 C 
ATOM     14  C   UNL A   1      33.066  22.452  27.701  1.00  0.00     0.004 C 
ENDBRANCH  12  13
ENDBRANCH  11  12
ENDBRANCH  10  11
BRANCH  10  15
ATOM     15  C   UNL A   1      33.099  23.203  22.658  1.00  0.00     0.078 C 
ATOM     16  C   UNL A   1      34.576  23.286  23.119  1.00  0.00     0.036 C 
ATOM     17  C   UNL A   1      32.625  21.740  22.822  1.00  0.00     0.039 C 
ATOM     18  C   UNL A   1      34.941  22.583  24.425  1.00  0.00     0.003 C 
ATOM     19  C   UNL A   1      32.972  21.065  24.165  1.00  0.00    -0.009 C 
ATOM     20  C   UNL A   1      34.477  21.130  24.423  1.00  0.00     0.004 C 
BRANCH  15  21
ATOM     21  O   UNL A   1      33.142  23.381  21.219  1.00  0.00    -0.389 OA
ATOM     22  H   UNL A   1      32.253  23.587  20.892  1.00  0.00     0.211 HD
ENDBRANCH  15  21
BRANCH  19  23
ATOM     23  C   UNL A   1      32.426  19.630  24.203  1.00  0.00     0.000 C 
ATOM     24  C   UNL A   1      33.537  18.630  24.515  1.00  0.00     0.004 C 
ENDBRANCH  19  23
ENDBRANCH  10  15
ENDBRANCH   8  10
ENDBRANCH   7   8
ENDBRANCH   6   7
ENDBRANCH   5   6
ENDBRANCH   4   5
ENDBRANCH   3   4
ENDBRANCH   2   3
ENDBRANCH   1   2
BRANCH   1  25
ATOM     25  C   UNL A   1      34.665  32.342  28.010  1.00  0.00     0.188 C 
BRANCH  25  26
ATOM     26  C   UNL A   1      33.589  33.433  28.156  1.00  0.00     0.188 C 
BRANCH  26  27
ATOM     27  O   UNL A   1      34.065  34.614  28.796  1.00  0.00    -0.376 OA
BRANCH  27  28
ATOM     28  C   UNL A   1      33.360  35.127  29.917  1.00  0.00     0.202 C 
BRANCH  28  29
ATOM     29  C   UNL A   1      34.080  35.162  31.275  1.00  0.00     0.261 C 
BRANCH  29  30
ATOM     30  O   UNL A   1      33.704  34.173  32.244  1.00  0.00    -0.460 OA
BRANCH  30  31
ATOM     31  C   UNL A   1      34.388  33.011  32.290  1.00  0.00     0.338 C 
ATOM     32  O   UNL A   1      34.344  32.099  31.484  1.00  0.00    -0.246 OA
BRANCH  31  33
ATOM     33  C   UNL A   1      35.373  33.137  33.385  1.00  0.00     0.060 A 
ATOM     34  C   UNL A   1      35.207  34.145  34.347  1.00  0.00     0.016 A 
ATOM     35  C   UNL A   1      36.432  32.232  33.484  1.00  0.00     0.016 A 
ATOM     36  C   UNL A   1      36.112  34.264  35.402  1.00  0.00     0.010 A 
ATOM     37  C   UNL A   1      37.357  32.373  34.519  1.00  0.00     0.010 A 
ATOM     38  C   UNL A   1      37.218  33.407  35.462  1.00  0.00    -0.014 A 
BRANCH  38  39
ATOM     39  C   UNL A   1      38.373  33.734  36.330  1.00  0.00     0.031 A 
ATOM     40  C   UNL A   1      38.254  33.393  37.789  1.00  0.00     0.074 A 
ATOM     41  C   UNL A   1      39.474  34.343  35.857  1.00  0.00     0.049 A 
ATOM     42  N   UNL A   1      39.033  33.721  38.785  1.00  0.00    -0.248 NA
ATOM     43  C   UNL A   1      37.087  32.580  38.177  1.00  0.00     0.031 C 
ATOM     44  C   UNL A   1      39.737  34.657  34.453  1.00  0.00     0.029 A 
ATOM     45  N   UNL A   1      40.572  34.829  36.523  1.00  0.00    -0.354 N 
ATOM     46  C   UNL A   1      38.440  33.174  39.917  1.00  0.00     0.074 A 
ATOM     47  C   UNL A   1      37.229  32.509  39.490  1.00  0.00     0.031 C 
ATOM     48  C   UNL A   1      40.914  35.305  34.366  1.00  0.00     0.029 A 
ATOM     49  C   UNL A   1      41.459  35.494  35.710  1.00  0.00     0.049 A 
ATOM     50  H   UNL A   1      40.712  34.710  37.490  1.00  0.00     0.167 HD
ATOM     51  C   UNL A   1      38.864  33.225  41.201  1.00  0.00     0.031 A 
ATOM     52  C   UNL A   1      42.560  36.209  36.024  1.00  0.00     0.031 A 
ATOM     53  C   UNL A   1      40.056  33.909  41.618  1.00  0.00     0.049 A 
ATOM     54  C   UNL A   1      42.961  36.341  37.475  1.00  0.00     0.074 A 
ATOM     55  C   UNL A   1      40.574  34.031  42.894  1.00  0.00     0.029 A 
ATOM     56  N   UNL A   1      40.911  34.593  40.767  1.00  0.00    -0.354 N 
ATOM     57  N   UNL A   1      42.393  35.824  38.539  1.00  0.00    -0.248 NA
ATOM     58  C   UNL A   1      44.152  37.152  37.768  1.00  0.00     0.031 C 
ATOM     59  C   UNL A   1      41.712  34.840  42.823  1.00  0.00     0.029 A 
ATOM     60  C   UNL A   1      41.943  35.157  41.493  1.00  0.00     0.049 A 
ATOM     61  H   UNL A   1      40.800  34.665  39.792  1.00  0.00     0.167 HD
ATOM     62  C   UNL A   1      43.181  36.211  39.619  1.00  0.00     0.074 A 
ATOM     63  C   UNL A   1      44.265  37.008  39.081  1.00  0.00     0.031 C 
ATOM     64  C   UNL A   1      43.029  35.925  40.936  1.00  0.00     0.031 A 
BRANCH  51  65
ATOM     65  C   UNL A   1      38.004  32.565  42.244  1.00  0.00    -0.014 A 
ATOM     66  C   UNL A   1      36.902  33.231  42.811  1.00  0.00     0.010 A 
ATOM     67  C   UNL A   1      38.287  31.246  42.644  1.00  0.00     0.010 A 
ATOM     68  C   UNL A   1      36.124  32.604  43.787  1.00  0.00     0.020 A 
ATOM     69  C   UNL A   1      37.493  30.605  43.597  1.00  0.00     0.020 A 
ATOM     70  C   UNL A   1      36.425  31.294  44.174  1.00  0.00     0.054 A 
BRANCH  70  71
ATOM     71  S   UNL A   1      35.384  30.498  45.426  1.00  0.00     0.124 S 
ATOM     72  O   UNL A   1      34.086  30.453  44.754  1.00  0.00    -0.237 OA
ATOM     73  O   UNL A   1      36.039  29.205  45.611  1.00  0.00    -0.237 OA
ATOM     74  O   UNL A   1      35.460  31.403  46.570  1.00  0.00    -0.744 OA
ENDBRANCH  70  71
ENDBRANCH  51  65
BRANCH  52  75
ATOM     75  C   UNL A   1      43.348  36.884  34.955  1.00  0.00    -0.014 A 
ATOM     76  C   UNL A   1      42.944  38.131  34.446  1.00  0.00     0.010 A 
ATOM     77  C   UNL A   1      44.504  36.277  34.428  1.00  0.00     0.010 A 
ATOM     78  C   UNL A   1      43.668  38.749  33.420  1.00  0.00     0.020 A 
ATOM     79  C   UNL A   1      45.247  36.904  33.425  1.00  0.00     0.020 A 
ATOM     80  C   UNL A   1      44.817  38.132  32.918  1.00  0.00     0.054 A 
BRANCH  80  81
ATOM     81  S   UNL A   1      45.764  38.973  31.618  1.00  0.00     0.124 S 
ATOM     82  O   UNL A   1      46.450  37.858  30.973  1.00  0.00    -0.237 OA
ATOM     83  O   UNL A   1      44.714  39.613  30.830  1.00  0.00    -0.237 OA
ATOM     84  O   UNL A   1      46.623  39.891  32.361  1.00  0.00    -0.744 OA
ENDBRANCH  80  81
ENDBRANCH  52  75
BRANCH  64  85
ATOM     85  C   UNL A   1      44.085  36.403  41.896  1.00  0.00    -0.014 A 
ATOM     86  C   UNL A   1      43.976  37.638  42.557  1.00  0.00     0.010 A 
ATOM     87  C   UNL A   1      45.144  35.536  42.230  1.00  0.00     0.010 A 
ATOM     88  C   UNL A   1      44.910  37.998  43.533  1.00  0.00     0.020 A 
ATOM     89  C   UNL A   1      46.061  35.880  43.224  1.00  0.00     0.020 A 
ATOM     90  C   UNL A   1      45.941  37.112  43.868  1.00  0.00     0.054 A 
BRANCH  90  91
ATOM     91  S   UNL A   1      47.081  37.562  45.205  1.00  0.00     0.124 S 
ATOM     92  O   UNL A   1      48.175  36.616  45.005  1.00  0.00    -0.237 OA
ATOM     93  O   UNL A   1      47.392  38.958  44.901  1.00  0.00    -0.237 OA
ATOM     94  O   UNL A   1      46.294  37.356  46.418  1.00  0.00    -0.744 OA
ENDBRANCH  90  91
ENDBRANCH  64  85
ENDBRANCH  38  39
ENDBRANCH  31  33
ENDBRANCH  30  31
ENDBRANCH  29  30
ENDBRANCH  28  29
ENDBRANCH  27  28
ENDBRANCH  26  27
ENDBRANCH  25  26
ENDBRANCH   1  25
TORSDOF 29
ENDMDL
MODEL 3
REMARK VINA RESULT:      -7.8      5.700     10.338
REMARK SMILES CCCC[C@@H](C(=O)OCCOCCOCCOCCOC(=O)c1ccc(-c2c3nc(c(-c4ccc(S(=O)(=O)[O-])cc4)c4ccc([nH]4)c(-c4ccc(S(=O)(=O)[O-])cc4)c4nc(c(-c5ccc(S(=O)(=O)[O-])cc5)c5ccc2[nH]5)C=C4)C=C3)cc1)[C@@]1(O)CCC[C@H](CC)C1
REMARK SMILES IDX 14 1 13 2 12 3 11 4 10 5 9 6 8 7 6 8 7 9 5 10 4 11 3 12 2 13
REMARK SMILES IDX 1 14 83 15 85 16 91 17 86 18 88 19 87 20 84 21 89 23 90 24
REMARK SMILES IDX 15 25 16 26 17 27 18 28 19 29 20 30 21 31 22 32 23 33 24 34
REMARK SMILES IDX 82 35 25 36 81 37 26 38 27 39 28 40 75 41 29 42 80 43 74 44
REMARK SMILES IDX 76 45 30 46 79 47 73 48 72 49 31 51 61 52 42 53 60 54 43 55
REMARK SMILES IDX 46 56 59 57 77 58 44 59 45 60 58 62 78 63 47 64 32 65 33 66
REMARK SMILES IDX 41 67 34 68 40 69 35 70 36 71 37 72 38 73 39 74 62 75 63 76
REMARK SMILES IDX 71 77 64 78 70 79 65 80 66 81 67 82 68 83 69 84 48 85 49 86
REMARK SMILES IDX 57 87 50 88 56 89 51 90 52 91 53 92 54 93 55 94
REMARK H PARENT 84 22 76 50 46 61
REMARK Flexibility Score: inf
ROOT
ATOM      1  O   UNL A   1      36.828  29.788  27.906  1.00  0.00    -0.377 OA
ENDROOT
BRANCH   1   2
ATOM      2  C   UNL A   1      35.462  29.532  28.158  1.00  0.00     0.188 C 
BRANCH   2   3
ATOM      3  C   UNL A   1      34.499  30.026  27.065  1.00  0.00     0.188 C 
BRANCH   3   4
ATOM      4  O   UNL A   1      34.199  29.210  25.946  1.00  0.00    -0.376 OA
BRANCH   4   5
ATOM      5  C   UNL A   1      33.570  27.950  26.142  1.00  0.00     0.202 C 
BRANCH   5   6
ATOM      6  C   UNL A   1      32.213  27.612  25.488  1.00  0.00     0.261 C 
BRANCH   6   7
ATOM      7  O   UNL A   1      32.025  26.274  24.981  1.00  0.00    -0.463 OA
BRANCH   7   8
ATOM      8  C   UNL A   1      32.037  26.098  23.639  1.00  0.00     0.311 C 
ATOM      9  O   UNL A   1      32.333  26.993  22.849  1.00  0.00    -0.252 OA
BRANCH   8  10
ATOM     10  C   UNL A   1      31.635  24.686  23.156  1.00  0.00     0.131 C 
BRANCH  10  11
ATOM     11  C   UNL A   1      30.741  23.789  24.047  1.00  0.00     0.018 C 
BRANCH  11  12
ATOM     12  C   UNL A   1      30.633  23.995  25.559  1.00  0.00     0.001 C 
BRANCH  12  13
ATOM     13  C   UNL A   1      30.589  22.716  26.392  1.00  0.00    -0.003 C 
ATOM     14  C   UNL A   1      29.326  22.585  27.237  1.00  0.00     0.004 C 
ENDBRANCH  12  13
ENDBRANCH  11  12
ENDBRANCH  10  11
BRANCH  10  15
ATOM     15  C   UNL A   1      32.922  23.911  22.593  1.00  0.00     0.078 C 
ATOM     16  C   UNL A   1      34.328  24.261  23.143  1.00  0.00     0.036 C 
ATOM     17  C   UNL A   1      32.752  22.375  22.645  1.00  0.00     0.039 C 
ATOM     18  C   UNL A   1      34.770  23.558  24.425  1.00  0.00     0.003 C 
ATOM     19  C   UNL A   1      33.169  21.694  23.965  1.00  0.00    -0.009 C 
ATOM     20  C   UNL A   1      34.616  22.045  24.314  1.00  0.00     0.004 C 
BRANCH  15  21
ATOM     21  O   UNL A   1      32.993  24.191  21.171  1.00  0.00    -0.389 OA
ATOM     22  H   UNL A   1      32.113  24.089  20.777  1.00  0.00     0.211 HD
ENDBRANCH  15  21
BRANCH  19  23
ATOM     23  C   UNL A   1      32.929  20.180  23.890  1.00  0.00     0.000 C 
ATOM     24  C   UNL A   1      32.487  19.628  25.243  1.00  0.00     0.004 C 
ENDBRANCH  19  23
ENDBRANCH  10  15
ENDBRANCH   8  10
ENDBRANCH   7   8
ENDBRANCH   6   7
ENDBRANCH   5   6
ENDBRANCH   4   5
ENDBRANCH   3   4
ENDBRANCH   2   3
ENDBRANCH   1   2
BRANCH   1  25
ATOM     25  C   UNL A   1      37.444  30.746  28.752  1.00  0.00     0.188 C 
BRANCH  25  26
ATOM     26  C   UNL A   1      36.624  32.006  29.085  1.00  0.00     0.188 C 
BRANCH  26  27
ATOM     27  O   UNL A   1      36.574  32.294  30.479  1.00  0.00    -0.376 OA
BRANCH  27  28
ATOM     28  C   UNL A   1      35.857  31.421  31.341  1.00  0.00     0.202 C 
BRANCH  28  29
ATOM     29  C   UNL A   1      36.285  31.342  32.816  1.00  0.00     0.261 C 
BRANCH  29  30
ATOM     30  O   UNL A   1      37.651  30.997  33.086  1.00  0.00    -0.460 OA
BRANCH  30  31
ATOM     31  C   UNL A   1      38.023  29.702  33.015  1.00  0.00     0.338 C 
ATOM     32  O   UNL A   1      37.336  28.725  33.251  1.00  0.00    -0.246 OA
BRANCH  31  33
ATOM     33  C   UNL A   1      39.360  29.674  32.382  1.00  0.00     0.060 A 
ATOM     34  C   UNL A   1      39.599  30.462  31.246  1.00  0.00     0.016 A 
ATOM     35  C   UNL A   1      40.383  28.905  32.939  1.00  0.00     0.016 A 
ATOM     36  C   UNL A   1      40.860  30.468  30.650  1.00  0.00     0.010 A 
ATOM     37  C   UNL A   1      41.635  28.884  32.322  1.00  0.00     0.010 A 
ATOM     38  C   UNL A   1      41.868  29.640  31.158  1.00  0.00    -0.014 A 
BRANCH  38  39
ATOM     39  C   UNL A   1      43.073  29.342  30.350  1.00  0.00     0.031 A 
ATOM     40  C   UNL A   1      43.101  28.029  29.618  1.00  0.00     0.074 A 
ATOM     41  C   UNL A   1      44.121  30.181  30.292  1.00  0.00     0.049 A 
ATOM     42  N   UNL A   1      44.088  27.450  28.988  1.00  0.00    -0.248 NA
ATOM     43  C   UNL A   1      41.843  27.260  29.607  1.00  0.00     0.031 C 
ATOM     44  C   UNL A   1      44.182  31.510  30.896  1.00  0.00     0.029 A 
ATOM     45  N   UNL A   1      45.353  30.019  29.707  1.00  0.00    -0.354 N 
ATOM     46  C   UNL A   1      43.578  26.242  28.526  1.00  0.00     0.074 A 
ATOM     47  C   UNL A   1      42.202  26.162  28.962  1.00  0.00     0.031 C 
ATOM     48  C   UNL A   1      45.401  32.035  30.669  1.00  0.00     0.029 A 
ATOM     49  C   UNL A   1      46.218  31.059  29.949  1.00  0.00     0.049 A 
ATOM     50  H   UNL A   1      45.593  29.234  29.164  1.00  0.00     0.167 HD
ATOM     51  C   UNL A   1      44.203  25.282  27.806  1.00  0.00     0.031 A 
ATOM     52  C   UNL A   1      47.530  31.186  29.658  1.00  0.00     0.031 A 
ATOM     53  C   UNL A   1      45.578  25.361  27.400  1.00  0.00     0.049 A 
ATOM     54  C   UNL A   1      48.237  30.058  28.944  1.00  0.00     0.074 A 
ATOM     55  C   UNL A   1      46.313  24.441  26.675  1.00  0.00     0.029 A 
ATOM     56  N   UNL A   1      46.426  26.419  27.689  1.00  0.00    -0.354 N 
ATOM     57  N   UNL A   1      47.748  28.918  28.515  1.00  0.00    -0.248 NA
ATOM     58  C   UNL A   1      49.672  30.233  28.674  1.00  0.00     0.031 C 
ATOM     59  C   UNL A   1      47.623  24.915  26.577  1.00  0.00     0.029 A 
ATOM     60  C   UNL A   1      47.684  26.166  27.175  1.00  0.00     0.049 A 
ATOM     61  H   UNL A   1      46.170  27.230  28.185  1.00  0.00     0.167 HD
ATOM     62  C   UNL A   1      48.803  28.262  27.887  1.00  0.00     0.074 A 
ATOM     63  C   UNL A   1      49.958  29.130  27.996  1.00  0.00     0.031 C 
ATOM     64  C   UNL A   1      48.815  27.055  27.270  1.00  0.00     0.031 A 
BRANCH  51  65
ATOM     65  C   UNL A   1      43.414  24.048  27.462  1.00  0.00    -0.014 A 
ATOM     66  C   UNL A   1      42.869  23.863  26.178  1.00  0.00     0.010 A 
ATOM     67  C   UNL A   1      43.237  23.045  28.432  1.00  0.00     0.010 A 
ATOM     68  C   UNL A   1      42.130  22.715  25.884  1.00  0.00     0.020 A 
ATOM     69  C   UNL A   1      42.525  21.881  28.132  1.00  0.00     0.020 A 
ATOM     70  C   UNL A   1      41.962  21.731  26.864  1.00  0.00     0.054 A 
BRANCH  70  71
ATOM     71  S   UNL A   1      41.017  20.242  26.446  1.00  0.00     0.124 S 
ATOM     72  O   UNL A   1      41.925  19.556  25.530  1.00  0.00    -0.237 OA
ATOM     73  O   UNL A   1      40.836  19.603  27.747  1.00  0.00    -0.237 OA
ATOM     74  O   UNL A   1      39.796  20.764  25.836  1.00  0.00    -0.744 OA
ENDBRANCH  70  71
ENDBRANCH  51  65
BRANCH  52  75
ATOM     75  C   UNL A   1      48.275  32.410  30.067  1.00  0.00    -0.014 A 
ATOM     76  C   UNL A   1      48.903  32.481  31.324  1.00  0.00     0.010 A 
ATOM     77  C   UNL A   1      48.351  33.521  29.205  1.00  0.00     0.010 A 
ATOM     78  C   UNL A   1      49.576  33.643  31.717  1.00  0.00     0.020 A 
ATOM     79  C   UNL A   1      49.048  34.672  29.583  1.00  0.00     0.020 A 
ATOM     80  C   UNL A   1      49.647  34.730  30.842  1.00  0.00     0.054 A 
BRANCH  80  81
ATOM     81  S   UNL A   1      50.562  36.210  31.358  1.00  0.00     0.124 S 
ATOM     82  O   UNL A   1      50.052  37.219  30.436  1.00  0.00    -0.237 OA
ATOM     83  O   UNL A   1      50.154  36.361  32.753  1.00  0.00    -0.237 OA
ATOM     84  O   UNL A   1      51.960  35.832  31.163  1.00  0.00    -0.744 OA
ENDBRANCH  80  81
ENDBRANCH  52  75
BRANCH  64  85
ATOM     85  C   UNL A   1      50.084  26.614  26.590  1.00  0.00    -0.014 A 
ATOM     86  C   UNL A   1      50.396  27.015  25.280  1.00  0.00     0.010 A 
ATOM     87  C   UNL A   1      51.036  25.886  27.330  1.00  0.00     0.010 A 
ATOM     88  C   UNL A   1      51.636  26.690  24.722  1.00  0.00     0.020 A 
ATOM     89  C   UNL A   1      52.285  25.586  26.787  1.00  0.00     0.020 A 
ATOM     90  C   UNL A   1      52.577  25.987  25.483  1.00  0.00     0.054 A 
BRANCH  90  91
ATOM     91  S   UNL A   1      54.213  25.664  24.769  1.00  0.00     0.124 S 
ATOM     92  O   UNL A   1      54.011  26.026  23.368  1.00  0.00    -0.237 OA
ATOM     93  O   UNL A   1      55.076  26.563  25.532  1.00  0.00    -0.237 OA
ATOM     94  O   UNL A   1      54.428  24.241  25.019  1.00  0.00    -0.744 OA
ENDBRANCH  90  91
ENDBRANCH  64  85
ENDBRANCH  38  39
ENDBRANCH  31  33
ENDBRANCH  30  31
ENDBRANCH  29  30
ENDBRANCH  28  29
ENDBRANCH  27  28
ENDBRANCH  26  27
ENDBRANCH  25  26
ENDBRANCH   1  25
TORSDOF 29
ENDMDL
