MODEL 1
REMARK VINA RESULT:      -9.3      0.000      0.000
REMARK SMILES O=C(OCCOCCOCCOCCOC(=O)[C@@H]1CC[C@@H](CN2C(=O)CC3(CCCC3)CC2=O)O1)c1ccc(-c2c3nc(c(-c4ccc(S(=O)(=O)[O-])cc4)c4ccc([nH]4)c(-c4ccc(S(=O)(=O)[O-])cc4)c4nc(c(-c5ccc(S(=O)(=O)[O-])cc5)c5ccc2[nH]5)C=C4)C=C3)cc1
REMARK SMILES IDX 8 1 7 2 6 3 5 4 4 5 3 6 2 7 1 8 36 9 37 10 95 11 38 12 94 13
REMARK SMILES IDX 39 14 40 15 41 16 88 17 42 18 93 19 87 20 89 21 43 22 92 23
REMARK SMILES IDX 86 24 85 25 44 27 74 28 55 29 73 30 56 31 59 32 72 33 90 34
REMARK SMILES IDX 57 35 58 36 71 38 91 39 60 40 45 41 46 42 54 43 47 44 53 45
REMARK SMILES IDX 48 46 49 47 50 48 51 49 52 50 75 51 76 52 84 53 77 54 83 55
REMARK SMILES IDX 78 56 79 57 80 58 81 59 82 60 61 61 62 62 70 63 63 64 69 65
REMARK SMILES IDX 64 66 65 67 66 68 67 69 68 70 9 71 10 72 11 73 12 74 13 75
REMARK SMILES IDX 14 76 15 77 16 78 17 79 18 80 19 81 35 82 20 83 21 84 22 85
REMARK SMILES IDX 23 86 24 87 33 88 25 89 26 90 32 91 34 92 27 93 28 94 31 95
REMARK SMILES IDX 29 96 30 97
REMARK H PARENT 89 26 59 37
REMARK Flexibility Score: inf
ROOT
ATOM      1  C   UNL A   1      40.922  21.264  27.280  1.00  0.00     0.188 C 
ENDROOT
BRANCH   1   2
ATOM      2  C   UNL A   1      41.678  22.565  27.002  1.00  0.00     0.188 C 
BRANCH   2   3
ATOM      3  O   UNL A   1      42.680  22.382  26.002  1.00  0.00    -0.376 OA
BRANCH   3   4
ATOM      4  C   UNL A   1      43.628  23.438  25.859  1.00  0.00     0.202 C 
BRANCH   4   5
ATOM      5  C   UNL A   1      43.267  24.503  24.825  1.00  0.00     0.261 C 
BRANCH   5   6
ATOM      6  O   UNL A   1      42.568  25.618  25.391  1.00  0.00    -0.460 OA
BRANCH   6   7
ATOM      7  C   UNL A   1      43.097  26.765  25.884  1.00  0.00     0.338 C 
ATOM      8  O   UNL A   1      43.820  27.431  25.142  1.00  0.00    -0.246 OA
BRANCH   7   9
ATOM      9  C   UNL A   1      42.873  27.273  27.275  1.00  0.00     0.060 A 
ATOM     10  C   UNL A   1      42.288  26.557  28.325  1.00  0.00     0.016 A 
ATOM     11  C   UNL A   1      43.360  28.558  27.558  1.00  0.00     0.016 A 
ATOM     12  C   UNL A   1      42.142  27.093  29.593  1.00  0.00     0.010 A 
ATOM     13  C   UNL A   1      43.215  29.117  28.829  1.00  0.00     0.010 A 
ATOM     14  C   UNL A   1      42.570  28.389  29.835  1.00  0.00    -0.014 A 
BRANCH  14  15
ATOM     15  C   UNL A   1      42.091  29.042  31.057  1.00  0.00     0.031 A 
ATOM     16  C   UNL A   1      40.809  29.806  30.950  1.00  0.00     0.074 A 
ATOM     17  C   UNL A   1      42.718  28.849  32.228  1.00  0.00     0.049 A 
ATOM     18  N   UNL A   1      40.243  30.601  31.810  1.00  0.00    -0.248 NA
ATOM     19  C   UNL A   1      40.057  29.641  29.690  1.00  0.00     0.031 C 
ATOM     20  C   UNL A   1      43.865  27.963  32.438  1.00  0.00     0.029 A 
ATOM     21  N   UNL A   1      42.472  29.382  33.462  1.00  0.00    -0.354 N 
ATOM     22  C   UNL A   1      39.106  31.082  31.173  1.00  0.00     0.074 A 
ATOM     23  C   UNL A   1      39.048  30.477  29.865  1.00  0.00     0.031 C 
ATOM     24  C   UNL A   1      44.235  28.029  33.727  1.00  0.00     0.029 A 
ATOM     25  C   UNL A   1      43.405  29.019  34.403  1.00  0.00     0.049 A 
ATOM     26  H   UNL A   1      41.705  29.967  33.657  1.00  0.00     0.167 HD
ATOM     27  C   UNL A   1      38.212  31.981  31.644  1.00  0.00     0.031 A 
ATOM     28  C   UNL A   1      43.594  29.497  35.648  1.00  0.00     0.031 A 
ATOM     29  C   UNL A   1      38.339  32.570  32.946  1.00  0.00     0.049 A 
ATOM     30  C   UNL A   1      42.657  30.575  36.123  1.00  0.00     0.074 A 
ATOM     31  C   UNL A   1      37.566  33.547  33.539  1.00  0.00     0.029 A 
ATOM     32  N   UNL A   1      39.328  32.221  33.861  1.00  0.00    -0.354 N 
ATOM     33  N   UNL A   1      41.638  31.113  35.489  1.00  0.00    -0.248 NA
ATOM     34  C   UNL A   1      42.892  31.121  37.463  1.00  0.00     0.031 C 
ATOM     35  C   UNL A   1      38.121  33.826  34.792  1.00  0.00     0.029 A 
ATOM     36  C   UNL A   1      39.197  32.972  35.010  1.00  0.00     0.049 A 
ATOM     37  H   UNL A   1      40.020  31.537  33.710  1.00  0.00     0.167 HD
ATOM     38  C   UNL A   1      41.091  32.044  36.361  1.00  0.00     0.074 A 
ATOM     39  C   UNL A   1      41.897  31.993  37.570  1.00  0.00     0.031 C 
ATOM     40  C   UNL A   1      40.025  32.863  36.189  1.00  0.00     0.031 A 
BRANCH  27  41
ATOM     41  C   UNL A   1      37.141  32.440  30.692  1.00  0.00    -0.014 A 
ATOM     42  C   UNL A   1      37.310  33.568  29.866  1.00  0.00     0.010 A 
ATOM     43  C   UNL A   1      35.900  31.777  30.691  1.00  0.00     0.010 A 
ATOM     44  C   UNL A   1      36.238  34.064  29.116  1.00  0.00     0.020 A 
ATOM     45  C   UNL A   1      34.835  32.250  29.920  1.00  0.00     0.020 A 
ATOM     46  C   UNL A   1      35.003  33.409  29.160  1.00  0.00     0.054 A 
BRANCH  46  47
ATOM     47  S   UNL A   1      33.615  34.098  28.218  1.00  0.00     0.124 S 
ATOM     48  O   UNL A   1      32.906  34.864  29.242  1.00  0.00    -0.237 OA
ATOM     49  O   UNL A   1      34.285  34.894  27.193  1.00  0.00    -0.237 OA
ATOM     50  O   UNL A   1      32.909  32.918  27.725  1.00  0.00    -0.744 OA
ENDBRANCH  46  47
ENDBRANCH  27  41
BRANCH  28  51
ATOM     51  C   UNL A   1      44.744  29.011  36.458  1.00  0.00    -0.014 A 
ATOM     52  C   UNL A   1      45.981  29.675  36.438  1.00  0.00     0.010 A 
ATOM     53  C   UNL A   1      44.578  27.910  37.323  1.00  0.00     0.010 A 
ATOM     54  C   UNL A   1      47.026  29.255  37.271  1.00  0.00     0.020 A 
ATOM     55  C   UNL A   1      45.609  27.505  38.177  1.00  0.00     0.020 A 
ATOM     56  C   UNL A   1      46.829  28.178  38.143  1.00  0.00     0.054 A 
BRANCH  56  57
ATOM     57  S   UNL A   1      48.168  27.711  39.277  1.00  0.00     0.124 S 
ATOM     58  O   UNL A   1      47.959  28.633  40.390  1.00  0.00    -0.237 OA
ATOM     59  O   UNL A   1      47.871  26.308  39.552  1.00  0.00    -0.237 OA
ATOM     60  O   UNL A   1      49.379  27.942  38.491  1.00  0.00    -0.744 OA
ENDBRANCH  56  57
ENDBRANCH  28  51
BRANCH  40  61
ATOM     61  C   UNL A   1      39.624  33.722  37.354  1.00  0.00    -0.014 A 
ATOM     62  C   UNL A   1      38.972  33.176  38.470  1.00  0.00     0.010 A 
ATOM     63  C   UNL A   1      40.036  35.067  37.373  1.00  0.00     0.010 A 
ATOM     64  C   UNL A   1      38.735  33.969  39.595  1.00  0.00     0.020 A 
ATOM     65  C   UNL A   1      39.825  35.852  38.504  1.00  0.00     0.020 A 
ATOM     66  C   UNL A   1      39.174  35.298  39.608  1.00  0.00     0.054 A 
BRANCH  66  67
ATOM     67  S   UNL A   1      38.950  36.274  41.118  1.00  0.00     0.124 S 
ATOM     68  O   UNL A   1      40.229  36.082  41.796  1.00  0.00    -0.237 OA
ATOM     69  O   UNL A   1      38.708  37.617  40.597  1.00  0.00    -0.237 OA
ATOM     70  O   UNL A   1      37.800  35.649  41.767  1.00  0.00    -0.744 OA
ENDBRANCH  66  67
ENDBRANCH  40  61
ENDBRANCH  14  15
ENDBRANCH   7   9
ENDBRANCH   6   7
ENDBRANCH   5   6
ENDBRANCH   4   5
ENDBRANCH   3   4
ENDBRANCH   2   3
ENDBRANCH   1   2
BRANCH   1  71
ATOM     71  O   UNL A   1      39.754  21.037  26.491  1.00  0.00    -0.377 OA
BRANCH  71  72
ATOM     72  C   UNL A   1      38.862  22.131  26.332  1.00  0.00     0.188 C 
BRANCH  72  73
ATOM     73  C   UNL A   1      37.900  22.181  25.128  1.00  0.00     0.188 C 
BRANCH  73  74
ATOM     74  O   UNL A   1      36.551  21.951  25.455  1.00  0.00    -0.376 OA
BRANCH  74  75
ATOM     75  C   UNL A   1      35.901  20.774  24.992  1.00  0.00     0.202 C 
BRANCH  75  76
ATOM     76  C   UNL A   1      34.376  20.655  24.758  1.00  0.00     0.261 C 
BRANCH  76  77
ATOM     77  O   UNL A   1      33.582  21.773  25.171  1.00  0.00    -0.461 OA
BRANCH  77  78
ATOM     78  C   UNL A   1      32.705  22.316  24.285  1.00  0.00     0.335 C 
ATOM     79  O   UNL A   1      32.132  21.693  23.386  1.00  0.00    -0.249 OA
BRANCH  78  80
ATOM     80  C   UNL A   1      32.403  23.781  24.658  1.00  0.00     0.228 C 
ATOM     81  C   UNL A   1      33.309  24.710  23.855  1.00  0.00     0.047 C 
ATOM     82  O   UNL A   1      32.564  24.161  26.021  1.00  0.00    -0.361 OA
ATOM     83  C   UNL A   1      33.576  25.894  24.754  1.00  0.00     0.037 C 
ATOM     84  C   UNL A   1      32.901  25.561  26.079  1.00  0.00     0.139 C 
BRANCH  84  85
ATOM     85  C   UNL A   1      31.674  26.438  26.486  1.00  0.00     0.160 C 
BRANCH  85  86
ATOM     86  N   UNL A   1      31.176  27.315  25.415  1.00  0.00    -0.280 N 
ATOM     87  C   UNL A   1      31.441  28.674  25.503  1.00  0.00     0.229 C 
ATOM     88  C   UNL A   1      30.265  26.803  24.511  1.00  0.00     0.229 C 
ATOM     89  O   UNL A   1      31.866  29.216  26.524  1.00  0.00    -0.274 OA
ATOM     90  C   UNL A   1      31.311  29.481  24.227  1.00  0.00     0.108 C 
ATOM     91  C   UNL A   1      30.226  27.502  23.175  1.00  0.00     0.108 C 
ATOM     92  O   UNL A   1      29.576  25.810  24.726  1.00  0.00    -0.274 OA
ATOM     93  C   UNL A   1      30.227  29.023  23.249  1.00  0.00    -0.012 C 
ATOM     94  C   UNL A   1      30.526  29.613  21.839  1.00  0.00     0.008 C 
ATOM     95  C   UNL A   1      28.841  29.592  23.615  1.00  0.00     0.008 C 
ATOM     96  C   UNL A   1      29.332  30.476  21.461  1.00  0.00     0.001 C 
ATOM     97  C   UNL A   1      28.721  30.869  22.792  1.00  0.00     0.001 C 
ENDBRANCH  85  86
ENDBRANCH  84  85
ENDBRANCH  78  80
ENDBRANCH  77  78
ENDBRANCH  76  77
ENDBRANCH  75  76
ENDBRANCH  74  75
ENDBRANCH  73  74
ENDBRANCH  72  73
ENDBRANCH  71  72
ENDBRANCH   1  71
TORSDOF 25
ENDMDL
MODEL 2
REMARK VINA RESULT:      -8.9      5.107      9.287
REMARK SMILES O=C(OCCOCCOCCOCCOC(=O)[C@@H]1CC[C@@H](CN2C(=O)CC3(CCCC3)CC2=O)O1)c1ccc(-c2c3nc(c(-c4ccc(S(=O)(=O)[O-])cc4)c4ccc([nH]4)c(-c4ccc(S(=O)(=O)[O-])cc4)c4nc(c(-c5ccc(S(=O)(=O)[O-])cc5)c5ccc2[nH]5)C=C4)C=C3)cc1
REMARK SMILES IDX 8 1 7 2 6 3 5 4 4 5 3 6 2 7 1 8 36 9 37 10 95 11 38 12 94 13
REMARK SMILES IDX 39 14 40 15 41 16 88 17 42 18 93 19 87 20 89 21 43 22 92 23
REMARK SMILES IDX 86 24 85 25 44 27 74 28 55 29 73 30 56 31 59 32 72 33 90 34
REMARK SMILES IDX 57 35 58 36 71 38 91 39 60 40 45 41 46 42 54 43 47 44 53 45
REMARK SMILES IDX 48 46 49 47 50 48 51 49 52 50 75 51 76 52 84 53 77 54 83 55
REMARK SMILES IDX 78 56 79 57 80 58 81 59 82 60 61 61 62 62 70 63 63 64 69 65
REMARK SMILES IDX 64 66 65 67 66 68 67 69 68 70 9 71 10 72 11 73 12 74 13 75
REMARK SMILES IDX 14 76 15 77 16 78 17 79 18 80 19 81 35 82 20 83 21 84 22 85
REMARK SMILES IDX 23 86 24 87 33 88 25 89 26 90 32 91 34 92 27 93 28 94 31 95
REMARK SMILES IDX 29 96 30 97
REMARK H PARENT 89 26 59 37
REMARK Flexibility Score: inf
ROOT
ATOM      1  C   UNL A   1      43.740  23.512  24.607  1.00  0.00     0.188 C 
ENDROOT
BRANCH   1   2
ATOM      2  C   UNL A   1      45.188  23.453  25.095  1.00  0.00     0.188 C 
BRANCH   2   3
ATOM      3  O   UNL A   1      45.939  24.577  24.634  1.00  0.00    -0.376 OA
BRANCH   3   4
ATOM      4  C   UNL A   1      47.313  24.616  25.014  1.00  0.00     0.202 C 
BRANCH   4   5
ATOM      5  C   UNL A   1      48.122  25.766  24.417  1.00  0.00     0.261 C 
BRANCH   5   6
ATOM      6  O   UNL A   1      47.320  26.677  23.657  1.00  0.00    -0.460 OA
BRANCH   6   7
ATOM      7  C   UNL A   1      46.825  27.876  24.053  1.00  0.00     0.338 C 
ATOM      8  O   UNL A   1      46.768  28.780  23.218  1.00  0.00    -0.246 OA
BRANCH   7   9
ATOM      9  C   UNL A   1      46.355  28.183  25.442  1.00  0.00     0.060 A 
ATOM     10  C   UNL A   1      45.151  27.760  26.011  1.00  0.00     0.016 A 
ATOM     11  C   UNL A   1      47.242  28.902  26.258  1.00  0.00     0.016 A 
ATOM     12  C   UNL A   1      44.803  28.066  27.316  1.00  0.00     0.010 A 
ATOM     13  C   UNL A   1      46.905  29.225  27.574  1.00  0.00     0.010 A 
ATOM     14  C   UNL A   1      45.664  28.833  28.086  1.00  0.00    -0.014 A 
BRANCH  14  15
ATOM     15  C   UNL A   1      45.125  29.429  29.312  1.00  0.00     0.031 A 
ATOM     16  C   UNL A   1      45.099  28.556  30.527  1.00  0.00     0.074 A 
ATOM     17  C   UNL A   1      44.792  30.729  29.352  1.00  0.00     0.049 A 
ATOM     18  N   UNL A   1      44.540  28.760  31.684  1.00  0.00    -0.248 NA
ATOM     19  C   UNL A   1      45.814  27.269  30.418  1.00  0.00     0.031 C 
ATOM     20  C   UNL A   1      44.971  31.682  28.255  1.00  0.00     0.029 A 
ATOM     21  N   UNL A   1      44.243  31.471  30.360  1.00  0.00    -0.354 N 
ATOM     22  C   UNL A   1      44.779  27.604  32.417  1.00  0.00     0.074 A 
ATOM     23  C   UNL A   1      45.548  26.711  31.586  1.00  0.00     0.031 C 
ATOM     24  C   UNL A   1      44.519  32.885  28.647  1.00  0.00     0.029 A 
ATOM     25  C   UNL A   1      43.950  32.759  29.984  1.00  0.00     0.049 A 
ATOM     26  H   UNL A   1      44.074  31.118  31.263  1.00  0.00     0.167 HD
ATOM     27  C   UNL A   1      44.354  27.316  33.668  1.00  0.00     0.031 A 
ATOM     28  C   UNL A   1      43.237  33.698  30.635  1.00  0.00     0.031 A 
ATOM     29  C   UNL A   1      43.566  28.238  34.435  1.00  0.00     0.049 A 
ATOM     30  C   UNL A   1      42.679  33.329  31.983  1.00  0.00     0.074 A 
ATOM     31  C   UNL A   1      42.995  28.069  35.679  1.00  0.00     0.029 A 
ATOM     32  N   UNL A   1      43.238  29.521  34.006  1.00  0.00    -0.354 N 
ATOM     33  N   UNL A   1      42.810  32.200  32.644  1.00  0.00    -0.248 NA
ATOM     34  C   UNL A   1      41.870  34.341  32.670  1.00  0.00     0.031 C 
ATOM     35  C   UNL A   1      42.277  29.232  35.978  1.00  0.00     0.029 A 
ATOM     36  C   UNL A   1      42.460  30.153  34.953  1.00  0.00     0.049 A 
ATOM     37  H   UNL A   1      43.520  29.919  33.151  1.00  0.00     0.167 HD
ATOM     38  C   UNL A   1      42.123  32.371  33.837  1.00  0.00     0.074 A 
ATOM     39  C   UNL A   1      41.577  33.717  33.805  1.00  0.00     0.031 C 
ATOM     40  C   UNL A   1      41.958  31.505  34.868  1.00  0.00     0.031 A 
BRANCH  27  41
ATOM     41  C   UNL A   1      44.632  25.929  34.179  1.00  0.00    -0.014 A 
ATOM     42  C   UNL A   1      45.891  25.562  34.691  1.00  0.00     0.010 A 
ATOM     43  C   UNL A   1      43.635  24.944  34.056  1.00  0.00     0.010 A 
ATOM     44  C   UNL A   1      46.167  24.226  35.003  1.00  0.00     0.020 A 
ATOM     45  C   UNL A   1      43.896  23.614  34.395  1.00  0.00     0.020 A 
ATOM     46  C   UNL A   1      45.171  23.259  34.839  1.00  0.00     0.054 A 
BRANCH  46  47
ATOM     47  S   UNL A   1      45.566  21.526  35.202  1.00  0.00     0.124 S 
ATOM     48  O   UNL A   1      46.841  21.356  34.508  1.00  0.00    -0.237 OA
ATOM     49  O   UNL A   1      45.640  21.512  36.660  1.00  0.00    -0.237 OA
ATOM     50  O   UNL A   1      44.444  20.786  34.630  1.00  0.00    -0.744 OA
ENDBRANCH  46  47
ENDBRANCH  27  41
BRANCH  28  51
ATOM     51  C   UNL A   1      42.969  35.007  29.979  1.00  0.00    -0.014 A 
ATOM     52  C   UNL A   1      43.830  36.102  30.161  1.00  0.00     0.010 A 
ATOM     53  C   UNL A   1      41.876  35.141  29.099  1.00  0.00     0.010 A 
ATOM     54  C   UNL A   1      43.609  37.300  29.469  1.00  0.00     0.020 A 
ATOM     55  C   UNL A   1      41.668  36.325  28.385  1.00  0.00     0.020 A 
ATOM     56  C   UNL A   1      42.535  37.400  28.577  1.00  0.00     0.054 A 
BRANCH  56  57
ATOM     57  S   UNL A   1      42.324  38.932  27.625  1.00  0.00     0.124 S 
ATOM     58  O   UNL A   1      43.694  39.227  27.218  1.00  0.00    -0.237 OA
ATOM     59  O   UNL A   1      41.420  38.515  26.556  1.00  0.00    -0.237 OA
ATOM     60  O   UNL A   1      41.745  39.860  28.595  1.00  0.00    -0.744 OA
ENDBRANCH  56  57
ENDBRANCH  28  51
BRANCH  40  61
ATOM     61  C   UNL A   1      41.214  32.006  36.071  1.00  0.00    -0.014 A 
ATOM     62  C   UNL A   1      41.840  32.822  37.027  1.00  0.00     0.010 A 
ATOM     63  C   UNL A   1      39.832  31.757  36.162  1.00  0.00     0.010 A 
ATOM     64  C   UNL A   1      41.089  33.384  38.061  1.00  0.00     0.020 A 
ATOM     65  C   UNL A   1      39.076  32.340  37.177  1.00  0.00     0.020 A 
ATOM     66  C   UNL A   1      39.711  33.149  38.122  1.00  0.00     0.054 A 
BRANCH  66  67
ATOM     67  S   UNL A   1      38.742  33.976  39.410  1.00  0.00     0.124 S 
ATOM     68  O   UNL A   1      39.501  35.206  39.617  1.00  0.00    -0.237 OA
ATOM     69  O   UNL A   1      37.438  34.138  38.774  1.00  0.00    -0.237 OA
ATOM     70  O   UNL A   1      38.771  33.032  40.525  1.00  0.00    -0.744 OA
ENDBRANCH  66  67
ENDBRANCH  40  61
ENDBRANCH  14  15
ENDBRANCH   7   9
ENDBRANCH   6   7
ENDBRANCH   5   6
ENDBRANCH   4   5
ENDBRANCH   3   4
ENDBRANCH   2   3
ENDBRANCH   1   2
BRANCH   1  71
ATOM     71  O   UNL A   1      42.995  22.298  24.706  1.00  0.00    -0.377 OA
BRANCH  71  72
ATOM     72  C   UNL A   1      43.348  21.409  25.755  1.00  0.00     0.188 C 
BRANCH  72  73
ATOM     73  C   UNL A   1      42.254  20.659  26.542  1.00  0.00     0.188 C 
BRANCH  73  74
ATOM     74  O   UNL A   1      40.944  20.915  26.096  1.00  0.00    -0.376 OA
BRANCH  74  75
ATOM     75  C   UNL A   1      40.136  21.865  26.780  1.00  0.00     0.202 C 
BRANCH  75  76
ATOM     76  C   UNL A   1      40.693  23.054  27.601  1.00  0.00     0.261 C 
BRANCH  76  77
ATOM     77  O   UNL A   1      41.459  24.022  26.875  1.00  0.00    -0.461 OA
BRANCH  77  78
ATOM     78  C   UNL A   1      41.987  25.078  27.550  1.00  0.00     0.335 C 
ATOM     79  O   UNL A   1      43.160  25.161  27.926  1.00  0.00    -0.249 OA
BRANCH  78  80
ATOM     80  C   UNL A   1      40.961  26.224  27.638  1.00  0.00     0.228 C 
ATOM     81  C   UNL A   1      41.120  27.147  26.432  1.00  0.00     0.047 C 
ATOM     82  O   UNL A   1      41.011  27.068  28.784  1.00  0.00    -0.361 OA
ATOM     83  C   UNL A   1      40.768  28.529  26.929  1.00  0.00     0.037 C 
ATOM     84  C   UNL A   1      40.518  28.374  28.424  1.00  0.00     0.139 C 
BRANCH  84  85
ATOM     85  C   UNL A   1      39.056  28.603  28.924  1.00  0.00     0.160 C 
BRANCH  85  86
ATOM     86  N   UNL A   1      38.848  29.882  29.620  1.00  0.00    -0.280 N 
ATOM     87  C   UNL A   1      39.882  30.380  30.400  1.00  0.00     0.229 C 
ATOM     88  C   UNL A   1      37.570  30.405  29.676  1.00  0.00     0.229 C 
ATOM     89  O   UNL A   1      40.866  29.715  30.724  1.00  0.00    -0.274 OA
ATOM     90  C   UNL A   1      39.827  31.853  30.749  1.00  0.00     0.108 C 
ATOM     91  C   UNL A   1      37.497  31.898  29.874  1.00  0.00     0.108 C 
ATOM     92  O   UNL A   1      36.553  29.738  29.509  1.00  0.00    -0.274 OA
ATOM     93  C   UNL A   1      38.431  32.447  30.944  1.00  0.00    -0.012 C 
ATOM     94  C   UNL A   1      38.512  33.998  30.817  1.00  0.00     0.008 C 
ATOM     95  C   UNL A   1      37.894  32.207  32.369  1.00  0.00     0.008 C 
ATOM     96  C   UNL A   1      38.032  34.572  32.142  1.00  0.00     0.001 C 
ATOM     97  C   UNL A   1      38.285  33.461  33.142  1.00  0.00     0.001 C 
ENDBRANCH  85  86
ENDBRANCH  84  85
ENDBRANCH  78  80
ENDBRANCH  77  78
ENDBRANCH  76  77
ENDBRANCH  75  76
ENDBRANCH  74  75
ENDBRANCH  73  74
ENDBRANCH  72  73
ENDBRANCH  71  72
ENDBRANCH   1  71
TORSDOF 25
ENDMDL
MODEL 3
REMARK VINA RESULT:      -8.8      3.861      8.339
REMARK SMILES O=C(OCCOCCOCCOCCOC(=O)[C@@H]1CC[C@@H](CN2C(=O)CC3(CCCC3)CC2=O)O1)c1ccc(-c2c3nc(c(-c4ccc(S(=O)(=O)[O-])cc4)c4ccc([nH]4)c(-c4ccc(S(=O)(=O)[O-])cc4)c4nc(c(-c5ccc(S(=O)(=O)[O-])cc5)c5ccc2[nH]5)C=C4)C=C3)cc1
REMARK SMILES IDX 8 1 7 2 6 3 5 4 4 5 3 6 2 7 1 8 36 9 37 10 95 11 38 12 94 13
REMARK SMILES IDX 39 14 40 15 41 16 88 17 42 18 93 19 87 20 89 21 43 22 92 23
REMARK SMILES IDX 86 24 85 25 44 27 74 28 55 29 73 30 56 31 59 32 72 33 90 34
REMARK SMILES IDX 57 35 58 36 71 38 91 39 60 40 45 41 46 42 54 43 47 44 53 45
REMARK SMILES IDX 48 46 49 47 50 48 51 49 52 50 75 51 76 52 84 53 77 54 83 55
REMARK SMILES IDX 78 56 79 57 80 58 81 59 82 60 61 61 62 62 70 63 63 64 69 65
REMARK SMILES IDX 64 66 65 67 66 68 67 69 68 70 9 71 10 72 11 73 12 74 13 75
REMARK SMILES IDX 14 76 15 77 16 78 17 79 18 80 19 81 35 82 20 83 21 84 22 85
REMARK SMILES IDX 23 86 24 87 33 88 25 89 26 90 32 91 34 92 27 93 28 94 31 95
REMARK SMILES IDX 29 96 30 97
REMARK H PARENT 89 26 59 37
REMARK Flexibility Score: inf
ROOT
ATOM      1  C   UNL A   1      43.435  23.547  25.041  1.00  0.00     0.188 C 
ENDROOT
BRANCH   1   2
ATOM      2  C   UNL A   1      44.879  23.257  24.627  1.00  0.00     0.188 C 
BRANCH   2   3
ATOM      3  O   UNL A   1      45.653  24.455  24.564  1.00  0.00    -0.376 OA
BRANCH   3   4
ATOM      4  C   UNL A   1      47.061  24.288  24.409  1.00  0.00     0.202 C 
BRANCH   4   5
ATOM      5  C   UNL A   1      47.896  25.547  24.638  1.00  0.00     0.261 C 
BRANCH   5   6
ATOM      6  O   UNL A   1      47.534  26.623  23.765  1.00  0.00    -0.460 OA
BRANCH   6   7
ATOM      7  C   UNL A   1      46.937  27.794  24.095  1.00  0.00     0.338 C 
ATOM      8  O   UNL A   1      46.794  28.639  23.210  1.00  0.00    -0.246 OA
BRANCH   7   9
ATOM      9  C   UNL A   1      46.447  28.139  25.469  1.00  0.00     0.060 A 
ATOM     10  C   UNL A   1      45.170  27.878  25.973  1.00  0.00     0.016 A 
ATOM     11  C   UNL A   1      47.385  28.713  26.341  1.00  0.00     0.016 A 
ATOM     12  C   UNL A   1      44.805  28.207  27.268  1.00  0.00     0.010 A 
ATOM     13  C   UNL A   1      47.033  29.057  27.648  1.00  0.00     0.010 A 
ATOM     14  C   UNL A   1      45.726  28.832  28.094  1.00  0.00    -0.014 A 
BRANCH  14  15
ATOM     15  C   UNL A   1      45.217  29.476  29.308  1.00  0.00     0.031 A 
ATOM     16  C   UNL A   1      45.204  28.646  30.553  1.00  0.00     0.074 A 
ATOM     17  C   UNL A   1      44.899  30.781  29.310  1.00  0.00     0.049 A 
ATOM     18  N   UNL A   1      44.670  28.896  31.712  1.00  0.00    -0.248 NA
ATOM     19  C   UNL A   1      45.903  27.347  30.475  1.00  0.00     0.031 C 
ATOM     20  C   UNL A   1      45.067  31.694  28.178  1.00  0.00     0.029 A 
ATOM     21  N   UNL A   1      44.377  31.563  30.301  1.00  0.00    -0.354 N 
ATOM     22  C   UNL A   1      44.909  27.763  32.480  1.00  0.00     0.074 A 
ATOM     23  C   UNL A   1      45.653  26.832  31.666  1.00  0.00     0.031 C 
ATOM     24  C   UNL A   1      44.636  32.914  28.536  1.00  0.00     0.029 A 
ATOM     25  C   UNL A   1      44.091  32.840  29.887  1.00  0.00     0.049 A 
ATOM     26  H   UNL A   1      44.221  31.243  31.220  1.00  0.00     0.167 HD
ATOM     27  C   UNL A   1      44.504  27.522  33.747  1.00  0.00     0.031 A 
ATOM     28  C   UNL A   1      43.401  33.809  30.519  1.00  0.00     0.031 A 
ATOM     29  C   UNL A   1      43.741  28.479  34.497  1.00  0.00     0.049 A 
ATOM     30  C   UNL A   1      42.863  33.493  31.888  1.00  0.00     0.074 A 
ATOM     31  C   UNL A   1      43.191  28.359  35.756  1.00  0.00     0.029 A 
ATOM     32  N   UNL A   1      43.419  29.750  34.030  1.00  0.00    -0.354 N 
ATOM     33  N   UNL A   1      42.995  32.386  32.585  1.00  0.00    -0.248 NA
ATOM     34  C   UNL A   1      42.078  34.537  32.555  1.00  0.00     0.031 C 
ATOM     35  C   UNL A   1      42.492  29.539  36.029  1.00  0.00     0.029 A 
ATOM     36  C   UNL A   1      42.666  30.423  34.969  1.00  0.00     0.049 A 
ATOM     37  H   UNL A   1      43.690  30.115  33.157  1.00  0.00     0.167 HD
ATOM     38  C   UNL A   1      42.332  32.605  33.784  1.00  0.00     0.074 A 
ATOM     39  C   UNL A   1      41.800  33.955  33.716  1.00  0.00     0.031 C 
ATOM     40  C   UNL A   1      42.177  31.777  34.847  1.00  0.00     0.031 A 
BRANCH  27  41
ATOM     41  C   UNL A   1      44.778  26.150  34.300  1.00  0.00    -0.014 A 
ATOM     42  C   UNL A   1      45.959  25.852  35.006  1.00  0.00     0.010 A 
ATOM     43  C   UNL A   1      43.870  25.111  34.026  1.00  0.00     0.010 A 
ATOM     44  C   UNL A   1      46.258  24.532  35.362  1.00  0.00     0.020 A 
ATOM     45  C   UNL A   1      44.149  23.796  34.406  1.00  0.00     0.020 A 
ATOM     46  C   UNL A   1      45.356  23.511  35.046  1.00  0.00     0.054 A 
BRANCH  46  47
ATOM     47  S   UNL A   1      45.788  21.801  35.472  1.00  0.00     0.124 S 
ATOM     48  O   UNL A   1      47.157  21.702  34.972  1.00  0.00    -0.237 OA
ATOM     49  O   UNL A   1      45.649  21.788  36.926  1.00  0.00    -0.237 OA
ATOM     50  O   UNL A   1      44.802  21.003  34.748  1.00  0.00    -0.744 OA
ENDBRANCH  46  47
ENDBRANCH  27  41
BRANCH  28  51
ATOM     51  C   UNL A   1      43.134  35.098  29.824  1.00  0.00    -0.014 A 
ATOM     52  C   UNL A   1      43.960  36.217  30.023  1.00  0.00     0.010 A 
ATOM     53  C   UNL A   1      42.082  35.188  28.889  1.00  0.00     0.010 A 
ATOM     54  C   UNL A   1      43.746  37.395  29.296  1.00  0.00     0.020 A 
ATOM     55  C   UNL A   1      41.881  36.353  28.141  1.00  0.00     0.020 A 
ATOM     56  C   UNL A   1      42.713  37.452  28.352  1.00  0.00     0.054 A 
BRANCH  56  57
ATOM     57  S   UNL A   1      42.513  38.958  27.360  1.00  0.00     0.124 S 
ATOM     58  O   UNL A   1      42.276  39.969  28.386  1.00  0.00    -0.237 OA
ATOM     59  O   UNL A   1      43.795  39.049  26.664  1.00  0.00    -0.237 OA
ATOM     60  O   UNL A   1      41.368  38.655  26.503  1.00  0.00    -0.744 OA
ENDBRANCH  56  57
ENDBRANCH  28  51
BRANCH  40  61
ATOM     61  C   UNL A   1      41.461  32.327  36.046  1.00  0.00    -0.014 A 
ATOM     62  C   UNL A   1      40.071  32.190  36.190  1.00  0.00     0.010 A 
ATOM     63  C   UNL A   1      42.223  32.866  37.099  1.00  0.00     0.010 A 
ATOM     64  C   UNL A   1      39.452  32.588  37.376  1.00  0.00     0.020 A 
ATOM     65  C   UNL A   1      41.611  33.238  38.293  1.00  0.00     0.020 A 
ATOM     66  C   UNL A   1      40.228  33.099  38.424  1.00  0.00     0.054 A 
BRANCH  66  67
ATOM     67  S   UNL A   1      39.415  33.508  39.990  1.00  0.00     0.124 S 
ATOM     68  O   UNL A   1      38.609  32.315  40.234  1.00  0.00    -0.237 OA
ATOM     69  O   UNL A   1      40.545  33.702  40.895  1.00  0.00    -0.237 OA
ATOM     70  O   UNL A   1      38.658  34.720  39.682  1.00  0.00    -0.744 OA
ENDBRANCH  66  67
ENDBRANCH  40  61
ENDBRANCH  14  15
ENDBRANCH   7   9
ENDBRANCH   6   7
ENDBRANCH   5   6
ENDBRANCH   4   5
ENDBRANCH   3   4
ENDBRANCH   2   3
ENDBRANCH   1   2
BRANCH   1  71
ATOM     71  O   UNL A   1      42.554  22.425  25.071  1.00  0.00    -0.377 OA
BRANCH  71  72
ATOM     72  C   UNL A   1      43.056  21.227  25.645  1.00  0.00     0.188 C 
BRANCH  72  73
ATOM     73  C   UNL A   1      42.648  20.817  27.074  1.00  0.00     0.188 C 
BRANCH  73  74
ATOM     74  O   UNL A   1      41.559  21.542  27.594  1.00  0.00    -0.376 OA
BRANCH  74  75
ATOM     75  C   UNL A   1      41.793  22.691  28.400  1.00  0.00     0.202 C 
BRANCH  75  76
ATOM     76  C   UNL A   1      41.130  24.069  28.167  1.00  0.00     0.261 C 
BRANCH  76  77
ATOM     77  O   UNL A   1      39.723  24.059  27.896  1.00  0.00    -0.461 OA
BRANCH  77  78
ATOM     78  C   UNL A   1      39.295  24.382  26.646  1.00  0.00     0.335 C 
ATOM     79  O   UNL A   1      39.847  25.195  25.899  1.00  0.00    -0.249 OA
BRANCH  78  80
ATOM     80  C   UNL A   1      38.120  23.476  26.232  1.00  0.00     0.228 C 
ATOM     81  C   UNL A   1      38.636  22.069  25.943  1.00  0.00     0.047 C 
ATOM     82  O   UNL A   1      37.364  23.858  25.088  1.00  0.00    -0.361 OA
ATOM     83  C   UNL A   1      37.747  21.528  24.848  1.00  0.00     0.037 C 
ATOM     84  C   UNL A   1      36.816  22.674  24.473  1.00  0.00     0.139 C 
BRANCH  84  85
ATOM     85  C   UNL A   1      35.301  22.492  24.809  1.00  0.00     0.160 C 
BRANCH  85  86
ATOM     86  N   UNL A   1      34.510  23.729  24.719  1.00  0.00    -0.280 N 
ATOM     87  C   UNL A   1      33.921  24.217  25.875  1.00  0.00     0.229 C 
ATOM     88  C   UNL A   1      34.178  24.212  23.467  1.00  0.00     0.229 C 
ATOM     89  O   UNL A   1      33.830  23.564  26.916  1.00  0.00    -0.274 OA
ATOM     90  C   UNL A   1      33.489  25.669  25.864  1.00  0.00     0.108 C 
ATOM     91  C   UNL A   1      33.890  25.692  23.407  1.00  0.00     0.108 C 
ATOM     92  O   UNL A   1      34.179  23.526  22.449  1.00  0.00    -0.274 OA
ATOM     93  C   UNL A   1      32.995  26.214  24.522  1.00  0.00    -0.012 C 
ATOM     94  C   UNL A   1      33.051  27.770  24.549  1.00  0.00     0.008 C 
ATOM     95  C   UNL A   1      31.507  25.889  24.280  1.00  0.00     0.008 C 
ATOM     96  C   UNL A   1      31.629  28.265  24.328  1.00  0.00     0.001 C 
ATOM     97  C   UNL A   1      30.758  27.113  24.791  1.00  0.00     0.001 C 
ENDBRANCH  85  86
ENDBRANCH  84  85
ENDBRANCH  78  80
ENDBRANCH  77  78
ENDBRANCH  76  77
ENDBRANCH  75  76
ENDBRANCH  74  75
ENDBRANCH  73  74
ENDBRANCH  72  73
ENDBRANCH  71  72
ENDBRANCH   1  71
TORSDOF 25
ENDMDL
