MODEL 1
REMARK VINA RESULT:      -6.3      0.000      0.000
REMARK SMILES O=C(COc1ccc(/C=C2/C(=O)[NH+]=C(O)N=C2O)cc1Cl)OCCOCCOCCOCCOC(=O)c1ccc(-c2c3nc(c(-c4ccc(S(=O)(=O)[O-])cc4)c4ccc([nH]4)c(-c4ccc(S(=O)(=O)[O-])cc4)c4nc(c(-c5ccc(S(=O)(=O)[O-])cc5)c5ccc2[nH]5)C=C4)C=C3)cc1
REMARK SMILES IDX 27 1 26 2 25 3 24 4 23 5 22 6 2 7 1 8 3 9 4 10 5 11 6 12
REMARK SMILES IDX 20 13 7 14 19 15 21 16 8 17 9 18 10 19 11 20 17 21 12 22
REMARK SMILES IDX 13 23 16 24 14 25 18 27 15 29 28 31 29 32 30 33 31 34 32 35
REMARK SMILES IDX 33 36 34 37 35 38 36 39 37 40 38 41 96 42 39 43 95 44 40 45
REMARK SMILES IDX 41 46 42 47 89 48 43 49 94 50 88 51 90 52 44 53 93 54 87 55
REMARK SMILES IDX 86 56 45 58 75 59 56 60 74 61 57 62 60 63 73 64 91 65 58 66
REMARK SMILES IDX 59 67 72 69 92 70 61 71 46 72 47 73 55 74 48 75 54 76 49 77
REMARK SMILES IDX 50 78 51 79 52 80 53 81 76 82 77 83 85 84 78 85 84 86 79 87
REMARK SMILES IDX 80 88 81 89 82 90 83 91 62 92 63 93 71 94 64 95 70 96 65 97
REMARK SMILES IDX 66 98 67 99 68 100 69 101
REMARK H PARENT 13 26 18 28 15 30 90 57 60 68
REMARK Flexibility Score: inf
ROOT
ATOM      1  C   UNL A   1      47.582  35.571  38.071  1.00  0.00     0.188 C 
ENDROOT
BRANCH   1   2
ATOM      2  C   UNL A   1      46.106  35.784  38.449  1.00  0.00     0.188 C 
BRANCH   2   3
ATOM      3  O   UNL A   1      45.169  35.073  37.652  1.00  0.00    -0.376 OA
BRANCH   3   4
ATOM      4  C   UNL A   1      44.677  35.533  36.407  1.00  0.00     0.202 C 
BRANCH   4   5
ATOM      5  C   UNL A   1      44.365  37.019  36.198  1.00  0.00     0.261 C 
BRANCH   5   6
ATOM      6  O   UNL A   1      43.875  37.399  34.895  1.00  0.00    -0.461 OA
BRANCH   6   7
ATOM      7  C   UNL A   1      42.830  36.857  34.237  1.00  0.00     0.344 C 
ATOM      8  O   UNL A   1      41.683  37.240  34.462  1.00  0.00    -0.248 OA
BRANCH   7   9
ATOM      9  C   UNL A   1      43.100  35.716  33.284  1.00  0.00     0.352 C 
BRANCH   9  10
ATOM     10  O   UNL A   1      42.271  34.576  33.517  1.00  0.00    -0.480 OA
BRANCH  10  11
ATOM     11  C   UNL A   1      42.519  33.649  32.552  1.00  0.00     0.138 A 
ATOM     12  C   UNL A   1      41.620  33.641  31.495  1.00  0.00     0.048 A 
ATOM     13  C   UNL A   1      43.663  32.849  32.538  1.00  0.00     0.083 A 
ATOM     14  C   UNL A   1      41.959  32.961  30.338  1.00  0.00     0.012 A 
ATOM     15  C   UNL A   1      44.042  32.256  31.347  1.00  0.00     0.032 A 
ATOM     16  Cl  UNL A   1      44.640  32.563  33.922  1.00  0.00    -0.080 Cl
ATOM     17  C   UNL A   1      43.225  32.372  30.219  1.00  0.00    -0.023 A 
BRANCH  17  18
ATOM     18  C   UNL A   1      43.727  31.813  28.968  1.00  0.00     0.032 C 
ATOM     19  C   UNL A   1      44.167  32.460  27.876  1.00  0.00     0.154 C 
ATOM     20  C   UNL A   1      44.411  31.628  26.677  1.00  0.00     0.349 C 
ATOM     21  C   UNL A   1      44.293  33.887  27.598  1.00  0.00     0.345 C 
ATOM     22  O   UNL A   1      44.872  30.495  26.761  1.00  0.00    -0.240 OA
ATOM     23  N   UNL A   1      44.005  32.201  25.505  1.00  0.00    -0.168 N 
ATOM     24  N   UNL A   1      44.153  34.383  26.424  1.00  0.00     0.036 NA
ATOM     25  C   UNL A   1      43.888  33.476  25.458  1.00  0.00     0.500 C 
ATOM     26  H   UNL A   1      43.807  31.647  24.716  1.00  0.00     0.319 HD
BRANCH  21  27
ATOM     27  O   UNL A   1      44.645  34.704  28.605  1.00  0.00    -0.474 OA
ATOM     28  H   UNL A   1      44.090  34.789  29.355  1.00  0.00     0.297 HD
ENDBRANCH  21  27
BRANCH  25  29
ATOM     29  O   UNL A   1      43.452  34.027  24.322  1.00  0.00    -0.443 OA
ATOM     30  H   UNL A   1      43.425  33.519  23.535  1.00  0.00     0.301 HD
ENDBRANCH  25  29
ENDBRANCH  17  18
ENDBRANCH  10  11
ENDBRANCH   9  10
ENDBRANCH   7   9
ENDBRANCH   6   7
ENDBRANCH   5   6
ENDBRANCH   4   5
ENDBRANCH   3   4
ENDBRANCH   2   3
ENDBRANCH   1   2
BRANCH   1  31
ATOM     31  O   UNL A   1      47.783  34.993  36.789  1.00  0.00    -0.377 OA
BRANCH  31  32
ATOM     32  C   UNL A   1      48.581  33.819  36.791  1.00  0.00     0.188 C 
BRANCH  32  33
ATOM     33  C   UNL A   1      47.801  32.504  37.005  1.00  0.00     0.188 C 
BRANCH  33  34
ATOM     34  O   UNL A   1      47.818  31.806  38.241  1.00  0.00    -0.376 OA
BRANCH  34  35
ATOM     35  C   UNL A   1      48.844  30.884  38.565  1.00  0.00     0.202 C 
BRANCH  35  36
ATOM     36  C   UNL A   1      48.614  29.667  39.476  1.00  0.00     0.261 C 
BRANCH  36  37
ATOM     37  O   UNL A   1      47.627  28.723  39.069  1.00  0.00    -0.460 OA
BRANCH  37  38
ATOM     38  C   UNL A   1      47.867  28.093  37.897  1.00  0.00     0.338 C 
ATOM     39  O   UNL A   1      48.782  27.331  37.641  1.00  0.00    -0.246 OA
BRANCH  38  40
ATOM     40  C   UNL A   1      46.701  28.321  37.017  1.00  0.00     0.060 A 
ATOM     41  C   UNL A   1      46.836  29.218  35.946  1.00  0.00     0.016 A 
ATOM     42  C   UNL A   1      45.503  27.630  37.219  1.00  0.00     0.016 A 
ATOM     43  C   UNL A   1      45.759  29.461  35.099  1.00  0.00     0.010 A 
ATOM     44  C   UNL A   1      44.410  27.907  36.400  1.00  0.00     0.010 A 
ATOM     45  C   UNL A   1      44.527  28.859  35.372  1.00  0.00    -0.014 A 
BRANCH  45  46
ATOM     46  C   UNL A   1      43.299  29.467  34.818  1.00  0.00     0.031 A 
ATOM     47  C   UNL A   1      42.867  29.000  33.454  1.00  0.00     0.074 A 
ATOM     48  C   UNL A   1      42.594  30.389  35.492  1.00  0.00     0.049 A 
ATOM     49  N   UNL A   1      41.886  29.423  32.704  1.00  0.00    -0.248 NA
ATOM     50  C   UNL A   1      43.657  27.908  32.856  1.00  0.00     0.031 C 
ATOM     51  C   UNL A   1      42.887  30.867  36.841  1.00  0.00     0.029 A 
ATOM     52  N   UNL A   1      41.484  31.099  35.113  1.00  0.00    -0.354 N 
ATOM     53  C   UNL A   1      41.952  28.662  31.543  1.00  0.00     0.074 A 
ATOM     54  C   UNL A   1      43.078  27.768  31.676  1.00  0.00     0.031 C 
ATOM     55  C   UNL A   1      41.987  31.810  37.171  1.00  0.00     0.029 A 
ATOM     56  C   UNL A   1      41.083  32.026  36.042  1.00  0.00     0.049 A 
ATOM     57  H   UNL A   1      41.019  30.957  34.256  1.00  0.00     0.167 HD
ATOM     58  C   UNL A   1      41.149  28.708  30.457  1.00  0.00     0.031 A 
ATOM     59  C   UNL A   1      40.114  32.961  35.970  1.00  0.00     0.031 A 
ATOM     60  C   UNL A   1      40.052  29.625  30.321  1.00  0.00     0.049 A 
ATOM     61  C   UNL A   1      39.280  33.054  34.716  1.00  0.00     0.074 A 
ATOM     62  C   UNL A   1      39.174  29.765  29.264  1.00  0.00     0.029 A 
ATOM     63  N   UNL A   1      39.695  30.568  31.273  1.00  0.00    -0.354 N 
ATOM     64  N   UNL A   1      39.343  32.323  33.626  1.00  0.00    -0.248 NA
ATOM     65  C   UNL A   1      38.240  34.091  34.685  1.00  0.00     0.031 C 
ATOM     66  C   UNL A   1      38.318  30.832  29.553  1.00  0.00     0.029 A 
ATOM     67  C   UNL A   1      38.621  31.311  30.819  1.00  0.00     0.049 A 
ATOM     68  H   UNL A   1      40.139  30.690  32.143  1.00  0.00     0.167 HD
ATOM     69  C   UNL A   1      38.330  32.791  32.795  1.00  0.00     0.074 A 
ATOM     70  C   UNL A   1      37.668  33.864  33.509  1.00  0.00     0.031 C 
ATOM     71  C   UNL A   1      37.974  32.369  31.555  1.00  0.00     0.031 A 
BRANCH  58  72
ATOM     72  C   UNL A   1      41.475  27.778  29.320  1.00  0.00    -0.014 A 
ATOM     73  C   UNL A   1      40.809  26.548  29.165  1.00  0.00     0.010 A 
ATOM     74  C   UNL A   1      42.472  28.138  28.395  1.00  0.00     0.010 A 
ATOM     75  C   UNL A   1      41.166  25.676  28.135  1.00  0.00     0.020 A 
ATOM     76  C   UNL A   1      42.811  27.281  27.345  1.00  0.00     0.020 A 
ATOM     77  C   UNL A   1      42.168  26.047  27.234  1.00  0.00     0.054 A 
BRANCH  77  78
ATOM     78  S   UNL A   1      42.606  24.901  25.898  1.00  0.00     0.124 S 
ATOM     79  O   UNL A   1      42.437  25.741  24.714  1.00  0.00    -0.237 OA
ATOM     80  O   UNL A   1      43.984  24.542  26.222  1.00  0.00    -0.237 OA
ATOM     81  O   UNL A   1      41.634  23.819  26.036  1.00  0.00    -0.744 OA
ENDBRANCH  77  78
ENDBRANCH  58  72
BRANCH  59  82
ATOM     82  C   UNL A   1      39.896  33.894  37.109  1.00  0.00    -0.014 A 
ATOM     83  C   UNL A   1      38.949  33.602  38.105  1.00  0.00     0.010 A 
ATOM     84  C   UNL A   1      40.651  35.078  37.211  1.00  0.00     0.010 A 
ATOM     85  C   UNL A   1      38.755  34.478  39.178  1.00  0.00     0.020 A 
ATOM     86  C   UNL A   1      40.480  35.942  38.295  1.00  0.00     0.020 A 
ATOM     87  C   UNL A   1      39.527  35.640  39.269  1.00  0.00     0.054 A 
BRANCH  87  88
ATOM     88  S   UNL A   1      39.306  36.725  40.708  1.00  0.00     0.124 S 
ATOM     89  O   UNL A   1      40.605  37.385  40.793  1.00  0.00    -0.237 OA
ATOM     90  O   UNL A   1      38.190  37.572  40.294  1.00  0.00    -0.237 OA
ATOM     91  O   UNL A   1      39.004  35.794  41.793  1.00  0.00    -0.744 OA
ENDBRANCH  87  88
ENDBRANCH  59  82
BRANCH  71  92
ATOM     92  C   UNL A   1      36.785  33.026  30.907  1.00  0.00    -0.014 A 
ATOM     93  C   UNL A   1      35.545  33.112  31.562  1.00  0.00     0.010 A 
ATOM     94  C   UNL A   1      36.942  33.639  29.649  1.00  0.00     0.010 A 
ATOM     95  C   UNL A   1      34.475  33.781  30.960  1.00  0.00     0.020 A 
ATOM     96  C   UNL A   1      35.884  34.333  29.058  1.00  0.00     0.020 A 
ATOM     97  C   UNL A   1      34.653  34.390  29.713  1.00  0.00     0.054 A 
BRANCH  97  98
ATOM     98  S   UNL A   1      33.267  35.299  28.979  1.00  0.00     0.124 S 
ATOM     99  O   UNL A   1      33.945  36.418  28.331  1.00  0.00    -0.237 OA
ATOM    100  O   UNL A   1      32.678  34.312  28.076  1.00  0.00    -0.237 OA
ATOM    101  O   UNL A   1      32.437  35.655  30.128  1.00  0.00    -0.744 OA
ENDBRANCH  97  98
ENDBRANCH  71  92
ENDBRANCH  45  46
ENDBRANCH  38  40
ENDBRANCH  37  38
ENDBRANCH  36  37
ENDBRANCH  35  36
ENDBRANCH  34  35
ENDBRANCH  33  34
ENDBRANCH  32  33
ENDBRANCH  31  32
ENDBRANCH   1  31
TORSDOF 28
ENDMDL
MODEL 2
REMARK VINA RESULT:      -6.3      7.329     12.586
REMARK SMILES O=C(COc1ccc(/C=C2/C(=O)[NH+]=C(O)N=C2O)cc1Cl)OCCOCCOCCOCCOC(=O)c1ccc(-c2c3nc(c(-c4ccc(S(=O)(=O)[O-])cc4)c4ccc([nH]4)c(-c4ccc(S(=O)(=O)[O-])cc4)c4nc(c(-c5ccc(S(=O)(=O)[O-])cc5)c5ccc2[nH]5)C=C4)C=C3)cc1
REMARK SMILES IDX 27 1 26 2 25 3 24 4 23 5 22 6 2 7 1 8 3 9 4 10 5 11 6 12
REMARK SMILES IDX 20 13 7 14 19 15 21 16 8 17 9 18 10 19 11 20 17 21 12 22
REMARK SMILES IDX 13 23 16 24 14 25 18 27 15 29 28 31 29 32 30 33 31 34 32 35
REMARK SMILES IDX 33 36 34 37 35 38 36 39 37 40 38 41 96 42 39 43 95 44 40 45
REMARK SMILES IDX 41 46 42 47 89 48 43 49 94 50 88 51 90 52 44 53 93 54 87 55
REMARK SMILES IDX 86 56 45 58 75 59 56 60 74 61 57 62 60 63 73 64 91 65 58 66
REMARK SMILES IDX 59 67 72 69 92 70 61 71 46 72 47 73 55 74 48 75 54 76 49 77
REMARK SMILES IDX 50 78 51 79 52 80 53 81 76 82 77 83 85 84 78 85 84 86 79 87
REMARK SMILES IDX 80 88 81 89 82 90 83 91 62 92 63 93 71 94 64 95 70 96 65 97
REMARK SMILES IDX 66 98 67 99 68 100 69 101
REMARK H PARENT 13 26 18 28 15 30 90 57 60 68
REMARK Flexibility Score: inf
ROOT
ATOM      1  C   UNL A   1      43.416  35.075  30.049  1.00  0.00     0.188 C 
ENDROOT
BRANCH   1   2
ATOM      2  C   UNL A   1      43.682  36.502  29.540  1.00  0.00     0.188 C 
BRANCH   2   3
ATOM      3  O   UNL A   1      44.316  36.583  28.271  1.00  0.00    -0.376 OA
BRANCH   3   4
ATOM      4  C   UNL A   1      44.145  37.658  27.367  1.00  0.00     0.202 C 
BRANCH   4   5
ATOM      5  C   UNL A   1      45.328  38.170  26.538  1.00  0.00     0.261 C 
BRANCH   5   6
ATOM      6  O   UNL A   1      45.228  39.518  26.033  1.00  0.00    -0.461 OA
BRANCH   6   7
ATOM      7  C   UNL A   1      45.959  40.582  26.425  1.00  0.00     0.344 C 
ATOM      8  O   UNL A   1      46.756  40.484  27.356  1.00  0.00    -0.248 OA
BRANCH   7   9
ATOM      9  C   UNL A   1      45.709  41.908  25.745  1.00  0.00     0.352 C 
BRANCH   9  10
ATOM     10  O   UNL A   1      46.862  42.753  25.712  1.00  0.00    -0.480 OA
BRANCH  10  11
ATOM     11  C   UNL A   1      46.770  43.577  24.633  1.00  0.00     0.138 A 
ATOM     12  C   UNL A   1      47.327  43.081  23.462  1.00  0.00     0.048 A 
ATOM     13  C   UNL A   1      46.054  44.775  24.645  1.00  0.00     0.083 A 
ATOM     14  C   UNL A   1      47.014  43.699  22.263  1.00  0.00     0.012 A 
ATOM     15  C   UNL A   1      45.664  45.327  23.438  1.00  0.00     0.032 A 
ATOM     16  Cl  UNL A   1      45.618  45.606  26.085  1.00  0.00    -0.080 Cl
ATOM     17  C   UNL A   1      46.083  44.745  22.238  1.00  0.00    -0.023 A 
BRANCH  17  18
ATOM     18  C   UNL A   1      45.555  45.311  21.000  1.00  0.00     0.032 C 
ATOM     19  C   UNL A   1      44.497  44.909  20.278  1.00  0.00     0.154 C 
ATOM     20  C   UNL A   1      44.332  45.544  18.951  1.00  0.00     0.349 C 
ATOM     21  C   UNL A   1      43.552  43.818  20.495  1.00  0.00     0.345 C 
ATOM     22  O   UNL A   1      44.599  46.726  18.764  1.00  0.00    -0.240 OA
ATOM     23  N   UNL A   1      43.942  44.684  17.964  1.00  0.00    -0.168 N 
ATOM     24  N   UNL A   1      42.996  43.178  19.533  1.00  0.00     0.036 NA
ATOM     25  C   UNL A   1      43.346  43.600  18.298  1.00  0.00     0.500 C 
ATOM     26  H   UNL A   1      44.116  44.892  17.017  1.00  0.00     0.319 HD
BRANCH  21  27
ATOM     27  O   UNL A   1      43.196  43.524  21.756  1.00  0.00    -0.474 OA
ATOM     28  H   UNL A   1      42.393  43.855  22.105  1.00  0.00     0.297 HD
ENDBRANCH  21  27
BRANCH  25  29
ATOM     29  O   UNL A   1      43.004  42.745  17.331  1.00  0.00    -0.443 OA
ATOM     30  H   UNL A   1      42.100  42.567  17.160  1.00  0.00     0.301 HD
ENDBRANCH  25  29
ENDBRANCH  17  18
ENDBRANCH  10  11
ENDBRANCH   9  10
ENDBRANCH   7   9
ENDBRANCH   6   7
ENDBRANCH   5   6
ENDBRANCH   4   5
ENDBRANCH   3   4
ENDBRANCH   2   3
ENDBRANCH   1   2
BRANCH   1  31
ATOM     31  O   UNL A   1      42.103  34.863  30.547  1.00  0.00    -0.377 OA
BRANCH  31  32
ATOM     32  C   UNL A   1      41.238  34.176  29.655  1.00  0.00     0.188 C 
BRANCH  32  33
ATOM     33  C   UNL A   1      40.342  33.107  30.315  1.00  0.00     0.188 C 
BRANCH  33  34
ATOM     34  O   UNL A   1      39.308  33.443  31.228  1.00  0.00    -0.376 OA
BRANCH  34  35
ATOM     35  C   UNL A   1      38.462  32.458  31.795  1.00  0.00     0.202 C 
BRANCH  35  36
ATOM     36  C   UNL A   1      37.501  31.601  30.954  1.00  0.00     0.261 C 
BRANCH  36  37
ATOM     37  O   UNL A   1      37.883  30.252  30.695  1.00  0.00    -0.460 OA
BRANCH  37  38
ATOM     38  C   UNL A   1      37.742  29.839  29.416  1.00  0.00     0.338 C 
ATOM     39  O   UNL A   1      36.760  29.955  28.706  1.00  0.00    -0.246 OA
BRANCH  38  40
ATOM     40  C   UNL A   1      39.069  29.394  28.937  1.00  0.00     0.060 A 
ATOM     41  C   UNL A   1      40.022  28.994  29.886  1.00  0.00     0.016 A 
ATOM     42  C   UNL A   1      39.356  29.335  27.571  1.00  0.00     0.016 A 
ATOM     43  C   UNL A   1      41.282  28.573  29.473  1.00  0.00     0.010 A 
ATOM     44  C   UNL A   1      40.633  28.958  27.159  1.00  0.00     0.010 A 
ATOM     45  C   UNL A   1      41.609  28.625  28.115  1.00  0.00    -0.014 A 
BRANCH  45  46
ATOM     46  C   UNL A   1      43.034  28.668  27.726  1.00  0.00     0.031 A 
ATOM     47  C   UNL A   1      43.614  27.411  27.136  1.00  0.00     0.074 A 
ATOM     48  C   UNL A   1      43.783  29.771  27.883  1.00  0.00     0.049 A 
ATOM     49  N   UNL A   1      44.844  27.147  26.789  1.00  0.00    -0.248 NA
ATOM     50  C   UNL A   1      42.672  26.299  26.912  1.00  0.00     0.031 C 
ATOM     51  C   UNL A   1      43.308  31.058  28.386  1.00  0.00     0.029 A 
ATOM     52  N   UNL A   1      45.118  29.970  27.644  1.00  0.00    -0.354 N 
ATOM     53  C   UNL A   1      44.826  25.837  26.325  1.00  0.00     0.074 A 
ATOM     54  C   UNL A   1      43.471  25.353  26.451  1.00  0.00     0.031 C 
ATOM     55  C   UNL A   1      44.347  31.912  28.435  1.00  0.00     0.029 A 
ATOM     56  C   UNL A   1      45.560  31.218  28.005  1.00  0.00     0.049 A 
ATOM     57  H   UNL A   1      45.704  29.283  27.249  1.00  0.00     0.167 HD
ATOM     58  C   UNL A   1      45.849  25.100  25.840  1.00  0.00     0.031 A 
ATOM     59  C   UNL A   1      46.809  31.725  28.015  1.00  0.00     0.031 A 
ATOM     60  C   UNL A   1      47.199  25.580  25.751  1.00  0.00     0.049 A 
ATOM     61  C   UNL A   1      47.953  30.859  27.548  1.00  0.00     0.074 A 
ATOM     62  C   UNL A   1      48.319  24.920  25.282  1.00  0.00     0.029 A 
ATOM     63  N   UNL A   1      47.612  26.842  26.153  1.00  0.00    -0.354 N 
ATOM     64  N   UNL A   1      47.925  29.625  27.100  1.00  0.00    -0.248 NA
ATOM     65  C   UNL A   1      49.295  31.456  27.582  1.00  0.00     0.031 C 
ATOM     66  C   UNL A   1      49.420  25.763  25.452  1.00  0.00     0.029 A 
ATOM     67  C   UNL A   1      48.975  26.973  25.965  1.00  0.00     0.049 A 
ATOM     68  H   UNL A   1      47.022  27.540  26.519  1.00  0.00     0.167 HD
ATOM     69  C   UNL A   1      49.239  29.310  26.768  1.00  0.00     0.074 A 
ATOM     70  C   UNL A   1      50.035  30.485  27.062  1.00  0.00     0.031 C 
ATOM     71  C   UNL A   1      49.743  28.158  26.259  1.00  0.00     0.031 A 
BRANCH  58  72
ATOM     72  C   UNL A   1      45.544  23.684  25.431  1.00  0.00    -0.014 A 
ATOM     73  C   UNL A   1      45.523  22.637  26.371  1.00  0.00     0.010 A 
ATOM     74  C   UNL A   1      45.282  23.396  24.079  1.00  0.00     0.010 A 
ATOM     75  C   UNL A   1      45.291  21.323  25.960  1.00  0.00     0.020 A 
ATOM     76  C   UNL A   1      45.020  22.086  23.669  1.00  0.00     0.020 A 
ATOM     77  C   UNL A   1      45.046  21.056  24.610  1.00  0.00     0.054 A 
BRANCH  77  78
ATOM     78  S   UNL A   1      44.738  19.341  24.104  1.00  0.00     0.124 S 
ATOM     79  O   UNL A   1      43.678  18.941  25.027  1.00  0.00    -0.237 OA
ATOM     80  O   UNL A   1      44.333  19.487  22.709  1.00  0.00    -0.237 OA
ATOM     81  O   UNL A   1      46.025  18.681  24.311  1.00  0.00    -0.744 OA
ENDBRANCH  77  78
ENDBRANCH  58  72
BRANCH  59  82
ATOM     82  C   UNL A   1      47.043  33.112  28.501  1.00  0.00    -0.014 A 
ATOM     83  C   UNL A   1      47.179  33.378  29.874  1.00  0.00     0.010 A 
ATOM     84  C   UNL A   1      47.148  34.177  27.587  1.00  0.00     0.010 A 
ATOM     85  C   UNL A   1      47.409  34.682  30.325  1.00  0.00     0.020 A 
ATOM     86  C   UNL A   1      47.404  35.477  28.031  1.00  0.00     0.020 A 
ATOM     87  C   UNL A   1      47.526  35.723  29.398  1.00  0.00     0.054 A 
BRANCH  87  88
ATOM     88  S   UNL A   1      47.894  37.394  30.004  1.00  0.00     0.124 S 
ATOM     89  O   UNL A   1      48.177  38.111  28.765  1.00  0.00    -0.237 OA
ATOM     90  O   UNL A   1      46.653  37.763  30.681  1.00  0.00    -0.237 OA
ATOM     91  O   UNL A   1      49.040  37.192  30.887  1.00  0.00    -0.744 OA
ENDBRANCH  87  88
ENDBRANCH  59  82
BRANCH  71  92
ATOM     92  C   UNL A   1      51.212  28.119  25.934  1.00  0.00    -0.014 A 
ATOM     93  C   UNL A   1      52.153  27.602  26.840  1.00  0.00     0.010 A 
ATOM     94  C   UNL A   1      51.643  28.536  24.660  1.00  0.00     0.010 A 
ATOM     95  C   UNL A   1      53.503  27.523  26.487  1.00  0.00     0.020 A 
ATOM     96  C   UNL A   1      52.987  28.431  24.292  1.00  0.00     0.020 A 
ATOM     97  C   UNL A   1      53.910  27.936  25.214  1.00  0.00     0.054 A 
BRANCH  97  98
ATOM     98  S   UNL A   1      55.658  27.771  24.759  1.00  0.00     0.124 S 
ATOM     99  O   UNL A   1      55.771  28.705  23.642  1.00  0.00    -0.237 OA
ATOM    100  O   UNL A   1      56.347  28.170  25.984  1.00  0.00    -0.237 OA
ATOM    101  O   UNL A   1      55.794  26.359  24.407  1.00  0.00    -0.744 OA
ENDBRANCH  97  98
ENDBRANCH  71  92
ENDBRANCH  45  46
ENDBRANCH  38  40
ENDBRANCH  37  38
ENDBRANCH  36  37
ENDBRANCH  35  36
ENDBRANCH  34  35
ENDBRANCH  33  34
ENDBRANCH  32  33
ENDBRANCH  31  32
ENDBRANCH   1  31
TORSDOF 28
ENDMDL
MODEL 3
REMARK VINA RESULT:      -5.9      5.751     12.332
REMARK SMILES O=C(COc1ccc(/C=C2/C(=O)[NH+]=C(O)N=C2O)cc1Cl)OCCOCCOCCOCCOC(=O)c1ccc(-c2c3nc(c(-c4ccc(S(=O)(=O)[O-])cc4)c4ccc([nH]4)c(-c4ccc(S(=O)(=O)[O-])cc4)c4nc(c(-c5ccc(S(=O)(=O)[O-])cc5)c5ccc2[nH]5)C=C4)C=C3)cc1
REMARK SMILES IDX 27 1 26 2 25 3 24 4 23 5 22 6 2 7 1 8 3 9 4 10 5 11 6 12
REMARK SMILES IDX 20 13 7 14 19 15 21 16 8 17 9 18 10 19 11 20 17 21 12 22
REMARK SMILES IDX 13 23 16 24 14 25 18 27 15 29 28 31 29 32 30 33 31 34 32 35
REMARK SMILES IDX 33 36 34 37 35 38 36 39 37 40 38 41 96 42 39 43 95 44 40 45
REMARK SMILES IDX 41 46 42 47 89 48 43 49 94 50 88 51 90 52 44 53 93 54 87 55
REMARK SMILES IDX 86 56 45 58 75 59 56 60 74 61 57 62 60 63 73 64 91 65 58 66
REMARK SMILES IDX 59 67 72 69 92 70 61 71 46 72 47 73 55 74 48 75 54 76 49 77
REMARK SMILES IDX 50 78 51 79 52 80 53 81 76 82 77 83 85 84 78 85 84 86 79 87
REMARK SMILES IDX 80 88 81 89 82 90 83 91 62 92 63 93 71 94 64 95 70 96 65 97
REMARK SMILES IDX 66 98 67 99 68 100 69 101
REMARK H PARENT 13 26 18 28 15 30 90 57 60 68
REMARK Flexibility Score: inf
ROOT
ATOM      1  C   UNL A   1      34.571  33.465  30.376  1.00  0.00     0.188 C 
ENDROOT
BRANCH   1   2
ATOM      2  C   UNL A   1      34.633  33.198  31.889  1.00  0.00     0.188 C 
BRANCH   2   3
ATOM      3  O   UNL A   1      35.063  34.297  32.680  1.00  0.00    -0.376 OA
BRANCH   3   4
ATOM      4  C   UNL A   1      36.227  34.288  33.485  1.00  0.00     0.202 C 
BRANCH   4   5
ATOM      5  C   UNL A   1      36.504  33.116  34.433  1.00  0.00     0.261 C 
BRANCH   5   6
ATOM      6  O   UNL A   1      37.754  32.418  34.249  1.00  0.00    -0.461 OA
BRANCH   6   7
ATOM      7  C   UNL A   1      38.154  31.299  34.887  1.00  0.00     0.344 C 
ATOM      8  O   UNL A   1      37.902  31.135  36.079  1.00  0.00    -0.248 OA
BRANCH   7   9
ATOM      9  C   UNL A   1      38.989  30.300  34.119  1.00  0.00     0.352 C 
BRANCH   9  10
ATOM     10  O   UNL A   1      40.367  30.305  34.498  1.00  0.00    -0.480 OA
BRANCH  10  11
ATOM     11  C   UNL A   1      40.987  29.247  33.909  1.00  0.00     0.138 A 
ATOM     12  C   UNL A   1      40.937  29.231  32.521  1.00  0.00     0.048 A 
ATOM     13  C   UNL A   1      41.742  28.312  34.618  1.00  0.00     0.083 A 
ATOM     14  C   UNL A   1      41.788  28.381  31.835  1.00  0.00     0.012 A 
ATOM     15  C   UNL A   1      42.661  27.540  33.929  1.00  0.00     0.032 A 
ATOM     16  Cl  UNL A   1      41.604  28.069  36.314  1.00  0.00    -0.080 Cl
ATOM     17  C   UNL A   1      42.738  27.627  32.536  1.00  0.00    -0.023 A 
BRANCH  17  18
ATOM     18  C   UNL A   1      43.793  26.865  31.876  1.00  0.00     0.032 C 
ATOM     19  C   UNL A   1      45.015  27.277  31.499  1.00  0.00     0.154 C 
ATOM     20  C   UNL A   1      45.789  26.340  30.654  1.00  0.00     0.349 C 
ATOM     21  C   UNL A   1      45.668  28.575  31.633  1.00  0.00     0.345 C 
ATOM     22  O   UNL A   1      45.741  25.127  30.826  1.00  0.00    -0.240 OA
ATOM     23  N   UNL A   1      46.478  26.940  29.638  1.00  0.00    -0.168 N 
ATOM     24  N   UNL A   1      46.517  29.019  30.780  1.00  0.00     0.036 NA
ATOM     25  C   UNL A   1      46.769  28.183  29.748  1.00  0.00     0.500 C 
ATOM     26  H   UNL A   1      46.744  26.429  28.840  1.00  0.00     0.319 HD
BRANCH  21  27
ATOM     27  O   UNL A   1      45.423  29.301  32.737  1.00  0.00    -0.474 OA
ATOM     28  H   UNL A   1      44.668  29.853  32.775  1.00  0.00     0.297 HD
ENDBRANCH  21  27
BRANCH  25  29
ATOM     29  O   UNL A   1      47.406  28.773  28.734  1.00  0.00    -0.443 OA
ATOM     30  H   UNL A   1      47.333  28.425  27.868  1.00  0.00     0.301 HD
ENDBRANCH  25  29
ENDBRANCH  17  18
ENDBRANCH  10  11
ENDBRANCH   9  10
ENDBRANCH   7   9
ENDBRANCH   6   7
ENDBRANCH   5   6
ENDBRANCH   4   5
ENDBRANCH   3   4
ENDBRANCH   2   3
ENDBRANCH   1   2
BRANCH   1  31
ATOM     31  O   UNL A   1      35.814  33.829  29.791  1.00  0.00    -0.377 OA
BRANCH  31  32
ATOM     32  C   UNL A   1      36.166  33.076  28.641  1.00  0.00     0.188 C 
BRANCH  32  33
ATOM     33  C   UNL A   1      34.973  32.474  27.868  1.00  0.00     0.188 C 
BRANCH  33  34
ATOM     34  O   UNL A   1      34.503  31.155  28.107  1.00  0.00    -0.376 OA
BRANCH  34  35
ATOM     35  C   UNL A   1      35.360  30.131  28.580  1.00  0.00     0.202 C 
BRANCH  35  36
ATOM     36  C   UNL A   1      36.449  29.485  27.707  1.00  0.00     0.261 C 
BRANCH  36  37
ATOM     37  O   UNL A   1      37.804  29.814  28.002  1.00  0.00    -0.460 OA
BRANCH  37  38
ATOM     38  C   UNL A   1      38.604  28.772  28.320  1.00  0.00     0.338 C 
ATOM     39  O   UNL A   1      38.260  27.660  28.678  1.00  0.00    -0.246 OA
BRANCH  38  40
ATOM     40  C   UNL A   1      39.990  29.141  27.962  1.00  0.00     0.060 A 
ATOM     41  C   UNL A   1      40.416  28.936  26.641  1.00  0.00     0.016 A 
ATOM     42  C   UNL A   1      40.845  29.720  28.904  1.00  0.00     0.016 A 
ATOM     43  C   UNL A   1      41.715  29.268  26.268  1.00  0.00     0.010 A 
ATOM     44  C   UNL A   1      42.159  30.010  28.543  1.00  0.00     0.010 A 
ATOM     45  C   UNL A   1      42.605  29.738  27.238  1.00  0.00    -0.014 A 
BRANCH  45  46
ATOM     46  C   UNL A   1      44.057  29.620  26.989  1.00  0.00     0.031 A 
ATOM     47  C   UNL A   1      44.574  28.256  26.622  1.00  0.00     0.074 A 
ATOM     48  C   UNL A   1      44.884  30.674  27.080  1.00  0.00     0.049 A 
ATOM     49  N   UNL A   1      45.802  27.855  26.434  1.00  0.00    -0.248 NA
ATOM     50  C   UNL A   1      43.561  27.198  26.448  1.00  0.00     0.031 C 
ATOM     51  C   UNL A   1      44.482  32.049  27.367  1.00  0.00     0.029 A 
ATOM     52  N   UNL A   1      46.247  30.738  26.950  1.00  0.00    -0.354 N 
ATOM     53  C   UNL A   1      45.709  26.500  26.138  1.00  0.00     0.074 A 
ATOM     54  C   UNL A   1      44.311  26.141  26.190  1.00  0.00     0.031 C 
ATOM     55  C   UNL A   1      45.583  32.821  27.411  1.00  0.00     0.029 A 
ATOM     56  C   UNL A   1      46.763  31.986  27.193  1.00  0.00     0.049 A 
ATOM     57  H   UNL A   1      46.802  29.962  26.704  1.00  0.00     0.167 HD
ATOM     58  C   UNL A   1      46.702  25.629  25.854  1.00  0.00     0.031 A 
ATOM     59  C   UNL A   1      48.047  32.393  27.262  1.00  0.00     0.031 A 
ATOM     60  C   UNL A   1      48.092  25.989  25.838  1.00  0.00     0.049 A 
ATOM     61  C   UNL A   1      49.146  31.389  27.024  1.00  0.00     0.074 A 
ATOM     62  C   UNL A   1      49.186  25.189  25.569  1.00  0.00     0.029 A 
ATOM     63  N   UNL A   1      48.577  27.258  26.118  1.00  0.00    -0.354 N 
ATOM     64  N   UNL A   1      49.049  30.111  26.734  1.00  0.00    -0.248 NA
ATOM     65  C   UNL A   1      50.527  31.881  27.114  1.00  0.00     0.031 C 
ATOM     66  C   UNL A   1      50.338  25.962  25.740  1.00  0.00     0.029 A 
ATOM     67  C   UNL A   1      49.958  27.260  26.050  1.00  0.00     0.049 A 
ATOM     68  H   UNL A   1      48.021  28.042  26.333  1.00  0.00     0.167 HD
ATOM     69  C   UNL A   1      50.355  29.656  26.575  1.00  0.00     0.074 A 
ATOM     70  C   UNL A   1      51.222  30.796  26.796  1.00  0.00     0.031 C 
ATOM     71  C   UNL A   1      50.798  28.412  26.267  1.00  0.00     0.031 A 
BRANCH  58  72
ATOM     72  C   UNL A   1      46.311  24.198  25.597  1.00  0.00    -0.014 A 
ATOM     73  C   UNL A   1      45.917  23.347  26.647  1.00  0.00     0.010 A 
ATOM     74  C   UNL A   1      46.346  23.696  24.284  1.00  0.00     0.010 A 
ATOM     75  C   UNL A   1      45.611  22.009  26.393  1.00  0.00     0.020 A 
ATOM     76  C   UNL A   1      46.011  22.366  24.022  1.00  0.00     0.020 A 
ATOM     77  C   UNL A   1      45.665  21.525  25.082  1.00  0.00     0.054 A 
BRANCH  77  78
ATOM     78  S   UNL A   1      45.252  19.785  24.778  1.00  0.00     0.124 S 
ATOM     79  O   UNL A   1      44.869  19.809  23.368  1.00  0.00    -0.237 OA
ATOM     80  O   UNL A   1      46.507  19.102  25.076  1.00  0.00    -0.237 OA
ATOM     81  O   UNL A   1      44.162  19.518  25.714  1.00  0.00    -0.744 OA
ENDBRANCH  77  78
ENDBRANCH  58  72
BRANCH  59  82
ATOM     82  C   UNL A   1      48.358  33.811  27.591  1.00  0.00    -0.014 A 
ATOM     83  C   UNL A   1      48.893  34.157  28.844  1.00  0.00     0.010 A 
ATOM     84  C   UNL A   1      48.135  34.826  26.641  1.00  0.00     0.010 A 
ATOM     85  C   UNL A   1      49.193  35.489  29.144  1.00  0.00     0.020 A 
ATOM     86  C   UNL A   1      48.459  36.155  26.927  1.00  0.00     0.020 A 
ATOM     87  C   UNL A   1      48.979  36.479  28.180  1.00  0.00     0.054 A 
BRANCH  87  88
ATOM     88  S   UNL A   1      49.443  38.191  28.569  1.00  0.00     0.124 S 
ATOM     89  O   UNL A   1      48.248  38.683  29.249  1.00  0.00    -0.237 OA
ATOM     90  O   UNL A   1      50.624  38.013  29.410  1.00  0.00    -0.237 OA
ATOM     91  O   UNL A   1      49.705  38.780  27.258  1.00  0.00    -0.744 OA
ENDBRANCH  87  88
ENDBRANCH  59  82
BRANCH  71  92
ATOM     92  C   UNL A   1      52.281  28.219  26.096  1.00  0.00    -0.014 A 
ATOM     93  C   UNL A   1      53.082  27.716  27.135  1.00  0.00     0.010 A 
ATOM     94  C   UNL A   1      52.865  28.471  24.839  1.00  0.00     0.010 A 
ATOM     95  C   UNL A   1      54.446  27.490  26.927  1.00  0.00     0.020 A 
ATOM     96  C   UNL A   1      54.221  28.219  24.619  1.00  0.00     0.020 A 
ATOM     97  C   UNL A   1      55.006  27.741  25.670  1.00  0.00     0.054 A 
BRANCH  97  98
ATOM     98  S   UNL A   1      56.764  27.387  25.410  1.00  0.00     0.124 S 
ATOM     99  O   UNL A   1      57.067  26.506  26.534  1.00  0.00    -0.237 OA
ATOM    100  O   UNL A   1      56.773  26.753  24.093  1.00  0.00    -0.237 OA
ATOM    101  O   UNL A   1      57.396  28.704  25.464  1.00  0.00    -0.744 OA
ENDBRANCH  97  98
ENDBRANCH  71  92
ENDBRANCH  45  46
ENDBRANCH  38  40
ENDBRANCH  37  38
ENDBRANCH  36  37
ENDBRANCH  35  36
ENDBRANCH  34  35
ENDBRANCH  33  34
ENDBRANCH  32  33
ENDBRANCH  31  32
ENDBRANCH   1  31
TORSDOF 28
ENDMDL
