MODEL 1
REMARK VINA RESULT:      -9.3      0.000      0.000
REMARK SMILES O=C(OCCOCCOCCOCCOC(=O)c1ccc2nc(Cl)sc2c1)c1ccc(-c2c3nc(c(-c4ccc(S(=O)(=O)[O-])cc4)c4ccc([nH]4)c(-c4ccc(S(=O)(=O)[O-])cc4)c4nc(c(-c5ccc(S(=O)(=O)[O-])cc5)c5ccc2[nH]5)C=C4)C=C3)cc1
REMARK SMILES IDX 7 1 6 2 5 3 4 4 3 5 2 6 1 7 28 8 29 9 87 10 30 11 86 12
REMARK SMILES IDX 31 13 32 14 33 15 80 16 34 17 85 18 79 19 81 20 35 21 84 22
REMARK SMILES IDX 78 23 77 24 36 26 66 27 47 28 65 29 48 30 51 31 64 32 82 33
REMARK SMILES IDX 49 34 50 35 63 37 83 38 52 39 37 40 38 41 46 42 39 43 45 44
REMARK SMILES IDX 40 45 41 46 42 47 43 48 44 49 67 50 68 51 76 52 69 53 75 54
REMARK SMILES IDX 70 55 71 56 72 57 73 58 74 59 53 60 54 61 62 62 55 63 61 64
REMARK SMILES IDX 56 65 57 66 58 67 59 68 60 69 8 70 9 71 10 72 11 73 12 74
REMARK SMILES IDX 13 75 14 76 15 77 16 78 17 79 18 80 19 81 27 82 20 83 26 84
REMARK SMILES IDX 21 85 25 86 22 87 23 88 24 89
REMARK H PARENT 81 25 51 36
REMARK Flexibility Score: inf
ROOT
ATOM      1  C   UNL A   1      32.988  28.300  26.671  1.00  0.00     0.188 C 
ENDROOT
BRANCH   1   2
ATOM      2  O   UNL A   1      33.143  29.691  26.417  1.00  0.00    -0.376 OA
BRANCH   2   3
ATOM      3  C   UNL A   1      33.643  30.483  27.490  1.00  0.00     0.202 C 
BRANCH   3   4
ATOM      4  C   UNL A   1      33.173  31.937  27.434  1.00  0.00     0.261 C 
BRANCH   4   5
ATOM      5  O   UNL A   1      34.292  32.790  27.714  1.00  0.00    -0.460 OA
BRANCH   5   6
ATOM      6  C   UNL A   1      34.467  33.057  29.033  1.00  0.00     0.338 C 
ATOM      7  O   UNL A   1      33.793  33.824  29.705  1.00  0.00    -0.246 OA
BRANCH   6   8
ATOM      8  C   UNL A   1      35.698  32.390  29.520  1.00  0.00     0.060 A 
ATOM      9  C   UNL A   1      36.690  32.006  28.616  1.00  0.00     0.016 A 
ATOM     10  C   UNL A   1      35.798  32.014  30.862  1.00  0.00     0.016 A 
ATOM     11  C   UNL A   1      37.806  31.299  29.076  1.00  0.00     0.010 A 
ATOM     12  C   UNL A   1      36.862  31.246  31.298  1.00  0.00     0.010 A 
ATOM     13  C   UNL A   1      37.906  30.932  30.429  1.00  0.00    -0.014 A 
BRANCH  13  14
ATOM     14  C   UNL A   1      39.185  30.424  30.969  1.00  0.00     0.031 A 
ATOM     15  C   UNL A   1      39.581  29.054  30.465  1.00  0.00     0.074 A 
ATOM     16  C   UNL A   1      40.155  31.281  31.341  1.00  0.00     0.049 A 
ATOM     17  N   UNL A   1      40.227  28.807  29.359  1.00  0.00    -0.248 NA
ATOM     18  C   UNL A   1      38.954  27.867  31.056  1.00  0.00     0.031 C 
ATOM     19  C   UNL A   1      40.725  32.300  30.456  1.00  0.00     0.029 A 
ATOM     20  N   UNL A   1      41.043  31.187  32.386  1.00  0.00    -0.354 N 
ATOM     21  C   UNL A   1      40.078  27.448  29.094  1.00  0.00     0.074 A 
ATOM     22  C   UNL A   1      39.269  26.915  30.166  1.00  0.00     0.031 C 
ATOM     23  C   UNL A   1      41.954  32.620  30.910  1.00  0.00     0.029 A 
ATOM     24  C   UNL A   1      42.218  31.900  32.156  1.00  0.00     0.049 A 
ATOM     25  H   UNL A   1      40.869  30.672  33.205  1.00  0.00     0.167 HD
ATOM     26  C   UNL A   1      40.628  26.803  28.026  1.00  0.00     0.031 A 
ATOM     27  C   UNL A   1      43.433  31.498  32.627  1.00  0.00     0.031 A 
ATOM     28  C   UNL A   1      41.477  27.598  27.194  1.00  0.00     0.049 A 
ATOM     29  C   UNL A   1      43.852  30.558  31.518  1.00  0.00     0.074 A 
ATOM     30  C   UNL A   1      41.434  28.235  25.974  1.00  0.00     0.029 A 
ATOM     31  N   UNL A   1      42.747  27.842  27.654  1.00  0.00    -0.354 N 
ATOM     32  N   UNL A   1      44.350  30.876  30.351  1.00  0.00    -0.248 NA
ATOM     33  C   UNL A   1      43.319  29.194  31.598  1.00  0.00     0.031 C 
ATOM     34  C   UNL A   1      42.496  29.196  26.009  1.00  0.00     0.029 A 
ATOM     35  C   UNL A   1      43.082  29.113  27.272  1.00  0.00     0.049 A 
ATOM     36  H   UNL A   1      43.314  27.219  28.164  1.00  0.00     0.167 HD
ATOM     37  C   UNL A   1      43.915  29.874  29.477  1.00  0.00     0.074 A 
ATOM     38  C   UNL A   1      43.319  28.857  30.318  1.00  0.00     0.031 C 
ATOM     39  C   UNL A   1      43.873  29.989  28.115  1.00  0.00     0.031 A 
BRANCH  26  40
ATOM     40  C   UNL A   1      40.591  25.330  27.840  1.00  0.00    -0.014 A 
ATOM     41  C   UNL A   1      39.422  24.623  27.522  1.00  0.00     0.010 A 
ATOM     42  C   UNL A   1      41.821  24.645  27.846  1.00  0.00     0.010 A 
ATOM     43  C   UNL A   1      39.494  23.257  27.201  1.00  0.00     0.020 A 
ATOM     44  C   UNL A   1      41.899  23.293  27.519  1.00  0.00     0.020 A 
ATOM     45  C   UNL A   1      40.734  22.605  27.195  1.00  0.00     0.054 A 
BRANCH  45  46
ATOM     46  S   UNL A   1      40.821  20.855  26.723  1.00  0.00     0.124 S 
ATOM     47  O   UNL A   1      42.104  20.789  26.031  1.00  0.00    -0.237 OA
ATOM     48  O   UNL A   1      40.765  20.175  28.015  1.00  0.00    -0.237 OA
ATOM     49  O   UNL A   1      39.647  20.665  25.874  1.00  0.00    -0.744 OA
ENDBRANCH  45  46
ENDBRANCH  26  40
BRANCH  27  50
ATOM     50  C   UNL A   1      43.434  31.133  34.089  1.00  0.00    -0.014 A 
ATOM     51  C   UNL A   1      42.584  31.678  35.066  1.00  0.00     0.010 A 
ATOM     52  C   UNL A   1      44.450  30.253  34.533  1.00  0.00     0.010 A 
ATOM     53  C   UNL A   1      42.876  31.538  36.430  1.00  0.00     0.020 A 
ATOM     54  C   UNL A   1      44.729  30.082  35.892  1.00  0.00     0.020 A 
ATOM     55  C   UNL A   1      43.979  30.781  36.830  1.00  0.00     0.054 A 
BRANCH  55  56
ATOM     56  S   UNL A   1      44.469  30.798  38.576  1.00  0.00     0.124 S 
ATOM     57  O   UNL A   1      43.246  31.265  39.222  1.00  0.00    -0.237 OA
ATOM     58  O   UNL A   1      44.823  29.403  38.820  1.00  0.00    -0.237 OA
ATOM     59  O   UNL A   1      45.587  31.740  38.613  1.00  0.00    -0.744 OA
ENDBRANCH  55  56
ENDBRANCH  27  50
BRANCH  39  60
ATOM     60  C   UNL A   1      44.539  31.170  27.483  1.00  0.00    -0.014 A 
ATOM     61  C   UNL A   1      45.880  31.095  27.063  1.00  0.00     0.010 A 
ATOM     62  C   UNL A   1      43.894  32.415  27.497  1.00  0.00     0.010 A 
ATOM     63  C   UNL A   1      46.601  32.258  26.789  1.00  0.00     0.020 A 
ATOM     64  C   UNL A   1      44.604  33.580  27.200  1.00  0.00     0.020 A 
ATOM     65  C   UNL A   1      45.964  33.497  26.894  1.00  0.00     0.054 A 
BRANCH  65  66
ATOM     66  S   UNL A   1      46.961  34.997  26.709  1.00  0.00     0.124 S 
ATOM     67  O   UNL A   1      46.573  35.466  25.381  1.00  0.00    -0.237 OA
ATOM     68  O   UNL A   1      46.499  35.825  27.822  1.00  0.00    -0.237 OA
ATOM     69  O   UNL A   1      48.337  34.521  26.820  1.00  0.00    -0.744 OA
ENDBRANCH  65  66
ENDBRANCH  39  60
ENDBRANCH  13  14
ENDBRANCH   6   8
ENDBRANCH   5   6
ENDBRANCH   4   5
ENDBRANCH   3   4
ENDBRANCH   2   3
ENDBRANCH   1   2
BRANCH   1  70
ATOM     70  C   UNL A   1      34.209  27.489  26.253  1.00  0.00     0.188 C 
BRANCH  70  71
ATOM     71  O   UNL A   1      34.111  26.937  24.953  1.00  0.00    -0.377 OA
BRANCH  71  72
ATOM     72  C   UNL A   1      34.448  25.568  24.747  1.00  0.00     0.188 C 
BRANCH  72  73
ATOM     73  C   UNL A   1      33.444  24.435  24.414  1.00  0.00     0.188 C 
BRANCH  73  74
ATOM     74  O   UNL A   1      33.577  23.257  25.187  1.00  0.00    -0.376 OA
BRANCH  74  75
ATOM     75  C   UNL A   1      33.073  23.328  26.515  1.00  0.00     0.202 C 
BRANCH  75  76
ATOM     76  C   UNL A   1      31.606  23.773  26.578  1.00  0.00     0.261 C 
BRANCH  76  77
ATOM     77  O   UNL A   1      31.149  24.529  25.441  1.00  0.00    -0.460 OA
BRANCH  77  78
ATOM     78  C   UNL A   1      30.056  25.319  25.620  1.00  0.00     0.338 C 
ATOM     79  O   UNL A   1      29.372  25.415  26.601  1.00  0.00    -0.246 OA
BRANCH  78  80
ATOM     80  C   UNL A   1      30.006  26.251  24.459  1.00  0.00     0.061 A 
ATOM     81  C   UNL A   1      31.163  26.605  23.765  1.00  0.00     0.018 A 
ATOM     82  C   UNL A   1      28.778  26.875  24.189  1.00  0.00     0.037 A 
ATOM     83  C   UNL A   1      31.124  27.623  22.803  1.00  0.00     0.031 A 
ATOM     84  C   UNL A   1      28.774  27.942  23.274  1.00  0.00     0.057 A 
ATOM     85  C   UNL A   1      29.924  28.329  22.574  1.00  0.00     0.083 A 
ATOM     86  S   UNL A   1      27.479  29.002  22.848  1.00  0.00    -0.102 S 
ATOM     87  N   UNL A   1      29.765  29.409  21.720  1.00  0.00    -0.225 NA
ATOM     88  C   UNL A   1      28.531  29.834  21.812  1.00  0.00     0.184 A 
ATOM     89  Cl  UNL A   1      27.965  31.195  20.931  1.00  0.00    -0.050 Cl
ENDBRANCH  78  80
ENDBRANCH  77  78
ENDBRANCH  76  77
ENDBRANCH  75  76
ENDBRANCH  74  75
ENDBRANCH  73  74
ENDBRANCH  72  73
ENDBRANCH  71  72
ENDBRANCH  70  71
ENDBRANCH   1  70
TORSDOF 23
ENDMDL
MODEL 2
REMARK VINA RESULT:      -9.0      5.281     12.633
REMARK SMILES O=C(OCCOCCOCCOCCOC(=O)c1ccc2nc(Cl)sc2c1)c1ccc(-c2c3nc(c(-c4ccc(S(=O)(=O)[O-])cc4)c4ccc([nH]4)c(-c4ccc(S(=O)(=O)[O-])cc4)c4nc(c(-c5ccc(S(=O)(=O)[O-])cc5)c5ccc2[nH]5)C=C4)C=C3)cc1
REMARK SMILES IDX 7 1 6 2 5 3 4 4 3 5 2 6 1 7 28 8 29 9 87 10 30 11 86 12
REMARK SMILES IDX 31 13 32 14 33 15 80 16 34 17 85 18 79 19 81 20 35 21 84 22
REMARK SMILES IDX 78 23 77 24 36 26 66 27 47 28 65 29 48 30 51 31 64 32 82 33
REMARK SMILES IDX 49 34 50 35 63 37 83 38 52 39 37 40 38 41 46 42 39 43 45 44
REMARK SMILES IDX 40 45 41 46 42 47 43 48 44 49 67 50 68 51 76 52 69 53 75 54
REMARK SMILES IDX 70 55 71 56 72 57 73 58 74 59 53 60 54 61 62 62 55 63 61 64
REMARK SMILES IDX 56 65 57 66 58 67 59 68 60 69 8 70 9 71 10 72 11 73 12 74
REMARK SMILES IDX 13 75 14 76 15 77 16 78 17 79 18 80 19 81 27 82 20 83 26 84
REMARK SMILES IDX 21 85 25 86 22 87 23 88 24 89
REMARK H PARENT 81 25 51 36
REMARK Flexibility Score: inf
ROOT
ATOM      1  C   UNL A   1      44.927  22.937  23.960  1.00  0.00     0.188 C 
ENDROOT
BRANCH   1   2
ATOM      2  O   UNL A   1      44.146  21.781  24.236  1.00  0.00    -0.376 OA
BRANCH   2   3
ATOM      3  C   UNL A   1      44.245  21.244  25.551  1.00  0.00     0.202 C 
BRANCH   3   4
ATOM      4  C   UNL A   1      42.902  20.779  26.114  1.00  0.00     0.261 C 
BRANCH   4   5
ATOM      5  O   UNL A   1      41.853  21.465  25.417  1.00  0.00    -0.460 OA
BRANCH   5   6
ATOM      6  C   UNL A   1      40.973  22.103  26.230  1.00  0.00     0.338 C 
ATOM      7  O   UNL A   1      39.859  21.706  26.533  1.00  0.00    -0.246 OA
BRANCH   6   8
ATOM      8  C   UNL A   1      41.505  23.440  26.590  1.00  0.00     0.060 A 
ATOM      9  C   UNL A   1      42.027  24.275  25.601  1.00  0.00     0.016 A 
ATOM     10  C   UNL A   1      41.618  23.801  27.935  1.00  0.00     0.016 A 
ATOM     11  C   UNL A   1      42.605  25.496  25.964  1.00  0.00     0.010 A 
ATOM     12  C   UNL A   1      42.263  24.970  28.296  1.00  0.00     0.010 A 
ATOM     13  C   UNL A   1      42.707  25.859  27.318  1.00  0.00    -0.014 A 
BRANCH  13  14
ATOM     14  C   UNL A   1      43.071  27.242  27.692  1.00  0.00     0.031 A 
ATOM     15  C   UNL A   1      41.895  28.142  27.996  1.00  0.00     0.074 A 
ATOM     16  C   UNL A   1      44.251  27.497  28.288  1.00  0.00     0.049 A 
ATOM     17  N   UNL A   1      41.292  28.245  29.148  1.00  0.00    -0.248 NA
ATOM     18  C   UNL A   1      41.138  28.729  26.884  1.00  0.00     0.031 C 
ATOM     19  C   UNL A   1      44.693  26.853  29.528  1.00  0.00     0.029 A 
ATOM     20  N   UNL A   1      45.082  28.582  28.142  1.00  0.00    -0.354 N 
ATOM     21  C   UNL A   1      40.077  28.886  28.919  1.00  0.00     0.074 A 
ATOM     22  C   UNL A   1      40.024  29.150  27.499  1.00  0.00     0.031 C 
ATOM     23  C   UNL A   1      45.608  27.648  30.119  1.00  0.00     0.029 A 
ATOM     24  C   UNL A   1      45.878  28.804  29.263  1.00  0.00     0.049 A 
ATOM     25  H   UNL A   1      45.111  29.141  27.333  1.00  0.00     0.167 HD
ATOM     26  C   UNL A   1      39.168  29.190  29.888  1.00  0.00     0.031 A 
ATOM     27  C   UNL A   1      46.260  30.049  29.666  1.00  0.00     0.031 A 
ATOM     28  C   UNL A   1      39.568  28.891  31.227  1.00  0.00     0.049 A 
ATOM     29  C   UNL A   1      45.062  30.436  30.507  1.00  0.00     0.074 A 
ATOM     30  C   UNL A   1      39.326  27.943  32.196  1.00  0.00     0.029 A 
ATOM     31  N   UNL A   1      40.444  29.763  31.825  1.00  0.00    -0.354 N 
ATOM     32  N   UNL A   1      44.797  30.063  31.732  1.00  0.00    -0.248 NA
ATOM     33  C   UNL A   1      43.913  30.977  29.775  1.00  0.00     0.031 C 
ATOM     34  C   UNL A   1      40.420  28.049  33.114  1.00  0.00     0.029 A 
ATOM     35  C   UNL A   1      41.284  29.023  32.612  1.00  0.00     0.049 A 
ATOM     36  H   UNL A   1      40.464  30.741  31.710  1.00  0.00     0.167 HD
ATOM     37  C   UNL A   1      43.401  30.033  31.816  1.00  0.00     0.074 A 
ATOM     38  C   UNL A   1      42.925  30.641  30.590  1.00  0.00     0.031 C 
ATOM     39  C   UNL A   1      42.689  29.351  32.763  1.00  0.00     0.031 A 
BRANCH  26  40
ATOM     40  C   UNL A   1      37.951  30.010  29.652  1.00  0.00    -0.014 A 
ATOM     41  C   UNL A   1      37.732  31.255  30.260  1.00  0.00     0.010 A 
ATOM     42  C   UNL A   1      37.053  29.568  28.662  1.00  0.00     0.010 A 
ATOM     43  C   UNL A   1      36.639  32.045  29.866  1.00  0.00     0.020 A 
ATOM     44  C   UNL A   1      35.974  30.352  28.260  1.00  0.00     0.020 A 
ATOM     45  C   UNL A   1      35.774  31.590  28.863  1.00  0.00     0.054 A 
BRANCH  45  46
ATOM     46  S   UNL A   1      34.400  32.645  28.323  1.00  0.00     0.124 S 
ATOM     47  O   UNL A   1      33.886  33.151  29.592  1.00  0.00    -0.237 OA
ATOM     48  O   UNL A   1      35.070  33.630  27.477  1.00  0.00    -0.237 OA
ATOM     49  O   UNL A   1      33.512  31.725  27.616  1.00  0.00    -0.744 OA
ENDBRANCH  45  46
ENDBRANCH  26  40
BRANCH  27  50
ATOM     50  C   UNL A   1      46.830  30.903  28.564  1.00  0.00    -0.014 A 
ATOM     51  C   UNL A   1      47.998  30.624  27.837  1.00  0.00     0.010 A 
ATOM     52  C   UNL A   1      46.197  32.145  28.318  1.00  0.00     0.010 A 
ATOM     53  C   UNL A   1      48.630  31.621  27.081  1.00  0.00     0.020 A 
ATOM     54  C   UNL A   1      46.802  33.136  27.541  1.00  0.00     0.020 A 
ATOM     55  C   UNL A   1      48.051  32.888  26.981  1.00  0.00     0.054 A 
BRANCH  55  56
ATOM     56  S   UNL A   1      48.989  34.223  26.192  1.00  0.00     0.124 S 
ATOM     57  O   UNL A   1      48.215  34.449  24.975  1.00  0.00    -0.237 OA
ATOM     58  O   UNL A   1      48.928  35.288  27.189  1.00  0.00    -0.237 OA
ATOM     59  O   UNL A   1      50.314  33.641  25.985  1.00  0.00    -0.744 OA
ENDBRANCH  55  56
ENDBRANCH  27  50
BRANCH  39  60
ATOM     60  C   UNL A   1      43.429  28.776  33.928  1.00  0.00    -0.014 A 
ATOM     61  C   UNL A   1      43.980  27.483  33.858  1.00  0.00     0.010 A 
ATOM     62  C   UNL A   1      43.397  29.440  35.162  1.00  0.00     0.010 A 
ATOM     63  C   UNL A   1      44.368  26.815  35.020  1.00  0.00     0.020 A 
ATOM     64  C   UNL A   1      43.809  28.786  36.326  1.00  0.00     0.020 A 
ATOM     65  C   UNL A   1      44.247  27.462  36.252  1.00  0.00     0.054 A 
BRANCH  65  66
ATOM     66  S   UNL A   1      44.588  26.519  37.759  1.00  0.00     0.124 S 
ATOM     67  O   UNL A   1      45.578  27.356  38.432  1.00  0.00    -0.237 OA
ATOM     68  O   UNL A   1      43.277  26.462  38.403  1.00  0.00    -0.237 OA
ATOM     69  O   UNL A   1      45.092  25.239  37.267  1.00  0.00    -0.744 OA
ENDBRANCH  65  66
ENDBRANCH  39  60
ENDBRANCH  13  14
ENDBRANCH   6   8
ENDBRANCH   5   6
ENDBRANCH   4   5
ENDBRANCH   3   4
ENDBRANCH   2   3
ENDBRANCH   1   2
BRANCH   1  70
ATOM     70  C   UNL A   1      45.953  23.224  25.050  1.00  0.00     0.188 C 
BRANCH  70  71
ATOM     71  O   UNL A   1      45.679  24.393  25.801  1.00  0.00    -0.377 OA
BRANCH  71  72
ATOM     72  C   UNL A   1      46.475  25.558  25.597  1.00  0.00     0.188 C 
BRANCH  72  73
ATOM     73  C   UNL A   1      47.509  26.127  26.602  1.00  0.00     0.188 C 
BRANCH  73  74
ATOM     74  O   UNL A   1      48.821  25.609  26.485  1.00  0.00    -0.376 OA
BRANCH  74  75
ATOM     75  C   UNL A   1      49.780  26.480  25.897  1.00  0.00     0.202 C 
BRANCH  75  76
ATOM     76  C   UNL A   1      49.174  27.420  24.845  1.00  0.00     0.261 C 
BRANCH  76  77
ATOM     77  O   UNL A   1      49.501  27.098  23.480  1.00  0.00    -0.460 OA
BRANCH  77  78
ATOM     78  C   UNL A   1      48.678  27.587  22.515  1.00  0.00     0.338 C 
ATOM     79  O   UNL A   1      47.561  28.006  22.644  1.00  0.00    -0.246 OA
BRANCH  78  80
ATOM     80  C   UNL A   1      49.508  27.755  21.289  1.00  0.00     0.061 A 
ATOM     81  C   UNL A   1      49.835  26.666  20.482  1.00  0.00     0.018 A 
ATOM     82  C   UNL A   1      50.072  29.021  21.064  1.00  0.00     0.037 A 
ATOM     83  C   UNL A   1      50.768  26.811  19.447  1.00  0.00     0.031 A 
ATOM     84  C   UNL A   1      51.058  29.130  20.069  1.00  0.00     0.057 A 
ATOM     85  C   UNL A   1      51.417  28.049  19.254  1.00  0.00     0.083 A 
ATOM     86  S   UNL A   1      52.042  30.489  19.658  1.00  0.00    -0.102 S 
ATOM     87  N   UNL A   1      52.418  28.308  18.329  1.00  0.00    -0.225 NA
ATOM     88  C   UNL A   1      52.814  29.546  18.481  1.00  0.00     0.184 A 
ATOM     89  Cl  UNL A   1      54.079  30.223  17.538  1.00  0.00    -0.050 Cl
ENDBRANCH  78  80
ENDBRANCH  77  78
ENDBRANCH  76  77
ENDBRANCH  75  76
ENDBRANCH  74  75
ENDBRANCH  73  74
ENDBRANCH  72  73
ENDBRANCH  71  72
ENDBRANCH  70  71
ENDBRANCH   1  70
TORSDOF 23
ENDMDL
MODEL 3
REMARK VINA RESULT:      -8.6      2.957      4.091
REMARK SMILES O=C(OCCOCCOCCOCCOC(=O)c1ccc2nc(Cl)sc2c1)c1ccc(-c2c3nc(c(-c4ccc(S(=O)(=O)[O-])cc4)c4ccc([nH]4)c(-c4ccc(S(=O)(=O)[O-])cc4)c4nc(c(-c5ccc(S(=O)(=O)[O-])cc5)c5ccc2[nH]5)C=C4)C=C3)cc1
REMARK SMILES IDX 7 1 6 2 5 3 4 4 3 5 2 6 1 7 28 8 29 9 87 10 30 11 86 12
REMARK SMILES IDX 31 13 32 14 33 15 80 16 34 17 85 18 79 19 81 20 35 21 84 22
REMARK SMILES IDX 78 23 77 24 36 26 66 27 47 28 65 29 48 30 51 31 64 32 82 33
REMARK SMILES IDX 49 34 50 35 63 37 83 38 52 39 37 40 38 41 46 42 39 43 45 44
REMARK SMILES IDX 40 45 41 46 42 47 43 48 44 49 67 50 68 51 76 52 69 53 75 54
REMARK SMILES IDX 70 55 71 56 72 57 73 58 74 59 53 60 54 61 62 62 55 63 61 64
REMARK SMILES IDX 56 65 57 66 58 67 59 68 60 69 8 70 9 71 10 72 11 73 12 74
REMARK SMILES IDX 13 75 14 76 15 77 16 78 17 79 18 80 19 81 27 82 20 83 26 84
REMARK SMILES IDX 21 85 25 86 22 87 23 88 24 89
REMARK H PARENT 81 25 51 36
REMARK Flexibility Score: inf
ROOT
ATOM      1  C   UNL A   1      32.280  30.208  26.925  1.00  0.00     0.188 C 
ENDROOT
BRANCH   1   2
ATOM      2  O   UNL A   1      32.740  31.553  26.941  1.00  0.00    -0.376 OA
BRANCH   2   3
ATOM      3  C   UNL A   1      33.711  31.883  27.929  1.00  0.00     0.202 C 
BRANCH   3   4
ATOM      4  C   UNL A   1      33.817  33.386  28.190  1.00  0.00     0.261 C 
BRANCH   4   5
ATOM      5  O   UNL A   1      35.052  33.645  28.873  1.00  0.00    -0.460 OA
BRANCH   5   6
ATOM      6  C   UNL A   1      35.026  33.343  30.196  1.00  0.00     0.338 C 
ATOM      7  O   UNL A   1      34.141  33.641  30.982  1.00  0.00    -0.246 OA
BRANCH   6   8
ATOM      8  C   UNL A   1      36.311  32.717  30.591  1.00  0.00     0.060 A 
ATOM      9  C   UNL A   1      37.334  32.567  29.653  1.00  0.00     0.016 A 
ATOM     10  C   UNL A   1      36.441  32.144  31.859  1.00  0.00     0.016 A 
ATOM     11  C   UNL A   1      38.507  31.896  30.014  1.00  0.00     0.010 A 
ATOM     12  C   UNL A   1      37.568  31.412  32.186  1.00  0.00     0.010 A 
ATOM     13  C   UNL A   1      38.637  31.331  31.294  1.00  0.00    -0.014 A 
BRANCH  13  14
ATOM     14  C   UNL A   1      39.955  30.857  31.768  1.00  0.00     0.031 A 
ATOM     15  C   UNL A   1      40.456  29.604  31.085  1.00  0.00     0.074 A 
ATOM     16  C   UNL A   1      40.855  31.729  32.259  1.00  0.00     0.049 A 
ATOM     17  N   UNL A   1      41.114  29.562  29.960  1.00  0.00    -0.248 NA
ATOM     18  C   UNL A   1      39.928  28.301  31.505  1.00  0.00     0.031 C 
ATOM     19  C   UNL A   1      41.339  32.901  31.525  1.00  0.00     0.029 A 
ATOM     20  N   UNL A   1      41.754  31.564  33.287  1.00  0.00    -0.354 N 
ATOM     21  C   UNL A   1      41.072  28.244  29.511  1.00  0.00     0.074 A 
ATOM     22  C   UNL A   1      40.313  27.508  30.496  1.00  0.00     0.031 C 
ATOM     23  C   UNL A   1      42.541  33.253  32.026  1.00  0.00     0.029 A 
ATOM     24  C   UNL A   1      42.867  32.393  33.164  1.00  0.00     0.049 A 
ATOM     25  H   UNL A   1      41.625  30.930  34.027  1.00  0.00     0.167 HD
ATOM     26  C   UNL A   1      41.666  27.796  28.368  1.00  0.00     0.031 A 
ATOM     27  C   UNL A   1      44.112  32.028  33.583  1.00  0.00     0.031 A 
ATOM     28  C   UNL A   1      42.445  28.761  27.657  1.00  0.00     0.049 A 
ATOM     29  C   UNL A   1      44.599  31.284  32.358  1.00  0.00     0.074 A 
ATOM     30  C   UNL A   1      42.346  29.554  26.535  1.00  0.00     0.029 A 
ATOM     31  N   UNL A   1      43.694  29.041  28.154  1.00  0.00    -0.354 N 
ATOM     32  N   UNL A   1      45.065  31.797  31.249  1.00  0.00    -0.248 NA
ATOM     33  C   UNL A   1      44.177  29.884  32.249  1.00  0.00     0.031 C 
ATOM     34  C   UNL A   1      43.328  30.582  26.707  1.00  0.00     0.029 A 
ATOM     35  C   UNL A   1      43.926  30.374  27.950  1.00  0.00     0.049 A 
ATOM     36  H   UNL A   1      44.311  28.401  28.577  1.00  0.00     0.167 HD
ATOM     37  C   UNL A   1      44.706  30.892  30.243  1.00  0.00     0.074 A 
ATOM     38  C   UNL A   1      44.197  29.725  30.935  1.00  0.00     0.031 C 
ATOM     39  C   UNL A   1      44.649  31.188  28.910  1.00  0.00     0.031 A 
BRANCH  26  40
ATOM     40  C   UNL A   1      41.746  26.363  27.983  1.00  0.00    -0.014 A 
ATOM     41  C   UNL A   1      42.504  25.418  28.688  1.00  0.00     0.010 A 
ATOM     42  C   UNL A   1      40.902  25.923  26.946  1.00  0.00     0.010 A 
ATOM     43  C   UNL A   1      42.403  24.055  28.366  1.00  0.00     0.020 A 
ATOM     44  C   UNL A   1      40.790  24.571  26.628  1.00  0.00     0.020 A 
ATOM     45  C   UNL A   1      41.540  23.642  27.342  1.00  0.00     0.054 A 
BRANCH  45  46
ATOM     46  S   UNL A   1      41.374  21.873  26.973  1.00  0.00     0.124 S 
ATOM     47  O   UNL A   1      39.950  21.647  27.199  1.00  0.00    -0.237 OA
ATOM     48  O   UNL A   1      41.812  21.797  25.581  1.00  0.00    -0.237 OA
ATOM     49  O   UNL A   1      42.265  21.232  27.937  1.00  0.00    -0.744 OA
ENDBRANCH  45  46
ENDBRANCH  26  40
BRANCH  27  50
ATOM     50  C   UNL A   1      44.149  31.469  34.981  1.00  0.00    -0.014 A 
ATOM     51  C   UNL A   1      43.058  31.407  35.863  1.00  0.00     0.010 A 
ATOM     52  C   UNL A   1      45.412  31.078  35.486  1.00  0.00     0.010 A 
ATOM     53  C   UNL A   1      43.255  31.191  37.235  1.00  0.00     0.020 A 
ATOM     54  C   UNL A   1      45.614  30.830  36.846  1.00  0.00     0.020 A 
ATOM     55  C   UNL A   1      44.542  30.955  37.723  1.00  0.00     0.054 A 
BRANCH  55  56
ATOM     56  S   UNL A   1      44.806  30.905  39.516  1.00  0.00     0.124 S 
ATOM     57  O   UNL A   1      46.022  31.700  39.658  1.00  0.00    -0.237 OA
ATOM     58  O   UNL A   1      43.585  31.515  40.035  1.00  0.00    -0.237 OA
ATOM     59  O   UNL A   1      44.959  29.479  39.804  1.00  0.00    -0.744 OA
ENDBRANCH  55  56
ENDBRANCH  27  50
BRANCH  39  60
ATOM     60  C   UNL A   1      45.215  32.492  28.448  1.00  0.00    -0.014 A 
ATOM     61  C   UNL A   1      46.513  32.558  27.908  1.00  0.00     0.010 A 
ATOM     62  C   UNL A   1      44.537  33.682  28.744  1.00  0.00     0.010 A 
ATOM     63  C   UNL A   1      47.169  33.783  27.789  1.00  0.00     0.020 A 
ATOM     64  C   UNL A   1      45.179  34.915  28.604  1.00  0.00     0.020 A 
ATOM     65  C   UNL A   1      46.507  34.952  28.172  1.00  0.00     0.054 A 
BRANCH  65  66
ATOM     66  S   UNL A   1      47.435  36.507  28.178  1.00  0.00     0.124 S 
ATOM     67  O   UNL A   1      48.087  36.474  29.485  1.00  0.00    -0.237 OA
ATOM     68  O   UNL A   1      48.326  36.350  27.031  1.00  0.00    -0.237 OA
ATOM     69  O   UNL A   1      46.404  37.532  28.026  1.00  0.00    -0.744 OA
ENDBRANCH  65  66
ENDBRANCH  39  60
ENDBRANCH  13  14
ENDBRANCH   6   8
ENDBRANCH   5   6
ENDBRANCH   4   5
ENDBRANCH   3   4
ENDBRANCH   2   3
ENDBRANCH   1   2
BRANCH   1  70
ATOM     70  C   UNL A   1      32.529  29.519  25.589  1.00  0.00     0.188 C 
BRANCH  70  71
ATOM     71  O   UNL A   1      31.347  29.235  24.863  1.00  0.00    -0.377 OA
BRANCH  71  72
ATOM     72  C   UNL A   1      31.442  28.861  23.491  1.00  0.00     0.188 C 
BRANCH  72  73
ATOM     73  C   UNL A   1      30.702  27.669  22.830  1.00  0.00     0.188 C 
BRANCH  73  74
ATOM     74  O   UNL A   1      31.461  26.925  21.895  1.00  0.00    -0.376 OA
BRANCH  74  75
ATOM     75  C   UNL A   1      32.179  25.817  22.423  1.00  0.00     0.202 C 
BRANCH  75  76
ATOM     76  C   UNL A   1      31.554  25.250  23.705  1.00  0.00     0.261 C 
BRANCH  76  77
ATOM     77  O   UNL A   1      31.866  23.871  23.977  1.00  0.00    -0.460 OA
BRANCH  77  78
ATOM     78  C   UNL A   1      32.054  23.523  25.278  1.00  0.00     0.338 C 
ATOM     79  O   UNL A   1      31.549  24.013  26.250  1.00  0.00    -0.246 OA
BRANCH  78  80
ATOM     80  C   UNL A   1      32.811  22.240  25.273  1.00  0.00     0.061 A 
ATOM     81  C   UNL A   1      34.186  22.210  25.506  1.00  0.00     0.018 A 
ATOM     82  C   UNL A   1      32.116  21.086  24.876  1.00  0.00     0.037 A 
ATOM     83  C   UNL A   1      34.907  21.025  25.310  1.00  0.00     0.031 A 
ATOM     84  C   UNL A   1      32.867  19.927  24.616  1.00  0.00     0.057 A 
ATOM     85  C   UNL A   1      34.251  19.873  24.826  1.00  0.00     0.083 A 
ATOM     86  S   UNL A   1      32.341  18.414  23.972  1.00  0.00    -0.102 S 
ATOM     87  N   UNL A   1      34.854  18.666  24.507  1.00  0.00    -0.225 NA
ATOM     88  C   UNL A   1      33.940  17.856  24.039  1.00  0.00     0.184 A 
ATOM     89  Cl  UNL A   1      34.316  16.271  23.492  1.00  0.00    -0.050 Cl
ENDBRANCH  78  80
ENDBRANCH  77  78
ENDBRANCH  76  77
ENDBRANCH  75  76
ENDBRANCH  74  75
ENDBRANCH  73  74
ENDBRANCH  72  73
ENDBRANCH  71  72
ENDBRANCH  70  71
ENDBRANCH   1  70
TORSDOF 23
ENDMDL
