MODEL 1
REMARK VINA RESULT:     -10.0      0.000      0.000
REMARK SMILES C[C@H]1[C@@H](C(=O)OCCOCCOCCOCCOC(=O)c2ccc(-c3c4nc(c(-c5ccc(S(=O)(=O)[O-])cc5)c5ccc([nH]5)c(-c5ccc(S(=O)(=O)[O-])cc5)c5nc(c(-c6ccc(S(=O)(=O)[O-])cc6)c6ccc3[nH]6)C=C5)C=C4)cc2)CCN1S(=O)(=O)c1c[nH]c2ncccc12
REMARK SMILES IDX 13 1 12 2 11 3 10 4 9 5 8 6 7 7 6 8 4 9 5 10 3 11 1 12 2 13
REMARK SMILES IDX 83 14 81 15 82 16 84 17 85 18 86 19 87 20 88 21 95 22 89 23
REMARK SMILES IDX 90 24 94 25 91 27 93 28 92 29 14 30 15 31 16 32 17 33 18 34
REMARK SMILES IDX 19 35 20 36 21 37 22 38 80 39 23 40 79 41 24 42 25 43 26 44
REMARK SMILES IDX 73 45 27 46 78 47 72 48 74 49 28 50 77 51 71 52 70 53 29 55
REMARK SMILES IDX 59 56 40 57 58 58 41 59 44 60 57 61 75 62 42 63 43 64 56 66
REMARK SMILES IDX 76 67 45 68 30 69 31 70 39 71 32 72 38 73 33 74 34 75 35 76
REMARK SMILES IDX 36 77 37 78 60 79 61 80 69 81 62 82 68 83 63 84 64 85 65 86
REMARK SMILES IDX 66 87 67 88 46 89 47 90 55 91 48 92 54 93 49 94 50 95 51 96
REMARK SMILES IDX 52 97 53 98
REMARK H PARENT 89 26 74 54 44 65
REMARK Flexibility Score: inf
ROOT
ATOM      1  C   UNL A   1      33.817  31.339  27.633  1.00  0.00     0.188 C 
ENDROOT
BRANCH   1   2
ATOM      2  O   UNL A   1      32.732  30.702  26.992  1.00  0.00    -0.377 OA
BRANCH   2   3
ATOM      3  C   UNL A   1      32.984  29.839  25.896  1.00  0.00     0.188 C 
BRANCH   3   4
ATOM      4  C   UNL A   1      31.932  28.941  25.208  1.00  0.00     0.188 C 
BRANCH   4   5
ATOM      5  O   UNL A   1      31.631  29.267  23.874  1.00  0.00    -0.376 OA
BRANCH   5   6
ATOM      6  C   UNL A   1      32.229  28.585  22.794  1.00  0.00     0.202 C 
BRANCH   6   7
ATOM      7  C   UNL A   1      33.203  27.405  22.959  1.00  0.00     0.261 C 
BRANCH   7   8
ATOM      8  O   UNL A   1      32.814  26.132  22.427  1.00  0.00    -0.463 OA
BRANCH   8   9
ATOM      9  C   UNL A   1      31.947  25.389  23.145  1.00  0.00     0.310 C 
ATOM     10  O   UNL A   1      30.792  25.731  23.378  1.00  0.00    -0.252 OA
BRANCH   9  11
ATOM     11  C   UNL A   1      32.478  24.025  23.568  1.00  0.00     0.118 C 
ATOM     12  C   UNL A   1      32.433  24.581  26.174  1.00  0.00     0.027 C 
ATOM     13  C   UNL A   1      32.678  23.600  25.029  1.00  0.00     0.084 C 
ATOM     14  N   UNL A   1      34.063  23.027  25.141  1.00  0.00    -0.194 NA
ATOM     15  C   UNL A   1      33.758  23.632  22.830  1.00  0.00     0.034 C 
ATOM     16  C   UNL A   1      34.795  23.267  23.875  1.00  0.00     0.104 C 
BRANCH  14  17
ATOM     17  S   UNL A   1      34.196  21.404  25.652  1.00  0.00     0.245 S 
ATOM     18  O   UNL A   1      35.595  21.045  25.551  1.00  0.00    -0.207 OA
ATOM     19  O   UNL A   1      33.488  21.291  26.911  1.00  0.00    -0.207 OA
BRANCH  17  20
ATOM     20  C   UNL A   1      33.402  20.332  24.558  1.00  0.00     0.109 A 
ATOM     21  C   UNL A   1      32.367  20.673  23.702  1.00  0.00     0.106 A 
ATOM     22  C   UNL A   1      33.752  18.976  24.288  1.00  0.00     0.039 A 
ATOM     23  N   UNL A   1      32.043  19.566  22.967  1.00  0.00    -0.345 N 
ATOM     24  C   UNL A   1      32.897  18.548  23.274  1.00  0.00     0.138 A 
ATOM     25  C   UNL A   1      34.702  18.041  24.741  1.00  0.00     0.015 A 
ATOM     26  H   UNL A   1      31.306  19.513  22.317  1.00  0.00     0.168 HD
ATOM     27  N   UNL A   1      32.880  17.354  22.657  1.00  0.00    -0.239 NA
ATOM     28  C   UNL A   1      34.730  16.786  24.134  1.00  0.00     0.021 A 
ATOM     29  C   UNL A   1      33.823  16.507  23.123  1.00  0.00     0.113 A 
ENDBRANCH  17  20
ENDBRANCH  14  17
ENDBRANCH   9  11
ENDBRANCH   8   9
ENDBRANCH   7   8
ENDBRANCH   6   7
ENDBRANCH   5   6
ENDBRANCH   4   5
ENDBRANCH   3   4
ENDBRANCH   2   3
ENDBRANCH   1   2
BRANCH   1  30
ATOM     30  C   UNL A   1      33.619  32.824  27.984  1.00  0.00     0.188 C 
BRANCH  30  31
ATOM     31  O   UNL A   1      33.933  33.143  29.329  1.00  0.00    -0.376 OA
BRANCH  31  32
ATOM     32  C   UNL A   1      35.138  32.680  29.913  1.00  0.00     0.202 C 
BRANCH  32  33
ATOM     33  C   UNL A   1      35.251  32.191  31.372  1.00  0.00     0.261 C 
BRANCH  33  34
ATOM     34  O   UNL A   1      36.332  31.320  31.713  1.00  0.00    -0.460 OA
BRANCH  34  35
ATOM     35  C   UNL A   1      37.538  31.889  31.898  1.00  0.00     0.338 C 
ATOM     36  O   UNL A   1      37.808  32.806  32.653  1.00  0.00    -0.246 OA
BRANCH  35  37
ATOM     37  C   UNL A   1      38.533  31.069  31.178  1.00  0.00     0.060 A 
ATOM     38  C   UNL A   1      39.492  30.373  31.925  1.00  0.00     0.016 A 
ATOM     39  C   UNL A   1      38.522  30.989  29.783  1.00  0.00     0.016 A 
ATOM     40  C   UNL A   1      40.477  29.636  31.278  1.00  0.00     0.010 A 
ATOM     41  C   UNL A   1      39.535  30.280  29.133  1.00  0.00     0.010 A 
ATOM     42  C   UNL A   1      40.544  29.645  29.881  1.00  0.00    -0.014 A 
BRANCH  42  43
ATOM     43  C   UNL A   1      41.809  29.218  29.243  1.00  0.00     0.031 A 
ATOM     44  C   UNL A   1      42.929  30.221  29.161  1.00  0.00     0.074 A 
ATOM     45  C   UNL A   1      41.996  27.949  28.839  1.00  0.00     0.049 A 
ATOM     46  N   UNL A   1      44.143  30.074  28.698  1.00  0.00    -0.248 NA
ATOM     47  C   UNL A   1      42.642  31.571  29.677  1.00  0.00     0.031 C 
ATOM     48  C   UNL A   1      41.005  26.878  28.928  1.00  0.00     0.029 A 
ATOM     49  N   UNL A   1      43.095  27.348  28.283  1.00  0.00    -0.354 N 
ATOM     50  C   UNL A   1      44.757  31.312  28.857  1.00  0.00     0.074 A 
ATOM     51  C   UNL A   1      43.774  32.207  29.422  1.00  0.00     0.031 C 
ATOM     52  C   UNL A   1      41.545  25.746  28.445  1.00  0.00     0.029 A 
ATOM     53  C   UNL A   1      42.906  26.022  27.983  1.00  0.00     0.049 A 
ATOM     54  H   UNL A   1      43.942  27.823  28.116  1.00  0.00     0.167 HD
ATOM     55  C   UNL A   1      46.030  31.668  28.567  1.00  0.00     0.031 A 
ATOM     56  C   UNL A   1      43.731  25.137  27.388  1.00  0.00     0.031 A 
ATOM     57  C   UNL A   1      46.997  30.774  27.989  1.00  0.00     0.049 A 
ATOM     58  C   UNL A   1      45.118  25.581  26.998  1.00  0.00     0.074 A 
ATOM     59  C   UNL A   1      48.316  31.030  27.662  1.00  0.00     0.029 A 
ATOM     60  N   UNL A   1      46.748  29.453  27.645  1.00  0.00    -0.354 N 
ATOM     61  N   UNL A   1      45.693  26.748  27.170  1.00  0.00    -0.248 NA
ATOM     62  C   UNL A   1      45.973  24.580  26.346  1.00  0.00     0.031 C 
ATOM     63  C   UNL A   1      48.842  29.889  27.048  1.00  0.00     0.029 A 
ATOM     64  C   UNL A   1      47.879  28.892  27.076  1.00  0.00     0.049 A 
ATOM     65  H   UNL A   1      45.894  28.985  27.782  1.00  0.00     0.167 HD
ATOM     66  C   UNL A   1      46.990  26.609  26.683  1.00  0.00     0.074 A 
ATOM     67  C   UNL A   1      47.116  25.239  26.227  1.00  0.00     0.031 C 
ATOM     68  C   UNL A   1      47.987  27.527  26.620  1.00  0.00     0.031 A 
BRANCH  55  69
ATOM     69  C   UNL A   1      46.431  33.097  28.825  1.00  0.00    -0.014 A 
ATOM     70  C   UNL A   1      46.319  34.087  27.829  1.00  0.00     0.010 A 
ATOM     71  C   UNL A   1      46.898  33.465  30.101  1.00  0.00     0.010 A 
ATOM     72  C   UNL A   1      46.703  35.404  28.094  1.00  0.00     0.020 A 
ATOM     73  C   UNL A   1      47.249  34.788  30.381  1.00  0.00     0.020 A 
ATOM     74  C   UNL A   1      47.163  35.747  29.370  1.00  0.00     0.054 A 
BRANCH  74  75
ATOM     75  S   UNL A   1      47.620  37.472  29.694  1.00  0.00     0.124 S 
ATOM     76  O   UNL A   1      49.078  37.413  29.638  1.00  0.00    -0.237 OA
ATOM     77  O   UNL A   1      46.978  38.183  28.592  1.00  0.00    -0.237 OA
ATOM     78  O   UNL A   1      47.059  37.739  31.016  1.00  0.00    -0.744 OA
ENDBRANCH  74  75
ENDBRANCH  55  69
BRANCH  56  79
ATOM     79  C   UNL A   1      43.265  23.750  27.111  1.00  0.00    -0.014 A 
ATOM     80  C   UNL A   1      43.197  23.257  25.796  1.00  0.00     0.010 A 
ATOM     81  C   UNL A   1      42.872  22.913  28.173  1.00  0.00     0.010 A 
ATOM     82  C   UNL A   1      42.729  21.962  25.547  1.00  0.00     0.020 A 
ATOM     83  C   UNL A   1      42.437  21.609  27.932  1.00  0.00     0.020 A 
ATOM     84  C   UNL A   1      42.358  21.144  26.618  1.00  0.00     0.054 A 
BRANCH  84  85
ATOM     85  S   UNL A   1      41.807  19.450  26.275  1.00  0.00     0.124 S 
ATOM     86  O   UNL A   1      42.524  19.140  25.042  1.00  0.00    -0.237 OA
ATOM     87  O   UNL A   1      42.251  18.730  27.466  1.00  0.00    -0.237 OA
ATOM     88  O   UNL A   1      40.358  19.582  26.140  1.00  0.00    -0.744 OA
ENDBRANCH  84  85
ENDBRANCH  56  79
BRANCH  68  89
ATOM     89  C   UNL A   1      49.321  27.068  26.084  1.00  0.00    -0.014 A 
ATOM     90  C   UNL A   1      49.665  27.211  24.729  1.00  0.00     0.010 A 
ATOM     91  C   UNL A   1      50.260  26.505  26.970  1.00  0.00     0.010 A 
ATOM     92  C   UNL A   1      50.896  26.745  24.257  1.00  0.00     0.020 A 
ATOM     93  C   UNL A   1      51.508  26.076  26.511  1.00  0.00     0.020 A 
ATOM     94  C   UNL A   1      51.809  26.178  25.151  1.00  0.00     0.054 A 
BRANCH  94  95
ATOM     95  S   UNL A   1      53.401  25.589  24.517  1.00  0.00     0.124 S 
ATOM     96  O   UNL A   1      54.343  26.481  25.187  1.00  0.00    -0.237 OA
ATOM     97  O   UNL A   1      53.427  24.198  24.960  1.00  0.00    -0.237 OA
ATOM     98  O   UNL A   1      53.290  25.776  23.071  1.00  0.00    -0.744 OA
ENDBRANCH  94  95
ENDBRANCH  68  89
ENDBRANCH  42  43
ENDBRANCH  35  37
ENDBRANCH  34  35
ENDBRANCH  33  34
ENDBRANCH  32  33
ENDBRANCH  31  32
ENDBRANCH  30  31
ENDBRANCH   1  30
TORSDOF 25
ENDMDL
MODEL 2
REMARK VINA RESULT:      -9.0      7.451     10.010
REMARK SMILES C[C@H]1[C@@H](C(=O)OCCOCCOCCOCCOC(=O)c2ccc(-c3c4nc(c(-c5ccc(S(=O)(=O)[O-])cc5)c5ccc([nH]5)c(-c5ccc(S(=O)(=O)[O-])cc5)c5nc(c(-c6ccc(S(=O)(=O)[O-])cc6)c6ccc3[nH]6)C=C5)C=C4)cc2)CCN1S(=O)(=O)c1c[nH]c2ncccc12
REMARK SMILES IDX 13 1 12 2 11 3 10 4 9 5 8 6 7 7 6 8 4 9 5 10 3 11 1 12 2 13
REMARK SMILES IDX 83 14 81 15 82 16 84 17 85 18 86 19 87 20 88 21 95 22 89 23
REMARK SMILES IDX 90 24 94 25 91 27 93 28 92 29 14 30 15 31 16 32 17 33 18 34
REMARK SMILES IDX 19 35 20 36 21 37 22 38 80 39 23 40 79 41 24 42 25 43 26 44
REMARK SMILES IDX 73 45 27 46 78 47 72 48 74 49 28 50 77 51 71 52 70 53 29 55
REMARK SMILES IDX 59 56 40 57 58 58 41 59 44 60 57 61 75 62 42 63 43 64 56 66
REMARK SMILES IDX 76 67 45 68 30 69 31 70 39 71 32 72 38 73 33 74 34 75 35 76
REMARK SMILES IDX 36 77 37 78 60 79 61 80 69 81 62 82 68 83 63 84 64 85 65 86
REMARK SMILES IDX 66 87 67 88 46 89 47 90 55 91 48 92 54 93 49 94 50 95 51 96
REMARK SMILES IDX 52 97 53 98
REMARK H PARENT 89 26 74 54 44 65
REMARK Flexibility Score: inf
ROOT
ATOM      1  C   UNL A   1      34.776  30.255  27.839  1.00  0.00     0.188 C 
ENDROOT
BRANCH   1   2
ATOM      2  O   UNL A   1      34.186  29.153  27.184  1.00  0.00    -0.377 OA
BRANCH   2   3
ATOM      3  C   UNL A   1      32.797  29.177  26.901  1.00  0.00     0.188 C 
BRANCH   3   4
ATOM      4  C   UNL A   1      32.137  28.613  25.623  1.00  0.00     0.188 C 
BRANCH   4   5
ATOM      5  O   UNL A   1      32.298  29.385  24.460  1.00  0.00    -0.376 OA
BRANCH   5   6
ATOM      6  C   UNL A   1      32.348  28.793  23.181  1.00  0.00     0.202 C 
BRANCH   6   7
ATOM      7  C   UNL A   1      31.178  28.019  22.549  1.00  0.00     0.261 C 
BRANCH   7   8
ATOM      8  O   UNL A   1      31.476  26.814  21.834  1.00  0.00    -0.463 OA
BRANCH   8   9
ATOM      9  C   UNL A   1      32.613  26.161  22.149  1.00  0.00     0.310 C 
ATOM     10  O   UNL A   1      33.683  26.345  21.577  1.00  0.00    -0.252 OA
BRANCH   9  11
ATOM     11  C   UNL A   1      32.500  25.233  23.352  1.00  0.00     0.118 C 
ATOM     12  C   UNL A   1      33.641  23.159  22.128  1.00  0.00     0.027 C 
ATOM     13  C   UNL A   1      33.031  23.793  23.376  1.00  0.00     0.084 C 
ATOM     14  N   UNL A   1      31.925  22.920  23.898  1.00  0.00    -0.194 NA
ATOM     15  C   UNL A   1      31.083  25.175  23.925  1.00  0.00     0.034 C 
ATOM     16  C   UNL A   1      30.679  23.716  24.001  1.00  0.00     0.104 C 
BRANCH  14  17
ATOM     17  S   UNL A   1      32.234  22.041  25.329  1.00  0.00     0.245 S 
ATOM     18  O   UNL A   1      32.711  22.991  26.311  1.00  0.00    -0.207 OA
ATOM     19  O   UNL A   1      31.068  21.222  25.591  1.00  0.00    -0.207 OA
BRANCH  17  20
ATOM     20  C   UNL A   1      33.551  20.946  25.123  1.00  0.00     0.109 A 
ATOM     21  C   UNL A   1      34.843  21.140  25.589  1.00  0.00     0.106 A 
ATOM     22  C   UNL A   1      33.495  19.642  24.547  1.00  0.00     0.039 A 
ATOM     23  N   UNL A   1      35.578  20.031  25.270  1.00  0.00    -0.345 N 
ATOM     24  C   UNL A   1      34.772  19.101  24.684  1.00  0.00     0.138 A 
ATOM     25  C   UNL A   1      32.526  18.817  23.946  1.00  0.00     0.015 A 
ATOM     26  H   UNL A   1      36.542  19.923  25.438  1.00  0.00     0.168 HD
ATOM     27  N   UNL A   1      35.190  17.874  24.329  1.00  0.00    -0.239 NA
ATOM     28  C   UNL A   1      32.907  17.531  23.560  1.00  0.00     0.021 A 
ATOM     29  C   UNL A   1      34.215  17.124  23.773  1.00  0.00     0.113 A 
ENDBRANCH  17  20
ENDBRANCH  14  17
ENDBRANCH   9  11
ENDBRANCH   8   9
ENDBRANCH   7   8
ENDBRANCH   6   7
ENDBRANCH   5   6
ENDBRANCH   4   5
ENDBRANCH   3   4
ENDBRANCH   2   3
ENDBRANCH   1   2
BRANCH   1  30
ATOM     30  C   UNL A   1      34.151  31.631  27.550  1.00  0.00     0.188 C 
BRANCH  30  31
ATOM     31  O   UNL A   1      35.092  32.688  27.487  1.00  0.00    -0.376 OA
BRANCH  31  32
ATOM     32  C   UNL A   1      34.932  33.840  28.297  1.00  0.00     0.202 C 
BRANCH  32  33
ATOM     33  C   UNL A   1      35.901  34.231  29.432  1.00  0.00     0.261 C 
BRANCH  33  34
ATOM     34  O   UNL A   1      35.528  33.925  30.777  1.00  0.00    -0.460 OA
BRANCH  34  35
ATOM     35  C   UNL A   1      35.822  32.689  31.225  1.00  0.00     0.338 C 
ATOM     36  O   UNL A   1      35.490  31.630  30.725  1.00  0.00    -0.246 OA
BRANCH  35  37
ATOM     37  C   UNL A   1      36.802  32.835  32.321  1.00  0.00     0.060 A 
ATOM     38  C   UNL A   1      38.080  33.322  32.014  1.00  0.00     0.016 A 
ATOM     39  C   UNL A   1      36.467  32.492  33.633  1.00  0.00     0.016 A 
ATOM     40  C   UNL A   1      39.044  33.419  33.010  1.00  0.00     0.010 A 
ATOM     41  C   UNL A   1      37.449  32.555  34.625  1.00  0.00     0.010 A 
ATOM     42  C   UNL A   1      38.754  32.970  34.302  1.00  0.00    -0.014 A 
BRANCH  42  43
ATOM     43  C   UNL A   1      39.887  32.694  35.213  1.00  0.00     0.031 A 
ATOM     44  C   UNL A   1      40.173  33.692  36.303  1.00  0.00     0.074 A 
ATOM     45  C   UNL A   1      40.579  31.543  35.140  1.00  0.00     0.049 A 
ATOM     46  N   UNL A   1      41.072  33.651  37.251  1.00  0.00    -0.248 NA
ATOM     47  C   UNL A   1      39.326  34.898  36.330  1.00  0.00     0.031 C 
ATOM     48  C   UNL A   1      40.349  30.477  34.166  1.00  0.00     0.029 A 
ATOM     49  N   UNL A   1      41.612  31.079  35.912  1.00  0.00    -0.354 N 
ATOM     50  C   UNL A   1      40.905  34.825  37.978  1.00  0.00     0.074 A 
ATOM     51  C   UNL A   1      39.847  35.575  37.341  1.00  0.00     0.031 C 
ATOM     52  C   UNL A   1      41.216  29.478  34.403  1.00  0.00     0.029 A 
ATOM     53  C   UNL A   1      42.083  29.850  35.522  1.00  0.00     0.049 A 
ATOM     54  H   UNL A   1      41.981  31.580  36.675  1.00  0.00     0.167 HD
ATOM     55  C   UNL A   1      41.568  35.237  39.084  1.00  0.00     0.031 A 
ATOM     56  C   UNL A   1      43.107  29.117  36.002  1.00  0.00     0.031 A 
ATOM     57  C   UNL A   1      42.631  34.492  39.702  1.00  0.00     0.049 A 
ATOM     58  C   UNL A   1      43.885  29.636  37.185  1.00  0.00     0.074 A 
ATOM     59  C   UNL A   1      43.365  34.815  40.829  1.00  0.00     0.029 A 
ATOM     60  N   UNL A   1      43.119  33.277  39.241  1.00  0.00    -0.354 N 
ATOM     61  N   UNL A   1      43.706  30.739  37.874  1.00  0.00    -0.248 NA
ATOM     62  C   UNL A   1      44.996  28.802  37.663  1.00  0.00     0.031 C 
ATOM     63  C   UNL A   1      44.347  33.835  41.005  1.00  0.00     0.029 A 
ATOM     64  C   UNL A   1      44.167  32.855  40.040  1.00  0.00     0.049 A 
ATOM     65  H   UNL A   1      42.772  32.789  38.460  1.00  0.00     0.167 HD
ATOM     66  C   UNL A   1      44.656  30.711  38.891  1.00  0.00     0.074 A 
ATOM     67  C   UNL A   1      45.394  29.473  38.734  1.00  0.00     0.031 C 
ATOM     68  C   UNL A   1      44.897  31.622  39.867  1.00  0.00     0.031 A 
BRANCH  55  69
ATOM     69  C   UNL A   1      41.192  36.577  39.663  1.00  0.00    -0.014 A 
ATOM     70  C   UNL A   1      40.011  36.754  40.408  1.00  0.00     0.010 A 
ATOM     71  C   UNL A   1      42.055  37.674  39.484  1.00  0.00     0.010 A 
ATOM     72  C   UNL A   1      39.684  38.009  40.929  1.00  0.00     0.020 A 
ATOM     73  C   UNL A   1      41.750  38.922  40.034  1.00  0.00     0.020 A 
ATOM     74  C   UNL A   1      40.558  39.084  40.741  1.00  0.00     0.054 A 
BRANCH  74  75
ATOM     75  S   UNL A   1      40.125  40.693  41.460  1.00  0.00     0.124 S 
ATOM     76  O   UNL A   1      39.201  40.309  42.524  1.00  0.00    -0.237 OA
ATOM     77  O   UNL A   1      41.420  41.200  41.905  1.00  0.00    -0.237 OA
ATOM     78  O   UNL A   1      39.522  41.421  40.346  1.00  0.00    -0.744 OA
ENDBRANCH  74  75
ENDBRANCH  55  69
BRANCH  56  79
ATOM     79  C   UNL A   1      43.466  27.823  35.359  1.00  0.00    -0.014 A 
ATOM     80  C   UNL A   1      42.909  26.611  35.806  1.00  0.00     0.010 A 
ATOM     81  C   UNL A   1      44.385  27.796  34.294  1.00  0.00     0.010 A 
ATOM     82  C   UNL A   1      43.277  25.399  35.212  1.00  0.00     0.020 A 
ATOM     83  C   UNL A   1      44.729  26.593  33.675  1.00  0.00     0.020 A 
ATOM     84  C   UNL A   1      44.182  25.399  34.146  1.00  0.00     0.054 A 
BRANCH  84  85
ATOM     85  S   UNL A   1      44.602  23.821  33.356  1.00  0.00     0.124 S 
ATOM     86  O   UNL A   1      43.461  22.985  33.718  1.00  0.00    -0.237 OA
ATOM     87  O   UNL A   1      44.695  24.193  31.946  1.00  0.00    -0.237 OA
ATOM     88  O   UNL A   1      45.871  23.453  33.980  1.00  0.00    -0.744 OA
ENDBRANCH  84  85
ENDBRANCH  56  79
BRANCH  68  89
ATOM     89  C   UNL A   1      45.969  31.292  40.876  1.00  0.00    -0.014 A 
ATOM     90  C   UNL A   1      47.306  31.687  40.693  1.00  0.00     0.010 A 
ATOM     91  C   UNL A   1      45.620  30.593  42.047  1.00  0.00     0.010 A 
ATOM     92  C   UNL A   1      48.283  31.337  41.630  1.00  0.00     0.020 A 
ATOM     93  C   UNL A   1      46.585  30.277  43.007  1.00  0.00     0.020 A 
ATOM     94  C   UNL A   1      47.916  30.631  42.780  1.00  0.00     0.054 A 
BRANCH  94  95
ATOM     95  S   UNL A   1      49.199  30.197  43.984  1.00  0.00     0.124 S 
ATOM     96  O   UNL A   1      49.431  28.786  43.685  1.00  0.00    -0.237 OA
ATOM     97  O   UNL A   1      50.290  31.102  43.629  1.00  0.00    -0.237 OA
ATOM     98  O   UNL A   1      48.570  30.463  45.276  1.00  0.00    -0.744 OA
ENDBRANCH  94  95
ENDBRANCH  68  89
ENDBRANCH  42  43
ENDBRANCH  35  37
ENDBRANCH  34  35
ENDBRANCH  33  34
ENDBRANCH  32  33
ENDBRANCH  31  32
ENDBRANCH  30  31
ENDBRANCH   1  30
TORSDOF 25
ENDMDL
MODEL 3
REMARK VINA RESULT:      -8.8      8.867     13.086
REMARK SMILES C[C@H]1[C@@H](C(=O)OCCOCCOCCOCCOC(=O)c2ccc(-c3c4nc(c(-c5ccc(S(=O)(=O)[O-])cc5)c5ccc([nH]5)c(-c5ccc(S(=O)(=O)[O-])cc5)c5nc(c(-c6ccc(S(=O)(=O)[O-])cc6)c6ccc3[nH]6)C=C5)C=C4)cc2)CCN1S(=O)(=O)c1c[nH]c2ncccc12
REMARK SMILES IDX 13 1 12 2 11 3 10 4 9 5 8 6 7 7 6 8 4 9 5 10 3 11 1 12 2 13
REMARK SMILES IDX 83 14 81 15 82 16 84 17 85 18 86 19 87 20 88 21 95 22 89 23
REMARK SMILES IDX 90 24 94 25 91 27 93 28 92 29 14 30 15 31 16 32 17 33 18 34
REMARK SMILES IDX 19 35 20 36 21 37 22 38 80 39 23 40 79 41 24 42 25 43 26 44
REMARK SMILES IDX 73 45 27 46 78 47 72 48 74 49 28 50 77 51 71 52 70 53 29 55
REMARK SMILES IDX 59 56 40 57 58 58 41 59 44 60 57 61 75 62 42 63 43 64 56 66
REMARK SMILES IDX 76 67 45 68 30 69 31 70 39 71 32 72 38 73 33 74 34 75 35 76
REMARK SMILES IDX 36 77 37 78 60 79 61 80 69 81 62 82 68 83 63 84 64 85 65 86
REMARK SMILES IDX 66 87 67 88 46 89 47 90 55 91 48 92 54 93 49 94 50 95 51 96
REMARK SMILES IDX 52 97 53 98
REMARK H PARENT 89 26 74 54 44 65
REMARK Flexibility Score: inf
ROOT
ATOM      1  C   UNL A   1      35.247  30.049  27.741  1.00  0.00     0.188 C 
ENDROOT
BRANCH   1   2
ATOM      2  O   UNL A   1      34.192  29.309  27.163  1.00  0.00    -0.377 OA
BRANCH   2   3
ATOM      3  C   UNL A   1      33.278  29.963  26.301  1.00  0.00     0.188 C 
BRANCH   3   4
ATOM      4  C   UNL A   1      31.814  29.530  26.058  1.00  0.00     0.188 C 
BRANCH   4   5
ATOM      5  O   UNL A   1      31.424  29.425  24.712  1.00  0.00    -0.376 OA
BRANCH   5   6
ATOM      6  C   UNL A   1      31.265  28.172  24.084  1.00  0.00     0.202 C 
BRANCH   6   7
ATOM      7  C   UNL A   1      29.901  27.512  23.822  1.00  0.00     0.261 C 
BRANCH   7   8
ATOM      8  O   UNL A   1      29.808  26.087  23.940  1.00  0.00    -0.463 OA
BRANCH   8   9
ATOM      9  C   UNL A   1      30.372  25.507  25.019  1.00  0.00     0.310 C 
ATOM     10  O   UNL A   1      29.919  25.606  26.156  1.00  0.00    -0.252 OA
BRANCH   9  11
ATOM     11  C   UNL A   1      31.574  24.623  24.711  1.00  0.00     0.118 C 
ATOM     12  C   UNL A   1      33.300  26.133  26.069  1.00  0.00     0.027 C 
ATOM     13  C   UNL A   1      32.989  24.885  25.245  1.00  0.00     0.084 C 
ATOM     14  N   UNL A   1      33.928  24.802  24.076  1.00  0.00    -0.194 NA
ATOM     15  C   UNL A   1      31.728  24.332  23.218  1.00  0.00     0.034 C 
ATOM     16  C   UNL A   1      33.144  24.708  22.822  1.00  0.00     0.104 C 
BRANCH  14  17
ATOM     17  S   UNL A   1      35.156  23.618  24.144  1.00  0.00     0.245 S 
ATOM     18  O   UNL A   1      35.370  23.155  22.790  1.00  0.00    -0.207 OA
ATOM     19  O   UNL A   1      36.246  24.174  24.921  1.00  0.00    -0.207 OA
BRANCH  17  20
ATOM     20  C   UNL A   1      34.630  22.213  24.996  1.00  0.00     0.109 A 
ATOM     21  C   UNL A   1      34.878  21.940  26.333  1.00  0.00     0.106 A 
ATOM     22  C   UNL A   1      33.779  21.183  24.499  1.00  0.00     0.039 A 
ATOM     23  N   UNL A   1      34.258  20.761  26.645  1.00  0.00    -0.345 N 
ATOM     24  C   UNL A   1      33.553  20.316  25.567  1.00  0.00     0.138 A 
ATOM     25  C   UNL A   1      33.132  20.868  23.289  1.00  0.00     0.015 A 
ATOM     26  H   UNL A   1      34.313  20.305  27.516  1.00  0.00     0.168 HD
ATOM     27  N   UNL A   1      32.774  19.221  25.590  1.00  0.00    -0.239 NA
ATOM     28  C   UNL A   1      32.309  19.742  23.259  1.00  0.00     0.021 A 
ATOM     29  C   UNL A   1      32.168  18.979  24.408  1.00  0.00     0.113 A 
ENDBRANCH  17  20
ENDBRANCH  14  17
ENDBRANCH   9  11
ENDBRANCH   8   9
ENDBRANCH   7   8
ENDBRANCH   6   7
ENDBRANCH   5   6
ENDBRANCH   4   5
ENDBRANCH   3   4
ENDBRANCH   2   3
ENDBRANCH   1   2
BRANCH   1  30
ATOM     30  C   UNL A   1      35.106  31.581  27.692  1.00  0.00     0.188 C 
BRANCH  30  31
ATOM     31  O   UNL A   1      34.556  32.145  28.869  1.00  0.00    -0.376 OA
BRANCH  31  32
ATOM     32  C   UNL A   1      35.141  31.881  30.132  1.00  0.00     0.202 C 
BRANCH  32  33
ATOM     33  C   UNL A   1      35.174  32.900  31.290  1.00  0.00     0.261 C 
BRANCH  33  34
ATOM     34  O   UNL A   1      36.434  33.466  31.659  1.00  0.00    -0.460 OA
BRANCH  34  35
ATOM     35  C   UNL A   1      36.425  34.378  32.650  1.00  0.00     0.338 C 
ATOM     36  O   UNL A   1      35.651  35.309  32.783  1.00  0.00    -0.246 OA
BRANCH  35  37
ATOM     37  C   UNL A   1      37.395  33.934  33.672  1.00  0.00     0.060 A 
ATOM     38  C   UNL A   1      37.367  32.594  34.081  1.00  0.00     0.016 A 
ATOM     39  C   UNL A   1      38.316  34.828  34.223  1.00  0.00     0.016 A 
ATOM     40  C   UNL A   1      38.227  32.155  35.080  1.00  0.00     0.010 A 
ATOM     41  C   UNL A   1      39.154  34.394  35.254  1.00  0.00     0.010 A 
ATOM     42  C   UNL A   1      39.073  33.068  35.718  1.00  0.00    -0.014 A 
BRANCH  42  43
ATOM     43  C   UNL A   1      39.653  32.683  37.024  1.00  0.00     0.031 A 
ATOM     44  C   UNL A   1      41.125  32.370  37.075  1.00  0.00     0.074 A 
ATOM     45  C   UNL A   1      38.919  32.709  38.150  1.00  0.00     0.049 A 
ATOM     46  N   UNL A   1      41.872  32.059  38.102  1.00  0.00    -0.248 NA
ATOM     47  C   UNL A   1      41.853  32.417  35.795  1.00  0.00     0.031 C 
ATOM     48  C   UNL A   1      37.501  33.059  38.229  1.00  0.00     0.029 A 
ATOM     49  N   UNL A   1      39.275  32.444  39.447  1.00  0.00    -0.354 N 
ATOM     50  C   UNL A   1      43.151  31.866  37.590  1.00  0.00     0.074 A 
ATOM     51  C   UNL A   1      43.072  32.055  36.160  1.00  0.00     0.031 C 
ATOM     52  C   UNL A   1      37.109  32.990  39.513  1.00  0.00     0.029 A 
ATOM     53  C   UNL A   1      38.237  32.559  40.339  1.00  0.00     0.049 A 
ATOM     54  H   UNL A   1      40.190  32.196  39.714  1.00  0.00     0.167 HD
ATOM     55  C   UNL A   1      44.291  31.567  38.255  1.00  0.00     0.031 A 
ATOM     56  C   UNL A   1      38.200  32.328  41.666  1.00  0.00     0.031 A 
ATOM     57  C   UNL A   1      44.357  31.364  39.677  1.00  0.00     0.049 A 
ATOM     58  C   UNL A   1      39.466  31.914  42.371  1.00  0.00     0.074 A 
ATOM     59  C   UNL A   1      45.463  31.063  40.451  1.00  0.00     0.029 A 
ATOM     60  N   UNL A   1      43.271  31.432  40.538  1.00  0.00    -0.354 N 
ATOM     61  N   UNL A   1      40.673  31.753  41.880  1.00  0.00    -0.248 NA
ATOM     62  C   UNL A   1      39.368  31.666  43.816  1.00  0.00     0.031 C 
ATOM     63  C   UNL A   1      45.033  30.873  41.769  1.00  0.00     0.029 A 
ATOM     64  C   UNL A   1      43.675  31.144  41.830  1.00  0.00     0.049 A 
ATOM     65  H   UNL A   1      42.350  31.650  40.269  1.00  0.00     0.167 HD
ATOM     66  C   UNL A   1      41.484  31.423  42.962  1.00  0.00     0.074 A 
ATOM     67  C   UNL A   1      40.631  31.426  44.134  1.00  0.00     0.031 C 
ATOM     68  C   UNL A   1      42.812  31.145  42.987  1.00  0.00     0.031 A 
BRANCH  55  69
ATOM     69  C   UNL A   1      45.548  31.394  37.440  1.00  0.00    -0.014 A 
ATOM     70  C   UNL A   1      46.415  32.472  37.184  1.00  0.00     0.010 A 
ATOM     71  C   UNL A   1      45.882  30.119  36.948  1.00  0.00     0.010 A 
ATOM     72  C   UNL A   1      47.571  32.285  36.420  1.00  0.00     0.020 A 
ATOM     73  C   UNL A   1      47.055  29.919  36.216  1.00  0.00     0.020 A 
ATOM     74  C   UNL A   1      47.885  31.008  35.944  1.00  0.00     0.054 A 
BRANCH  74  75
ATOM     75  S   UNL A   1      49.410  30.788  34.987  1.00  0.00     0.124 S 
ATOM     76  O   UNL A   1      48.971  29.891  33.921  1.00  0.00    -0.237 OA
ATOM     77  O   UNL A   1      49.723  32.153  34.570  1.00  0.00    -0.237 OA
ATOM     78  O   UNL A   1      50.343  30.203  35.947  1.00  0.00    -0.744 OA
ENDBRANCH  74  75
ENDBRANCH  55  69
BRANCH  56  79
ATOM     79  C   UNL A   1      36.919  32.466  42.412  1.00  0.00    -0.014 A 
ATOM     80  C   UNL A   1      35.974  31.424  42.431  1.00  0.00     0.010 A 
ATOM     81  C   UNL A   1      36.631  33.657  43.105  1.00  0.00     0.010 A 
ATOM     82  C   UNL A   1      34.762  31.577  43.111  1.00  0.00     0.020 A 
ATOM     83  C   UNL A   1      35.437  33.801  43.815  1.00  0.00     0.020 A 
ATOM     84  C   UNL A   1      34.504  32.764  43.804  1.00  0.00     0.054 A 
BRANCH  84  85
ATOM     85  S   UNL A   1      32.949  32.919  44.725  1.00  0.00     0.124 S 
ATOM     86  O   UNL A   1      33.261  33.981  45.675  1.00  0.00    -0.237 OA
ATOM     87  O   UNL A   1      31.996  33.267  43.674  1.00  0.00    -0.237 OA
ATOM     88  O   UNL A   1      32.763  31.591  45.308  1.00  0.00    -0.744 OA
ENDBRANCH  84  85
ENDBRANCH  56  79
BRANCH  68  89
ATOM     89  C   UNL A   1      43.439  30.871  44.332  1.00  0.00    -0.014 A 
ATOM     90  C   UNL A   1      44.077  31.882  45.072  1.00  0.00     0.010 A 
ATOM     91  C   UNL A   1      43.363  29.575  44.876  1.00  0.00     0.010 A 
ATOM     92  C   UNL A   1      44.678  31.590  46.300  1.00  0.00     0.020 A 
ATOM     93  C   UNL A   1      43.925  29.287  46.122  1.00  0.00     0.020 A 
ATOM     94  C   UNL A   1      44.600  30.292  46.816  1.00  0.00     0.054 A 
BRANCH  94  95
ATOM     95  S   UNL A   1      45.380  29.941  48.413  1.00  0.00     0.124 S 
ATOM     96  O   UNL A   1      45.960  28.621  48.184  1.00  0.00    -0.237 OA
ATOM     97  O   UNL A   1      46.339  31.034  48.548  1.00  0.00    -0.237 OA
ATOM     98  O   UNL A   1      44.267  29.974  49.360  1.00  0.00    -0.744 OA
ENDBRANCH  94  95
ENDBRANCH  68  89
ENDBRANCH  42  43
ENDBRANCH  35  37
ENDBRANCH  34  35
ENDBRANCH  33  34
ENDBRANCH  32  33
ENDBRANCH  31  32
ENDBRANCH  30  31
ENDBRANCH   1  30
TORSDOF 25
ENDMDL
