MODEL 1
REMARK VINA RESULT:      -6.1      0.000      0.000
REMARK SMILES CCOc1cccc(-c2ccc([C@@H](C)C(=O)OCCOCCOCCOCCOC(=O)c3ccc(-c4c5nc(c(-c6ccc(S(=O)(=O)[O-])cc6)c6ccc([nH]6)c(-c6ccc(S(=O)(=O)[O-])cc6)c6nc(c(-c7ccc(S(=O)(=O)[O-])cc7)c7ccc4[nH]7)C=C6)C=C5)cc3)cc2F)c1
REMARK SMILES IDX 22 1 21 2 20 3 19 4 18 5 17 6 15 7 16 8 13 9 14 10 12 11
REMARK SMILES IDX 9 12 10 13 93 14 11 15 92 16 94 17 8 18 4 19 5 20 95 21 6 22
REMARK SMILES IDX 7 23 3 24 2 25 1 26 23 27 24 28 25 29 26 30 27 31 28 32
REMARK SMILES IDX 29 33 30 34 31 35 32 36 33 37 91 38 34 39 90 40 35 41 36 42
REMARK SMILES IDX 37 43 84 44 38 45 89 46 83 47 85 48 39 49 88 50 82 51 81 52
REMARK SMILES IDX 40 54 70 55 51 56 69 57 52 58 55 59 68 60 86 61 53 62 54 63
REMARK SMILES IDX 67 65 87 66 56 67 41 68 42 69 50 70 43 71 49 72 44 73 45 74
REMARK SMILES IDX 46 75 47 76 48 77 71 78 72 79 80 80 73 81 79 82 74 83 75 84
REMARK SMILES IDX 76 85 77 86 78 87 57 88 58 89 66 90 59 91 65 92 60 93 61 94
REMARK SMILES IDX 62 95 63 96 64 97
REMARK H PARENT 85 53 55 64
REMARK Flexibility Score: inf
ROOT
ATOM      1  C   UNL A   1      38.222  31.804  31.306  1.00  0.00     0.188 C 
ENDROOT
BRANCH   1   2
ATOM      2  C   UNL A   1      39.121  31.109  30.274  1.00  0.00     0.188 C 
BRANCH   2   3
ATOM      3  O   UNL A   1      38.565  30.442  29.151  1.00  0.00    -0.376 OA
BRANCH   3   4
ATOM      4  C   UNL A   1      38.022  29.133  29.272  1.00  0.00     0.202 C 
BRANCH   4   5
ATOM      5  C   UNL A   1      38.523  27.948  28.423  1.00  0.00     0.261 C 
BRANCH   5   6
ATOM      6  O   UNL A   1      39.937  27.882  28.148  1.00  0.00    -0.463 OA
BRANCH   6   7
ATOM      7  C   UNL A   1      40.604  26.852  28.712  1.00  0.00     0.313 C 
ATOM      8  O   UNL A   1      40.143  25.714  28.803  1.00  0.00    -0.252 OA
BRANCH   7   9
ATOM      9  C   UNL A   1      41.994  27.169  29.258  1.00  0.00     0.126 C 
ATOM     10  C   UNL A   1      41.929  28.501  29.995  1.00  0.00     0.025 C 
BRANCH   9  11
ATOM     11  C   UNL A   1      43.246  27.078  28.383  1.00  0.00    -0.031 A 
ATOM     12  C   UNL A   1      45.636  26.770  26.802  1.00  0.00     0.018 A 
ATOM     13  C   UNL A   1      44.921  27.984  26.845  1.00  0.00     0.012 A 
ATOM     14  C   UNL A   1      45.118  25.720  27.568  1.00  0.00     0.131 A 
ATOM     15  C   UNL A   1      43.749  28.138  27.620  1.00  0.00     0.005 A 
ATOM     16  C   UNL A   1      43.966  25.868  28.350  1.00  0.00     0.044 A 
ATOM     17  F   UNL A   1      45.730  24.525  27.583  1.00  0.00    -0.206 F 
BRANCH  12  18
ATOM     18  C   UNL A   1      46.886  26.624  26.018  1.00  0.00    -0.012 A 
ATOM     19  C   UNL A   1      48.154  26.860  23.936  1.00  0.00     0.119 A 
ATOM     20  C   UNL A   1      49.254  26.233  24.509  1.00  0.00     0.046 A 
ATOM     21  C   UNL A   1      46.977  27.040  24.676  1.00  0.00     0.055 A 
ATOM     22  C   UNL A   1      49.188  25.807  25.833  1.00  0.00     0.004 A 
ATOM     23  C   UNL A   1      48.018  26.003  26.578  1.00  0.00     0.009 A 
BRANCH  19  24
ATOM     24  O   UNL A   1      48.205  27.133  22.596  1.00  0.00    -0.494 OA
BRANCH  24  25
ATOM     25  C   UNL A   1      49.423  26.714  21.973  1.00  0.00     0.226 C 
ATOM     26  C   UNL A   1      49.336  26.909  20.474  1.00  0.00     0.049 C 
ENDBRANCH  24  25
ENDBRANCH  19  24
ENDBRANCH  12  18
ENDBRANCH   9  11
ENDBRANCH   7   9
ENDBRANCH   6   7
ENDBRANCH   5   6
ENDBRANCH   4   5
ENDBRANCH   3   4
ENDBRANCH   2   3
ENDBRANCH   1   2
BRANCH   1  27
ATOM     27  O   UNL A   1      37.682  33.038  30.887  1.00  0.00    -0.377 OA
BRANCH  27  28
ATOM     28  C   UNL A   1      38.129  34.208  31.550  1.00  0.00     0.188 C 
BRANCH  28  29
ATOM     29  C   UNL A   1      37.977  34.278  33.083  1.00  0.00     0.188 C 
BRANCH  29  30
ATOM     30  O   UNL A   1      36.709  34.742  33.526  1.00  0.00    -0.376 OA
BRANCH  30  31
ATOM     31  C   UNL A   1      36.202  34.230  34.748  1.00  0.00     0.202 C 
BRANCH  31  32
ATOM     32  C   UNL A   1      37.206  33.755  35.805  1.00  0.00     0.261 C 
BRANCH  32  33
ATOM     33  O   UNL A   1      36.987  32.468  36.406  1.00  0.00    -0.460 OA
BRANCH  33  34
ATOM     34  C   UNL A   1      37.983  31.907  37.119  1.00  0.00     0.338 C 
ATOM     35  O   UNL A   1      37.958  31.625  38.306  1.00  0.00    -0.246 OA
BRANCH  34  36
ATOM     36  C   UNL A   1      39.044  31.501  36.166  1.00  0.00     0.060 A 
ATOM     37  C   UNL A   1      40.357  31.942  36.384  1.00  0.00     0.016 A 
ATOM     38  C   UNL A   1      38.758  30.665  35.085  1.00  0.00     0.016 A 
ATOM     39  C   UNL A   1      41.384  31.555  35.519  1.00  0.00     0.010 A 
ATOM     40  C   UNL A   1      39.783  30.305  34.200  1.00  0.00     0.010 A 
ATOM     41  C   UNL A   1      41.099  30.760  34.402  1.00  0.00    -0.014 A 
BRANCH  41  42
ATOM     42  C   UNL A   1      42.137  30.517  33.366  1.00  0.00     0.031 A 
ATOM     43  C   UNL A   1      42.880  29.209  33.381  1.00  0.00     0.074 A 
ATOM     44  C   UNL A   1      42.426  31.442  32.432  1.00  0.00     0.049 A 
ATOM     45  N   UNL A   1      43.885  28.817  32.641  1.00  0.00    -0.248 NA
ATOM     46  C   UNL A   1      42.426  28.209  34.362  1.00  0.00     0.031 C 
ATOM     47  C   UNL A   1      41.741  32.723  32.268  1.00  0.00     0.029 A 
ATOM     48  N   UNL A   1      43.387  31.446  31.449  1.00  0.00    -0.354 N 
ATOM     49  C   UNL A   1      44.195  27.533  33.076  1.00  0.00     0.074 A 
ATOM     50  C   UNL A   1      43.285  27.220  34.156  1.00  0.00     0.031 C 
ATOM     51  C   UNL A   1      42.318  33.399  31.257  1.00  0.00     0.029 A 
ATOM     52  C   UNL A   1      43.439  32.619  30.733  1.00  0.00     0.049 A 
ATOM     53  H   UNL A   1      43.982  30.681  31.273  1.00  0.00     0.167 HD
ATOM     54  C   UNL A   1      45.153  26.691  32.619  1.00  0.00     0.031 A 
ATOM     55  C   UNL A   1      44.311  33.033  29.789  1.00  0.00     0.031 A 
ATOM     56  C   UNL A   1      46.072  27.014  31.559  1.00  0.00     0.049 A 
ATOM     57  C   UNL A   1      45.437  32.121  29.370  1.00  0.00     0.074 A 
ATOM     58  C   UNL A   1      47.069  26.221  31.016  1.00  0.00     0.029 A 
ATOM     59  N   UNL A   1      46.122  28.229  30.894  1.00  0.00    -0.354 N 
ATOM     60  N   UNL A   1      45.700  30.898  29.768  1.00  0.00    -0.248 NA
ATOM     61  C   UNL A   1      46.386  32.644  28.376  1.00  0.00     0.031 C 
ATOM     62  C   UNL A   1      47.767  26.982  30.073  1.00  0.00     0.029 A 
ATOM     63  C   UNL A   1      47.159  28.223  29.976  1.00  0.00     0.049 A 
ATOM     64  H   UNL A   1      45.510  28.985  31.050  1.00  0.00     0.167 HD
ATOM     65  C   UNL A   1      46.829  30.501  29.058  1.00  0.00     0.074 A 
ATOM     66  C   UNL A   1      47.188  31.604  28.190  1.00  0.00     0.031 C 
ATOM     67  C   UNL A   1      47.510  29.329  29.119  1.00  0.00     0.031 A 
BRANCH  54  68
ATOM     68  C   UNL A   1      45.290  25.353  33.297  1.00  0.00    -0.014 A 
ATOM     69  C   UNL A   1      44.575  24.228  32.848  1.00  0.00     0.010 A 
ATOM     70  C   UNL A   1      46.184  25.209  34.373  1.00  0.00     0.010 A 
ATOM     71  C   UNL A   1      44.725  22.993  33.485  1.00  0.00     0.020 A 
ATOM     72  C   UNL A   1      46.361  23.969  34.994  1.00  0.00     0.020 A 
ATOM     73  C   UNL A   1      45.618  22.872  34.554  1.00  0.00     0.054 A 
BRANCH  73  74
ATOM     74  S   UNL A   1      45.812  21.251  35.343  1.00  0.00     0.124 S 
ATOM     75  O   UNL A   1      45.725  21.593  36.761  1.00  0.00    -0.237 OA
ATOM     76  O   UNL A   1      44.681  20.498  34.809  1.00  0.00    -0.237 OA
ATOM     77  O   UNL A   1      47.127  20.800  34.893  1.00  0.00    -0.744 OA
ENDBRANCH  73  74
ENDBRANCH  54  68
BRANCH  55  78
ATOM     78  C   UNL A   1      44.186  34.398  29.202  1.00  0.00    -0.014 A 
ATOM     79  C   UNL A   1      43.541  34.596  27.969  1.00  0.00     0.010 A 
ATOM     80  C   UNL A   1      44.727  35.511  29.874  1.00  0.00     0.010 A 
ATOM     81  C   UNL A   1      43.449  35.876  27.413  1.00  0.00     0.020 A 
ATOM     82  C   UNL A   1      44.609  36.796  29.338  1.00  0.00     0.020 A 
ATOM     83  C   UNL A   1      43.979  36.970  28.105  1.00  0.00     0.054 A 
BRANCH  83  84
ATOM     84  S   UNL A   1      43.796  38.628  27.391  1.00  0.00     0.124 S 
ATOM     85  O   UNL A   1      43.909  39.481  28.571  1.00  0.00    -0.237 OA
ATOM     86  O   UNL A   1      44.914  38.690  26.454  1.00  0.00    -0.237 OA
ATOM     87  O   UNL A   1      42.473  38.589  26.771  1.00  0.00    -0.744 OA
ENDBRANCH  83  84
ENDBRANCH  55  78
BRANCH  67  88
ATOM     88  C   UNL A   1      48.704  29.159  28.214  1.00  0.00    -0.014 A 
ATOM     89  C   UNL A   1      48.653  29.548  26.863  1.00  0.00     0.010 A 
ATOM     90  C   UNL A   1      49.917  28.678  28.741  1.00  0.00     0.010 A 
ATOM     91  C   UNL A   1      49.789  29.442  26.054  1.00  0.00     0.020 A 
ATOM     92  C   UNL A   1      51.062  28.600  27.944  1.00  0.00     0.020 A 
ATOM     93  C   UNL A   1      50.988  28.975  26.601  1.00  0.00     0.054 A 
BRANCH  93  94
ATOM     94  S   UNL A   1      52.461  28.912  25.544  1.00  0.00     0.124 S 
ATOM     95  O   UNL A   1      53.249  27.861  26.180  1.00  0.00    -0.237 OA
ATOM     96  O   UNL A   1      51.901  28.574  24.237  1.00  0.00    -0.237 OA
ATOM     97  O   UNL A   1      53.020  30.259  25.647  1.00  0.00    -0.744 OA
ENDBRANCH  93  94
ENDBRANCH  67  88
ENDBRANCH  41  42
ENDBRANCH  34  36
ENDBRANCH  33  34
ENDBRANCH  32  33
ENDBRANCH  31  32
ENDBRANCH  30  31
ENDBRANCH  29  30
ENDBRANCH  28  29
ENDBRANCH  27  28
ENDBRANCH   1  27
TORSDOF 27
ENDMDL
MODEL 2
REMARK VINA RESULT:      -6.1      6.628     13.108
REMARK SMILES CCOc1cccc(-c2ccc([C@@H](C)C(=O)OCCOCCOCCOCCOC(=O)c3ccc(-c4c5nc(c(-c6ccc(S(=O)(=O)[O-])cc6)c6ccc([nH]6)c(-c6ccc(S(=O)(=O)[O-])cc6)c6nc(c(-c7ccc(S(=O)(=O)[O-])cc7)c7ccc4[nH]7)C=C6)C=C5)cc3)cc2F)c1
REMARK SMILES IDX 22 1 21 2 20 3 19 4 18 5 17 6 15 7 16 8 13 9 14 10 12 11
REMARK SMILES IDX 9 12 10 13 93 14 11 15 92 16 94 17 8 18 4 19 5 20 95 21 6 22
REMARK SMILES IDX 7 23 3 24 2 25 1 26 23 27 24 28 25 29 26 30 27 31 28 32
REMARK SMILES IDX 29 33 30 34 31 35 32 36 33 37 91 38 34 39 90 40 35 41 36 42
REMARK SMILES IDX 37 43 84 44 38 45 89 46 83 47 85 48 39 49 88 50 82 51 81 52
REMARK SMILES IDX 40 54 70 55 51 56 69 57 52 58 55 59 68 60 86 61 53 62 54 63
REMARK SMILES IDX 67 65 87 66 56 67 41 68 42 69 50 70 43 71 49 72 44 73 45 74
REMARK SMILES IDX 46 75 47 76 48 77 71 78 72 79 80 80 73 81 79 82 74 83 75 84
REMARK SMILES IDX 76 85 77 86 78 87 57 88 58 89 66 90 59 91 65 92 60 93 61 94
REMARK SMILES IDX 62 95 63 96 64 97
REMARK H PARENT 85 53 55 64
REMARK Flexibility Score: inf
ROOT
ATOM      1  C   UNL A   1      45.202  41.345  29.150  1.00  0.00     0.188 C 
ENDROOT
BRANCH   1   2
ATOM      2  C   UNL A   1      44.774  40.385  28.032  1.00  0.00     0.188 C 
BRANCH   2   3
ATOM      3  O   UNL A   1      45.622  39.325  27.613  1.00  0.00    -0.376 OA
BRANCH   3   4
ATOM      4  C   UNL A   1      45.966  39.161  26.243  1.00  0.00     0.202 C 
BRANCH   4   5
ATOM      5  C   UNL A   1      46.721  40.243  25.446  1.00  0.00     0.261 C 
BRANCH   5   6
ATOM      6  O   UNL A   1      46.158  40.648  24.182  1.00  0.00    -0.463 OA
BRANCH   6   7
ATOM      7  C   UNL A   1      45.367  41.743  24.207  1.00  0.00     0.313 C 
ATOM      8  O   UNL A   1      44.285  41.784  24.793  1.00  0.00    -0.252 OA
BRANCH   7   9
ATOM      9  C   UNL A   1      45.882  42.963  23.446  1.00  0.00     0.126 C 
ATOM     10  C   UNL A   1      46.132  44.084  24.448  1.00  0.00     0.025 C 
BRANCH   9  11
ATOM     11  C   UNL A   1      45.183  43.485  22.190  1.00  0.00    -0.031 A 
ATOM     12  C   UNL A   1      43.992  44.557  19.794  1.00  0.00     0.018 A 
ATOM     13  C   UNL A   1      43.249  43.800  20.723  1.00  0.00     0.012 A 
ATOM     14  C   UNL A   1      45.343  44.756  20.099  1.00  0.00     0.131 A 
ATOM     15  C   UNL A   1      43.830  43.274  21.899  1.00  0.00     0.005 A 
ATOM     16  C   UNL A   1      45.924  44.251  21.269  1.00  0.00     0.044 A 
ATOM     17  F   UNL A   1      46.130  45.460  19.269  1.00  0.00    -0.206 F 
BRANCH  12  18
ATOM     18  C   UNL A   1      43.370  45.139  18.581  1.00  0.00    -0.012 A 
ATOM     19  C   UNL A   1      42.585  47.062  17.284  1.00  0.00     0.119 A 
ATOM     20  C   UNL A   1      42.080  46.221  16.300  1.00  0.00     0.046 A 
ATOM     21  C   UNL A   1      43.209  46.529  18.420  1.00  0.00     0.055 A 
ATOM     22  C   UNL A   1      42.221  44.842  16.438  1.00  0.00     0.004 A 
ATOM     23  C   UNL A   1      42.861  44.310  17.564  1.00  0.00     0.009 A 
BRANCH  19  24
ATOM     24  O   UNL A   1      42.301  48.398  17.185  1.00  0.00    -0.494 OA
BRANCH  24  25
ATOM     25  C   UNL A   1      43.467  49.225  17.112  1.00  0.00     0.226 C 
ATOM     26  C   UNL A   1      43.676  49.947  18.426  1.00  0.00     0.049 C 
ENDBRANCH  24  25
ENDBRANCH  19  24
ENDBRANCH  12  18
ENDBRANCH   9  11
ENDBRANCH   7   9
ENDBRANCH   6   7
ENDBRANCH   5   6
ENDBRANCH   4   5
ENDBRANCH   3   4
ENDBRANCH   2   3
ENDBRANCH   1   2
BRANCH   1  27
ATOM     27  O   UNL A   1      45.805  40.725  30.265  1.00  0.00    -0.377 OA
BRANCH  27  28
ATOM     28  C   UNL A   1      47.131  41.108  30.590  1.00  0.00     0.188 C 
BRANCH  28  29
ATOM     29  C   UNL A   1      48.290  40.262  30.024  1.00  0.00     0.188 C 
BRANCH  29  30
ATOM     30  O   UNL A   1      48.561  40.487  28.647  1.00  0.00    -0.376 OA
BRANCH  30  31
ATOM     31  C   UNL A   1      49.688  39.841  28.077  1.00  0.00     0.202 C 
BRANCH  31  32
ATOM     32  C   UNL A   1      49.459  38.546  27.289  1.00  0.00     0.261 C 
BRANCH  32  33
ATOM     33  O   UNL A   1      48.722  37.493  27.931  1.00  0.00    -0.460 OA
BRANCH  33  34
ATOM     34  C   UNL A   1      49.391  36.599  28.686  1.00  0.00     0.338 C 
ATOM     35  O   UNL A   1      50.358  36.825  29.394  1.00  0.00    -0.246 OA
BRANCH  34  36
ATOM     36  C   UNL A   1      48.621  35.332  28.668  1.00  0.00     0.060 A 
ATOM     37  C   UNL A   1      48.647  34.506  29.801  1.00  0.00     0.016 A 
ATOM     38  C   UNL A   1      47.850  34.973  27.560  1.00  0.00     0.016 A 
ATOM     39  C   UNL A   1      47.911  33.319  29.826  1.00  0.00     0.010 A 
ATOM     40  C   UNL A   1      47.139  33.766  27.575  1.00  0.00     0.010 A 
ATOM     41  C   UNL A   1      47.177  32.924  28.701  1.00  0.00    -0.014 A 
BRANCH  41  42
ATOM     42  C   UNL A   1      46.564  31.571  28.639  1.00  0.00     0.031 A 
ATOM     43  C   UNL A   1      47.357  30.447  28.029  1.00  0.00     0.074 A 
ATOM     44  C   UNL A   1      45.323  31.341  29.106  1.00  0.00     0.049 A 
ATOM     45  N   UNL A   1      46.993  29.215  27.782  1.00  0.00    -0.248 NA
ATOM     46  C   UNL A   1      48.744  30.755  27.647  1.00  0.00     0.031 C 
ATOM     47  C   UNL A   1      44.473  32.325  29.774  1.00  0.00     0.029 A 
ATOM     48  N   UNL A   1      44.557  30.200  29.075  1.00  0.00    -0.354 N 
ATOM     49  C   UNL A   1      48.100  28.603  27.203  1.00  0.00     0.074 A 
ATOM     50  C   UNL A   1      49.140  29.606  27.117  1.00  0.00     0.031 C 
ATOM     51  C   UNL A   1      43.293  31.751  30.071  1.00  0.00     0.029 A 
ATOM     52  C   UNL A   1      43.288  30.374  29.577  1.00  0.00     0.049 A 
ATOM     53  H   UNL A   1      44.884  29.340  28.726  1.00  0.00     0.167 HD
ATOM     54  C   UNL A   1      48.238  27.325  26.777  1.00  0.00     0.031 A 
ATOM     55  C   UNL A   1      42.232  29.534  29.602  1.00  0.00     0.031 A 
ATOM     56  C   UNL A   1      47.194  26.336  26.843  1.00  0.00     0.049 A 
ATOM     57  C   UNL A   1      42.374  28.148  29.025  1.00  0.00     0.074 A 
ATOM     58  C   UNL A   1      47.242  25.009  26.452  1.00  0.00     0.029 A 
ATOM     59  N   UNL A   1      45.911  26.566  27.315  1.00  0.00    -0.354 N 
ATOM     60  N   UNL A   1      43.435  27.574  28.508  1.00  0.00    -0.248 NA
ATOM     61  C   UNL A   1      41.176  27.295  29.034  1.00  0.00     0.031 C 
ATOM     62  C   UNL A   1      45.968  24.458  26.618  1.00  0.00     0.029 A 
ATOM     63  C   UNL A   1      45.146  25.419  27.183  1.00  0.00     0.049 A 
ATOM     64  H   UNL A   1      45.590  27.419  27.688  1.00  0.00     0.167 HD
ATOM     65  C   UNL A   1      43.037  26.289  28.151  1.00  0.00     0.074 A 
ATOM     66  C   UNL A   1      41.644  26.161  28.529  1.00  0.00     0.031 C 
ATOM     67  C   UNL A   1      43.758  25.304  27.560  1.00  0.00     0.031 A 
BRANCH  54  68
ATOM     68  C   UNL A   1      49.553  26.932  26.157  1.00  0.00    -0.014 A 
ATOM     69  C   UNL A   1      50.517  26.205  26.880  1.00  0.00     0.010 A 
ATOM     70  C   UNL A   1      49.809  27.255  24.812  1.00  0.00     0.010 A 
ATOM     71  C   UNL A   1      51.725  25.842  26.280  1.00  0.00     0.020 A 
ATOM     72  C   UNL A   1      51.004  26.867  24.198  1.00  0.00     0.020 A 
ATOM     73  C   UNL A   1      51.960  26.175  24.942  1.00  0.00     0.054 A 
BRANCH  73  74
ATOM     74  S   UNL A   1      53.527  25.666  24.184  1.00  0.00     0.124 S 
ATOM     75  O   UNL A   1      53.253  25.868  22.763  1.00  0.00    -0.237 OA
ATOM     76  O   UNL A   1      54.486  26.594  24.776  1.00  0.00    -0.237 OA
ATOM     77  O   UNL A   1      53.676  24.272  24.595  1.00  0.00    -0.744 OA
ENDBRANCH  73  74
ENDBRANCH  54  68
BRANCH  55  78
ATOM     78  C   UNL A   1      40.925  29.993  30.154  1.00  0.00    -0.014 A 
ATOM     79  C   UNL A   1      40.728  30.107  31.540  1.00  0.00     0.010 A 
ATOM     80  C   UNL A   1      39.860  30.307  29.287  1.00  0.00     0.010 A 
ATOM     81  C   UNL A   1      39.491  30.514  32.052  1.00  0.00     0.020 A 
ATOM     82  C   UNL A   1      38.632  30.745  29.792  1.00  0.00     0.020 A 
ATOM     83  C   UNL A   1      38.452  30.837  31.173  1.00  0.00     0.054 A 
BRANCH  83  84
ATOM     84  S   UNL A   1      36.876  31.419  31.858  1.00  0.00     0.124 S 
ATOM     85  O   UNL A   1      37.313  32.455  32.789  1.00  0.00    -0.237 OA
ATOM     86  O   UNL A   1      36.174  31.891  30.667  1.00  0.00    -0.237 OA
ATOM     87  O   UNL A   1      36.308  30.222  32.473  1.00  0.00    -0.744 OA
ENDBRANCH  83  84
ENDBRANCH  55  78
BRANCH  67  88
ATOM     88  C   UNL A   1      43.072  23.987  27.298  1.00  0.00    -0.014 A 
ATOM     89  C   UNL A   1      42.371  23.757  26.100  1.00  0.00     0.010 A 
ATOM     90  C   UNL A   1      43.196  22.938  28.229  1.00  0.00     0.010 A 
ATOM     91  C   UNL A   1      41.795  22.509  25.847  1.00  0.00     0.020 A 
ATOM     92  C   UNL A   1      42.648  21.680  27.965  1.00  0.00     0.020 A 
ATOM     93  C   UNL A   1      41.942  21.476  26.777  1.00  0.00     0.054 A 
BRANCH  93  94
ATOM     94  S   UNL A   1      41.241  19.849  26.391  1.00  0.00     0.124 S 
ATOM     95  O   UNL A   1      39.928  20.200  25.860  1.00  0.00    -0.237 OA
ATOM     96  O   UNL A   1      42.191  19.315  25.417  1.00  0.00    -0.237 OA
ATOM     97  O   UNL A   1      41.227  19.160  27.681  1.00  0.00    -0.744 OA
ENDBRANCH  93  94
ENDBRANCH  67  88
ENDBRANCH  41  42
ENDBRANCH  34  36
ENDBRANCH  33  34
ENDBRANCH  32  33
ENDBRANCH  31  32
ENDBRANCH  30  31
ENDBRANCH  29  30
ENDBRANCH  28  29
ENDBRANCH  27  28
ENDBRANCH   1  27
TORSDOF 27
ENDMDL
MODEL 3
REMARK VINA RESULT:      -6.0      4.343      7.361
REMARK SMILES CCOc1cccc(-c2ccc([C@@H](C)C(=O)OCCOCCOCCOCCOC(=O)c3ccc(-c4c5nc(c(-c6ccc(S(=O)(=O)[O-])cc6)c6ccc([nH]6)c(-c6ccc(S(=O)(=O)[O-])cc6)c6nc(c(-c7ccc(S(=O)(=O)[O-])cc7)c7ccc4[nH]7)C=C6)C=C5)cc3)cc2F)c1
REMARK SMILES IDX 22 1 21 2 20 3 19 4 18 5 17 6 15 7 16 8 13 9 14 10 12 11
REMARK SMILES IDX 9 12 10 13 93 14 11 15 92 16 94 17 8 18 4 19 5 20 95 21 6 22
REMARK SMILES IDX 7 23 3 24 2 25 1 26 23 27 24 28 25 29 26 30 27 31 28 32
REMARK SMILES IDX 29 33 30 34 31 35 32 36 33 37 91 38 34 39 90 40 35 41 36 42
REMARK SMILES IDX 37 43 84 44 38 45 89 46 83 47 85 48 39 49 88 50 82 51 81 52
REMARK SMILES IDX 40 54 70 55 51 56 69 57 52 58 55 59 68 60 86 61 53 62 54 63
REMARK SMILES IDX 67 65 87 66 56 67 41 68 42 69 50 70 43 71 49 72 44 73 45 74
REMARK SMILES IDX 46 75 47 76 48 77 71 78 72 79 80 80 73 81 79 82 74 83 75 84
REMARK SMILES IDX 76 85 77 86 78 87 57 88 58 89 66 90 59 91 65 92 60 93 61 94
REMARK SMILES IDX 62 95 63 96 64 97
REMARK H PARENT 85 53 55 64
REMARK Flexibility Score: inf
ROOT
ATOM      1  C   UNL A   1      35.024  34.146  30.179  1.00  0.00     0.188 C 
ENDROOT
BRANCH   1   2
ATOM      2  C   UNL A   1      34.241  34.682  31.386  1.00  0.00     0.188 C 
BRANCH   2   3
ATOM      3  O   UNL A   1      34.564  34.274  32.707  1.00  0.00    -0.376 OA
BRANCH   3   4
ATOM      4  C   UNL A   1      35.544  33.272  32.944  1.00  0.00     0.202 C 
BRANCH   4   5
ATOM      5  C   UNL A   1      36.925  33.593  33.550  1.00  0.00     0.261 C 
BRANCH   5   6
ATOM      6  O   UNL A   1      38.078  32.996  32.924  1.00  0.00    -0.463 OA
BRANCH   6   7
ATOM      7  C   UNL A   1      38.987  33.854  32.411  1.00  0.00     0.313 C 
ATOM      8  O   UNL A   1      39.754  34.523  33.105  1.00  0.00    -0.252 OA
BRANCH   7   9
ATOM      9  C   UNL A   1      39.019  33.970  30.890  1.00  0.00     0.126 C 
ATOM     10  C   UNL A   1      38.416  32.702  30.297  1.00  0.00     0.025 C 
BRANCH   9  11
ATOM     11  C   UNL A   1      40.283  34.388  30.138  1.00  0.00    -0.031 A 
ATOM     12  C   UNL A   1      42.578  35.201  28.595  1.00  0.00     0.018 A 
ATOM     13  C   UNL A   1      42.707  34.594  29.860  1.00  0.00     0.012 A 
ATOM     14  C   UNL A   1      41.272  35.391  28.130  1.00  0.00     0.131 A 
ATOM     15  C   UNL A   1      41.584  34.193  30.618  1.00  0.00     0.005 A 
ATOM     16  C   UNL A   1      40.154  34.985  28.868  1.00  0.00     0.044 A 
ATOM     17  F   UNL A   1      41.053  35.968  26.937  1.00  0.00    -0.206 F 
BRANCH  12  18
ATOM     18  C   UNL A   1      43.760  35.585  27.786  1.00  0.00    -0.012 A 
ATOM     19  C   UNL A   1      45.299  37.272  26.901  1.00  0.00     0.119 A 
ATOM     20  C   UNL A   1      45.956  36.308  26.145  1.00  0.00     0.046 A 
ATOM     21  C   UNL A   1      44.204  36.919  27.701  1.00  0.00     0.055 A 
ATOM     22  C   UNL A   1      45.533  34.983  26.206  1.00  0.00     0.004 A 
ATOM     23  C   UNL A   1      44.449  34.627  27.019  1.00  0.00     0.009 A 
BRANCH  19  24
ATOM     24  O   UNL A   1      45.649  38.581  26.705  1.00  0.00    -0.494 OA
BRANCH  24  25
ATOM     25  C   UNL A   1      47.007  38.752  26.289  1.00  0.00     0.226 C 
ATOM     26  C   UNL A   1      47.404  40.210  26.395  1.00  0.00     0.049 C 
ENDBRANCH  24  25
ENDBRANCH  19  24
ENDBRANCH  12  18
ENDBRANCH   9  11
ENDBRANCH   7   9
ENDBRANCH   6   7
ENDBRANCH   5   6
ENDBRANCH   4   5
ENDBRANCH   3   4
ENDBRANCH   2   3
ENDBRANCH   1   2
BRANCH   1  27
ATOM     27  O   UNL A   1      34.520  34.540  28.922  1.00  0.00    -0.377 OA
BRANCH  27  28
ATOM     28  C   UNL A   1      33.233  34.070  28.555  1.00  0.00     0.188 C 
BRANCH  28  29
ATOM     29  C   UNL A   1      33.145  32.787  27.703  1.00  0.00     0.188 C 
BRANCH  29  30
ATOM     30  O   UNL A   1      34.403  32.256  27.311  1.00  0.00    -0.376 OA
BRANCH  30  31
ATOM     31  C   UNL A   1      34.698  30.914  27.663  1.00  0.00     0.202 C 
BRANCH  31  32
ATOM     32  C   UNL A   1      35.736  30.666  28.764  1.00  0.00     0.261 C 
BRANCH  32  33
ATOM     33  O   UNL A   1      36.892  29.881  28.430  1.00  0.00    -0.460 OA
BRANCH  33  34
ATOM     34  C   UNL A   1      37.537  29.224  29.414  1.00  0.00     0.338 C 
ATOM     35  O   UNL A   1      37.032  28.716  30.401  1.00  0.00    -0.246 OA
BRANCH  34  36
ATOM     36  C   UNL A   1      38.945  29.044  28.986  1.00  0.00     0.060 A 
ATOM     37  C   UNL A   1      39.874  28.535  29.903  1.00  0.00     0.016 A 
ATOM     38  C   UNL A   1      39.344  29.341  27.680  1.00  0.00     0.016 A 
ATOM     39  C   UNL A   1      41.203  28.328  29.523  1.00  0.00     0.010 A 
ATOM     40  C   UNL A   1      40.683  29.165  27.310  1.00  0.00     0.010 A 
ATOM     41  C   UNL A   1      41.625  28.673  28.233  1.00  0.00    -0.014 A 
BRANCH  41  42
ATOM     42  C   UNL A   1      43.069  28.656  27.884  1.00  0.00     0.031 A 
ATOM     43  C   UNL A   1      43.658  27.396  27.309  1.00  0.00     0.074 A 
ATOM     44  C   UNL A   1      43.851  29.734  28.080  1.00  0.00     0.049 A 
ATOM     45  N   UNL A   1      44.904  27.119  27.021  1.00  0.00    -0.248 NA
ATOM     46  C   UNL A   1      42.715  26.304  27.021  1.00  0.00     0.031 C 
ATOM     47  C   UNL A   1      43.396  31.033  28.571  1.00  0.00     0.029 A 
ATOM     48  N   UNL A   1      45.204  29.898  27.898  1.00  0.00    -0.354 N 
ATOM     49  C   UNL A   1      44.897  25.817  26.532  1.00  0.00     0.074 A 
ATOM     50  C   UNL A   1      43.527  25.353  26.581  1.00  0.00     0.031 C 
ATOM     51  C   UNL A   1      44.456  31.856  28.672  1.00  0.00     0.029 A 
ATOM     52  C   UNL A   1      45.669  31.130  28.295  1.00  0.00     0.049 A 
ATOM     53  H   UNL A   1      45.786  29.199  27.520  1.00  0.00     0.167 HD
ATOM     54  C   UNL A   1      45.938  25.073  26.086  1.00  0.00     0.031 A 
ATOM     55  C   UNL A   1      46.929  31.607  28.381  1.00  0.00     0.031 A 
ATOM     56  C   UNL A   1      47.303  25.529  26.059  1.00  0.00     0.049 A 
ATOM     57  C   UNL A   1      48.084  30.724  27.979  1.00  0.00     0.074 A 
ATOM     58  C   UNL A   1      48.425  24.855  25.610  1.00  0.00     0.029 A 
ATOM     59  N   UNL A   1      47.736  26.765  26.513  1.00  0.00    -0.354 N 
ATOM     60  N   UNL A   1      48.060  29.506  27.491  1.00  0.00    -0.248 NA
ATOM     61  C   UNL A   1      49.436  31.278  28.141  1.00  0.00     0.031 C 
ATOM     62  C   UNL A   1      49.545  25.653  25.860  1.00  0.00     0.029 A 
ATOM     63  C   UNL A   1      49.113  26.856  26.397  1.00  0.00     0.049 A 
ATOM     64  H   UNL A   1      47.151  27.475  26.867  1.00  0.00     0.167 HD
ATOM     65  C   UNL A   1      49.389  29.159  27.268  1.00  0.00     0.074 A 
ATOM     66  C   UNL A   1      50.191  30.302  27.655  1.00  0.00     0.031 C 
ATOM     67  C   UNL A   1      49.902  27.998  26.789  1.00  0.00     0.031 A 
BRANCH  54  68
ATOM     68  C   UNL A   1      45.648  23.667  25.632  1.00  0.00    -0.014 A 
ATOM     69  C   UNL A   1      45.388  22.637  26.554  1.00  0.00     0.010 A 
ATOM     70  C   UNL A   1      45.591  23.380  24.255  1.00  0.00     0.010 A 
ATOM     71  C   UNL A   1      45.112  21.342  26.110  1.00  0.00     0.020 A 
ATOM     72  C   UNL A   1      45.285  22.093  23.805  1.00  0.00     0.020 A 
ATOM     73  C   UNL A   1      45.062  21.078  24.737  1.00  0.00     0.054 A 
BRANCH  73  74
ATOM     74  S   UNL A   1      44.673  19.393  24.191  1.00  0.00     0.124 S 
ATOM     75  O   UNL A   1      44.528  19.570  22.748  1.00  0.00    -0.237 OA
ATOM     76  O   UNL A   1      45.850  18.641  24.615  1.00  0.00    -0.237 OA
ATOM     77  O   UNL A   1      43.439  19.072  24.905  1.00  0.00    -0.744 OA
ENDBRANCH  73  74
ENDBRANCH  54  68
BRANCH  55  78
ATOM     78  C   UNL A   1      47.175  32.978  28.911  1.00  0.00    -0.014 A 
ATOM     79  C   UNL A   1      48.124  33.824  28.313  1.00  0.00     0.010 A 
ATOM     80  C   UNL A   1      46.464  33.442  30.035  1.00  0.00     0.010 A 
ATOM     81  C   UNL A   1      48.367  35.099  28.831  1.00  0.00     0.020 A 
ATOM     82  C   UNL A   1      46.680  34.728  30.537  1.00  0.00     0.020 A 
ATOM     83  C   UNL A   1      47.638  35.546  29.938  1.00  0.00     0.054 A 
BRANCH  83  84
ATOM     84  S   UNL A   1      47.929  37.227  30.556  1.00  0.00     0.124 S 
ATOM     85  O   UNL A   1      47.129  38.032  29.638  1.00  0.00    -0.237 OA
ATOM     86  O   UNL A   1      47.432  37.145  31.927  1.00  0.00    -0.237 OA
ATOM     87  O   UNL A   1      49.376  37.390  30.435  1.00  0.00    -0.744 OA
ENDBRANCH  83  84
ENDBRANCH  55  78
BRANCH  67  88
ATOM     88  C   UNL A   1      51.398  27.899  26.633  1.00  0.00    -0.014 A 
ATOM     89  C   UNL A   1      52.041  28.365  25.471  1.00  0.00     0.010 A 
ATOM     90  C   UNL A   1      52.181  27.406  27.695  1.00  0.00     0.010 A 
ATOM     91  C   UNL A   1      53.434  28.324  25.369  1.00  0.00     0.020 A 
ATOM     92  C   UNL A   1      53.575  27.393  27.608  1.00  0.00     0.020 A 
ATOM     93  C   UNL A   1      54.194  27.844  26.441  1.00  0.00     0.054 A 
BRANCH  93  94
ATOM     94  S   UNL A   1      56.002  27.866  26.306  1.00  0.00     0.124 S 
ATOM     95  O   UNL A   1      56.227  28.971  25.380  1.00  0.00    -0.237 OA
ATOM     96  O   UNL A   1      56.422  28.105  27.685  1.00  0.00    -0.237 OA
ATOM     97  O   UNL A   1      56.328  26.539  25.783  1.00  0.00    -0.744 OA
ENDBRANCH  93  94
ENDBRANCH  67  88
ENDBRANCH  41  42
ENDBRANCH  34  36
ENDBRANCH  33  34
ENDBRANCH  32  33
ENDBRANCH  31  32
ENDBRANCH  30  31
ENDBRANCH  29  30
ENDBRANCH  28  29
ENDBRANCH  27  28
ENDBRANCH   1  27
TORSDOF 27
ENDMDL
