MODEL 1
REMARK VINA RESULT:     -10.6      0.000      0.000
REMARK SMILES CCCCOc1ccc(-c2nc(C)c(C(=O)NCCCCCCNC(=O)c3ccc(-c4c5nc(c(-c6c(F)cc(S(=O)(=O)[O-])cc6F)c6ccc([nH]6)c(-c6c(F)cc(S(=O)(=O)[O-])cc6F)c6nc(c(-c7c(F)cc(S(=O)(=O)[O-])cc7F)c7ccc4[nH]7)C=C6)C=C5)cc3)s2)cc1
REMARK SMILES IDX 19 1 18 2 17 3 15 4 16 5 14 7 10 8 11 9 93 10 12 11 13 12
REMARK SMILES IDX 9 13 6 14 7 15 95 16 8 17 94 18 5 19 4 20 3 21 2 22 1 23
REMARK SMILES IDX 20 24 21 25 22 26 23 27 24 28 25 29 26 31 27 32 28 33 92 34
REMARK SMILES IDX 29 35 91 36 30 37 31 38 32 39 85 40 33 41 90 42 84 43 86 44
REMARK SMILES IDX 34 45 89 46 83 47 82 48 35 50 69 51 48 52 68 53 49 54 52 55
REMARK SMILES IDX 67 56 87 57 50 58 51 59 66 61 88 62 53 63 36 64 37 65 46 66
REMARK SMILES IDX 38 67 39 68 45 69 47 70 40 71 41 72 42 73 43 74 44 75 70 76
REMARK SMILES IDX 71 77 80 78 72 79 73 80 79 81 81 82 74 83 75 84 76 85 77 86
REMARK SMILES IDX 78 87 54 88 55 89 64 90 56 91 57 92 63 93 65 94 58 95 59 96
REMARK SMILES IDX 60 97 61 98 62 99
REMARK H PARENT 17 6 24 30 86 49 52 60
REMARK Flexibility Score: inf
ROOT
ATOM      1  C   UNL A   1      33.260  30.316  26.924  1.00  0.00     0.021 C 
ENDROOT
BRANCH   1   2
ATOM      2  C   UNL A   1      32.426  29.564  25.884  1.00  0.00     0.116 C 
BRANCH   2   3
ATOM      3  N   UNL A   1      33.110  29.610  24.619  1.00  0.00    -0.351 N 
ATOM      4  C   UNL A   1      33.222  28.716  23.593  1.00  0.00     0.263 C 
ATOM      5  O   UNL A   1      34.014  29.082  22.714  1.00  0.00    -0.268 OA
ATOM      6  H   UNL A   1      33.593  30.453  24.462  1.00  0.00     0.163 HD
BRANCH   4   7
ATOM      7  C   UNL A   1      32.449  27.486  23.486  1.00  0.00     0.115 A 
ATOM      8  C   UNL A   1      31.963  25.092  23.750  1.00  0.00     0.124 A 
ATOM      9  N   UNL A   1      30.927  25.715  23.243  1.00  0.00    -0.241 NA
ATOM     10  S   UNL A   1      33.336  26.073  23.973  1.00  0.00    -0.108 S 
ATOM     11  C   UNL A   1      31.162  27.084  23.136  1.00  0.00     0.062 A 
ATOM     12  C   UNL A   1      29.956  27.844  22.718  1.00  0.00     0.068 C 
BRANCH   8  13
ATOM     13  C   UNL A   1      31.975  23.675  24.122  1.00  0.00     0.011 A 
ATOM     14  C   UNL A   1      32.173  21.017  24.963  1.00  0.00     0.119 A 
ATOM     15  C   UNL A   1      31.465  21.928  25.741  1.00  0.00     0.047 A 
ATOM     16  C   UNL A   1      32.692  21.391  23.730  1.00  0.00     0.047 A 
ATOM     17  C   UNL A   1      31.370  23.257  25.319  1.00  0.00     0.015 A 
ATOM     18  C   UNL A   1      32.634  22.721  23.332  1.00  0.00     0.015 A 
BRANCH  14  19
ATOM     19  O   UNL A   1      32.346  19.724  25.363  1.00  0.00    -0.494 OA
BRANCH  19  20
ATOM     20  C   UNL A   1      32.490  18.836  24.241  1.00  0.00     0.229 C 
BRANCH  20  21
ATOM     21  C   UNL A   1      32.264  17.354  24.589  1.00  0.00     0.041 C 
BRANCH  21  22
ATOM     22  C   UNL A   1      33.334  16.339  24.151  1.00  0.00     0.000 C 
ATOM     23  C   UNL A   1      34.310  16.830  23.097  1.00  0.00     0.004 C 
ENDBRANCH  21  22
ENDBRANCH  20  21
ENDBRANCH  19  20
ENDBRANCH  14  19
ENDBRANCH   8  13
ENDBRANCH   4   7
ENDBRANCH   2   3
ENDBRANCH   1   2
BRANCH   1  24
ATOM     24  C   UNL A   1      34.512  29.548  27.353  1.00  0.00     0.002 C 
BRANCH  24  25
ATOM     25  C   UNL A   1      35.643  30.447  27.863  1.00  0.00     0.002 C 
BRANCH  25  26
ATOM     26  C   UNL A   1      35.178  31.773  28.472  1.00  0.00     0.021 C 
BRANCH  26  27
ATOM     27  C   UNL A   1      36.259  32.497  29.268  1.00  0.00     0.116 C 
BRANCH  27  28
ATOM     28  N   UNL A   1      36.129  32.228  30.694  1.00  0.00    -0.352 N 
ATOM     29  C   UNL A   1      36.804  31.312  31.460  1.00  0.00     0.251 C 
ATOM     30  H   UNL A   1      35.468  32.778  31.172  1.00  0.00     0.163 HD
ATOM     31  O   UNL A   1      36.372  30.994  32.568  1.00  0.00    -0.269 OA
BRANCH  29  32
ATOM     32  C   UNL A   1      38.046  30.711  30.940  1.00  0.00     0.039 A 
ATOM     33  C   UNL A   1      38.480  31.036  29.653  1.00  0.00     0.014 A 
ATOM     34  C   UNL A   1      38.787  29.836  31.739  1.00  0.00     0.014 A 
ATOM     35  C   UNL A   1      39.701  30.538  29.195  1.00  0.00     0.010 A 
ATOM     36  C   UNL A   1      40.034  29.401  31.310  1.00  0.00     0.010 A 
ATOM     37  C   UNL A   1      40.506  29.752  30.036  1.00  0.00    -0.014 A 
BRANCH  37  38
ATOM     38  C   UNL A   1      41.857  29.301  29.620  1.00  0.00     0.031 A 
ATOM     39  C   UNL A   1      43.008  30.267  29.619  1.00  0.00     0.074 A 
ATOM     40  C   UNL A   1      42.023  28.044  29.163  1.00  0.00     0.049 A 
ATOM     41  N   UNL A   1      44.232  30.093  29.195  1.00  0.00    -0.248 NA
ATOM     42  C   UNL A   1      42.738  31.617  30.143  1.00  0.00     0.031 C 
ATOM     43  C   UNL A   1      40.972  27.026  29.086  1.00  0.00     0.029 A 
ATOM     44  N   UNL A   1      43.133  27.411  28.662  1.00  0.00    -0.354 N 
ATOM     45  C   UNL A   1      44.878  31.308  29.394  1.00  0.00     0.074 A 
ATOM     46  C   UNL A   1      43.892  32.227  29.919  1.00  0.00     0.031 C 
ATOM     47  C   UNL A   1      41.494  25.892  28.594  1.00  0.00     0.029 A 
ATOM     48  C   UNL A   1      42.900  26.115  28.271  1.00  0.00     0.049 A 
ATOM     49  H   UNL A   1      44.014  27.845  28.591  1.00  0.00     0.167 HD
ATOM     50  C   UNL A   1      46.179  31.619  29.179  1.00  0.00     0.037 A 
ATOM     51  C   UNL A   1      43.721  25.211  27.702  1.00  0.00     0.037 A 
ATOM     52  C   UNL A   1      47.149  30.694  28.657  1.00  0.00     0.049 A 
ATOM     53  C   UNL A   1      45.147  25.598  27.416  1.00  0.00     0.074 A 
ATOM     54  C   UNL A   1      48.502  30.895  28.442  1.00  0.00     0.029 A 
ATOM     55  N   UNL A   1      46.872  29.393  28.258  1.00  0.00    -0.354 N 
ATOM     56  N   UNL A   1      45.758  26.732  27.666  1.00  0.00    -0.248 NA
ATOM     57  C   UNL A   1      45.993  24.589  26.766  1.00  0.00     0.031 C 
ATOM     58  C   UNL A   1      49.028  29.738  27.860  1.00  0.00     0.029 A 
ATOM     59  C   UNL A   1      48.019  28.793  27.766  1.00  0.00     0.049 A 
ATOM     60  H   UNL A   1      45.989  28.961  28.318  1.00  0.00     0.167 HD
ATOM     61  C   UNL A   1      47.067  26.563  27.228  1.00  0.00     0.074 A 
ATOM     62  C   UNL A   1      47.162  25.214  26.708  1.00  0.00     0.031 C 
ATOM     63  C   UNL A   1      48.097  27.445  27.254  1.00  0.00     0.037 A 
BRANCH  50  64
ATOM     64  C   UNL A   1      46.619  33.021  29.506  1.00  0.00     0.058 A 
ATOM     65  C   UNL A   1      47.041  33.380  30.798  1.00  0.00     0.135 A 
ATOM     66  C   UNL A   1      46.635  34.017  28.516  1.00  0.00     0.135 A 
ATOM     67  F   UNL A   1      47.036  32.472  31.787  1.00  0.00    -0.206 F 
ATOM     68  C   UNL A   1      47.419  34.682  31.107  1.00  0.00     0.059 A 
ATOM     69  C   UNL A   1      47.040  35.319  28.794  1.00  0.00     0.059 A 
ATOM     70  F   UNL A   1      46.245  33.732  27.263  1.00  0.00    -0.206 F 
ATOM     71  C   UNL A   1      47.411  35.646  30.098  1.00  0.00     0.060 A 
BRANCH  71  72
ATOM     72  S   UNL A   1      47.884  37.336  30.521  1.00  0.00     0.124 S 
ATOM     73  O   UNL A   1      49.258  37.147  30.977  1.00  0.00    -0.237 OA
ATOM     74  O   UNL A   1      47.729  38.032  29.248  1.00  0.00    -0.237 OA
ATOM     75  O   UNL A   1      46.926  37.709  31.557  1.00  0.00    -0.744 OA
ENDBRANCH  71  72
ENDBRANCH  50  64
BRANCH  51  76
ATOM     76  C   UNL A   1      43.220  23.848  27.381  1.00  0.00     0.058 A 
ATOM     77  C   UNL A   1      42.742  23.544  26.097  1.00  0.00     0.135 A 
ATOM     78  C   UNL A   1      43.227  22.819  28.335  1.00  0.00     0.135 A 
ATOM     79  F   UNL A   1      42.708  24.497  25.153  1.00  0.00    -0.206 F 
ATOM     80  C   UNL A   1      42.280  22.274  25.772  1.00  0.00     0.059 A 
ATOM     81  C   UNL A   1      42.795  21.532  28.027  1.00  0.00     0.059 A 
ATOM     82  F   UNL A   1      43.688  23.051  29.574  1.00  0.00    -0.206 F 
ATOM     83  C   UNL A   1      42.316  21.271  26.744  1.00  0.00     0.060 A 
BRANCH  83  84
ATOM     84  S   UNL A   1      41.766  19.613  26.292  1.00  0.00     0.124 S 
ATOM     85  O   UNL A   1      42.163  18.841  27.464  1.00  0.00    -0.237 OA
ATOM     86  O   UNL A   1      40.331  19.806  26.110  1.00  0.00    -0.237 OA
ATOM     87  O   UNL A   1      42.512  19.333  25.069  1.00  0.00    -0.744 OA
ENDBRANCH  83  84
ENDBRANCH  51  76
BRANCH  63  88
ATOM     88  C   UNL A   1      49.426  26.980  26.726  1.00  0.00     0.058 A 
ATOM     89  C   UNL A   1      50.383  26.385  27.564  1.00  0.00     0.135 A 
ATOM     90  C   UNL A   1      49.714  27.057  25.353  1.00  0.00     0.135 A 
ATOM     91  F   UNL A   1      50.163  26.297  28.885  1.00  0.00    -0.206 F 
ATOM     92  C   UNL A   1      51.580  25.888  27.059  1.00  0.00     0.059 A 
ATOM     93  C   UNL A   1      50.891  26.540  24.824  1.00  0.00     0.059 A 
ATOM     94  F   UNL A   1      48.831  27.612  24.508  1.00  0.00    -0.206 F 
ATOM     95  C   UNL A   1      51.821  25.960  25.686  1.00  0.00     0.060 A 
BRANCH  95  96
ATOM     96  S   UNL A   1      53.348  25.247  25.040  1.00  0.00     0.124 S 
ATOM     97  O   UNL A   1      54.346  25.830  25.929  1.00  0.00    -0.237 OA
ATOM     98  O   UNL A   1      53.115  23.815  25.202  1.00  0.00    -0.237 OA
ATOM     99  O   UNL A   1      53.387  25.718  23.659  1.00  0.00    -0.744 OA
ENDBRANCH  95  96
ENDBRANCH  63  88
ENDBRANCH  37  38
ENDBRANCH  29  32
ENDBRANCH  27  28
ENDBRANCH  26  27
ENDBRANCH  25  26
ENDBRANCH  24  25
ENDBRANCH   1  24
TORSDOF 21
ENDMDL
MODEL 2
REMARK VINA RESULT:     -10.2      6.086     11.500
REMARK SMILES CCCCOc1ccc(-c2nc(C)c(C(=O)NCCCCCCNC(=O)c3ccc(-c4c5nc(c(-c6c(F)cc(S(=O)(=O)[O-])cc6F)c6ccc([nH]6)c(-c6c(F)cc(S(=O)(=O)[O-])cc6F)c6nc(c(-c7c(F)cc(S(=O)(=O)[O-])cc7F)c7ccc4[nH]7)C=C6)C=C5)cc3)s2)cc1
REMARK SMILES IDX 19 1 18 2 17 3 15 4 16 5 14 7 10 8 11 9 93 10 12 11 13 12
REMARK SMILES IDX 9 13 6 14 7 15 95 16 8 17 94 18 5 19 4 20 3 21 2 22 1 23
REMARK SMILES IDX 20 24 21 25 22 26 23 27 24 28 25 29 26 31 27 32 28 33 92 34
REMARK SMILES IDX 29 35 91 36 30 37 31 38 32 39 85 40 33 41 90 42 84 43 86 44
REMARK SMILES IDX 34 45 89 46 83 47 82 48 35 50 69 51 48 52 68 53 49 54 52 55
REMARK SMILES IDX 67 56 87 57 50 58 51 59 66 61 88 62 53 63 36 64 37 65 46 66
REMARK SMILES IDX 38 67 39 68 45 69 47 70 40 71 41 72 42 73 43 74 44 75 70 76
REMARK SMILES IDX 71 77 80 78 72 79 73 80 79 81 81 82 74 83 75 84 76 85 77 86
REMARK SMILES IDX 78 87 54 88 55 89 64 90 56 91 57 92 63 93 65 94 58 95 59 96
REMARK SMILES IDX 60 97 61 98 62 99
REMARK H PARENT 17 6 24 30 86 49 52 60
REMARK Flexibility Score: inf
ROOT
ATOM      1  C   UNL A   1      43.619  23.215  24.673  1.00  0.00     0.021 C 
ENDROOT
BRANCH   1   2
ATOM      2  C   UNL A   1      43.055  22.108  25.567  1.00  0.00     0.116 C 
BRANCH   2   3
ATOM      3  N   UNL A   1      41.646  22.330  25.748  1.00  0.00    -0.351 N 
ATOM      4  C   UNL A   1      40.932  23.089  26.631  1.00  0.00     0.263 C 
ATOM      5  O   UNL A   1      39.710  22.916  26.544  1.00  0.00    -0.268 OA
ATOM      6  H   UNL A   1      41.083  21.838  25.107  1.00  0.00     0.163 HD
BRANCH   4   7
ATOM      7  C   UNL A   1      41.521  24.059  27.544  1.00  0.00     0.115 A 
ATOM      8  C   UNL A   1      41.695  26.161  28.805  1.00  0.00     0.124 A 
ATOM      9  N   UNL A   1      42.680  25.357  29.122  1.00  0.00    -0.241 NA
ATOM     10  S   UNL A   1      40.674  25.576  27.575  1.00  0.00    -0.108 S 
ATOM     11  C   UNL A   1      42.570  24.137  28.458  1.00  0.00     0.062 A 
ATOM     12  C   UNL A   1      43.576  23.142  28.912  1.00  0.00     0.068 C 
BRANCH   8  13
ATOM     13  C   UNL A   1      41.447  27.457  29.443  1.00  0.00     0.011 A 
ATOM     14  C   UNL A   1      41.194  29.962  30.655  1.00  0.00     0.119 A 
ATOM     15  C   UNL A   1      41.268  29.880  29.268  1.00  0.00     0.047 A 
ATOM     16  C   UNL A   1      41.143  28.812  31.432  1.00  0.00     0.047 A 
ATOM     17  C   UNL A   1      41.397  28.625  28.665  1.00  0.00     0.015 A 
ATOM     18  C   UNL A   1      41.314  27.569  30.835  1.00  0.00     0.015 A 
BRANCH  14  19
ATOM     19  O   UNL A   1      41.129  31.166  31.293  1.00  0.00    -0.494 OA
BRANCH  19  20
ATOM     20  C   UNL A   1      40.234  31.125  32.417  1.00  0.00     0.229 C 
BRANCH  20  21
ATOM     21  C   UNL A   1      39.471  32.441  32.652  1.00  0.00     0.041 C 
BRANCH  21  22
ATOM     22  C   UNL A   1      39.242  33.367  31.445  1.00  0.00     0.000 C 
ATOM     23  C   UNL A   1      38.618  34.715  31.764  1.00  0.00     0.004 C 
ENDBRANCH  21  22
ENDBRANCH  20  21
ENDBRANCH  19  20
ENDBRANCH  14  19
ENDBRANCH   8  13
ENDBRANCH   4   7
ENDBRANCH   2   3
ENDBRANCH   1   2
BRANCH   1  24
ATOM     24  C   UNL A   1      44.798  22.749  23.816  1.00  0.00     0.002 C 
BRANCH  24  25
ATOM     25  C   UNL A   1      46.149  23.316  24.264  1.00  0.00     0.002 C 
BRANCH  25  26
ATOM     26  C   UNL A   1      46.055  24.475  25.260  1.00  0.00     0.021 C 
BRANCH  26  27
ATOM     27  C   UNL A   1      47.373  25.212  25.473  1.00  0.00     0.116 C 
BRANCH  27  28
ATOM     28  N   UNL A   1      47.631  26.149  24.388  1.00  0.00    -0.352 N 
ATOM     29  C   UNL A   1      47.147  27.421  24.218  1.00  0.00     0.251 C 
ATOM     30  H   UNL A   1      48.235  25.825  23.681  1.00  0.00     0.163 HD
ATOM     31  O   UNL A   1      47.208  27.964  23.116  1.00  0.00    -0.269 OA
BRANCH  29  32
ATOM     32  C   UNL A   1      46.552  28.125  25.368  1.00  0.00     0.039 A 
ATOM     33  C   UNL A   1      45.184  28.000  25.618  1.00  0.00     0.014 A 
ATOM     34  C   UNL A   1      47.358  28.898  26.209  1.00  0.00     0.014 A 
ATOM     35  C   UNL A   1      44.637  28.594  26.757  1.00  0.00     0.010 A 
ATOM     36  C   UNL A   1      46.828  29.425  27.379  1.00  0.00     0.010 A 
ATOM     37  C   UNL A   1      45.463  29.274  27.668  1.00  0.00    -0.014 A 
BRANCH  37  38
ATOM     38  C   UNL A   1      44.932  29.819  28.942  1.00  0.00     0.031 A 
ATOM     39  C   UNL A   1      44.468  31.246  29.017  1.00  0.00     0.074 A 
ATOM     40  C   UNL A   1      44.952  29.050  30.049  1.00  0.00     0.049 A 
ATOM     41  N   UNL A   1      44.072  31.932  30.056  1.00  0.00    -0.248 NA
ATOM     42  C   UNL A   1      44.474  32.010  27.758  1.00  0.00     0.031 C 
ATOM     43  C   UNL A   1      45.410  27.660  30.106  1.00  0.00     0.029 A 
ATOM     44  N   UNL A   1      44.590  29.332  31.342  1.00  0.00    -0.354 N 
ATOM     45  C   UNL A   1      43.787  33.207  29.582  1.00  0.00     0.074 A 
ATOM     46  C   UNL A   1      44.114  33.215  28.173  1.00  0.00     0.031 C 
ATOM     47  C   UNL A   1      45.278  27.204  31.361  1.00  0.00     0.029 A 
ATOM     48  C   UNL A   1      44.777  28.281  32.209  1.00  0.00     0.049 A 
ATOM     49  H   UNL A   1      44.230  30.204  31.623  1.00  0.00     0.167 HD
ATOM     50  C   UNL A   1      43.276  34.266  30.256  1.00  0.00     0.037 A 
ATOM     51  C   UNL A   1      44.581  28.199  33.539  1.00  0.00     0.037 A 
ATOM     52  C   UNL A   1      42.953  34.243  31.658  1.00  0.00     0.049 A 
ATOM     53  C   UNL A   1      44.071  29.406  34.278  1.00  0.00     0.074 A 
ATOM     54  C   UNL A   1      42.392  35.247  32.428  1.00  0.00     0.029 A 
ATOM     55  N   UNL A   1      43.171  33.166  32.506  1.00  0.00    -0.354 N 
ATOM     56  N   UNL A   1      43.749  30.587  33.805  1.00  0.00    -0.248 NA
ATOM     57  C   UNL A   1      43.904  29.275  35.732  1.00  0.00     0.031 C 
ATOM     58  C   UNL A   1      42.325  34.797  33.751  1.00  0.00     0.029 A 
ATOM     59  C   UNL A   1      42.787  33.492  33.796  1.00  0.00     0.049 A 
ATOM     60  H   UNL A   1      43.542  32.296  32.230  1.00  0.00     0.167 HD
ATOM     61  C   UNL A   1      43.316  31.330  34.897  1.00  0.00     0.074 A 
ATOM     62  C   UNL A   1      43.407  30.462  36.054  1.00  0.00     0.031 C 
ATOM     63  C   UNL A   1      42.883  32.614  34.938  1.00  0.00     0.037 A 
BRANCH  50  64
ATOM     64  C   UNL A   1      43.044  35.534  29.480  1.00  0.00     0.058 A 
ATOM     65  C   UNL A   1      41.823  35.790  28.833  1.00  0.00     0.135 A 
ATOM     66  C   UNL A   1      44.045  36.515  29.392  1.00  0.00     0.135 A 
ATOM     67  F   UNL A   1      40.833  34.884  28.873  1.00  0.00    -0.206 F 
ATOM     68  C   UNL A   1      41.619  36.949  28.092  1.00  0.00     0.059 A 
ATOM     69  C   UNL A   1      43.852  37.697  28.683  1.00  0.00     0.059 A 
ATOM     70  F   UNL A   1      45.231  36.327  29.993  1.00  0.00    -0.206 F 
ATOM     71  C   UNL A   1      42.642  37.895  28.019  1.00  0.00     0.060 A 
BRANCH  71  72
ATOM     72  S   UNL A   1      42.368  39.383  27.035  1.00  0.00     0.124 S 
ATOM     73  O   UNL A   1      41.951  40.336  28.059  1.00  0.00    -0.237 OA
ATOM     74  O   UNL A   1      43.685  39.618  26.451  1.00  0.00    -0.237 OA
ATOM     75  O   UNL A   1      41.329  38.982  26.092  1.00  0.00    -0.744 OA
ENDBRANCH  71  72
ENDBRANCH  50  64
BRANCH  51  76
ATOM     76  C   UNL A   1      44.852  26.922  34.253  1.00  0.00     0.058 A 
ATOM     77  C   UNL A   1      46.145  26.613  34.702  1.00  0.00     0.135 A 
ATOM     78  C   UNL A   1      43.829  25.999  34.522  1.00  0.00     0.135 A 
ATOM     79  F   UNL A   1      47.157  27.460  34.462  1.00  0.00    -0.206 F 
ATOM     80  C   UNL A   1      46.417  25.431  35.382  1.00  0.00     0.059 A 
ATOM     81  C   UNL A   1      44.071  24.823  35.225  1.00  0.00     0.059 A 
ATOM     82  F   UNL A   1      42.571  26.254  34.129  1.00  0.00    -0.206 F 
ATOM     83  C   UNL A   1      45.372  24.544  35.644  1.00  0.00     0.060 A 
BRANCH  83  84
ATOM     84  S   UNL A   1      45.730  23.040  36.577  1.00  0.00     0.124 S 
ATOM     85  O   UNL A   1      45.145  23.354  37.876  1.00  0.00    -0.237 OA
ATOM     86  O   UNL A   1      45.038  22.023  35.792  1.00  0.00    -0.237 OA
ATOM     87  O   UNL A   1      47.187  22.964  36.543  1.00  0.00    -0.744 OA
ENDBRANCH  83  84
ENDBRANCH  51  76
BRANCH  63  88
ATOM     88  C   UNL A   1      42.451  33.161  36.271  1.00  0.00     0.058 A 
ATOM     89  C   UNL A   1      43.339  33.865  37.100  1.00  0.00     0.135 A 
ATOM     90  C   UNL A   1      41.113  33.052  36.687  1.00  0.00     0.135 A 
ATOM     91  F   UNL A   1      44.630  33.988  36.756  1.00  0.00    -0.206 F 
ATOM     92  C   UNL A   1      42.918  34.434  38.297  1.00  0.00     0.059 A 
ATOM     93  C   UNL A   1      40.664  33.639  37.865  1.00  0.00     0.059 A 
ATOM     94  F   UNL A   1      40.222  32.394  35.929  1.00  0.00    -0.206 F 
ATOM     95  C   UNL A   1      41.576  34.325  38.667  1.00  0.00     0.060 A 
BRANCH  95  96
ATOM     96  S   UNL A   1      41.032  35.130  40.188  1.00  0.00     0.124 S 
ATOM     97  O   UNL A   1      42.066  34.714  41.129  1.00  0.00    -0.237 OA
ATOM     98  O   UNL A   1      41.046  36.541  39.814  1.00  0.00    -0.237 OA
ATOM     99  O   UNL A   1      39.707  34.562  40.419  1.00  0.00    -0.744 OA
ENDBRANCH  95  96
ENDBRANCH  63  88
ENDBRANCH  37  38
ENDBRANCH  29  32
ENDBRANCH  27  28
ENDBRANCH  26  27
ENDBRANCH  25  26
ENDBRANCH  24  25
ENDBRANCH   1  24
TORSDOF 21
ENDMDL
MODEL 3
REMARK VINA RESULT:     -10.0      5.820     13.069
REMARK SMILES CCCCOc1ccc(-c2nc(C)c(C(=O)NCCCCCCNC(=O)c3ccc(-c4c5nc(c(-c6c(F)cc(S(=O)(=O)[O-])cc6F)c6ccc([nH]6)c(-c6c(F)cc(S(=O)(=O)[O-])cc6F)c6nc(c(-c7c(F)cc(S(=O)(=O)[O-])cc7F)c7ccc4[nH]7)C=C6)C=C5)cc3)s2)cc1
REMARK SMILES IDX 19 1 18 2 17 3 15 4 16 5 14 7 10 8 11 9 93 10 12 11 13 12
REMARK SMILES IDX 9 13 6 14 7 15 95 16 8 17 94 18 5 19 4 20 3 21 2 22 1 23
REMARK SMILES IDX 20 24 21 25 22 26 23 27 24 28 25 29 26 31 27 32 28 33 92 34
REMARK SMILES IDX 29 35 91 36 30 37 31 38 32 39 85 40 33 41 90 42 84 43 86 44
REMARK SMILES IDX 34 45 89 46 83 47 82 48 35 50 69 51 48 52 68 53 49 54 52 55
REMARK SMILES IDX 67 56 87 57 50 58 51 59 66 61 88 62 53 63 36 64 37 65 46 66
REMARK SMILES IDX 38 67 39 68 45 69 47 70 40 71 41 72 42 73 43 74 44 75 70 76
REMARK SMILES IDX 71 77 80 78 72 79 73 80 79 81 81 82 74 83 75 84 76 85 77 86
REMARK SMILES IDX 78 87 54 88 55 89 64 90 56 91 57 92 63 93 65 94 58 95 59 96
REMARK SMILES IDX 60 97 61 98 62 99
REMARK H PARENT 17 6 24 30 86 49 52 60
REMARK Flexibility Score: inf
ROOT
ATOM      1  C   UNL A   1      44.078  22.663  24.667  1.00  0.00     0.021 C 
ENDROOT
BRANCH   1   2
ATOM      2  C   UNL A   1      43.640  21.518  25.583  1.00  0.00     0.116 C 
BRANCH   2   3
ATOM      3  N   UNL A   1      42.202  21.480  25.623  1.00  0.00    -0.351 N 
ATOM      4  C   UNL A   1      41.279  22.138  26.384  1.00  0.00     0.263 C 
ATOM      5  O   UNL A   1      40.122  21.735  26.202  1.00  0.00    -0.268 OA
ATOM      6  H   UNL A   1      41.805  20.858  24.973  1.00  0.00     0.163 HD
BRANCH   4   7
ATOM      7  C   UNL A   1      41.588  23.250  27.273  1.00  0.00     0.115 A 
ATOM      8  C   UNL A   1      41.260  25.422  28.376  1.00  0.00     0.124 A 
ATOM      9  N   UNL A   1      42.322  24.823  28.855  1.00  0.00    -0.241 NA
ATOM     10  S   UNL A   1      40.500  24.594  27.097  1.00  0.00    -0.108 S 
ATOM     11  C   UNL A   1      42.496  23.564  28.282  1.00  0.00     0.062 A 
ATOM     12  C   UNL A   1      43.595  22.790  28.915  1.00  0.00     0.068 C 
BRANCH   8  13
ATOM     13  C   UNL A   1      40.727  26.690  28.881  1.00  0.00     0.011 A 
ATOM     14  C   UNL A   1      39.749  29.033  30.048  1.00  0.00     0.119 A 
ATOM     15  C   UNL A   1      41.118  28.896  29.836  1.00  0.00     0.047 A 
ATOM     16  C   UNL A   1      38.862  28.066  29.595  1.00  0.00     0.047 A 
ATOM     17  C   UNL A   1      41.604  27.721  29.254  1.00  0.00     0.015 A 
ATOM     18  C   UNL A   1      39.349  26.881  29.056  1.00  0.00     0.015 A 
BRANCH  14  19
ATOM     19  O   UNL A   1      39.233  30.133  30.667  1.00  0.00    -0.494 OA
BRANCH  19  20
ATOM     20  C   UNL A   1      40.250  31.109  30.951  1.00  0.00     0.229 C 
BRANCH  20  21
ATOM     21  C   UNL A   1      40.014  32.469  30.270  1.00  0.00     0.041 C 
BRANCH  21  22
ATOM     22  C   UNL A   1      38.601  33.074  30.338  1.00  0.00     0.000 C 
ATOM     23  C   UNL A   1      37.726  32.832  29.121  1.00  0.00     0.004 C 
ENDBRANCH  21  22
ENDBRANCH  20  21
ENDBRANCH  19  20
ENDBRANCH  14  19
ENDBRANCH   8  13
ENDBRANCH   4   7
ENDBRANCH   2   3
ENDBRANCH   1   2
BRANCH   1  24
ATOM     24  C   UNL A   1      45.467  22.446  24.063  1.00  0.00     0.002 C 
BRANCH  24  25
ATOM     25  C   UNL A   1      46.412  23.639  24.241  1.00  0.00     0.002 C 
BRANCH  25  26
ATOM     26  C   UNL A   1      46.580  24.108  25.690  1.00  0.00     0.021 C 
BRANCH  26  27
ATOM     27  C   UNL A   1      47.634  25.197  25.866  1.00  0.00     0.116 C 
BRANCH  27  28
ATOM     28  N   UNL A   1      47.765  25.999  24.656  1.00  0.00    -0.352 N 
ATOM     29  C   UNL A   1      47.196  27.212  24.365  1.00  0.00     0.251 C 
ATOM     30  H   UNL A   1      48.340  25.618  23.953  1.00  0.00     0.163 HD
ATOM     31  O   UNL A   1      47.153  27.612  23.201  1.00  0.00    -0.269 OA
BRANCH  29  32
ATOM     32  C   UNL A   1      46.636  28.027  25.458  1.00  0.00     0.039 A 
ATOM     33  C   UNL A   1      45.271  27.952  25.742  1.00  0.00     0.014 A 
ATOM     34  C   UNL A   1      47.472  28.855  26.212  1.00  0.00     0.014 A 
ATOM     35  C   UNL A   1      44.757  28.655  26.833  1.00  0.00     0.010 A 
ATOM     36  C   UNL A   1      46.974  29.495  27.340  1.00  0.00     0.010 A 
ATOM     37  C   UNL A   1      45.612  29.396  27.664  1.00  0.00    -0.014 A 
BRANCH  37  38
ATOM     38  C   UNL A   1      45.116  30.062  28.895  1.00  0.00     0.031 A 
ATOM     39  C   UNL A   1      45.007  29.289  30.179  1.00  0.00     0.074 A 
ATOM     40  C   UNL A   1      44.685  31.337  28.829  1.00  0.00     0.049 A 
ATOM     41  N   UNL A   1      44.504  29.661  31.326  1.00  0.00    -0.248 NA
ATOM     42  C   UNL A   1      45.509  27.905  30.161  1.00  0.00     0.031 C 
ATOM     43  C   UNL A   1      44.712  32.178  27.630  1.00  0.00     0.029 A 
ATOM     44  N   UNL A   1      44.127  32.146  29.787  1.00  0.00    -0.354 N 
ATOM     45  C   UNL A   1      44.622  28.560  32.166  1.00  0.00     0.074 A 
ATOM     46  C   UNL A   1      45.188  27.488  31.377  1.00  0.00     0.031 C 
ATOM     47  C   UNL A   1      44.218  33.389  27.931  1.00  0.00     0.029 A 
ATOM     48  C   UNL A   1      43.791  33.396  29.327  1.00  0.00     0.049 A 
ATOM     49  H   UNL A   1      43.982  31.857  30.717  1.00  0.00     0.167 HD
ATOM     50  C   UNL A   1      44.309  28.461  33.480  1.00  0.00     0.037 A 
ATOM     51  C   UNL A   1      43.193  34.428  29.953  1.00  0.00     0.037 A 
ATOM     52  C   UNL A   1      43.747  29.537  34.254  1.00  0.00     0.049 A 
ATOM     53  C   UNL A   1      42.797  34.275  31.397  1.00  0.00     0.074 A 
ATOM     54  C   UNL A   1      43.432  29.555  35.602  1.00  0.00     0.029 A 
ATOM     55  N   UNL A   1      43.407  30.785  33.749  1.00  0.00    -0.354 N 
ATOM     56  N   UNL A   1      42.971  33.247  32.194  1.00  0.00    -0.248 NA
ATOM     57  C   UNL A   1      42.119  35.417  32.026  1.00  0.00     0.031 C 
ATOM     58  C   UNL A   1      42.849  30.791  35.897  1.00  0.00     0.029 A 
ATOM     59  C   UNL A   1      42.854  31.567  34.749  1.00  0.00     0.049 A 
ATOM     60  H   UNL A   1      43.540  31.071  32.816  1.00  0.00     0.167 HD
ATOM     61  C   UNL A   1      42.448  33.628  33.425  1.00  0.00     0.074 A 
ATOM     62  C   UNL A   1      41.962  34.984  33.269  1.00  0.00     0.031 C 
ATOM     63  C   UNL A   1      42.377  32.919  34.578  1.00  0.00     0.037 A 
BRANCH  50  64
ATOM     64  C   UNL A   1      44.563  27.141  34.156  1.00  0.00     0.058 A 
ATOM     65  C   UNL A   1      45.838  26.789  34.632  1.00  0.00     0.135 A 
ATOM     66  C   UNL A   1      43.521  26.220  34.346  1.00  0.00     0.135 A 
ATOM     67  F   UNL A   1      46.876  27.625  34.467  1.00  0.00    -0.206 F 
ATOM     68  C   UNL A   1      46.079  25.557  35.229  1.00  0.00     0.059 A 
ATOM     69  C   UNL A   1      43.731  24.994  34.971  1.00  0.00     0.059 A 
ATOM     70  F   UNL A   1      42.280  26.502  33.916  1.00  0.00    -0.206 F 
ATOM     71  C   UNL A   1      45.019  24.663  35.391  1.00  0.00     0.060 A 
BRANCH  71  72
ATOM     72  S   UNL A   1      45.354  23.060  36.149  1.00  0.00     0.124 S 
ATOM     73  O   UNL A   1      44.353  22.217  35.501  1.00  0.00    -0.237 OA
ATOM     74  O   UNL A   1      46.739  22.813  35.757  1.00  0.00    -0.237 OA
ATOM     75  O   UNL A   1      45.142  23.304  37.572  1.00  0.00    -0.744 OA
ENDBRANCH  71  72
ENDBRANCH  50  64
BRANCH  51  76
ATOM     76  C   UNL A   1      42.947  35.700  29.223  1.00  0.00     0.058 A 
ATOM     77  C   UNL A   1      43.927  36.704  29.184  1.00  0.00     0.135 A 
ATOM     78  C   UNL A   1      41.747  35.932  28.533  1.00  0.00     0.135 A 
ATOM     79  F   UNL A   1      45.088  36.533  29.834  1.00  0.00    -0.206 F 
ATOM     80  C   UNL A   1      43.723  37.896  28.497  1.00  0.00     0.059 A 
ATOM     81  C   UNL A   1      41.530  37.105  27.816  1.00  0.00     0.059 A 
ATOM     82  F   UNL A   1      40.783  34.998  28.525  1.00  0.00    -0.206 F 
ATOM     83  C   UNL A   1      42.522  38.085  27.810  1.00  0.00     0.060 A 
BRANCH  83  84
ATOM     84  S   UNL A   1      42.294  39.613  26.877  1.00  0.00     0.124 S 
ATOM     85  O   UNL A   1      41.141  39.281  26.047  1.00  0.00    -0.237 OA
ATOM     86  O   UNL A   1      42.059  40.587  27.938  1.00  0.00    -0.237 OA
ATOM     87  O   UNL A   1      43.560  39.764  26.167  1.00  0.00    -0.744 OA
ENDBRANCH  83  84
ENDBRANCH  51  76
BRANCH  63  88
ATOM     88  C   UNL A   1      41.771  33.597  35.777  1.00  0.00     0.058 A 
ATOM     89  C   UNL A   1      42.540  34.399  36.635  1.00  0.00     0.135 A 
ATOM     90  C   UNL A   1      40.391  33.510  36.023  1.00  0.00     0.135 A 
ATOM     91  F   UNL A   1      43.865  34.507  36.452  1.00  0.00    -0.206 F 
ATOM     92  C   UNL A   1      41.963  35.085  37.698  1.00  0.00     0.059 A 
ATOM     93  C   UNL A   1      39.788  34.210  37.062  1.00  0.00     0.059 A 
ATOM     94  F   UNL A   1      39.609  32.760  35.229  1.00  0.00    -0.206 F 
ATOM     95  C   UNL A   1      40.584  34.993  37.898  1.00  0.00     0.060 A 
BRANCH  95  96
ATOM     96  S   UNL A   1      39.842  35.945  39.239  1.00  0.00     0.124 S 
ATOM     97  O   UNL A   1      39.282  37.083  38.519  1.00  0.00    -0.237 OA
ATOM     98  O   UNL A   1      38.871  35.004  39.789  1.00  0.00    -0.237 OA
ATOM     99  O   UNL A   1      40.974  36.249  40.109  1.00  0.00    -0.744 OA
ENDBRANCH  95  96
ENDBRANCH  63  88
ENDBRANCH  37  38
ENDBRANCH  29  32
ENDBRANCH  27  28
ENDBRANCH  26  27
ENDBRANCH  25  26
ENDBRANCH  24  25
ENDBRANCH   1  24
TORSDOF 21
ENDMDL
