MODEL 1
REMARK VINA RESULT:     -12.2      0.000      0.000
REMARK SMILES O=C(NCCCCCCNC(=O)c1ccc(NC(=O)c2ccc([N+](=O)[O-])cc2Cl)cc1Cl)c1ccc(-c2c3nc(c(-c4c(F)cc(S(=O)(=O)[O-])cc4F)c4ccc([nH]4)c(-c4c(F)cc(S(=O)(=O)[O-])cc4F)c4nc(c(-c5c(F)cc(S(=O)(=O)[O-])cc5F)c5ccc2[nH]5)C=C4)C=C3)cc1
REMARK SMILES IDX 6 1 5 2 4 3 3 4 1 5 2 6 33 8 34 9 98 10 35 11 97 12 36 13
REMARK SMILES IDX 37 14 38 15 91 16 39 17 96 18 90 19 92 20 40 21 95 22 89 23
REMARK SMILES IDX 88 24 41 26 75 27 54 28 74 29 55 30 58 31 73 32 93 33 56 34
REMARK SMILES IDX 57 35 72 37 94 38 59 39 42 40 43 41 52 42 44 43 45 44 51 45
REMARK SMILES IDX 53 46 46 47 47 48 48 49 49 50 50 51 76 52 77 53 86 54 78 55
REMARK SMILES IDX 79 56 85 57 87 58 80 59 81 60 82 61 83 62 84 63 60 64 61 65
REMARK SMILES IDX 70 66 62 67 63 68 69 69 71 70 64 71 65 72 66 73 67 74 68 75
REMARK SMILES IDX 7 76 8 77 9 78 10 79 11 80 12 82 13 83 14 84 31 85 15 86
REMARK SMILES IDX 30 87 32 88 16 89 17 90 18 91 19 93 20 94 21 95 28 96 22 97
REMARK SMILES IDX 27 98 29 99 23 100 24 101 25 102 26 103
REMARK H PARENT 3 7 92 25 58 36 10 81 17 92
REMARK Flexibility Score: inf
ROOT
ATOM      1  C   UNL A   1      37.458  23.596  26.146  1.00  0.00     0.002 C 
ENDROOT
BRANCH   1   2
ATOM      2  C   UNL A   1      38.593  22.636  26.498  1.00  0.00     0.021 C 
BRANCH   2   3
ATOM      3  C   UNL A   1      39.832  23.281  27.106  1.00  0.00     0.116 C 
BRANCH   3   4
ATOM      4  N   UNL A   1      40.706  23.879  26.110  1.00  0.00    -0.352 N 
ATOM      5  O   UNL A   1      41.856  25.527  25.088  1.00  0.00    -0.269 OA
ATOM      6  C   UNL A   1      41.246  25.143  26.083  1.00  0.00     0.251 C 
ATOM      7  H   UNL A   1      40.944  23.298  25.351  1.00  0.00     0.163 HD
BRANCH   6   8
ATOM      8  C   UNL A   1      41.070  26.045  27.243  1.00  0.00     0.039 A 
ATOM      9  C   UNL A   1      41.916  27.141  27.430  1.00  0.00     0.014 A 
ATOM     10  C   UNL A   1      40.038  25.796  28.153  1.00  0.00     0.014 A 
ATOM     11  C   UNL A   1      41.816  27.903  28.588  1.00  0.00     0.010 A 
ATOM     12  C   UNL A   1      39.886  26.616  29.277  1.00  0.00     0.010 A 
ATOM     13  C   UNL A   1      40.788  27.663  29.516  1.00  0.00    -0.014 A 
BRANCH  13  14
ATOM     14  C   UNL A   1      40.634  28.580  30.674  1.00  0.00     0.031 A 
ATOM     15  C   UNL A   1      41.527  28.480  31.880  1.00  0.00     0.074 A 
ATOM     16  C   UNL A   1      39.689  29.539  30.607  1.00  0.00     0.049 A 
ATOM     17  N   UNL A   1      41.540  29.227  32.955  1.00  0.00    -0.248 NA
ATOM     18  C   UNL A   1      42.529  27.402  31.889  1.00  0.00     0.031 C 
ATOM     19  C   UNL A   1      38.750  29.716  29.494  1.00  0.00     0.029 A 
ATOM     20  N   UNL A   1      39.371  30.554  31.471  1.00  0.00    -0.354 N 
ATOM     21  C   UNL A   1      42.539  28.708  33.773  1.00  0.00     0.074 A 
ATOM     22  C   UNL A   1      43.094  27.565  33.079  1.00  0.00     0.031 C 
ATOM     23  C   UNL A   1      37.996  30.801  29.723  1.00  0.00     0.029 A 
ATOM     24  C   UNL A   1      38.353  31.361  31.019  1.00  0.00     0.049 A 
ATOM     25  H   UNL A   1      39.826  30.691  32.333  1.00  0.00     0.167 HD
ATOM     26  C   UNL A   1      42.955  29.152  34.983  1.00  0.00     0.037 A 
ATOM     27  C   UNL A   1      37.761  32.426  31.590  1.00  0.00     0.037 A 
ATOM     28  C   UNL A   1      42.402  30.299  35.660  1.00  0.00     0.049 A 
ATOM     29  C   UNL A   1      38.238  32.889  32.936  1.00  0.00     0.074 A 
ATOM     30  C   UNL A   1      42.776  30.845  36.877  1.00  0.00     0.029 A 
ATOM     31  N   UNL A   1      41.358  31.078  35.180  1.00  0.00    -0.354 N 
ATOM     32  N   UNL A   1      39.203  32.401  33.678  1.00  0.00    -0.248 NA
ATOM     33  C   UNL A   1      37.545  34.042  33.524  1.00  0.00     0.031 C 
ATOM     34  C   UNL A   1      41.935  31.929  37.151  1.00  0.00     0.029 A 
ATOM     35  C   UNL A   1      41.064  32.087  36.085  1.00  0.00     0.049 A 
ATOM     36  H   UNL A   1      40.894  30.935  34.324  1.00  0.00     0.167 HD
ATOM     37  C   UNL A   1      39.237  33.192  34.819  1.00  0.00     0.074 A 
ATOM     38  C   UNL A   1      38.216  34.207  34.655  1.00  0.00     0.031 C 
ATOM     39  C   UNL A   1      40.039  33.084  35.908  1.00  0.00     0.037 A 
BRANCH  26  40
ATOM     40  C   UNL A   1      44.062  28.398  35.668  1.00  0.00     0.058 A 
ATOM     41  C   UNL A   1      43.795  27.338  36.549  1.00  0.00     0.135 A 
ATOM     42  C   UNL A   1      45.407  28.690  35.386  1.00  0.00     0.135 A 
ATOM     43  F   UNL A   1      42.529  27.024  36.864  1.00  0.00    -0.206 F 
ATOM     44  C   UNL A   1      44.821  26.603  37.136  1.00  0.00     0.059 A 
ATOM     45  C   UNL A   1      46.450  27.954  35.945  1.00  0.00     0.059 A 
ATOM     46  F   UNL A   1      45.720  29.692  34.550  1.00  0.00    -0.206 F 
ATOM     47  C   UNL A   1      46.145  26.917  36.827  1.00  0.00     0.060 A 
BRANCH  47  48
ATOM     48  S   UNL A   1      47.464  25.937  37.578  1.00  0.00     0.124 S 
ATOM     49  O   UNL A   1      48.429  26.974  37.933  1.00  0.00    -0.237 OA
ATOM     50  O   UNL A   1      46.780  25.299  38.698  1.00  0.00    -0.237 OA
ATOM     51  O   UNL A   1      47.875  25.039  36.505  1.00  0.00    -0.744 OA
ENDBRANCH  47  48
ENDBRANCH  26  40
BRANCH  27  52
ATOM     52  C   UNL A   1      36.644  33.113  30.892  1.00  0.00     0.058 A 
ATOM     53  C   UNL A   1      35.317  32.949  31.312  1.00  0.00     0.135 A 
ATOM     54  C   UNL A   1      36.887  33.962  29.801  1.00  0.00     0.135 A 
ATOM     55  F   UNL A   1      35.035  32.147  32.350  1.00  0.00    -0.206 F 
ATOM     56  C   UNL A   1      34.265  33.588  30.662  1.00  0.00     0.059 A 
ATOM     57  C   UNL A   1      35.857  34.633  29.153  1.00  0.00     0.059 A 
ATOM     58  F   UNL A   1      38.143  34.167  29.375  1.00  0.00    -0.206 F 
ATOM     59  C   UNL A   1      34.546  34.428  29.583  1.00  0.00     0.060 A 
BRANCH  59  60
ATOM     60  S   UNL A   1      33.182  35.286  28.769  1.00  0.00     0.124 S 
ATOM     61  O   UNL A   1      33.893  36.307  28.008  1.00  0.00    -0.237 OA
ATOM     62  O   UNL A   1      32.567  34.218  27.987  1.00  0.00    -0.237 OA
ATOM     63  O   UNL A   1      32.379  35.773  29.887  1.00  0.00    -0.744 OA
ENDBRANCH  59  60
ENDBRANCH  27  52
BRANCH  39  64
ATOM     64  C   UNL A   1      39.843  34.100  36.996  1.00  0.00     0.058 A 
ATOM     65  C   UNL A   1      40.415  35.379  36.916  1.00  0.00     0.135 A 
ATOM     66  C   UNL A   1      39.063  33.798  38.124  1.00  0.00     0.135 A 
ATOM     67  F   UNL A   1      41.177  35.714  35.863  1.00  0.00    -0.206 F 
ATOM     68  C   UNL A   1      40.248  36.315  37.932  1.00  0.00     0.059 A 
ATOM     69  C   UNL A   1      38.861  34.727  39.139  1.00  0.00     0.059 A 
ATOM     70  F   UNL A   1      38.487  32.592  38.244  1.00  0.00    -0.206 F 
ATOM     71  C   UNL A   1      39.471  35.976  39.041  1.00  0.00     0.060 A 
BRANCH  71  72
ATOM     72  S   UNL A   1      39.250  37.201  40.350  1.00  0.00     0.124 S 
ATOM     73  O   UNL A   1      40.632  37.535  40.675  1.00  0.00    -0.237 OA
ATOM     74  O   UNL A   1      38.486  38.247  39.677  1.00  0.00    -0.237 OA
ATOM     75  O   UNL A   1      38.521  36.466  41.381  1.00  0.00    -0.744 OA
ENDBRANCH  71  72
ENDBRANCH  39  64
ENDBRANCH  13  14
ENDBRANCH   6   8
ENDBRANCH   3   4
ENDBRANCH   2   3
ENDBRANCH   1   2
BRANCH   1  76
ATOM     76  C   UNL A   1      36.193  22.959  25.561  1.00  0.00     0.002 C 
BRANCH  76  77
ATOM     77  C   UNL A   1      35.848  21.551  26.054  1.00  0.00     0.021 C 
BRANCH  77  78
ATOM     78  C   UNL A   1      34.536  21.411  26.823  1.00  0.00     0.116 C 
BRANCH  78  79
ATOM     79  N   UNL A   1      33.673  20.356  26.315  1.00  0.00    -0.352 N 
ATOM     80  C   UNL A   1      32.796  20.385  25.259  1.00  0.00     0.252 C 
ATOM     81  H   UNL A   1      33.726  19.499  26.796  1.00  0.00     0.163 HD
ATOM     82  O   UNL A   1      32.140  19.390  24.967  1.00  0.00    -0.269 OA
BRANCH  80  83
ATOM     83  C   UNL A   1      32.538  21.649  24.545  1.00  0.00     0.058 A 
ATOM     84  C   UNL A   1      33.339  21.902  23.430  1.00  0.00     0.017 A 
ATOM     85  C   UNL A   1      31.570  22.582  24.916  1.00  0.00     0.055 A 
ATOM     86  C   UNL A   1      33.095  23.019  22.627  1.00  0.00     0.027 A 
ATOM     87  C   UNL A   1      31.291  23.664  24.069  1.00  0.00     0.047 A 
ATOM     88  Cl  UNL A   1      30.707  22.485  26.407  1.00  0.00    -0.083 Cl
ATOM     89  C   UNL A   1      32.009  23.854  22.881  1.00  0.00     0.043 A 
BRANCH  89  90
ATOM     90  N   UNL A   1      31.559  24.882  22.025  1.00  0.00    -0.322 N 
ATOM     91  C   UNL A   1      31.517  26.254  22.137  1.00  0.00     0.257 C 
ATOM     92  H   UNL A   1      31.201  24.548  21.171  1.00  0.00     0.170 HD
ATOM     93  O   UNL A   1      30.998  26.933  21.253  1.00  0.00    -0.269 OA
BRANCH  91  94
ATOM     94  C   UNL A   1      32.039  26.961  23.314  1.00  0.00     0.059 A 
ATOM     95  C   UNL A   1      33.373  27.390  23.243  1.00  0.00     0.022 A 
ATOM     96  C   UNL A   1      31.263  27.237  24.448  1.00  0.00     0.060 A 
ATOM     97  C   UNL A   1      33.906  28.182  24.259  1.00  0.00     0.086 A 
ATOM     98  C   UNL A   1      31.787  28.045  25.463  1.00  0.00     0.107 A 
ATOM     99  Cl  UNL A   1      29.648  26.658  24.628  1.00  0.00    -0.083 Cl
ATOM    100  C   UNL A   1      33.098  28.532  25.351  1.00  0.00     0.270 A 
BRANCH 100 101
ATOM    101  N   UNL A   1      33.621  29.451  26.368  1.00  0.00     0.062 N 
ATOM    102  O   UNL A   1      34.706  29.169  26.894  1.00  0.00    -0.258 OA
ATOM    103  O   UNL A   1      32.956  30.465  26.620  1.00  0.00    -0.258 OA
ENDBRANCH 100 101
ENDBRANCH  91  94
ENDBRANCH  89  90
ENDBRANCH  80  83
ENDBRANCH  78  79
ENDBRANCH  77  78
ENDBRANCH  76  77
ENDBRANCH   1  76
TORSDOF 19
ENDMDL
MODEL 2
REMARK VINA RESULT:     -12.0      6.399     11.921
REMARK SMILES O=C(NCCCCCCNC(=O)c1ccc(NC(=O)c2ccc([N+](=O)[O-])cc2Cl)cc1Cl)c1ccc(-c2c3nc(c(-c4c(F)cc(S(=O)(=O)[O-])cc4F)c4ccc([nH]4)c(-c4c(F)cc(S(=O)(=O)[O-])cc4F)c4nc(c(-c5c(F)cc(S(=O)(=O)[O-])cc5F)c5ccc2[nH]5)C=C4)C=C3)cc1
REMARK SMILES IDX 6 1 5 2 4 3 3 4 1 5 2 6 33 8 34 9 98 10 35 11 97 12 36 13
REMARK SMILES IDX 37 14 38 15 91 16 39 17 96 18 90 19 92 20 40 21 95 22 89 23
REMARK SMILES IDX 88 24 41 26 75 27 54 28 74 29 55 30 58 31 73 32 93 33 56 34
REMARK SMILES IDX 57 35 72 37 94 38 59 39 42 40 43 41 52 42 44 43 45 44 51 45
REMARK SMILES IDX 53 46 46 47 47 48 48 49 49 50 50 51 76 52 77 53 86 54 78 55
REMARK SMILES IDX 79 56 85 57 87 58 80 59 81 60 82 61 83 62 84 63 60 64 61 65
REMARK SMILES IDX 70 66 62 67 63 68 69 69 71 70 64 71 65 72 66 73 67 74 68 75
REMARK SMILES IDX 7 76 8 77 9 78 10 79 11 80 12 82 13 83 14 84 31 85 15 86
REMARK SMILES IDX 30 87 32 88 16 89 17 90 18 91 19 93 20 94 21 95 28 96 22 97
REMARK SMILES IDX 27 98 29 99 23 100 24 101 25 102 26 103
REMARK H PARENT 3 7 92 25 58 36 10 81 17 92
REMARK Flexibility Score: inf
ROOT
ATOM      1  C   UNL A   1      34.200  32.659  28.116  1.00  0.00     0.002 C 
ENDROOT
BRANCH   1   2
ATOM      2  C   UNL A   1      35.723  32.685  27.983  1.00  0.00     0.021 C 
BRANCH   2   3
ATOM      3  C   UNL A   1      36.494  32.761  29.293  1.00  0.00     0.116 C 
BRANCH   3   4
ATOM      4  N   UNL A   1      36.030  31.801  30.281  1.00  0.00    -0.352 N 
ATOM      5  O   UNL A   1      36.018  29.868  31.442  1.00  0.00    -0.269 OA
ATOM      6  C   UNL A   1      36.622  30.630  30.691  1.00  0.00     0.251 C 
ATOM      7  H   UNL A   1      35.174  32.020  30.716  1.00  0.00     0.163 HD
BRANCH   6   8
ATOM      8  C   UNL A   1      37.977  30.279  30.208  1.00  0.00     0.039 A 
ATOM      9  C   UNL A   1      38.233  30.136  28.843  1.00  0.00     0.014 A 
ATOM     10  C   UNL A   1      39.008  30.099  31.136  1.00  0.00     0.014 A 
ATOM     11  C   UNL A   1      39.477  29.685  28.415  1.00  0.00     0.010 A 
ATOM     12  C   UNL A   1      40.284  29.726  30.696  1.00  0.00     0.010 A 
ATOM     13  C   UNL A   1      40.523  29.494  29.335  1.00  0.00    -0.014 A 
BRANCH  13  14
ATOM     14  C   UNL A   1      41.872  29.138  28.826  1.00  0.00     0.031 A 
ATOM     15  C   UNL A   1      42.991  30.142  28.796  1.00  0.00     0.074 A 
ATOM     16  C   UNL A   1      42.086  27.870  28.420  1.00  0.00     0.049 A 
ATOM     17  N   UNL A   1      44.232  29.976  28.413  1.00  0.00    -0.248 NA
ATOM     18  C   UNL A   1      42.682  31.509  29.245  1.00  0.00     0.031 C 
ATOM     19  C   UNL A   1      41.067  26.816  28.385  1.00  0.00     0.029 A 
ATOM     20  N   UNL A   1      43.223  27.243  27.981  1.00  0.00    -0.354 N 
ATOM     21  C   UNL A   1      44.850  31.213  28.562  1.00  0.00     0.074 A 
ATOM     22  C   UNL A   1      43.840  32.129  29.049  1.00  0.00     0.031 C 
ATOM     23  C   UNL A   1      41.635  25.666  27.994  1.00  0.00     0.029 A 
ATOM     24  C   UNL A   1      43.040  25.911  27.694  1.00  0.00     0.049 A 
ATOM     25  H   UNL A   1      44.088  27.703  27.880  1.00  0.00     0.167 HD
ATOM     26  C   UNL A   1      46.141  31.547  28.323  1.00  0.00     0.037 A 
ATOM     27  C   UNL A   1      43.902  24.989  27.227  1.00  0.00     0.037 A 
ATOM     28  C   UNL A   1      47.143  30.623  27.850  1.00  0.00     0.049 A 
ATOM     29  C   UNL A   1      45.324  25.392  26.963  1.00  0.00     0.074 A 
ATOM     30  C   UNL A   1      48.485  30.859  27.604  1.00  0.00     0.029 A 
ATOM     31  N   UNL A   1      46.914  29.288  27.549  1.00  0.00    -0.354 N 
ATOM     32  N   UNL A   1      45.894  26.559  27.138  1.00  0.00    -0.248 NA
ATOM     33  C   UNL A   1      46.218  24.354  26.434  1.00  0.00     0.031 C 
ATOM     34  C   UNL A   1      49.059  29.678  27.120  1.00  0.00     0.029 A 
ATOM     35  C   UNL A   1      48.085  28.693  27.104  1.00  0.00     0.049 A 
ATOM     36  H   UNL A   1      46.047  28.829  27.639  1.00  0.00     0.167 HD
ATOM     37  C   UNL A   1      47.216  26.396  26.746  1.00  0.00     0.074 A 
ATOM     38  C   UNL A   1      47.367  25.009  26.353  1.00  0.00     0.031 C 
ATOM     39  C   UNL A   1      48.215  27.313  26.710  1.00  0.00     0.037 A 
BRANCH  26  40
ATOM     40  C   UNL A   1      46.557  32.973  28.562  1.00  0.00     0.058 A 
ATOM     41  C   UNL A   1      46.475  33.942  27.550  1.00  0.00     0.135 A 
ATOM     42  C   UNL A   1      46.974  33.392  29.836  1.00  0.00     0.135 A 
ATOM     43  F   UNL A   1      46.095  33.595  26.310  1.00  0.00    -0.206 F 
ATOM     44  C   UNL A   1      46.804  35.274  27.789  1.00  0.00     0.059 A 
ATOM     45  C   UNL A   1      47.288  34.723  30.104  1.00  0.00     0.059 A 
ATOM     46  F   UNL A   1      47.070  32.507  30.841  1.00  0.00    -0.206 F 
ATOM     47  C   UNL A   1      47.208  35.655  29.070  1.00  0.00     0.060 A 
BRANCH  47  48
ATOM     48  S   UNL A   1      47.607  37.391  29.369  1.00  0.00     0.124 S 
ATOM     49  O   UNL A   1      47.969  37.840  28.028  1.00  0.00    -0.237 OA
ATOM     50  O   UNL A   1      46.351  37.915  29.894  1.00  0.00    -0.237 OA
ATOM     51  O   UNL A   1      48.706  37.328  30.327  1.00  0.00    -0.744 OA
ENDBRANCH  47  48
ENDBRANCH  26  40
BRANCH  27  52
ATOM     52  C   UNL A   1      43.434  23.603  26.968  1.00  0.00     0.058 A 
ATOM     53  C   UNL A   1      43.143  23.167  25.668  1.00  0.00     0.135 A 
ATOM     54  C   UNL A   1      43.286  22.683  28.017  1.00  0.00     0.135 A 
ATOM     55  F   UNL A   1      43.269  24.012  24.633  1.00  0.00    -0.206 F 
ATOM     56  C   UNL A   1      42.702  21.872  25.418  1.00  0.00     0.059 A 
ATOM     57  C   UNL A   1      42.874  21.376  27.790  1.00  0.00     0.059 A 
ATOM     58  F   UNL A   1      43.571  23.048  29.277  1.00  0.00    -0.206 F 
ATOM     59  C   UNL A   1      42.571  20.983  26.486  1.00  0.00     0.060 A 
BRANCH  59  60
ATOM     60  S   UNL A   1      42.037  19.291  26.152  1.00  0.00     0.124 S 
ATOM     61  O   UNL A   1      42.379  18.625  27.404  1.00  0.00    -0.237 OA
ATOM     62  O   UNL A   1      40.612  19.463  25.887  1.00  0.00    -0.237 OA
ATOM     63  O   UNL A   1      42.840  18.911  24.993  1.00  0.00    -0.744 OA
ENDBRANCH  59  60
ENDBRANCH  27  52
BRANCH  39  64
ATOM     64  C   UNL A   1      49.558  26.834  26.238  1.00  0.00     0.058 A 
ATOM     65  C   UNL A   1      49.958  26.973  24.900  1.00  0.00     0.135 A 
ATOM     66  C   UNL A   1      50.460  26.243  27.136  1.00  0.00     0.135 A 
ATOM     67  F   UNL A   1      49.127  27.523  24.001  1.00  0.00    -0.206 F 
ATOM     68  C   UNL A   1      51.194  26.514  24.460  1.00  0.00     0.059 A 
ATOM     69  C   UNL A   1      51.713  25.800  26.725  1.00  0.00     0.059 A 
ATOM     70  F   UNL A   1      50.129  26.095  28.429  1.00  0.00    -0.206 F 
ATOM     71  C   UNL A   1      52.063  25.925  25.381  1.00  0.00     0.060 A 
BRANCH  71  72
ATOM     72  S   UNL A   1      53.672  25.341  24.804  1.00  0.00     0.124 S 
ATOM     73  O   UNL A   1      53.757  25.970  23.490  1.00  0.00    -0.237 OA
ATOM     74  O   UNL A   1      54.580  25.867  25.818  1.00  0.00    -0.237 OA
ATOM     75  O   UNL A   1      53.522  23.889  24.797  1.00  0.00    -0.744 OA
ENDBRANCH  71  72
ENDBRANCH  39  64
ENDBRANCH  13  14
ENDBRANCH   6   8
ENDBRANCH   3   4
ENDBRANCH   2   3
ENDBRANCH   1   2
BRANCH   1  76
ATOM     76  C   UNL A   1      33.505  31.371  27.664  1.00  0.00     0.002 C 
BRANCH  76  77
ATOM     77  C   UNL A   1      34.418  30.209  27.259  1.00  0.00     0.021 C 
BRANCH  77  78
ATOM     78  C   UNL A   1      34.024  29.456  25.990  1.00  0.00     0.116 C 
BRANCH  78  79
ATOM     79  N   UNL A   1      32.872  30.024  25.310  1.00  0.00    -0.352 N 
ATOM     80  C   UNL A   1      31.690  29.422  24.954  1.00  0.00     0.252 C 
ATOM     81  H   UNL A   1      32.950  30.975  25.070  1.00  0.00     0.163 HD
ATOM     82  O   UNL A   1      30.815  30.062  24.378  1.00  0.00    -0.269 OA
BRANCH  80  83
ATOM     83  C   UNL A   1      31.509  27.972  25.147  1.00  0.00     0.058 A 
ATOM     84  C   UNL A   1      31.532  27.517  26.467  1.00  0.00     0.017 A 
ATOM     85  C   UNL A   1      31.330  27.055  24.112  1.00  0.00     0.055 A 
ATOM     86  C   UNL A   1      31.260  26.177  26.754  1.00  0.00     0.027 A 
ATOM     87  C   UNL A   1      30.994  25.727  24.414  1.00  0.00     0.047 A 
ATOM     88  Cl  UNL A   1      31.535  27.473  22.450  1.00  0.00    -0.083 Cl
ATOM     89  C   UNL A   1      30.891  25.293  25.742  1.00  0.00     0.043 A 
BRANCH  89  90
ATOM     90  N   UNL A   1      30.407  23.983  25.946  1.00  0.00    -0.322 N 
ATOM     91  C   UNL A   1      30.959  22.734  25.772  1.00  0.00     0.257 C 
ATOM     92  H   UNL A   1      29.482  23.959  26.282  1.00  0.00     0.170 HD
ATOM     93  O   UNL A   1      30.283  21.725  25.962  1.00  0.00    -0.269 OA
BRANCH  91  94
ATOM     94  C   UNL A   1      32.342  22.545  25.318  1.00  0.00     0.059 A 
ATOM     95  C   UNL A   1      32.535  22.433  23.933  1.00  0.00     0.022 A 
ATOM     96  C   UNL A   1      33.438  22.508  26.193  1.00  0.00     0.060 A 
ATOM     97  C   UNL A   1      33.826  22.385  23.410  1.00  0.00     0.086 A 
ATOM     98  C   UNL A   1      34.735  22.476  25.673  1.00  0.00     0.107 A 
ATOM     99  Cl  UNL A   1      33.254  22.551  27.908  1.00  0.00    -0.083 Cl
ATOM    100  C   UNL A   1      34.923  22.439  24.282  1.00  0.00     0.270 A 
BRANCH 100 101
ATOM    101  N   UNL A   1      36.280  22.495  23.730  1.00  0.00     0.062 N 
ATOM    102  O   UNL A   1      36.515  23.355  22.869  1.00  0.00    -0.258 OA
ATOM    103  O   UNL A   1      37.114  21.695  24.175  1.00  0.00    -0.258 OA
ENDBRANCH 100 101
ENDBRANCH  91  94
ENDBRANCH  89  90
ENDBRANCH  80  83
ENDBRANCH  78  79
ENDBRANCH  77  78
ENDBRANCH  76  77
ENDBRANCH   1  76
TORSDOF 19
ENDMDL
MODEL 3
REMARK VINA RESULT:     -11.9      6.330     11.737
REMARK SMILES O=C(NCCCCCCNC(=O)c1ccc(NC(=O)c2ccc([N+](=O)[O-])cc2Cl)cc1Cl)c1ccc(-c2c3nc(c(-c4c(F)cc(S(=O)(=O)[O-])cc4F)c4ccc([nH]4)c(-c4c(F)cc(S(=O)(=O)[O-])cc4F)c4nc(c(-c5c(F)cc(S(=O)(=O)[O-])cc5F)c5ccc2[nH]5)C=C4)C=C3)cc1
REMARK SMILES IDX 6 1 5 2 4 3 3 4 1 5 2 6 33 8 34 9 98 10 35 11 97 12 36 13
REMARK SMILES IDX 37 14 38 15 91 16 39 17 96 18 90 19 92 20 40 21 95 22 89 23
REMARK SMILES IDX 88 24 41 26 75 27 54 28 74 29 55 30 58 31 73 32 93 33 56 34
REMARK SMILES IDX 57 35 72 37 94 38 59 39 42 40 43 41 52 42 44 43 45 44 51 45
REMARK SMILES IDX 53 46 46 47 47 48 48 49 49 50 50 51 76 52 77 53 86 54 78 55
REMARK SMILES IDX 79 56 85 57 87 58 80 59 81 60 82 61 83 62 84 63 60 64 61 65
REMARK SMILES IDX 70 66 62 67 63 68 69 69 71 70 64 71 65 72 66 73 67 74 68 75
REMARK SMILES IDX 7 76 8 77 9 78 10 79 11 80 12 82 13 83 14 84 31 85 15 86
REMARK SMILES IDX 30 87 32 88 16 89 17 90 18 91 19 93 20 94 21 95 28 96 22 97
REMARK SMILES IDX 27 98 29 99 23 100 24 101 25 102 26 103
REMARK H PARENT 3 7 92 25 58 36 10 81 17 92
REMARK Flexibility Score: inf
ROOT
ATOM      1  C   UNL A   1      33.276  29.791  27.036  1.00  0.00     0.002 C 
ENDROOT
BRANCH   1   2
ATOM      2  C   UNL A   1      34.604  29.265  27.579  1.00  0.00     0.021 C 
BRANCH   2   3
ATOM      3  C   UNL A   1      35.595  30.329  28.031  1.00  0.00     0.116 C 
BRANCH   3   4
ATOM      4  N   UNL A   1      35.542  30.582  29.461  1.00  0.00    -0.352 N 
ATOM      5  O   UNL A   1      36.269  30.555  31.595  1.00  0.00    -0.269 OA
ATOM      6  C   UNL A   1      36.532  30.424  30.403  1.00  0.00     0.251 C 
ATOM      7  H   UNL A   1      34.680  30.911  29.803  1.00  0.00     0.163 HD
BRANCH   6   8
ATOM      8  C   UNL A   1      37.906  30.073  29.977  1.00  0.00     0.039 A 
ATOM      9  C   UNL A   1      38.325  30.294  28.663  1.00  0.00     0.014 A 
ATOM     10  C   UNL A   1      38.790  29.521  30.909  1.00  0.00     0.014 A 
ATOM     11  C   UNL A   1      39.573  29.844  28.250  1.00  0.00     0.010 A 
ATOM     12  C   UNL A   1      40.078  29.145  30.511  1.00  0.00     0.010 A 
ATOM     13  C   UNL A   1      40.473  29.283  29.173  1.00  0.00    -0.014 A 
BRANCH  13  14
ATOM     14  C   UNL A   1      41.844  28.934  28.721  1.00  0.00     0.031 A 
ATOM     15  C   UNL A   1      42.957  29.945  28.735  1.00  0.00     0.074 A 
ATOM     16  C   UNL A   1      42.083  27.667  28.327  1.00  0.00     0.049 A 
ATOM     17  N   UNL A   1      44.214  29.786  28.404  1.00  0.00    -0.248 NA
ATOM     18  C   UNL A   1      42.621  31.311  29.168  1.00  0.00     0.031 C 
ATOM     19  C   UNL A   1      41.072  26.606  28.251  1.00  0.00     0.029 A 
ATOM     20  N   UNL A   1      43.241  27.047  27.936  1.00  0.00    -0.354 N 
ATOM     21  C   UNL A   1      44.818  31.027  28.576  1.00  0.00     0.074 A 
ATOM     22  C   UNL A   1      43.783  31.937  29.019  1.00  0.00     0.031 C 
ATOM     23  C   UNL A   1      41.663  25.460  27.886  1.00  0.00     0.029 A 
ATOM     24  C   UNL A   1      43.078  25.713  27.645  1.00  0.00     0.049 A 
ATOM     25  H   UNL A   1      44.106  27.512  27.870  1.00  0.00     0.167 HD
ATOM     26  C   UNL A   1      46.115  31.369  28.390  1.00  0.00     0.037 A 
ATOM     27  C   UNL A   1      43.964  24.795  27.215  1.00  0.00     0.037 A 
ATOM     28  C   UNL A   1      47.142  30.450  27.959  1.00  0.00     0.049 A 
ATOM     29  C   UNL A   1      45.393  25.206  27.009  1.00  0.00     0.074 A 
ATOM     30  C   UNL A   1      48.491  30.695  27.769  1.00  0.00     0.029 A 
ATOM     31  N   UNL A   1      46.933  29.113  27.653  1.00  0.00    -0.354 N 
ATOM     32  N   UNL A   1      45.948  26.378  27.205  1.00  0.00    -0.248 NA
ATOM     33  C   UNL A   1      46.314  24.173  26.519  1.00  0.00     0.031 C 
ATOM     34  C   UNL A   1      49.092  29.516  27.311  1.00  0.00     0.029 A 
ATOM     35  C   UNL A   1      48.125  28.525  27.257  1.00  0.00     0.049 A 
ATOM     36  H   UNL A   1      46.066  28.649  27.707  1.00  0.00     0.167 HD
ATOM     37  C   UNL A   1      47.286  26.222  26.869  1.00  0.00     0.074 A 
ATOM     38  C   UNL A   1      47.462  24.836  26.485  1.00  0.00     0.031 C 
ATOM     39  C   UNL A   1      48.280  27.146  26.871  1.00  0.00     0.037 A 
BRANCH  26  40
ATOM     40  C   UNL A   1      46.513  32.798  28.642  1.00  0.00     0.058 A 
ATOM     41  C   UNL A   1      46.978  33.221  29.896  1.00  0.00     0.135 A 
ATOM     42  C   UNL A   1      46.497  33.738  27.598  1.00  0.00     0.135 A 
ATOM     43  F   UNL A   1      47.002  32.368  30.932  1.00  0.00    -0.206 F 
ATOM     44  C   UNL A   1      47.401  34.530  30.112  1.00  0.00     0.059 A 
ATOM     45  C   UNL A   1      46.936  35.047  27.785  1.00  0.00     0.059 A 
ATOM     46  F   UNL A   1      46.063  33.386  26.378  1.00  0.00    -0.206 F 
ATOM     47  C   UNL A   1      47.378  35.436  29.050  1.00  0.00     0.060 A 
BRANCH  47  48
ATOM     48  S   UNL A   1      47.953  37.123  29.340  1.00  0.00     0.124 S 
ATOM     49  O   UNL A   1      46.760  37.897  29.011  1.00  0.00    -0.237 OA
ATOM     50  O   UNL A   1      48.318  37.091  30.753  1.00  0.00    -0.237 OA
ATOM     51  O   UNL A   1      49.070  37.267  28.412  1.00  0.00    -0.744 OA
ENDBRANCH  47  48
ENDBRANCH  26  40
BRANCH  27  52
ATOM     52  C   UNL A   1      43.515  23.406  26.940  1.00  0.00     0.058 A 
ATOM     53  C   UNL A   1      43.272  22.503  27.984  1.00  0.00     0.135 A 
ATOM     54  C   UNL A   1      43.304  22.962  25.626  1.00  0.00     0.135 A 
ATOM     55  F   UNL A   1      43.461  22.882  29.258  1.00  0.00    -0.206 F 
ATOM     56  C   UNL A   1      42.853  21.200  27.735  1.00  0.00     0.059 A 
ATOM     57  C   UNL A   1      42.860  21.674  25.352  1.00  0.00     0.059 A 
ATOM     58  F   UNL A   1      43.504  23.796  24.594  1.00  0.00    -0.206 F 
ATOM     59  C   UNL A   1      42.650  20.795  26.415  1.00  0.00     0.060 A 
BRANCH  59  60
ATOM     60  S   UNL A   1      42.068  19.115  26.098  1.00  0.00     0.124 S 
ATOM     61  O   UNL A   1      42.444  18.439  27.334  1.00  0.00    -0.237 OA
ATOM     62  O   UNL A   1      40.638  19.318  25.889  1.00  0.00    -0.237 OA
ATOM     63  O   UNL A   1      42.817  18.722  24.907  1.00  0.00    -0.744 OA
ENDBRANCH  59  60
ENDBRANCH  27  52
BRANCH  39  64
ATOM     64  C   UNL A   1      49.644  26.674  26.456  1.00  0.00     0.058 A 
ATOM     65  C   UNL A   1      50.548  26.136  27.386  1.00  0.00     0.135 A 
ATOM     66  C   UNL A   1      50.046  26.745  25.114  1.00  0.00     0.135 A 
ATOM     67  F   UNL A   1      50.214  26.055  28.684  1.00  0.00    -0.206 F 
ATOM     68  C   UNL A   1      51.817  25.715  27.004  1.00  0.00     0.059 A 
ATOM     69  C   UNL A   1      51.301  26.306  24.705  1.00  0.00     0.059 A 
ATOM     70  F   UNL A   1      49.215  27.242  24.184  1.00  0.00    -0.206 F 
ATOM     71  C   UNL A   1      52.185  25.808  25.661  1.00  0.00     0.060 A 
BRANCH  71  72
ATOM     72  S   UNL A   1      53.831  25.248  25.172  1.00  0.00     0.124 S 
ATOM     73  O   UNL A   1      53.579  23.849  24.845  1.00  0.00    -0.237 OA
ATOM     74  O   UNL A   1      54.136  26.119  24.040  1.00  0.00    -0.237 OA
ATOM     75  O   UNL A   1      54.636  25.480  26.367  1.00  0.00    -0.744 OA
ENDBRANCH  71  72
ENDBRANCH  39  64
ENDBRANCH  13  14
ENDBRANCH   6   8
ENDBRANCH   3   4
ENDBRANCH   2   3
ENDBRANCH   1   2
BRANCH   1  76
ATOM     76  C   UNL A   1      32.546  28.883  26.042  1.00  0.00     0.002 C 
BRANCH  76  77
ATOM     77  C   UNL A   1      33.003  27.422  25.990  1.00  0.00     0.021 C 
BRANCH  77  78
ATOM     78  C   UNL A   1      33.687  26.976  24.699  1.00  0.00     0.116 C 
BRANCH  78  79
ATOM     79  N   UNL A   1      32.917  27.268  23.502  1.00  0.00    -0.352 N 
ATOM     80  C   UNL A   1      32.010  26.479  22.839  1.00  0.00     0.252 C 
ATOM     81  H   UNL A   1      33.068  28.158  23.110  1.00  0.00     0.163 HD
ATOM     82  O   UNL A   1      31.445  26.892  21.830  1.00  0.00    -0.269 OA
BRANCH  80  83
ATOM     83  C   UNL A   1      31.797  25.082  23.258  1.00  0.00     0.058 A 
ATOM     84  C   UNL A   1      32.520  24.112  22.562  1.00  0.00     0.017 A 
ATOM     85  C   UNL A   1      30.931  24.687  24.277  1.00  0.00     0.055 A 
ATOM     86  C   UNL A   1      32.467  22.773  22.960  1.00  0.00     0.027 A 
ATOM     87  C   UNL A   1      30.934  23.353  24.710  1.00  0.00     0.047 A 
ATOM     88  Cl  UNL A   1      29.814  25.771  25.023  1.00  0.00    -0.083 Cl
ATOM     89  C   UNL A   1      31.754  22.397  24.096  1.00  0.00     0.043 A 
BRANCH  89  90
ATOM     90  N   UNL A   1      31.797  21.120  24.694  1.00  0.00    -0.322 N 
ATOM     91  C   UNL A   1      32.778  20.421  25.362  1.00  0.00     0.257 C 
ATOM     92  H   UNL A   1      30.949  20.626  24.618  1.00  0.00     0.170 HD
ATOM     93  O   UNL A   1      32.575  19.266  25.732  1.00  0.00    -0.269 OA
BRANCH  91  94
ATOM     94  C   UNL A   1      34.106  20.991  25.622  1.00  0.00     0.059 A 
ATOM     95  C   UNL A   1      35.170  20.461  24.875  1.00  0.00     0.022 A 
ATOM     96  C   UNL A   1      34.328  22.032  26.534  1.00  0.00     0.060 A 
ATOM     97  C   UNL A   1      36.438  21.034  24.963  1.00  0.00     0.086 A 
ATOM     98  C   UNL A   1      35.594  22.621  26.614  1.00  0.00     0.107 A 
ATOM     99  Cl  UNL A   1      33.077  22.661  27.542  1.00  0.00    -0.083 Cl
ATOM    100  C   UNL A   1      36.636  22.134  25.811  1.00  0.00     0.270 A 
BRANCH 100 101
ATOM    101  N   UNL A   1      37.941  22.805  25.826  1.00  0.00     0.062 N 
ATOM    102  O   UNL A   1      37.950  24.043  25.863  1.00  0.00    -0.258 OA
ATOM    103  O   UNL A   1      38.952  22.090  25.823  1.00  0.00    -0.258 OA
ENDBRANCH 100 101
ENDBRANCH  91  94
ENDBRANCH  89  90
ENDBRANCH  80  83
ENDBRANCH  78  79
ENDBRANCH  77  78
ENDBRANCH  76  77
ENDBRANCH   1  76
TORSDOF 19
ENDMDL
