MODEL 1
REMARK VINA RESULT:     -10.7      0.000      0.000
REMARK SMILES CCCCCCNC(=O)Oc1cccc(-c2ccc([C@@H](C)C(=O)NCCCCCCNC(=O)c3ccc(-c4c5nc(c(-c6c(F)cc(S(=O)(=O)[O-])cc6F)c6ccc([nH]6)c(-c6c(F)cc(S(=O)(=O)[O-])cc6F)c6nc(c(-c7c(F)cc(S(=O)(=O)[O-])cc7F)c7ccc4[nH]7)C=C6)C=C5)cc3)cc2C(F)(F)F)c1
REMARK SMILES IDX 22 1 23 2 24 3 20 5 21 6 19 7 16 8 17 9 101 10 18 11 100 12
REMARK SMILES IDX 15 13 11 14 12 15 106 16 13 17 14 18 10 19 8 20 7 21 9 23
REMARK SMILES IDX 6 24 5 25 4 26 3 27 2 28 1 29 102 30 103 31 104 32 105 33
REMARK SMILES IDX 25 34 26 35 27 36 28 37 29 38 30 39 31 40 32 41 33 43 34 44
REMARK SMILES IDX 35 45 99 46 36 47 98 48 37 49 38 50 39 51 92 52 40 53 97 54
REMARK SMILES IDX 91 55 93 56 41 57 96 58 90 59 89 60 42 62 76 63 55 64 75 65
REMARK SMILES IDX 56 66 59 67 74 68 94 69 57 70 58 71 73 73 95 74 60 75 43 76
REMARK SMILES IDX 44 77 53 78 45 79 46 80 52 81 54 82 47 83 48 84 49 85 50 86
REMARK SMILES IDX 51 87 77 88 78 89 87 90 79 91 80 92 86 93 88 94 81 95 82 96
REMARK SMILES IDX 83 97 84 98 85 99 61 100 62 101 71 102 63 103 64 104 70 105
REMARK SMILES IDX 72 106 65 107 66 108 67 109 68 110 69 111
REMARK H PARENT 24 4 7 22 31 42 93 61 59 72
REMARK Flexibility Score: inf
ROOT
ATOM      1  C   UNL A   1      42.434  22.920  27.551  1.00  0.00     0.227 C 
ATOM      2  O   UNL A   1      42.465  23.427  28.680  1.00  0.00    -0.274 OA
ATOM      3  N   UNL A   1      43.343  23.390  26.655  1.00  0.00    -0.356 N 
ATOM      4  H   UNL A   1      43.990  24.028  27.034  1.00  0.00     0.163 HD
ENDROOT
BRANCH   1   5
ATOM      5  C   UNL A   1      41.421  21.806  27.244  1.00  0.00     0.105 C 
ATOM      6  C   UNL A   1      41.986  20.648  26.422  1.00  0.00     0.023 C 
BRANCH   5   7
ATOM      7  C   UNL A   1      40.052  22.309  26.810  1.00  0.00    -0.035 A 
ATOM      8  C   UNL A   1      37.393  23.109  26.101  1.00  0.00    -0.006 A 
ATOM      9  C   UNL A   1      38.283  23.970  26.768  1.00  0.00     0.009 A 
ATOM     10  C   UNL A   1      37.891  21.852  25.697  1.00  0.00     0.064 A 
ATOM     11  C   UNL A   1      39.596  23.597  27.067  1.00  0.00     0.005 A 
ATOM     12  C   UNL A   1      39.187  21.453  26.112  1.00  0.00     0.018 A 
BRANCH   8  13
ATOM     13  C   UNL A   1      36.009  23.578  25.869  1.00  0.00    -0.014 A 
ATOM     14  C   UNL A   1      34.396  24.963  24.695  1.00  0.00     0.133 A 
ATOM     15  C   UNL A   1      33.354  24.464  25.470  1.00  0.00     0.047 A 
ATOM     16  C   UNL A   1      35.707  24.515  24.866  1.00  0.00     0.056 A 
ATOM     17  C   UNL A   1      33.626  23.501  26.435  1.00  0.00     0.004 A 
ATOM     18  C   UNL A   1      34.941  23.075  26.641  1.00  0.00     0.009 A 
BRANCH  14  19
ATOM     19  O   UNL A   1      34.084  26.059  23.869  1.00  0.00    -0.410 OA
BRANCH  19  20
ATOM     20  C   UNL A   1      33.354  25.895  22.703  1.00  0.00     0.412 C 
ATOM     21  N   UNL A   1      32.233  26.679  22.669  1.00  0.00    -0.321 N 
ATOM     22  H   UNL A   1      31.635  26.564  21.894  1.00  0.00     0.167 HD
ATOM     23  O   UNL A   1      33.632  25.145  21.776  1.00  0.00    -0.224 OA
BRANCH  21  24
ATOM     24  C   UNL A   1      31.836  27.661  23.659  1.00  0.00     0.119 C 
BRANCH  24  25
ATOM     25  C   UNL A   1      30.784  27.105  24.621  1.00  0.00     0.021 C 
BRANCH  25  26
ATOM     26  C   UNL A   1      31.200  27.098  26.096  1.00  0.00     0.002 C 
BRANCH  26  27
ATOM     27  C   UNL A   1      31.656  28.449  26.659  1.00  0.00    -0.000 C 
BRANCH  27  28
ATOM     28  C   UNL A   1      32.967  28.420  27.449  1.00  0.00    -0.003 C 
ATOM     29  C   UNL A   1      34.203  28.449  26.564  1.00  0.00     0.004 C 
ENDBRANCH  27  28
ENDBRANCH  26  27
ENDBRANCH  25  26
ENDBRANCH  24  25
ENDBRANCH  21  24
ENDBRANCH  19  20
ENDBRANCH  14  19
ENDBRANCH   8  13
BRANCH  10  30
ATOM     30  C   UNL A   1      37.147  20.881  24.806  1.00  0.00     0.417 C 
ATOM     31  F   UNL A   1      35.921  20.561  25.324  1.00  0.00    -0.166 F 
ATOM     32  F   UNL A   1      36.889  21.399  23.572  1.00  0.00    -0.166 F 
ATOM     33  F   UNL A   1      37.748  19.680  24.592  1.00  0.00    -0.166 F 
ENDBRANCH  10  30
ENDBRANCH   5   7
ENDBRANCH   1   5
BRANCH   3  34
ATOM     34  C   UNL A   1      43.531  23.122  25.245  1.00  0.00     0.116 C 
BRANCH  34  35
ATOM     35  C   UNL A   1      44.958  23.452  24.798  1.00  0.00     0.021 C 
BRANCH  35  36
ATOM     36  C   UNL A   1      45.940  23.640  25.958  1.00  0.00     0.002 C 
BRANCH  36  37
ATOM     37  C   UNL A   1      46.244  25.100  26.317  1.00  0.00     0.002 C 
BRANCH  37  38
ATOM     38  C   UNL A   1      45.896  26.127  25.235  1.00  0.00     0.021 C 
BRANCH  38  39
ATOM     39  C   UNL A   1      44.741  27.058  25.591  1.00  0.00     0.116 C 
BRANCH  39  40
ATOM     40  N   UNL A   1      43.494  26.620  24.985  1.00  0.00    -0.352 N 
ATOM     41  C   UNL A   1      42.229  26.581  25.517  1.00  0.00     0.251 C 
ATOM     42  H   UNL A   1      43.567  26.304  24.055  1.00  0.00     0.163 HD
ATOM     43  O   UNL A   1      41.348  25.943  24.951  1.00  0.00    -0.269 OA
BRANCH  41  44
ATOM     44  C   UNL A   1      41.933  27.303  26.773  1.00  0.00     0.039 A 
ATOM     45  C   UNL A   1      41.263  26.633  27.800  1.00  0.00     0.014 A 
ATOM     46  C   UNL A   1      42.282  28.648  26.923  1.00  0.00     0.014 A 
ATOM     47  C   UNL A   1      40.987  27.299  28.997  1.00  0.00     0.010 A 
ATOM     48  C   UNL A   1      42.068  29.290  28.140  1.00  0.00     0.010 A 
ATOM     49  C   UNL A   1      41.409  28.626  29.186  1.00  0.00    -0.014 A 
BRANCH  49  50
ATOM     50  C   UNL A   1      41.156  29.341  30.463  1.00  0.00     0.031 A 
ATOM     51  C   UNL A   1      40.015  30.316  30.568  1.00  0.00     0.074 A 
ATOM     52  C   UNL A   1      41.989  29.156  31.506  1.00  0.00     0.049 A 
ATOM     53  N   UNL A   1      39.677  31.088  31.569  1.00  0.00    -0.248 NA
ATOM     54  C   UNL A   1      39.157  30.463  29.380  1.00  0.00     0.031 C 
ATOM     55  C   UNL A   1      43.155  28.270  31.512  1.00  0.00     0.029 A 
ATOM     56  N   UNL A   1      41.990  29.711  32.761  1.00  0.00    -0.354 N 
ATOM     57  C   UNL A   1      38.580  31.820  31.129  1.00  0.00     0.074 A 
ATOM     58  C   UNL A   1      38.344  31.440  29.753  1.00  0.00     0.031 C 
ATOM     59  C   UNL A   1      43.746  28.326  32.717  1.00  0.00     0.029 A 
ATOM     60  C   UNL A   1      43.024  29.278  33.556  1.00  0.00     0.049 A 
ATOM     61  H   UNL A   1      41.313  30.360  33.064  1.00  0.00     0.167 HD
ATOM     62  C   UNL A   1      37.825  32.710  31.816  1.00  0.00     0.037 A 
ATOM     63  C   UNL A   1      43.359  29.614  34.817  1.00  0.00     0.037 A 
ATOM     64  C   UNL A   1      38.052  33.064  33.193  1.00  0.00     0.049 A 
ATOM     65  C   UNL A   1      42.503  30.604  35.561  1.00  0.00     0.074 A 
ATOM     66  C   UNL A   1      37.314  33.916  33.996  1.00  0.00     0.029 A 
ATOM     67  N   UNL A   1      39.096  32.584  33.973  1.00  0.00    -0.354 N 
ATOM     68  N   UNL A   1      41.436  31.246  35.149  1.00  0.00    -0.248 NA
ATOM     69  C   UNL A   1      42.892  30.909  36.945  1.00  0.00     0.031 C 
ATOM     70  C   UNL A   1      37.935  33.983  35.249  1.00  0.00     0.029 A 
ATOM     71  C   UNL A   1      39.030  33.135  35.242  1.00  0.00     0.049 A 
ATOM     72  H   UNL A   1      39.781  31.947  33.668  1.00  0.00     0.167 HD
ATOM     73  C   UNL A   1      41.008  32.007  36.231  1.00  0.00     0.074 A 
ATOM     74  C   UNL A   1      41.926  31.739  37.319  1.00  0.00     0.031 C 
ATOM     75  C   UNL A   1      39.948  32.848  36.317  1.00  0.00     0.037 A 
BRANCH  62  76
ATOM     76  C   UNL A   1      36.678  33.359  31.090  1.00  0.00     0.058 A 
ATOM     77  C   UNL A   1      36.888  34.330  30.096  1.00  0.00     0.135 A 
ATOM     78  C   UNL A   1      35.352  32.990  31.369  1.00  0.00     0.135 A 
ATOM     79  F   UNL A   1      38.135  34.732  29.797  1.00  0.00    -0.206 F 
ATOM     80  C   UNL A   1      35.828  34.933  29.430  1.00  0.00     0.059 A 
ATOM     81  C   UNL A   1      34.276  33.559  30.694  1.00  0.00     0.059 A 
ATOM     82  F   UNL A   1      35.092  32.068  32.309  1.00  0.00    -0.206 F 
ATOM     83  C   UNL A   1      34.524  34.542  29.737  1.00  0.00     0.060 A 
BRANCH  83  84
ATOM     84  S   UNL A   1      33.157  35.335  28.864  1.00  0.00     0.124 S 
ATOM     85  O   UNL A   1      33.866  36.291  28.020  1.00  0.00    -0.237 OA
ATOM     86  O   UNL A   1      32.538  34.212  28.166  1.00  0.00    -0.237 OA
ATOM     87  O   UNL A   1      32.358  35.917  29.939  1.00  0.00    -0.744 OA
ENDBRANCH  83  84
ENDBRANCH  62  76
BRANCH  63  88
ATOM     88  C   UNL A   1      44.542  28.987  35.464  1.00  0.00     0.058 A 
ATOM     89  C   UNL A   1      45.816  29.564  35.350  1.00  0.00     0.135 A 
ATOM     90  C   UNL A   1      44.422  27.810  36.219  1.00  0.00     0.135 A 
ATOM     91  F   UNL A   1      45.982  30.686  34.635  1.00  0.00    -0.206 F 
ATOM     92  C   UNL A   1      46.933  28.987  35.947  1.00  0.00     0.059 A 
ATOM     93  C   UNL A   1      45.520  27.229  36.846  1.00  0.00     0.059 A 
ATOM     94  F   UNL A   1      43.223  27.229  36.374  1.00  0.00    -0.206 F 
ATOM     95  C   UNL A   1      46.774  27.820  36.695  1.00  0.00     0.060 A 
BRANCH  95  96
ATOM     96  S   UNL A   1      48.222  27.106  37.505  1.00  0.00     0.124 S 
ATOM     97  O   UNL A   1      48.934  26.525  36.373  1.00  0.00    -0.237 OA
ATOM     98  O   UNL A   1      48.842  28.279  38.115  1.00  0.00    -0.237 OA
ATOM     99  O   UNL A   1      47.642  26.152  38.446  1.00  0.00    -0.744 OA
ENDBRANCH  95  96
ENDBRANCH  63  88
BRANCH  75 100
ATOM    100  C   UNL A   1      39.697  33.512  37.643  1.00  0.00     0.058 A 
ATOM    101  C   UNL A   1      40.367  34.686  38.022  1.00  0.00     0.135 A 
ATOM    102  C   UNL A   1      38.735  32.991  38.524  1.00  0.00     0.135 A 
ATOM    103  F   UNL A   1      41.301  35.220  37.219  1.00  0.00    -0.206 F 
ATOM    104  C   UNL A   1      40.109  35.308  39.239  1.00  0.00     0.059 A 
ATOM    105  C   UNL A   1      38.440  33.613  39.733  1.00  0.00     0.059 A 
ATOM    106  F   UNL A   1      38.058  31.876  38.205  1.00  0.00    -0.206 F 
ATOM    107  C   UNL A   1      39.142  34.764  40.088  1.00  0.00     0.060 A 
BRANCH 107 108
ATOM    108  S   UNL A   1      38.792  35.600  41.649  1.00  0.00     0.124 S 
ATOM    109  O   UNL A   1      39.791  35.006  42.530  1.00  0.00    -0.237 OA
ATOM    110  O   UNL A   1      39.001  37.003  41.307  1.00  0.00    -0.237 OA
ATOM    111  O   UNL A   1      37.408  35.230  41.930  1.00  0.00    -0.744 OA
ENDBRANCH 107 108
ENDBRANCH  75 100
ENDBRANCH  49  50
ENDBRANCH  41  44
ENDBRANCH  39  40
ENDBRANCH  38  39
ENDBRANCH  37  38
ENDBRANCH  36  37
ENDBRANCH  35  36
ENDBRANCH  34  35
ENDBRANCH   3  34
TORSDOF 26
ENDMDL
MODEL 2
REMARK VINA RESULT:     -10.5      3.894     11.644
REMARK SMILES CCCCCCNC(=O)Oc1cccc(-c2ccc([C@@H](C)C(=O)NCCCCCCNC(=O)c3ccc(-c4c5nc(c(-c6c(F)cc(S(=O)(=O)[O-])cc6F)c6ccc([nH]6)c(-c6c(F)cc(S(=O)(=O)[O-])cc6F)c6nc(c(-c7c(F)cc(S(=O)(=O)[O-])cc7F)c7ccc4[nH]7)C=C6)C=C5)cc3)cc2C(F)(F)F)c1
REMARK SMILES IDX 22 1 23 2 24 3 20 5 21 6 19 7 16 8 17 9 101 10 18 11 100 12
REMARK SMILES IDX 15 13 11 14 12 15 106 16 13 17 14 18 10 19 8 20 7 21 9 23
REMARK SMILES IDX 6 24 5 25 4 26 3 27 2 28 1 29 102 30 103 31 104 32 105 33
REMARK SMILES IDX 25 34 26 35 27 36 28 37 29 38 30 39 31 40 32 41 33 43 34 44
REMARK SMILES IDX 35 45 99 46 36 47 98 48 37 49 38 50 39 51 92 52 40 53 97 54
REMARK SMILES IDX 91 55 93 56 41 57 96 58 90 59 89 60 42 62 76 63 55 64 75 65
REMARK SMILES IDX 56 66 59 67 74 68 94 69 57 70 58 71 73 73 95 74 60 75 43 76
REMARK SMILES IDX 44 77 53 78 45 79 46 80 52 81 54 82 47 83 48 84 49 85 50 86
REMARK SMILES IDX 51 87 77 88 78 89 87 90 79 91 80 92 86 93 88 94 81 95 82 96
REMARK SMILES IDX 83 97 84 98 85 99 61 100 62 101 71 102 63 103 64 104 70 105
REMARK SMILES IDX 72 106 65 107 66 108 67 109 68 110 69 111
REMARK H PARENT 24 4 7 22 31 42 93 61 59 72
REMARK Flexibility Score: inf
ROOT
ATOM      1  C   UNL A   1      34.766  35.227  33.606  1.00  0.00     0.227 C 
ATOM      2  O   UNL A   1      34.836  34.857  34.785  1.00  0.00    -0.274 OA
ATOM      3  N   UNL A   1      34.156  36.423  33.385  1.00  0.00    -0.356 N 
ATOM      4  H   UNL A   1      33.912  36.908  34.206  1.00  0.00     0.163 HD
ENDROOT
BRANCH   1   5
ATOM      5  C   UNL A   1      35.375  34.355  32.496  1.00  0.00     0.105 C 
ATOM      6  C   UNL A   1      34.683  33.006  32.302  1.00  0.00     0.023 C 
BRANCH   5   7
ATOM      7  C   UNL A   1      36.895  34.317  32.495  1.00  0.00    -0.035 A 
ATOM      8  C   UNL A   1      39.758  34.413  32.386  1.00  0.00    -0.006 A 
ATOM      9  C   UNL A   1      39.052  34.416  33.603  1.00  0.00     0.009 A 
ATOM     10  C   UNL A   1      39.004  34.259  31.204  1.00  0.00     0.064 A 
ATOM     11  C   UNL A   1      37.659  34.316  33.657  1.00  0.00     0.005 A 
ATOM     12  C   UNL A   1      37.588  34.276  31.275  1.00  0.00     0.018 A 
BRANCH   8  13
ATOM     13  C   UNL A   1      41.228  34.569  32.432  1.00  0.00    -0.014 A 
ATOM     14  C   UNL A   1      43.463  33.914  31.744  1.00  0.00     0.133 A 
ATOM     15  C   UNL A   1      44.035  34.884  32.561  1.00  0.00     0.047 A 
ATOM     16  C   UNL A   1      42.078  33.765  31.653  1.00  0.00     0.056 A 
ATOM     17  C   UNL A   1      43.208  35.721  33.302  1.00  0.00     0.004 A 
ATOM     18  C   UNL A   1      41.822  35.553  33.248  1.00  0.00     0.009 A 
BRANCH  14  19
ATOM     19  O   UNL A   1      44.353  32.988  31.166  1.00  0.00    -0.410 OA
BRANCH  19  20
ATOM     20  C   UNL A   1      44.472  31.701  31.662  1.00  0.00     0.412 C 
ATOM     21  N   UNL A   1      43.869  30.770  30.860  1.00  0.00    -0.321 N 
ATOM     22  H   UNL A   1      43.862  29.840  31.187  1.00  0.00     0.167 HD
ATOM     23  O   UNL A   1      45.040  31.374  32.696  1.00  0.00    -0.224 OA
BRANCH  21  24
ATOM     24  C   UNL A   1      43.237  31.014  29.578  1.00  0.00     0.119 C 
BRANCH  24  25
ATOM     25  C   UNL A   1      44.242  30.945  28.426  1.00  0.00     0.021 C 
BRANCH  25  26
ATOM     26  C   UNL A   1      43.694  30.337  27.130  1.00  0.00     0.002 C 
BRANCH  26  27
ATOM     27  C   UNL A   1      43.419  28.830  27.173  1.00  0.00    -0.000 C 
BRANCH  27  28
ATOM     28  C   UNL A   1      42.714  28.258  25.941  1.00  0.00    -0.003 C 
ATOM     29  C   UNL A   1      41.548  29.111  25.465  1.00  0.00     0.004 C 
ENDBRANCH  27  28
ENDBRANCH  26  27
ENDBRANCH  25  26
ENDBRANCH  24  25
ENDBRANCH  21  24
ENDBRANCH  19  20
ENDBRANCH  14  19
ENDBRANCH   8  13
BRANCH  10  30
ATOM     30  C   UNL A   1      39.601  34.040  29.830  1.00  0.00     0.417 C 
ATOM     31  F   UNL A   1      38.676  34.244  28.841  1.00  0.00    -0.166 F 
ATOM     32  F   UNL A   1      40.613  34.910  29.557  1.00  0.00    -0.166 F 
ATOM     33  F   UNL A   1      40.095  32.798  29.581  1.00  0.00    -0.166 F 
ENDBRANCH  10  30
ENDBRANCH   5   7
ENDBRANCH   1   5
BRANCH   3  34
ATOM     34  C   UNL A   1      33.801  37.111  32.162  1.00  0.00     0.116 C 
BRANCH  34  35
ATOM     35  C   UNL A   1      32.865  36.264  31.295  1.00  0.00     0.021 C 
BRANCH  35  36
ATOM     36  C   UNL A   1      33.340  36.105  29.848  1.00  0.00     0.002 C 
BRANCH  36  37
ATOM     37  C   UNL A   1      33.135  34.707  29.252  1.00  0.00     0.002 C 
BRANCH  37  38
ATOM     38  C   UNL A   1      34.164  34.286  28.197  1.00  0.00     0.021 C 
BRANCH  38  39
ATOM     39  C   UNL A   1      34.869  32.964  28.489  1.00  0.00     0.116 C 
BRANCH  39  40
ATOM     40  N   UNL A   1      34.280  31.866  27.739  1.00  0.00    -0.352 N 
ATOM     41  C   UNL A   1      34.808  30.638  27.427  1.00  0.00     0.251 C 
ATOM     42  H   UNL A   1      33.368  32.027  27.404  1.00  0.00     0.163 HD
ATOM     43  O   UNL A   1      34.271  29.942  26.571  1.00  0.00    -0.269 OA
BRANCH  41  44
ATOM     44  C   UNL A   1      36.023  30.158  28.120  1.00  0.00     0.039 A 
ATOM     45  C   UNL A   1      37.258  30.261  27.475  1.00  0.00     0.014 A 
ATOM     46  C   UNL A   1      35.940  29.575  29.388  1.00  0.00     0.014 A 
ATOM     47  C   UNL A   1      38.416  29.822  28.122  1.00  0.00     0.010 A 
ATOM     48  C   UNL A   1      37.101  29.202  30.059  1.00  0.00     0.010 A 
ATOM     49  C   UNL A   1      38.350  29.311  29.429  1.00  0.00    -0.014 A 
BRANCH  49  50
ATOM     50  C   UNL A   1      39.573  28.873  30.148  1.00  0.00     0.031 A 
ATOM     51  C   UNL A   1      39.974  29.545  31.434  1.00  0.00     0.074 A 
ATOM     52  C   UNL A   1      40.353  27.912  29.613  1.00  0.00     0.049 A 
ATOM     53  N   UNL A   1      41.040  29.355  32.168  1.00  0.00    -0.248 NA
ATOM     54  C   UNL A   1      39.070  30.588  31.946  1.00  0.00     0.031 C 
ATOM     55  C   UNL A   1      40.093  27.217  28.351  1.00  0.00     0.029 A 
ATOM     56  N   UNL A   1      41.529  27.362  30.057  1.00  0.00    -0.354 N 
ATOM     57  C   UNL A   1      40.942  30.261  33.219  1.00  0.00     0.074 A 
ATOM     58  C   UNL A   1      39.742  31.037  32.996  1.00  0.00     0.031 C 
ATOM     59  C   UNL A   1      41.068  26.319  28.133  1.00  0.00     0.029 A 
ATOM     60  C   UNL A   1      42.040  26.400  29.219  1.00  0.00     0.049 A 
ATOM     61  H   UNL A   1      41.965  27.630  30.899  1.00  0.00     0.167 HD
ATOM     62  C   UNL A   1      41.765  30.415  34.284  1.00  0.00     0.037 A 
ATOM     63  C   UNL A   1      43.169  25.671  29.310  1.00  0.00     0.037 A 
ATOM     64  C   UNL A   1      42.945  29.621  34.511  1.00  0.00     0.049 A 
ATOM     65  C   UNL A   1      44.067  25.858  30.503  1.00  0.00     0.074 A 
ATOM     66  C   UNL A   1      43.818  29.663  35.583  1.00  0.00     0.029 A 
ATOM     67  N   UNL A   1      43.416  28.639  33.650  1.00  0.00    -0.354 N 
ATOM     68  N   UNL A   1      43.931  26.681  31.516  1.00  0.00    -0.248 NA
ATOM     69  C   UNL A   1      45.267  25.013  30.571  1.00  0.00     0.031 C 
ATOM     70  C   UNL A   1      44.840  28.735  35.352  1.00  0.00     0.029 A 
ATOM     71  C   UNL A   1      44.576  28.080  34.160  1.00  0.00     0.049 A 
ATOM     72  H   UNL A   1      42.989  28.378  32.803  1.00  0.00     0.167 HD
ATOM     73  C   UNL A   1      45.010  26.431  32.356  1.00  0.00     0.074 A 
ATOM     74  C   UNL A   1      45.785  25.375  31.738  1.00  0.00     0.031 C 
ATOM     75  C   UNL A   1      45.329  27.021  33.535  1.00  0.00     0.037 A 
BRANCH  62  76
ATOM     76  C   UNL A   1      41.415  31.480  35.287  1.00  0.00     0.058 A 
ATOM     77  C   UNL A   1      42.217  32.620  35.463  1.00  0.00     0.135 A 
ATOM     78  C   UNL A   1      40.250  31.376  36.065  1.00  0.00     0.135 A 
ATOM     79  F   UNL A   1      43.350  32.765  34.757  1.00  0.00    -0.206 F 
ATOM     80  C   UNL A   1      41.895  33.601  36.395  1.00  0.00     0.059 A 
ATOM     81  C   UNL A   1      39.893  32.360  36.983  1.00  0.00     0.059 A 
ATOM     82  F   UNL A   1      39.446  30.308  35.938  1.00  0.00    -0.206 F 
ATOM     83  C   UNL A   1      40.731  33.461  37.152  1.00  0.00     0.060 A 
BRANCH  83  84
ATOM     84  S   UNL A   1      40.328  34.742  38.358  1.00  0.00     0.124 S 
ATOM     85  O   UNL A   1      41.532  34.756  39.182  1.00  0.00    -0.237 OA
ATOM     86  O   UNL A   1      40.124  35.914  37.513  1.00  0.00    -0.237 OA
ATOM     87  O   UNL A   1      39.127  34.229  39.011  1.00  0.00    -0.744 OA
ENDBRANCH  83  84
ENDBRANCH  62  76
BRANCH  63  88
ATOM     88  C   UNL A   1      43.498  24.676  28.254  1.00  0.00     0.058 A 
ATOM     89  C   UNL A   1      44.380  24.996  27.211  1.00  0.00     0.135 A 
ATOM     90  C   UNL A   1      42.949  23.384  28.274  1.00  0.00     0.135 A 
ATOM     91  F   UNL A   1      44.925  26.219  27.147  1.00  0.00    -0.206 F 
ATOM     92  C   UNL A   1      44.694  24.077  26.214  1.00  0.00     0.059 A 
ATOM     93  C   UNL A   1      43.268  22.439  27.302  1.00  0.00     0.059 A 
ATOM     94  F   UNL A   1      42.115  23.022  29.259  1.00  0.00    -0.206 F 
ATOM     95  C   UNL A   1      44.134  22.801  26.271  1.00  0.00     0.060 A 
BRANCH  95  96
ATOM     96  S   UNL A   1      44.587  21.600  24.999  1.00  0.00     0.124 S 
ATOM     97  O   UNL A   1      43.602  20.548  25.225  1.00  0.00    -0.237 OA
ATOM     98  O   UNL A   1      44.423  22.376  23.773  1.00  0.00    -0.237 OA
ATOM     99  O   UNL A   1      45.966  21.259  25.336  1.00  0.00    -0.744 OA
ENDBRANCH  95  96
ENDBRANCH  63  88
BRANCH  75 100
ATOM    100  C   UNL A   1      46.547  26.511  34.256  1.00  0.00     0.058 A 
ATOM    101  C   UNL A   1      46.453  25.583  35.303  1.00  0.00     0.135 A 
ATOM    102  C   UNL A   1      47.829  26.923  33.856  1.00  0.00     0.135 A 
ATOM    103  F   UNL A   1      45.251  25.162  35.728  1.00  0.00    -0.206 F 
ATOM    104  C   UNL A   1      47.587  25.097  35.947  1.00  0.00     0.059 A 
ATOM    105  C   UNL A   1      48.978  26.429  34.467  1.00  0.00     0.059 A 
ATOM    106  F   UNL A   1      47.975  27.803  32.853  1.00  0.00    -0.206 F 
ATOM    107  C   UNL A   1      48.846  25.526  35.519  1.00  0.00     0.060 A 
BRANCH 107 108
ATOM    108  S   UNL A   1      50.311  24.861  36.340  1.00  0.00     0.124 S 
ATOM    109  O   UNL A   1      50.053  25.215  37.731  1.00  0.00    -0.237 OA
ATOM    110  O   UNL A   1      50.230  23.440  36.021  1.00  0.00    -0.237 OA
ATOM    111  O   UNL A   1      51.411  25.579  35.702  1.00  0.00    -0.744 OA
ENDBRANCH 107 108
ENDBRANCH  75 100
ENDBRANCH  49  50
ENDBRANCH  41  44
ENDBRANCH  39  40
ENDBRANCH  38  39
ENDBRANCH  37  38
ENDBRANCH  36  37
ENDBRANCH  35  36
ENDBRANCH  34  35
ENDBRANCH   3  34
TORSDOF 26
ENDMDL
MODEL 3
REMARK VINA RESULT:     -10.1      3.905     12.057
REMARK SMILES CCCCCCNC(=O)Oc1cccc(-c2ccc([C@@H](C)C(=O)NCCCCCCNC(=O)c3ccc(-c4c5nc(c(-c6c(F)cc(S(=O)(=O)[O-])cc6F)c6ccc([nH]6)c(-c6c(F)cc(S(=O)(=O)[O-])cc6F)c6nc(c(-c7c(F)cc(S(=O)(=O)[O-])cc7F)c7ccc4[nH]7)C=C6)C=C5)cc3)cc2C(F)(F)F)c1
REMARK SMILES IDX 22 1 23 2 24 3 20 5 21 6 19 7 16 8 17 9 101 10 18 11 100 12
REMARK SMILES IDX 15 13 11 14 12 15 106 16 13 17 14 18 10 19 8 20 7 21 9 23
REMARK SMILES IDX 6 24 5 25 4 26 3 27 2 28 1 29 102 30 103 31 104 32 105 33
REMARK SMILES IDX 25 34 26 35 27 36 28 37 29 38 30 39 31 40 32 41 33 43 34 44
REMARK SMILES IDX 35 45 99 46 36 47 98 48 37 49 38 50 39 51 92 52 40 53 97 54
REMARK SMILES IDX 91 55 93 56 41 57 96 58 90 59 89 60 42 62 76 63 55 64 75 65
REMARK SMILES IDX 56 66 59 67 74 68 94 69 57 70 58 71 73 73 95 74 60 75 43 76
REMARK SMILES IDX 44 77 53 78 45 79 46 80 52 81 54 82 47 83 48 84 49 85 50 86
REMARK SMILES IDX 51 87 77 88 78 89 87 90 79 91 80 92 86 93 88 94 81 95 82 96
REMARK SMILES IDX 83 97 84 98 85 99 61 100 62 101 71 102 63 103 64 104 70 105
REMARK SMILES IDX 72 106 65 107 66 108 67 109 68 110 69 111
REMARK H PARENT 24 4 7 22 31 42 93 61 59 72
REMARK Flexibility Score: inf
ROOT
ATOM      1  C   UNL A   1      34.818  35.270  33.642  1.00  0.00     0.227 C 
ATOM      2  O   UNL A   1      34.881  34.876  34.814  1.00  0.00    -0.274 OA
ATOM      3  N   UNL A   1      34.220  36.475  33.442  1.00  0.00    -0.356 N 
ATOM      4  H   UNL A   1      33.977  36.946  34.272  1.00  0.00     0.163 HD
ENDROOT
BRANCH   1   5
ATOM      5  C   UNL A   1      35.424  34.415  32.517  1.00  0.00     0.105 C 
ATOM      6  C   UNL A   1      34.731  33.069  32.306  1.00  0.00     0.023 C 
BRANCH   5   7
ATOM      7  C   UNL A   1      36.944  34.376  32.510  1.00  0.00    -0.035 A 
ATOM      8  C   UNL A   1      39.806  34.470  32.387  1.00  0.00    -0.006 A 
ATOM      9  C   UNL A   1      39.105  34.506  33.607  1.00  0.00     0.009 A 
ATOM     10  C   UNL A   1      39.048  34.284  31.213  1.00  0.00     0.064 A 
ATOM     11  C   UNL A   1      37.713  34.407  33.669  1.00  0.00     0.005 A 
ATOM     12  C   UNL A   1      37.632  34.303  31.290  1.00  0.00     0.018 A 
BRANCH   8  13
ATOM     13  C   UNL A   1      41.277  34.627  32.423  1.00  0.00    -0.014 A 
ATOM     14  C   UNL A   1      43.510  33.950  31.748  1.00  0.00     0.133 A 
ATOM     15  C   UNL A   1      44.084  34.946  32.532  1.00  0.00     0.047 A 
ATOM     16  C   UNL A   1      42.124  33.799  31.667  1.00  0.00     0.056 A 
ATOM     17  C   UNL A   1      43.260  35.806  33.249  1.00  0.00     0.004 A 
ATOM     18  C   UNL A   1      41.874  35.637  33.205  1.00  0.00     0.009 A 
BRANCH  14  19
ATOM     19  O   UNL A   1      44.397  33.007  31.197  1.00  0.00    -0.410 OA
BRANCH  19  20
ATOM     20  C   UNL A   1      44.315  31.665  31.528  1.00  0.00     0.412 C 
ATOM     21  N   UNL A   1      45.349  31.254  32.326  1.00  0.00    -0.321 N 
ATOM     22  H   UNL A   1      45.385  30.295  32.547  1.00  0.00     0.167 HD
ATOM     23  O   UNL A   1      43.440  30.885  31.174  1.00  0.00    -0.224 OA
BRANCH  21  24
ATOM     24  C   UNL A   1      46.397  32.090  32.877  1.00  0.00     0.119 C 
BRANCH  24  25
ATOM     25  C   UNL A   1      46.139  32.432  34.346  1.00  0.00     0.021 C 
BRANCH  25  26
ATOM     26  C   UNL A   1      47.399  32.539  35.213  1.00  0.00     0.002 C 
BRANCH  26  27
ATOM     27  C   UNL A   1      48.190  31.239  35.390  1.00  0.00    -0.000 C 
BRANCH  27  28
ATOM     28  C   UNL A   1      47.633  30.273  36.440  1.00  0.00    -0.003 C 
ATOM     29  C   UNL A   1      47.115  30.972  37.686  1.00  0.00     0.004 C 
ENDBRANCH  27  28
ENDBRANCH  26  27
ENDBRANCH  25  26
ENDBRANCH  24  25
ENDBRANCH  21  24
ENDBRANCH  19  20
ENDBRANCH  14  19
ENDBRANCH   8  13
BRANCH  10  30
ATOM     30  C   UNL A   1      39.639  34.029  29.843  1.00  0.00     0.417 C 
ATOM     31  F   UNL A   1      38.665  33.772  28.915  1.00  0.00    -0.166 F 
ATOM     32  F   UNL A   1      40.318  35.107  29.359  1.00  0.00    -0.166 F 
ATOM     33  F   UNL A   1      40.489  32.973  29.743  1.00  0.00    -0.166 F 
ENDBRANCH  10  30
ENDBRANCH   5   7
ENDBRANCH   1   5
BRANCH   3  34
ATOM     34  C   UNL A   1      33.874  37.190  32.232  1.00  0.00     0.116 C 
BRANCH  34  35
ATOM     35  C   UNL A   1      32.886  36.395  31.375  1.00  0.00     0.021 C 
BRANCH  35  36
ATOM     36  C   UNL A   1      33.330  36.224  29.919  1.00  0.00     0.002 C 
BRANCH  36  37
ATOM     37  C   UNL A   1      32.982  34.867  29.294  1.00  0.00     0.002 C 
BRANCH  37  38
ATOM     38  C   UNL A   1      33.950  34.375  28.213  1.00  0.00     0.021 C 
BRANCH  38  39
ATOM     39  C   UNL A   1      34.633  33.047  28.528  1.00  0.00     0.116 C 
BRANCH  39  40
ATOM     40  N   UNL A   1      34.065  31.955  27.754  1.00  0.00    -0.352 N 
ATOM     41  C   UNL A   1      34.612  30.741  27.422  1.00  0.00     0.251 C 
ATOM     42  H   UNL A   1      33.152  32.109  27.418  1.00  0.00     0.163 HD
ATOM     43  O   UNL A   1      34.090  30.054  26.551  1.00  0.00    -0.269 OA
BRANCH  41  44
ATOM     44  C   UNL A   1      35.831  30.266  28.112  1.00  0.00     0.039 A 
ATOM     45  C   UNL A   1      37.067  30.395  27.473  1.00  0.00     0.014 A 
ATOM     46  C   UNL A   1      35.751  29.662  29.370  1.00  0.00     0.014 A 
ATOM     47  C   UNL A   1      38.228  29.962  28.118  1.00  0.00     0.010 A 
ATOM     48  C   UNL A   1      36.915  29.294  30.039  1.00  0.00     0.010 A 
ATOM     49  C   UNL A   1      38.165  29.430  29.416  1.00  0.00    -0.014 A 
BRANCH  49  50
ATOM     50  C   UNL A   1      39.391  28.996  30.133  1.00  0.00     0.031 A 
ATOM     51  C   UNL A   1      39.780  29.655  31.428  1.00  0.00     0.074 A 
ATOM     52  C   UNL A   1      40.183  28.051  29.587  1.00  0.00     0.049 A 
ATOM     53  N   UNL A   1      40.846  29.468  32.163  1.00  0.00    -0.248 NA
ATOM     54  C   UNL A   1      38.863  30.681  31.952  1.00  0.00     0.031 C 
ATOM     55  C   UNL A   1      39.934  27.370  28.315  1.00  0.00     0.029 A 
ATOM     56  N   UNL A   1      41.364  27.509  30.027  1.00  0.00    -0.354 N 
ATOM     57  C   UNL A   1      40.736  30.359  33.225  1.00  0.00     0.074 A 
ATOM     58  C   UNL A   1      39.527  31.124  33.009  1.00  0.00     0.031 C 
ATOM     59  C   UNL A   1      40.920  26.486  28.088  1.00  0.00     0.029 A 
ATOM     60  C   UNL A   1      41.889  26.565  29.177  1.00  0.00     0.049 A 
ATOM     61  H   UNL A   1      41.795  27.771  30.873  1.00  0.00     0.167 HD
ATOM     62  C   UNL A   1      41.554  30.509  34.294  1.00  0.00     0.037 A 
ATOM     63  C   UNL A   1      43.026  25.847  29.262  1.00  0.00     0.037 A 
ATOM     64  C   UNL A   1      42.742  29.725  34.514  1.00  0.00     0.049 A 
ATOM     65  C   UNL A   1      43.918  26.029  30.460  1.00  0.00     0.074 A 
ATOM     66  C   UNL A   1      43.612  29.763  35.589  1.00  0.00     0.029 A 
ATOM     67  N   UNL A   1      43.227  28.760  33.642  1.00  0.00    -0.354 N 
ATOM     68  N   UNL A   1      43.771  26.837  31.483  1.00  0.00    -0.248 NA
ATOM     69  C   UNL A   1      45.128  25.197  30.520  1.00  0.00     0.031 C 
ATOM     70  C   UNL A   1      44.645  28.850  35.349  1.00  0.00     0.029 A 
ATOM     71  C   UNL A   1      44.392  28.208  34.148  1.00  0.00     0.049 A 
ATOM     72  H   UNL A   1      42.805  28.506  32.790  1.00  0.00     0.167 HD
ATOM     73  C   UNL A   1      44.850  26.589  32.323  1.00  0.00     0.074 A 
ATOM     74  C   UNL A   1      45.639  25.550  31.693  1.00  0.00     0.031 C 
ATOM     75  C   UNL A   1      45.159  27.166  33.510  1.00  0.00     0.037 A 
BRANCH  62  76
ATOM     76  C   UNL A   1      41.189  31.556  35.310  1.00  0.00     0.058 A 
ATOM     77  C   UNL A   1      41.937  32.737  35.455  1.00  0.00     0.135 A 
ATOM     78  C   UNL A   1      40.063  31.394  36.133  1.00  0.00     0.135 A 
ATOM     79  F   UNL A   1      43.033  32.939  34.704  1.00  0.00    -0.206 F 
ATOM     80  C   UNL A   1      41.602  33.701  36.398  1.00  0.00     0.059 A 
ATOM     81  C   UNL A   1      39.692  32.359  37.065  1.00  0.00     0.059 A 
ATOM     82  F   UNL A   1      39.311  30.286  36.039  1.00  0.00    -0.206 F 
ATOM     83  C   UNL A   1      40.478  33.502  37.201  1.00  0.00     0.060 A 
BRANCH  83  84
ATOM     84  S   UNL A   1      40.056  34.763  38.422  1.00  0.00     0.124 S 
ATOM     85  O   UNL A   1      40.510  35.979  37.754  1.00  0.00    -0.237 OA
ATOM     86  O   UNL A   1      38.610  34.610  38.543  1.00  0.00    -0.237 OA
ATOM     87  O   UNL A   1      40.825  34.369  39.599  1.00  0.00    -0.744 OA
ENDBRANCH  83  84
ENDBRANCH  62  76
BRANCH  63  88
ATOM     88  C   UNL A   1      43.368  24.870  28.194  1.00  0.00     0.058 A 
ATOM     89  C   UNL A   1      43.014  23.517  28.313  1.00  0.00     0.135 A 
ATOM     90  C   UNL A   1      44.044  25.269  27.030  1.00  0.00     0.135 A 
ATOM     91  F   UNL A   1      42.372  23.087  29.410  1.00  0.00    -0.206 F 
ATOM     92  C   UNL A   1      43.330  22.591  27.324  1.00  0.00     0.059 A 
ATOM     93  C   UNL A   1      44.349  24.365  26.016  1.00  0.00     0.059 A 
ATOM     94  F   UNL A   1      44.389  26.553  26.860  1.00  0.00    -0.206 F 
ATOM     95  C   UNL A   1      43.997  23.026  26.179  1.00  0.00     0.060 A 
BRANCH  95  96
ATOM     96  S   UNL A   1      44.361  21.825  24.880  1.00  0.00     0.124 S 
ATOM     97  O   UNL A   1      44.076  22.598  23.677  1.00  0.00    -0.237 OA
ATOM     98  O   UNL A   1      45.767  21.522  25.127  1.00  0.00    -0.237 OA
ATOM     99  O   UNL A   1      43.434  20.733  25.164  1.00  0.00    -0.744 OA
ENDBRANCH  95  96
ENDBRANCH  63  88
BRANCH  75 100
ATOM    100  C   UNL A   1      46.381  26.661  34.228  1.00  0.00     0.058 A 
ATOM    101  C   UNL A   1      47.608  27.338  34.167  1.00  0.00     0.135 A 
ATOM    102  C   UNL A   1      46.305  25.510  35.030  1.00  0.00     0.135 A 
ATOM    103  F   UNL A   1      47.736  28.439  33.409  1.00  0.00    -0.206 F 
ATOM    104  C   UNL A   1      48.726  26.878  34.856  1.00  0.00     0.059 A 
ATOM    105  C   UNL A   1      47.402  25.049  35.751  1.00  0.00     0.059 A 
ATOM    106  F   UNL A   1      45.151  24.831  35.132  1.00  0.00    -0.206 F 
ATOM    107  C   UNL A   1      48.612  25.733  35.647  1.00  0.00     0.060 A 
BRANCH 107 108
ATOM    108  S   UNL A   1      50.061  25.166  36.564  1.00  0.00     0.124 S 
ATOM    109  O   UNL A   1      50.546  24.089  35.708  1.00  0.00    -0.237 OA
ATOM    110  O   UNL A   1      50.892  26.365  36.607  1.00  0.00    -0.237 OA
ATOM    111  O   UNL A   1      49.507  24.748  37.848  1.00  0.00    -0.744 OA
ENDBRANCH 107 108
ENDBRANCH  75 100
ENDBRANCH  49  50
ENDBRANCH  41  44
ENDBRANCH  39  40
ENDBRANCH  38  39
ENDBRANCH  37  38
ENDBRANCH  36  37
ENDBRANCH  35  36
ENDBRANCH  34  35
ENDBRANCH   3  34
TORSDOF 26
ENDMDL
