MODEL 1
REMARK VINA RESULT:     -11.0      0.000      0.000
REMARK SMILES COc1cc(/C=C2/SC(=O)N(c3ccc(C)c(C)c3)C2=O)ccc1OCCC(=O)NCCCCCCNC(=O)c1ccc(-c2c3nc(c(-c4c(F)cc(S(=O)(=O)[O-])cc4F)c4ccc([nH]4)c(-c4c(F)cc(S(=O)(=O)[O-])cc4F)c4nc(c(-c5c(F)cc(S(=O)(=O)[O-])cc5F)c5ccc2[nH]5)C=C4)C=C3)cc1
REMARK SMILES IDX 32 1 31 2 30 3 28 4 29 5 27 7 26 8 25 9 24 10 3 11 4 12 5 13
REMARK SMILES IDX 23 14 22 15 2 16 1 17 6 18 7 19 8 20 20 21 9 22 11 23 21 24
REMARK SMILES IDX 10 25 12 26 13 27 19 28 14 29 17 30 15 31 18 32 16 33 33 34
REMARK SMILES IDX 34 35 35 36 36 37 37 38 38 39 39 41 40 42 41 43 105 44 42 45
REMARK SMILES IDX 104 46 43 47 44 48 45 49 98 50 46 51 103 52 97 53 99 54
REMARK SMILES IDX 47 55 102 56 96 57 95 58 48 60 82 61 61 62 81 63 62 64 65 65
REMARK SMILES IDX 80 66 100 67 63 68 64 69 79 71 101 72 66 73 49 74 50 75
REMARK SMILES IDX 59 76 51 77 52 78 58 79 60 80 53 81 54 82 55 83 56 84 57 85
REMARK SMILES IDX 83 86 84 87 93 88 85 89 86 90 92 91 94 92 87 93 88 94 89 95
REMARK SMILES IDX 90 96 91 97 67 98 68 99 77 100 69 101 70 102 76 103 78 104
REMARK SMILES IDX 71 105 72 106 73 107 74 108 75 109
REMARK H PARENT 30 6 37 40 99 59 65 70
REMARK Flexibility Score: inf
ROOT
ATOM      1  C   UNL A   1      40.908  22.316  27.702  1.00  0.00     0.021 C 
ENDROOT
BRANCH   1   2
ATOM      2  C   UNL A   1      40.069  22.101  26.447  1.00  0.00     0.116 C 
BRANCH   2   3
ATOM      3  N   UNL A   1      39.080  23.140  26.223  1.00  0.00    -0.356 N 
ATOM      4  C   UNL A   1      37.804  23.022  25.755  1.00  0.00     0.223 C 
ATOM      5  O   UNL A   1      37.026  23.967  25.897  1.00  0.00    -0.275 OA
ATOM      6  H   UNL A   1      39.371  24.056  26.438  1.00  0.00     0.163 HD
BRANCH   4   7
ATOM      7  C   UNL A   1      37.348  21.714  25.153  1.00  0.00     0.141 C 
BRANCH   7   8
ATOM      8  C   UNL A   1      35.877  21.646  24.755  1.00  0.00     0.239 C 
BRANCH   8   9
ATOM      9  O   UNL A   1      35.431  22.538  23.749  1.00  0.00    -0.489 OA
BRANCH   9  10
ATOM     10  C   UNL A   1      34.199  23.108  23.666  1.00  0.00     0.161 A 
ATOM     11  C   UNL A   1      33.364  23.681  24.629  1.00  0.00     0.161 A 
ATOM     12  C   UNL A   1      32.262  24.472  24.227  1.00  0.00     0.058 A 
ATOM     13  C   UNL A   1      31.938  24.637  22.879  1.00  0.00    -0.020 A 
ATOM     14  C   UNL A   1      33.796  23.184  22.324  1.00  0.00     0.051 A 
ATOM     15  C   UNL A   1      32.694  23.943  21.928  1.00  0.00     0.012 A 
BRANCH  11  16
ATOM     16  O   UNL A   1      33.582  23.698  25.975  1.00  0.00    -0.493 OA
ATOM     17  C   UNL A   1      32.957  22.653  26.711  1.00  0.00     0.278 C 
ENDBRANCH  11  16
BRANCH  13  18
ATOM     18  C   UNL A   1      30.945  25.634  22.432  1.00  0.00     0.029 C 
ATOM     19  C   UNL A   1      31.101  26.953  22.604  1.00  0.00     0.083 C 
ATOM     20  S   UNL A   1      29.847  28.117  22.676  1.00  0.00    -0.022 SA
ATOM     21  C   UNL A   1      32.349  27.575  23.094  1.00  0.00     0.272 C 
ATOM     22  C   UNL A   1      30.773  29.068  23.864  1.00  0.00     0.298 C 
ATOM     23  N   UNL A   1      32.013  28.498  24.065  1.00  0.00    -0.236 N 
ATOM     24  O   UNL A   1      33.435  27.294  22.620  1.00  0.00    -0.268 OA
ATOM     25  O   UNL A   1      30.307  30.102  24.330  1.00  0.00    -0.260 OA
BRANCH  23  26
ATOM     26  C   UNL A   1      32.903  28.828  25.140  1.00  0.00     0.053 A 
ATOM     27  C   UNL A   1      33.744  27.864  25.713  1.00  0.00     0.027 A 
ATOM     28  C   UNL A   1      32.872  30.089  25.757  1.00  0.00     0.030 A 
ATOM     29  C   UNL A   1      34.548  28.152  26.817  1.00  0.00     0.006 A 
ATOM     30  C   UNL A   1      33.650  30.386  26.899  1.00  0.00    -0.046 A 
ATOM     31  C   UNL A   1      34.525  29.415  27.412  1.00  0.00    -0.048 A 
ATOM     32  C   UNL A   1      33.513  31.741  27.538  1.00  0.00     0.044 C 
ATOM     33  C   UNL A   1      35.435  29.646  28.586  1.00  0.00     0.044 C 
ENDBRANCH  23  26
ENDBRANCH  13  18
ENDBRANCH   9  10
ENDBRANCH   8   9
ENDBRANCH   7   8
ENDBRANCH   4   7
ENDBRANCH   2   3
ENDBRANCH   1   2
BRANCH   1  34
ATOM     34  C   UNL A   1      42.283  21.649  27.633  1.00  0.00     0.002 C 
BRANCH  34  35
ATOM     35  C   UNL A   1      43.357  22.419  26.868  1.00  0.00     0.002 C 
BRANCH  35  36
ATOM     36  C   UNL A   1      44.050  23.512  27.688  1.00  0.00     0.021 C 
BRANCH  36  37
ATOM     37  C   UNL A   1      43.884  24.933  27.150  1.00  0.00     0.116 C 
BRANCH  37  38
ATOM     38  N   UNL A   1      42.937  25.004  26.046  1.00  0.00    -0.352 N 
ATOM     39  C   UNL A   1      41.732  25.667  25.996  1.00  0.00     0.251 C 
ATOM     40  H   UNL A   1      43.192  24.515  25.231  1.00  0.00     0.163 HD
ATOM     41  O   UNL A   1      40.965  25.488  25.058  1.00  0.00    -0.269 OA
BRANCH  39  42
ATOM     42  C   UNL A   1      41.363  26.575  27.105  1.00  0.00     0.039 A 
ATOM     43  C   UNL A   1      40.509  26.111  28.107  1.00  0.00     0.014 A 
ATOM     44  C   UNL A   1      41.908  27.860  27.178  1.00  0.00     0.014 A 
ATOM     45  C   UNL A   1      40.262  26.910  29.226  1.00  0.00     0.010 A 
ATOM     46  C   UNL A   1      41.710  28.629  28.324  1.00  0.00     0.010 A 
ATOM     47  C   UNL A   1      40.894  28.158  29.366  1.00  0.00    -0.014 A 
BRANCH  47  48
ATOM     48  C   UNL A   1      40.728  28.972  30.601  1.00  0.00     0.031 A 
ATOM     49  C   UNL A   1      39.678  30.050  30.665  1.00  0.00     0.074 A 
ATOM     50  C   UNL A   1      41.558  28.779  31.647  1.00  0.00     0.049 A 
ATOM     51  N   UNL A   1      39.432  30.906  31.624  1.00  0.00    -0.248 NA
ATOM     52  C   UNL A   1      38.805  30.199  29.490  1.00  0.00     0.031 C 
ATOM     53  C   UNL A   1      42.646  27.797  31.696  1.00  0.00     0.029 A 
ATOM     54  N   UNL A   1      41.629  29.405  32.868  1.00  0.00    -0.354 N 
ATOM     55  C   UNL A   1      38.379  31.692  31.171  1.00  0.00     0.074 A 
ATOM     56  C   UNL A   1      38.071  31.249  29.827  1.00  0.00     0.031 C 
ATOM     57  C   UNL A   1      43.262  27.880  32.886  1.00  0.00     0.029 A 
ATOM     58  C   UNL A   1      42.643  28.941  33.673  1.00  0.00     0.049 A 
ATOM     59  H   UNL A   1      41.010  30.121  33.141  1.00  0.00     0.167 HD
ATOM     60  C   UNL A   1      37.712  32.673  31.823  1.00  0.00     0.037 A 
ATOM     61  C   UNL A   1      43.040  29.334  34.901  1.00  0.00     0.037 A 
ATOM     62  C   UNL A   1      38.007  33.100  33.166  1.00  0.00     0.049 A 
ATOM     63  C   UNL A   1      42.291  30.442  35.595  1.00  0.00     0.074 A 
ATOM     64  C   UNL A   1      37.365  34.066  33.922  1.00  0.00     0.029 A 
ATOM     65  N   UNL A   1      39.026  32.588  33.956  1.00  0.00    -0.354 N 
ATOM     66  N   UNL A   1      41.263  31.136  35.169  1.00  0.00    -0.248 NA
ATOM     67  C   UNL A   1      42.750  30.814  36.942  1.00  0.00     0.031 C 
ATOM     68  C   UNL A   1      38.019  34.165  35.155  1.00  0.00     0.029 A 
ATOM     69  C   UNL A   1      39.037  33.228  35.186  1.00  0.00     0.049 A 
ATOM     70  H   UNL A   1      39.649  31.877  33.684  1.00  0.00     0.167 HD
ATOM     71  C   UNL A   1      40.934  32.004  36.206  1.00  0.00     0.074 A 
ATOM     72  C   UNL A   1      41.861  31.736  37.285  1.00  0.00     0.031 C 
ATOM     73  C   UNL A   1      39.953  32.938  36.260  1.00  0.00     0.037 A 
BRANCH  60  74
ATOM     74  C   UNL A   1      36.574  33.346  31.105  1.00  0.00     0.058 A 
ATOM     75  C   UNL A   1      35.244  33.164  31.514  1.00  0.00     0.135 A 
ATOM     76  C   UNL A   1      36.819  34.236  30.047  1.00  0.00     0.135 A 
ATOM     77  F   UNL A   1      34.952  32.311  32.508  1.00  0.00    -0.206 F 
ATOM     78  C   UNL A   1      34.194  33.830  30.891  1.00  0.00     0.059 A 
ATOM     79  C   UNL A   1      35.786  34.935  29.428  1.00  0.00     0.059 A 
ATOM     80  F   UNL A   1      38.072  34.446  29.615  1.00  0.00    -0.206 F 
ATOM     81  C   UNL A   1      34.475  34.719  29.853  1.00  0.00     0.060 A 
BRANCH  81  82
ATOM     82  S   UNL A   1      33.103  35.600  29.079  1.00  0.00     0.124 S 
ATOM     83  O   UNL A   1      32.507  34.549  28.260  1.00  0.00    -0.237 OA
ATOM     84  O   UNL A   1      32.318  36.026  30.234  1.00  0.00    -0.237 OA
ATOM     85  O   UNL A   1      33.760  36.674  28.340  1.00  0.00    -0.744 OA
ENDBRANCH  81  82
ENDBRANCH  60  74
BRANCH  61  86
ATOM     86  C   UNL A   1      44.203  28.682  35.562  1.00  0.00     0.058 A 
ATOM     87  C   UNL A   1      45.515  29.121  35.325  1.00  0.00     0.135 A 
ATOM     88  C   UNL A   1      44.031  27.582  36.418  1.00  0.00     0.135 A 
ATOM     89  F   UNL A   1      45.734  30.166  34.511  1.00  0.00    -0.206 F 
ATOM     90  C   UNL A   1      46.614  28.473  35.878  1.00  0.00     0.059 A 
ATOM     91  C   UNL A   1      45.112  26.935  37.007  1.00  0.00     0.059 A 
ATOM     92  F   UNL A   1      42.797  27.131  36.695  1.00  0.00    -0.206 F 
ATOM     93  C   UNL A   1      46.402  27.376  36.714  1.00  0.00     0.060 A 
BRANCH  93  94
ATOM     94  S   UNL A   1      47.833  26.542  37.434  1.00  0.00     0.124 S 
ATOM     95  O   UNL A   1      47.370  25.159  37.486  1.00  0.00    -0.237 OA
ATOM     96  O   UNL A   1      48.880  26.829  36.458  1.00  0.00    -0.237 OA
ATOM     97  O   UNL A   1      47.992  27.204  38.725  1.00  0.00    -0.744 OA
ENDBRANCH  93  94
ENDBRANCH  61  86
BRANCH  73  98
ATOM     98  C   UNL A   1      39.796  33.710  37.541  1.00  0.00     0.058 A 
ATOM     99  C   UNL A   1      38.941  33.276  38.566  1.00  0.00     0.135 A 
ATOM    100  C   UNL A   1      40.551  34.873  37.766  1.00  0.00     0.135 A 
ATOM    101  F   UNL A   1      38.192  32.174  38.400  1.00  0.00    -0.206 F 
ATOM    102  C   UNL A   1      38.823  33.981  39.760  1.00  0.00     0.059 A 
ATOM    103  C   UNL A   1      40.470  35.577  38.963  1.00  0.00     0.059 A 
ATOM    104  F   UNL A   1      41.392  35.326  36.823  1.00  0.00    -0.206 F 
ATOM    105  C   UNL A   1      39.593  35.129  39.950  1.00  0.00     0.060 A 
BRANCH 105 106
ATOM    106  S   UNL A   1      39.455  36.014  41.518  1.00  0.00     0.124 S 
ATOM    107  O   UNL A   1      38.017  35.971  41.755  1.00  0.00    -0.237 OA
ATOM    108  O   UNL A   1      40.270  35.195  42.410  1.00  0.00    -0.237 OA
ATOM    109  O   UNL A   1      40.003  37.332  41.213  1.00  0.00    -0.744 OA
ENDBRANCH 105 106
ENDBRANCH  73  98
ENDBRANCH  47  48
ENDBRANCH  39  42
ENDBRANCH  37  38
ENDBRANCH  36  37
ENDBRANCH  35  36
ENDBRANCH  34  35
ENDBRANCH   1  34
TORSDOF 22
ENDMDL
MODEL 2
REMARK VINA RESULT:     -10.7      0.570      7.748
REMARK SMILES COc1cc(/C=C2/SC(=O)N(c3ccc(C)c(C)c3)C2=O)ccc1OCCC(=O)NCCCCCCNC(=O)c1ccc(-c2c3nc(c(-c4c(F)cc(S(=O)(=O)[O-])cc4F)c4ccc([nH]4)c(-c4c(F)cc(S(=O)(=O)[O-])cc4F)c4nc(c(-c5c(F)cc(S(=O)(=O)[O-])cc5F)c5ccc2[nH]5)C=C4)C=C3)cc1
REMARK SMILES IDX 32 1 31 2 30 3 28 4 29 5 27 7 26 8 25 9 24 10 3 11 4 12 5 13
REMARK SMILES IDX 23 14 22 15 2 16 1 17 6 18 7 19 8 20 20 21 9 22 11 23 21 24
REMARK SMILES IDX 10 25 12 26 13 27 19 28 14 29 17 30 15 31 18 32 16 33 33 34
REMARK SMILES IDX 34 35 35 36 36 37 37 38 38 39 39 41 40 42 41 43 105 44 42 45
REMARK SMILES IDX 104 46 43 47 44 48 45 49 98 50 46 51 103 52 97 53 99 54
REMARK SMILES IDX 47 55 102 56 96 57 95 58 48 60 82 61 61 62 81 63 62 64 65 65
REMARK SMILES IDX 80 66 100 67 63 68 64 69 79 71 101 72 66 73 49 74 50 75
REMARK SMILES IDX 59 76 51 77 52 78 58 79 60 80 53 81 54 82 55 83 56 84 57 85
REMARK SMILES IDX 83 86 84 87 93 88 85 89 86 90 92 91 94 92 87 93 88 94 89 95
REMARK SMILES IDX 90 96 91 97 67 98 68 99 77 100 69 101 70 102 76 103 78 104
REMARK SMILES IDX 71 105 72 106 73 107 74 108 75 109
REMARK H PARENT 30 6 37 40 99 59 65 70
REMARK Flexibility Score: inf
ROOT
ATOM      1  C   UNL A   1      40.554  22.057  27.817  1.00  0.00     0.021 C 
ENDROOT
BRANCH   1   2
ATOM      2  C   UNL A   1      39.972  22.110  26.408  1.00  0.00     0.116 C 
BRANCH   2   3
ATOM      3  N   UNL A   1      39.020  23.189  26.213  1.00  0.00    -0.356 N 
ATOM      4  C   UNL A   1      37.855  23.185  25.501  1.00  0.00     0.223 C 
ATOM      5  O   UNL A   1      37.044  24.095  25.679  1.00  0.00    -0.275 OA
ATOM      6  H   UNL A   1      39.245  24.039  26.655  1.00  0.00     0.163 HD
BRANCH   4   7
ATOM      7  C   UNL A   1      37.548  22.029  24.579  1.00  0.00     0.141 C 
BRANCH   7   8
ATOM      8  C   UNL A   1      36.073  21.676  24.429  1.00  0.00     0.239 C 
BRANCH   8   9
ATOM      9  O   UNL A   1      35.129  22.547  25.028  1.00  0.00    -0.489 OA
BRANCH   9  10
ATOM     10  C   UNL A   1      33.965  22.978  24.473  1.00  0.00     0.161 A 
ATOM     11  C   UNL A   1      32.647  22.975  24.938  1.00  0.00     0.161 A 
ATOM     12  C   UNL A   1      31.666  23.758  24.283  1.00  0.00     0.058 A 
ATOM     13  C   UNL A   1      31.965  24.484  23.128  1.00  0.00    -0.020 A 
ATOM     14  C   UNL A   1      34.224  23.614  23.249  1.00  0.00     0.051 A 
ATOM     15  C   UNL A   1      33.251  24.365  22.589  1.00  0.00     0.012 A 
BRANCH  11  16
ATOM     16  O   UNL A   1      32.202  22.403  26.093  1.00  0.00    -0.493 OA
ATOM     17  C   UNL A   1      32.059  23.286  27.199  1.00  0.00     0.278 C 
ENDBRANCH  11  16
BRANCH  13  18
ATOM     18  C   UNL A   1      31.030  25.479  22.569  1.00  0.00     0.029 C 
ATOM     19  C   UNL A   1      31.209  26.802  22.686  1.00  0.00     0.083 C 
ATOM     20  S   UNL A   1      29.985  27.997  22.617  1.00  0.00    -0.022 SA
ATOM     21  C   UNL A   1      32.440  27.419  23.226  1.00  0.00     0.272 C 
ATOM     22  C   UNL A   1      30.857  28.985  23.816  1.00  0.00     0.298 C 
ATOM     23  N   UNL A   1      32.065  28.397  24.126  1.00  0.00    -0.236 N 
ATOM     24  O   UNL A   1      33.546  27.089  22.839  1.00  0.00    -0.268 OA
ATOM     25  O   UNL A   1      30.389  30.051  24.199  1.00  0.00    -0.260 OA
BRANCH  23  26
ATOM     26  C   UNL A   1      32.892  28.760  25.240  1.00  0.00     0.053 A 
ATOM     27  C   UNL A   1      33.606  27.796  25.964  1.00  0.00     0.027 A 
ATOM     28  C   UNL A   1      32.914  30.073  25.740  1.00  0.00     0.030 A 
ATOM     29  C   UNL A   1      34.342  28.127  27.104  1.00  0.00     0.006 A 
ATOM     30  C   UNL A   1      33.622  30.418  26.913  1.00  0.00    -0.046 A 
ATOM     31  C   UNL A   1      34.373  29.438  27.582  1.00  0.00    -0.048 A 
ATOM     32  C   UNL A   1      33.544  31.833  27.418  1.00  0.00     0.044 C 
ATOM     33  C   UNL A   1      35.205  29.711  28.804  1.00  0.00     0.044 C 
ENDBRANCH  23  26
ENDBRANCH  13  18
ENDBRANCH   9  10
ENDBRANCH   8   9
ENDBRANCH   7   8
ENDBRANCH   4   7
ENDBRANCH   2   3
ENDBRANCH   1   2
BRANCH   1  34
ATOM     34  C   UNL A   1      41.939  21.409  27.876  1.00  0.00     0.002 C 
BRANCH  34  35
ATOM     35  C   UNL A   1      43.035  22.113  27.080  1.00  0.00     0.002 C 
BRANCH  35  36
ATOM     36  C   UNL A   1      43.818  23.159  27.879  1.00  0.00     0.021 C 
BRANCH  36  37
ATOM     37  C   UNL A   1      43.780  24.577  27.308  1.00  0.00     0.116 C 
BRANCH  37  38
ATOM     38  N   UNL A   1      42.934  24.679  26.127  1.00  0.00    -0.352 N 
ATOM     39  C   UNL A   1      41.793  25.430  25.957  1.00  0.00     0.251 C 
ATOM     40  H   UNL A   1      43.215  24.143  25.351  1.00  0.00     0.163 HD
ATOM     41  O   UNL A   1      41.092  25.275  24.963  1.00  0.00    -0.269 OA
BRANCH  39  42
ATOM     42  C   UNL A   1      41.408  26.402  27.003  1.00  0.00     0.039 A 
ATOM     43  C   UNL A   1      40.563  25.990  28.035  1.00  0.00     0.014 A 
ATOM     44  C   UNL A   1      41.928  27.699  26.989  1.00  0.00     0.014 A 
ATOM     45  C   UNL A   1      40.301  26.858  29.100  1.00  0.00     0.010 A 
ATOM     46  C   UNL A   1      41.716  28.539  28.082  1.00  0.00     0.010 A 
ATOM     47  C   UNL A   1      40.910  28.124  29.155  1.00  0.00    -0.014 A 
BRANCH  47  48
ATOM     48  C   UNL A   1      40.729  29.015  30.333  1.00  0.00     0.031 A 
ATOM     49  C   UNL A   1      41.569  28.821  31.568  1.00  0.00     0.074 A 
ATOM     50  C   UNL A   1      39.771  29.965  30.314  1.00  0.00     0.049 A 
ATOM     51  N   UNL A   1      41.507  29.448  32.714  1.00  0.00    -0.248 NA
ATOM     52  C   UNL A   1      42.597  27.769  31.514  1.00  0.00     0.031 C 
ATOM     53  C   UNL A   1      38.860  30.228  29.196  1.00  0.00     0.029 A 
ATOM     54  N   UNL A   1      39.393  30.881  31.265  1.00  0.00    -0.354 N 
ATOM     55  C   UNL A   1      42.485  28.871  33.516  1.00  0.00     0.074 A 
ATOM     56  C   UNL A   1      43.087  27.804  32.745  1.00  0.00     0.031 C 
ATOM     57  C   UNL A   1      38.042  31.242  29.521  1.00  0.00     0.029 A 
ATOM     58  C   UNL A   1      38.341  31.680  30.881  1.00  0.00     0.049 A 
ATOM     59  H   UNL A   1      39.834  30.958  32.142  1.00  0.00     0.167 HD
ATOM     60  C   UNL A   1      42.866  29.216  34.769  1.00  0.00     0.037 A 
ATOM     61  C   UNL A   1      37.681  32.646  31.551  1.00  0.00     0.037 A 
ATOM     62  C   UNL A   1      42.279  30.290  35.528  1.00  0.00     0.049 A 
ATOM     63  C   UNL A   1      38.114  32.996  32.951  1.00  0.00     0.074 A 
ATOM     64  C   UNL A   1      42.621  30.735  36.794  1.00  0.00     0.029 A 
ATOM     65  N   UNL A   1      41.233  31.090  35.094  1.00  0.00    -0.354 N 
ATOM     66  N   UNL A   1      39.078  32.474  33.671  1.00  0.00    -0.248 NA
ATOM     67  C   UNL A   1      37.376  34.074  33.627  1.00  0.00     0.031 C 
ATOM     68  C   UNL A   1      41.757  31.778  37.141  1.00  0.00     0.029 A 
ATOM     69  C   UNL A   1      40.909  32.016  36.073  1.00  0.00     0.049 A 
ATOM     70  H   UNL A   1      40.786  31.012  34.221  1.00  0.00     0.167 HD
ATOM     71  C   UNL A   1      39.082  33.179  34.871  1.00  0.00     0.074 A 
ATOM     72  C   UNL A   1      38.036  34.175  34.773  1.00  0.00     0.031 C 
ATOM     73  C   UNL A   1      39.878  33.017  35.955  1.00  0.00     0.037 A 
BRANCH  60  74
ATOM     74  C   UNL A   1      43.990  28.441  35.399  1.00  0.00     0.058 A 
ATOM     75  C   UNL A   1      45.327  28.847  35.258  1.00  0.00     0.135 A 
ATOM     76  C   UNL A   1      43.727  27.326  36.212  1.00  0.00     0.135 A 
ATOM     77  F   UNL A   1      45.636  29.896  34.479  1.00  0.00    -0.206 F 
ATOM     78  C   UNL A   1      46.364  28.169  35.888  1.00  0.00     0.059 A 
ATOM     79  C   UNL A   1      44.747  26.648  36.874  1.00  0.00     0.059 A 
ATOM     80  F   UNL A   1      42.468  26.894  36.380  1.00  0.00    -0.206 F 
ATOM     81  C   UNL A   1      46.064  27.074  36.699  1.00  0.00     0.060 A 
BRANCH  81  82
ATOM     82  S   UNL A   1      47.420  26.226  37.536  1.00  0.00     0.124 S 
ATOM     83  O   UNL A   1      46.967  26.249  38.923  1.00  0.00    -0.237 OA
ATOM     84  O   UNL A   1      47.415  24.918  36.888  1.00  0.00    -0.237 OA
ATOM     85  O   UNL A   1      48.579  27.064  37.242  1.00  0.00    -0.744 OA
ENDBRANCH  81  82
ENDBRANCH  60  74
BRANCH  61  86
ATOM     86  C   UNL A   1      36.538  33.359  30.917  1.00  0.00     0.058 A 
ATOM     87  C   UNL A   1      36.739  34.257  29.856  1.00  0.00     0.135 A 
ATOM     88  C   UNL A   1      35.225  33.186  31.382  1.00  0.00     0.135 A 
ATOM     89  F   UNL A   1      37.976  34.461  29.378  1.00  0.00    -0.206 F 
ATOM     90  C   UNL A   1      35.689  34.985  29.306  1.00  0.00     0.059 A 
ATOM     91  C   UNL A   1      34.154  33.881  30.829  1.00  0.00     0.059 A 
ATOM     92  F   UNL A   1      34.972  32.326  32.382  1.00  0.00    -0.206 F 
ATOM     93  C   UNL A   1      34.400  34.794  29.804  1.00  0.00     0.060 A 
BRANCH  93  94
ATOM     94  S   UNL A   1      33.040  35.738  29.082  1.00  0.00     0.124 S 
ATOM     95  O   UNL A   1      33.759  36.787  28.367  1.00  0.00    -0.237 OA
ATOM     96  O   UNL A   1      32.377  34.737  28.252  1.00  0.00    -0.237 OA
ATOM     97  O   UNL A   1      32.281  36.176  30.250  1.00  0.00    -0.744 OA
ENDBRANCH  93  94
ENDBRANCH  61  86
BRANCH  73  98
ATOM     98  C   UNL A   1      39.688  33.964  37.108  1.00  0.00     0.058 A 
ATOM     99  C   UNL A   1      40.194  35.273  37.081  1.00  0.00     0.135 A 
ATOM    100  C   UNL A   1      38.944  33.572  38.233  1.00  0.00     0.135 A 
ATOM    101  F   UNL A   1      40.918  35.696  36.032  1.00  0.00    -0.206 F 
ATOM    102  C   UNL A   1      39.989  36.152  38.140  1.00  0.00     0.059 A 
ATOM    103  C   UNL A   1      38.702  34.445  39.289  1.00  0.00     0.059 A 
ATOM    104  F   UNL A   1      38.428  32.335  38.305  1.00  0.00    -0.206 F 
ATOM    105  C   UNL A   1      39.240  35.730  39.239  1.00  0.00     0.060 A 
BRANCH 105 106
ATOM    106  S   UNL A   1      38.953  36.893  40.590  1.00  0.00     0.124 S 
ATOM    107  O   UNL A   1      38.268  37.981  39.901  1.00  0.00    -0.237 OA
ATOM    108  O   UNL A   1      38.132  36.108  41.507  1.00  0.00    -0.237 OA
ATOM    109  O   UNL A   1      40.298  37.199  41.067  1.00  0.00    -0.744 OA
ENDBRANCH 105 106
ENDBRANCH  73  98
ENDBRANCH  47  48
ENDBRANCH  39  42
ENDBRANCH  37  38
ENDBRANCH  36  37
ENDBRANCH  35  36
ENDBRANCH  34  35
ENDBRANCH   1  34
TORSDOF 22
ENDMDL
MODEL 3
REMARK VINA RESULT:     -10.4      9.469     16.540
REMARK SMILES COc1cc(/C=C2/SC(=O)N(c3ccc(C)c(C)c3)C2=O)ccc1OCCC(=O)NCCCCCCNC(=O)c1ccc(-c2c3nc(c(-c4c(F)cc(S(=O)(=O)[O-])cc4F)c4ccc([nH]4)c(-c4c(F)cc(S(=O)(=O)[O-])cc4F)c4nc(c(-c5c(F)cc(S(=O)(=O)[O-])cc5F)c5ccc2[nH]5)C=C4)C=C3)cc1
REMARK SMILES IDX 32 1 31 2 30 3 28 4 29 5 27 7 26 8 25 9 24 10 3 11 4 12 5 13
REMARK SMILES IDX 23 14 22 15 2 16 1 17 6 18 7 19 8 20 20 21 9 22 11 23 21 24
REMARK SMILES IDX 10 25 12 26 13 27 19 28 14 29 17 30 15 31 18 32 16 33 33 34
REMARK SMILES IDX 34 35 35 36 36 37 37 38 38 39 39 41 40 42 41 43 105 44 42 45
REMARK SMILES IDX 104 46 43 47 44 48 45 49 98 50 46 51 103 52 97 53 99 54
REMARK SMILES IDX 47 55 102 56 96 57 95 58 48 60 82 61 61 62 81 63 62 64 65 65
REMARK SMILES IDX 80 66 100 67 63 68 64 69 79 71 101 72 66 73 49 74 50 75
REMARK SMILES IDX 59 76 51 77 52 78 58 79 60 80 53 81 54 82 55 83 56 84 57 85
REMARK SMILES IDX 83 86 84 87 93 88 85 89 86 90 92 91 94 92 87 93 88 94 89 95
REMARK SMILES IDX 90 96 91 97 67 98 68 99 77 100 69 101 70 102 76 103 78 104
REMARK SMILES IDX 71 105 72 106 73 107 74 108 75 109
REMARK H PARENT 30 6 37 40 99 59 65 70
REMARK Flexibility Score: inf
ROOT
ATOM      1  C   UNL A   1      43.000  36.800  26.985  1.00  0.00     0.021 C 
ENDROOT
BRANCH   1   2
ATOM      2  C   UNL A   1      41.706  37.561  27.256  1.00  0.00     0.116 C 
BRANCH   2   3
ATOM      3  N   UNL A   1      41.433  38.606  26.285  1.00  0.00    -0.356 N 
ATOM      4  C   UNL A   1      41.443  39.960  26.457  1.00  0.00     0.223 C 
ATOM      5  O   UNL A   1      41.464  40.688  25.464  1.00  0.00    -0.275 OA
ATOM      6  H   UNL A   1      41.210  38.295  25.377  1.00  0.00     0.163 HD
BRANCH   4   7
ATOM      7  C   UNL A   1      41.513  40.533  27.853  1.00  0.00     0.141 C 
BRANCH   7   8
ATOM      8  C   UNL A   1      42.915  40.791  28.393  1.00  0.00     0.239 C 
BRANCH   8   9
ATOM      9  O   UNL A   1      44.008  40.474  27.548  1.00  0.00    -0.489 OA
BRANCH   9  10
ATOM     10  C   UNL A   1      44.772  41.358  26.853  1.00  0.00     0.161 A 
ATOM     11  C   UNL A   1      45.538  42.455  27.254  1.00  0.00     0.161 A 
ATOM     12  C   UNL A   1      46.476  43.026  26.362  1.00  0.00     0.058 A 
ATOM     13  C   UNL A   1      46.608  42.564  25.051  1.00  0.00    -0.020 A 
ATOM     14  C   UNL A   1      44.829  40.982  25.501  1.00  0.00     0.051 A 
ATOM     15  C   UNL A   1      45.736  41.561  24.614  1.00  0.00     0.012 A 
BRANCH  11  16
ATOM     16  O   UNL A   1      45.604  42.971  28.514  1.00  0.00    -0.493 OA
ATOM     17  C   UNL A   1      45.081  44.285  28.667  1.00  0.00     0.278 C 
ENDBRANCH  11  16
BRANCH  13  18
ATOM     18  C   UNL A   1      47.727  42.984  24.185  1.00  0.00     0.029 C 
ATOM     19  C   UNL A   1      47.564  43.732  23.086  1.00  0.00     0.083 C 
ATOM     20  S   UNL A   1      48.621  43.792  21.740  1.00  0.00    -0.022 SA
ATOM     21  C   UNL A   1      46.285  44.369  22.708  1.00  0.00     0.272 C 
ATOM     22  C   UNL A   1      47.238  44.018  20.641  1.00  0.00     0.298 C 
ATOM     23  N   UNL A   1      46.069  44.128  21.365  1.00  0.00    -0.236 N 
ATOM     24  O   UNL A   1      45.632  45.019  23.505  1.00  0.00    -0.268 OA
ATOM     25  O   UNL A   1      47.415  44.113  19.431  1.00  0.00    -0.260 OA
BRANCH  23  26
ATOM     26  C   UNL A   1      44.750  44.041  20.812  1.00  0.00     0.053 A 
ATOM     27  C   UNL A   1      43.873  43.008  21.171  1.00  0.00     0.027 A 
ATOM     28  C   UNL A   1      44.327  44.902  19.786  1.00  0.00     0.030 A 
ATOM     29  C   UNL A   1      42.621  42.863  20.572  1.00  0.00     0.006 A 
ATOM     30  C   UNL A   1      43.078  44.747  19.141  1.00  0.00    -0.046 A 
ATOM     31  C   UNL A   1      42.202  43.735  19.566  1.00  0.00    -0.048 A 
ATOM     32  C   UNL A   1      42.726  45.672  18.008  1.00  0.00     0.044 C 
ATOM     33  C   UNL A   1      40.831  43.520  18.987  1.00  0.00     0.044 C 
ENDBRANCH  23  26
ENDBRANCH  13  18
ENDBRANCH   9  10
ENDBRANCH   8   9
ENDBRANCH   7   8
ENDBRANCH   4   7
ENDBRANCH   2   3
ENDBRANCH   1   2
BRANCH   1  34
ATOM     34  C   UNL A   1      43.137  35.525  27.819  1.00  0.00     0.002 C 
BRANCH  34  35
ATOM     35  C   UNL A   1      43.878  35.676  29.146  1.00  0.00     0.002 C 
BRANCH  35  36
ATOM     36  C   UNL A   1      44.500  37.058  29.364  1.00  0.00     0.021 C 
BRANCH  36  37
ATOM     37  C   UNL A   1      45.599  37.117  30.426  1.00  0.00     0.116 C 
BRANCH  37  38
ATOM     38  N   UNL A   1      46.876  37.559  29.882  1.00  0.00    -0.352 N 
ATOM     39  C   UNL A   1      47.861  36.799  29.293  1.00  0.00     0.251 C 
ATOM     40  H   UNL A   1      47.056  38.524  29.942  1.00  0.00     0.163 HD
ATOM     41  O   UNL A   1      48.956  37.290  29.043  1.00  0.00    -0.269 OA
BRANCH  39  42
ATOM     42  C   UNL A   1      47.592  35.375  28.996  1.00  0.00     0.039 A 
ATOM     43  C   UNL A   1      47.730  34.430  30.014  1.00  0.00     0.014 A 
ATOM     44  C   UNL A   1      47.151  34.989  27.727  1.00  0.00     0.014 A 
ATOM     45  C   UNL A   1      47.348  33.106  29.782  1.00  0.00     0.010 A 
ATOM     46  C   UNL A   1      46.712  33.682  27.517  1.00  0.00     0.010 A 
ATOM     47  C   UNL A   1      46.796  32.728  28.546  1.00  0.00    -0.014 A 
BRANCH  47  48
ATOM     48  C   UNL A   1      46.284  31.349  28.320  1.00  0.00     0.031 A 
ATOM     49  C   UNL A   1      47.188  30.287  27.753  1.00  0.00     0.074 A 
ATOM     50  C   UNL A   1      44.989  31.066  28.572  1.00  0.00     0.049 A 
ATOM     51  N   UNL A   1      46.904  29.054  27.421  1.00  0.00    -0.248 NA
ATOM     52  C   UNL A   1      48.588  30.667  27.508  1.00  0.00     0.031 C 
ATOM     53  C   UNL A   1      43.997  32.017  29.081  1.00  0.00     0.029 A 
ATOM     54  N   UNL A   1      44.278  29.900  28.425  1.00  0.00    -0.354 N 
ATOM     55  C   UNL A   1      48.086  28.510  26.931  1.00  0.00     0.074 A 
ATOM     56  C   UNL A   1      49.076  29.566  26.954  1.00  0.00     0.031 C 
ATOM     57  C   UNL A   1      42.815  31.394  29.215  1.00  0.00     0.029 A 
ATOM     58  C   UNL A   1      42.950  30.011  28.769  1.00  0.00     0.049 A 
ATOM     59  H   UNL A   1      44.681  29.062  28.102  1.00  0.00     0.167 HD
ATOM     60  C   UNL A   1      48.332  27.242  26.524  1.00  0.00     0.037 A 
ATOM     61  C   UNL A   1      41.951  29.107  28.719  1.00  0.00     0.037 A 
ATOM     62  C   UNL A   1      47.350  26.188  26.518  1.00  0.00     0.049 A 
ATOM     63  C   UNL A   1      42.249  27.708  28.244  1.00  0.00     0.074 A 
ATOM     64  C   UNL A   1      47.514  24.863  26.153  1.00  0.00     0.029 A 
ATOM     65  N   UNL A   1      46.024  26.336  26.897  1.00  0.00    -0.354 N 
ATOM     66  N   UNL A   1      43.387  27.201  27.835  1.00  0.00    -0.248 NA
ATOM     67  C   UNL A   1      41.128  26.756  28.231  1.00  0.00     0.031 C 
ATOM     68  C   UNL A   1      46.279  24.217  26.275  1.00  0.00     0.029 A 
ATOM     69  C   UNL A   1      45.358  25.128  26.762  1.00  0.00     0.049 A 
ATOM     70  H   UNL A   1      45.617  27.173  27.214  1.00  0.00     0.167 HD
ATOM     71  C   UNL A   1      43.127  25.864  27.548  1.00  0.00     0.074 A 
ATOM     72  C   UNL A   1      41.728  25.638  27.844  1.00  0.00     0.031 C 
ATOM     73  C   UNL A   1      43.969  24.911  27.080  1.00  0.00     0.037 A 
BRANCH  60  74
ATOM     74  C   UNL A   1      49.726  26.908  26.069  1.00  0.00     0.058 A 
ATOM     75  C   UNL A   1      50.677  26.382  26.958  1.00  0.00     0.135 A 
ATOM     76  C   UNL A   1      50.094  27.045  24.721  1.00  0.00     0.135 A 
ATOM     77  F   UNL A   1      50.383  26.247  28.261  1.00  0.00    -0.206 F 
ATOM     78  C   UNL A   1      51.948  26.016  26.530  1.00  0.00     0.059 A 
ATOM     79  C   UNL A   1      51.352  26.659  24.265  1.00  0.00     0.059 A 
ATOM     80  F   UNL A   1      49.224  27.544  23.830  1.00  0.00    -0.206 F 
ATOM     81  C   UNL A   1      52.275  26.152  25.180  1.00  0.00     0.060 A 
BRANCH  81  82
ATOM     82  S   UNL A   1      53.918  25.640  24.637  1.00  0.00     0.124 S 
ATOM     83  O   UNL A   1      53.794  24.186  24.663  1.00  0.00    -0.237 OA
ATOM     84  O   UNL A   1      54.010  26.245  23.312  1.00  0.00    -0.237 OA
ATOM     85  O   UNL A   1      54.804  26.212  25.647  1.00  0.00    -0.744 OA
ENDBRANCH  81  82
ENDBRANCH  60  74
BRANCH  61  86
ATOM     86  C   UNL A   1      40.570  29.485  29.127  1.00  0.00     0.058 A 
ATOM     87  C   UNL A   1      39.561  29.693  28.174  1.00  0.00     0.135 A 
ATOM     88  C   UNL A   1      40.239  29.681  30.477  1.00  0.00     0.135 A 
ATOM     89  F   UNL A   1      39.828  29.524  26.869  1.00  0.00    -0.206 F 
ATOM     90  C   UNL A   1      38.288  30.120  28.537  1.00  0.00     0.059 A 
ATOM     91  C   UNL A   1      38.964  30.078  30.869  1.00  0.00     0.059 A 
ATOM     92  F   UNL A   1      41.159  29.477  31.433  1.00  0.00    -0.206 F 
ATOM     93  C   UNL A   1      38.001  30.315  29.889  1.00  0.00     0.060 A 
BRANCH  93  94
ATOM     94  S   UNL A   1      36.345  30.863  30.356  1.00  0.00     0.124 S 
ATOM     95  O   UNL A   1      36.587  32.259  30.706  1.00  0.00    -0.237 OA
ATOM     96  O   UNL A   1      35.587  30.633  29.130  1.00  0.00    -0.237 OA
ATOM     97  O   UNL A   1      36.003  29.983  31.470  1.00  0.00    -0.744 OA
ENDBRANCH  93  94
ENDBRANCH  61  86
BRANCH  73  98
ATOM     98  C   UNL A   1      43.420  23.522  26.903  1.00  0.00     0.058 A 
ATOM     99  C   UNL A   1      43.038  23.032  25.645  1.00  0.00     0.135 A 
ATOM    100  C   UNL A   1      43.324  22.652  28.001  1.00  0.00     0.135 A 
ATOM    101  F   UNL A   1      43.104  23.825  24.562  1.00  0.00    -0.206 F 
ATOM    102  C   UNL A   1      42.557  21.736  25.485  1.00  0.00     0.059 A 
ATOM    103  C   UNL A   1      42.875  21.342  27.860  1.00  0.00     0.059 A 
ATOM    104  F   UNL A   1      43.687  23.066  29.226  1.00  0.00    -0.206 F 
ATOM    105  C   UNL A   1      42.481  20.898  26.598  1.00  0.00     0.060 A 
BRANCH 105 106
ATOM    106  S   UNL A   1      41.889  19.208  26.371  1.00  0.00     0.124 S 
ATOM    107  O   UNL A   1      42.873  18.674  25.436  1.00  0.00    -0.237 OA
ATOM    108  O   UNL A   1      41.947  18.672  27.727  1.00  0.00    -0.237 OA
ATOM    109  O   UNL A   1      40.544  19.388  25.832  1.00  0.00    -0.744 OA
ENDBRANCH 105 106
ENDBRANCH  73  98
ENDBRANCH  47  48
ENDBRANCH  39  42
ENDBRANCH  37  38
ENDBRANCH  36  37
ENDBRANCH  35  36
ENDBRANCH  34  35
ENDBRANCH   1  34
TORSDOF 22
ENDMDL
