MODEL 1
REMARK VINA RESULT:     -12.2      0.000      0.000
REMARK SMILES O=C1CC[C@@H](CC(=O)N2CCC(Oc3ccccc3)(C(=O)NCCCCCCNC(=O)c3ccc(-c4c5nc(c(-c6c(F)cc(S(=O)(=O)[O-])cc6F)c6ccc([nH]6)c(-c6c(F)cc(S(=O)(=O)[O-])cc6F)c6nc(c(-c7c(F)cc(S(=O)(=O)[O-])cc7F)c7ccc4[nH]7)C=C6)C=C5)cc3)CC2)N1
REMARK SMILES IDX 26 1 25 2 24 3 23 4 22 5 20 6 21 7 12 9 7 10 8 11 9 12 10 13
REMARK SMILES IDX 99 14 11 15 98 16 6 17 5 18 1 19 2 20 3 21 100 22 4 23 13 25
REMARK SMILES IDX 14 26 15 27 19 28 16 29 18 30 17 31 27 32 28 33 29 34 30 35
REMARK SMILES IDX 31 37 32 38 33 39 97 40 34 41 96 42 35 43 36 44 37 45 90 46
REMARK SMILES IDX 38 47 95 48 89 49 91 50 39 51 94 52 88 53 87 54 40 56 74 57
REMARK SMILES IDX 53 58 73 59 54 60 57 61 72 62 92 63 55 64 56 65 71 67 93 68
REMARK SMILES IDX 58 69 41 70 42 71 51 72 43 73 44 74 50 75 52 76 45 77 46 78
REMARK SMILES IDX 47 79 48 80 49 81 75 82 76 83 85 84 77 85 78 86 84 87 86 88
REMARK SMILES IDX 79 89 80 90 81 91 82 92 83 93 59 94 60 95 69 96 61 97 62 98
REMARK SMILES IDX 68 99 70 100 63 101 64 102 65 103 66 104 67 105
REMARK H PARENT 22 8 100 24 29 36 91 55 57 66
REMARK Flexibility Score: inf
ROOT
ATOM      1  C   UNL A   1      40.883  21.812  26.509  1.00  0.00     0.002 C 
ENDROOT
BRANCH   1   2
ATOM      2  C   UNL A   1      39.364  21.990  26.414  1.00  0.00     0.002 C 
BRANCH   2   3
ATOM      3  C   UNL A   1      38.890  23.449  26.448  1.00  0.00     0.021 C 
BRANCH   3   4
ATOM      4  C   UNL A   1      37.451  23.626  25.980  1.00  0.00     0.116 C 
BRANCH   4   5
ATOM      5  N   UNL A   1      37.370  23.342  24.568  1.00  0.00    -0.353 N 
ATOM      6  C   UNL A   1      36.290  23.065  23.798  1.00  0.00     0.264 C 
ATOM      7  O   UNL A   1      36.536  22.857  22.604  1.00  0.00    -0.270 OA
ATOM      8  H   UNL A   1      38.231  23.349  24.091  1.00  0.00     0.163 HD
BRANCH   6   9
ATOM      9  C   UNL A   1      34.847  23.055  24.382  1.00  0.00     0.190 C 
ATOM     10  C   UNL A   1      32.341  26.001  22.820  1.00  0.00     0.224 C 
ATOM     11  O   UNL A   1      31.288  25.481  22.427  1.00  0.00    -0.275 OA
ATOM     12  N   UNL A   1      33.472  25.226  22.976  1.00  0.00    -0.342 N 
ATOM     13  C   UNL A   1      33.575  23.921  22.323  1.00  0.00     0.124 C 
ATOM     14  C   UNL A   1      34.533  25.495  23.912  1.00  0.00     0.124 C 
ATOM     15  C   UNL A   1      33.736  22.792  23.338  1.00  0.00     0.080 C 
ATOM     16  C   UNL A   1      34.611  24.436  25.005  1.00  0.00     0.080 C 
BRANCH  10  17
ATOM     17  C   UNL A   1      32.380  27.541  22.878  1.00  0.00     0.125 C 
BRANCH  17  18
ATOM     18  C   UNL A   1      31.238  28.520  23.162  1.00  0.00     0.091 C 
ATOM     19  O   UNL A   1      28.988  30.341  21.169  1.00  0.00    -0.275 OA
ATOM     20  C   UNL A   1      29.520  29.591  21.972  1.00  0.00     0.220 C 
ATOM     21  C   UNL A   1      28.808  28.668  22.930  1.00  0.00     0.102 C 
ATOM     22  N   UNL A   1      30.880  29.422  22.109  1.00  0.00    -0.353 N 
ATOM     23  C   UNL A   1      29.924  27.897  23.642  1.00  0.00     0.035 C 
ATOM     24  H   UNL A   1      31.541  29.878  21.540  1.00  0.00     0.163 HD
ENDBRANCH  17  18
ENDBRANCH  10  17
BRANCH   9  25
ATOM     25  O   UNL A   1      34.986  22.020  25.390  1.00  0.00    -0.477 OA
BRANCH  25  26
ATOM     26  C   UNL A   1      34.481  20.784  25.123  1.00  0.00     0.120 A 
ATOM     27  C   UNL A   1      33.132  20.554  25.381  1.00  0.00     0.046 A 
ATOM     28  C   UNL A   1      35.314  19.730  24.760  1.00  0.00     0.046 A 
ATOM     29  C   UNL A   1      32.598  19.278  25.197  1.00  0.00     0.004 A 
ATOM     30  C   UNL A   1      34.778  18.459  24.555  1.00  0.00     0.004 A 
ATOM     31  C   UNL A   1      33.419  18.235  24.769  1.00  0.00     0.000 A 
ENDBRANCH  25  26
ENDBRANCH   9  25
ENDBRANCH   6   9
ENDBRANCH   4   5
ENDBRANCH   3   4
ENDBRANCH   2   3
ENDBRANCH   1   2
BRANCH   1  32
ATOM     32  C   UNL A   1      41.472  22.121  27.886  1.00  0.00     0.021 C 
BRANCH  32  33
ATOM     33  C   UNL A   1      42.458  23.280  27.889  1.00  0.00     0.116 C 
BRANCH  33  34
ATOM     34  N   UNL A   1      42.526  23.925  26.590  1.00  0.00    -0.352 N 
ATOM     35  C   UNL A   1      42.149  25.200  26.248  1.00  0.00     0.251 C 
ATOM     36  H   UNL A   1      42.890  23.377  25.858  1.00  0.00     0.163 HD
ATOM     37  O   UNL A   1      42.049  25.518  25.068  1.00  0.00    -0.269 OA
BRANCH  35  38
ATOM     38  C   UNL A   1      41.849  26.173  27.318  1.00  0.00     0.039 A 
ATOM     39  C   UNL A   1      40.764  25.939  28.162  1.00  0.00     0.014 A 
ATOM     40  C   UNL A   1      42.652  27.305  27.494  1.00  0.00     0.014 A 
ATOM     41  C   UNL A   1      40.513  26.818  29.216  1.00  0.00     0.010 A 
ATOM     42  C   UNL A   1      42.450  28.131  28.593  1.00  0.00     0.010 A 
ATOM     43  C   UNL A   1      41.372  27.903  29.460  1.00  0.00    -0.014 A 
BRANCH  43  44
ATOM     44  C   UNL A   1      41.154  28.812  30.614  1.00  0.00     0.031 A 
ATOM     45  C   UNL A   1      42.003  28.680  31.849  1.00  0.00     0.074 A 
ATOM     46  C   UNL A   1      40.154  29.715  30.570  1.00  0.00     0.049 A 
ATOM     47  N   UNL A   1      41.933  29.345  32.973  1.00  0.00    -0.248 NA
ATOM     48  C   UNL A   1      43.050  27.645  31.828  1.00  0.00     0.031 C 
ATOM     49  C   UNL A   1      39.235  29.905  29.445  1.00  0.00     0.029 A 
ATOM     50  N   UNL A   1      39.740  30.639  31.496  1.00  0.00    -0.354 N 
ATOM     51  C   UNL A   1      42.916  28.804  33.795  1.00  0.00     0.074 A 
ATOM     52  C   UNL A   1      43.526  27.716  33.062  1.00  0.00     0.031 C 
ATOM     53  C   UNL A   1      38.386  30.903  29.735  1.00  0.00     0.029 A 
ATOM     54  C   UNL A   1      38.668  31.394  31.081  1.00  0.00     0.049 A 
ATOM     55  H   UNL A   1      40.169  30.751  32.375  1.00  0.00     0.167 HD
ATOM     56  C   UNL A   1      43.290  29.193  35.037  1.00  0.00     0.037 A 
ATOM     57  C   UNL A   1      37.986  32.368  31.714  1.00  0.00     0.037 A 
ATOM     58  C   UNL A   1      42.684  30.288  35.751  1.00  0.00     0.049 A 
ATOM     59  C   UNL A   1      38.410  32.773  33.100  1.00  0.00     0.074 A 
ATOM     60  C   UNL A   1      43.027  30.801  36.989  1.00  0.00     0.029 A 
ATOM     61  N   UNL A   1      41.604  31.033  35.295  1.00  0.00    -0.354 N 
ATOM     62  N   UNL A   1      39.386  32.299  33.836  1.00  0.00    -0.248 NA
ATOM     63  C   UNL A   1      37.643  33.851  33.740  1.00  0.00     0.031 C 
ATOM     64  C   UNL A   1      42.120  31.815  37.308  1.00  0.00     0.029 A 
ATOM     65  C   UNL A   1      41.250  31.981  36.242  1.00  0.00     0.049 A 
ATOM     66  H   UNL A   1      41.157  30.906  34.428  1.00  0.00     0.167 HD
ATOM     67  C   UNL A   1      39.371  33.039  35.013  1.00  0.00     0.074 A 
ATOM     68  C   UNL A   1      38.294  34.000  34.885  1.00  0.00     0.031 C 
ATOM     69  C   UNL A   1      40.176  32.934  36.100  1.00  0.00     0.037 A 
BRANCH  56  70
ATOM     70  C   UNL A   1      44.399  28.424  35.705  1.00  0.00     0.058 A 
ATOM     71  C   UNL A   1      45.751  28.761  35.519  1.00  0.00     0.135 A 
ATOM     72  C   UNL A   1      44.107  27.350  36.561  1.00  0.00     0.135 A 
ATOM     73  F   UNL A   1      46.091  29.770  34.702  1.00  0.00    -0.206 F 
ATOM     74  C   UNL A   1      46.771  28.036  36.126  1.00  0.00     0.059 A 
ATOM     75  C   UNL A   1      45.111  26.633  37.205  1.00  0.00     0.059 A 
ATOM     76  F   UNL A   1      42.834  26.984  36.777  1.00  0.00    -0.206 F 
ATOM     77  C   UNL A   1      46.441  26.972  36.966  1.00  0.00     0.060 A 
BRANCH  77  78
ATOM     78  S   UNL A   1      47.779  26.037  37.737  1.00  0.00     0.124 S 
ATOM     79  O   UNL A   1      48.875  27.000  37.682  1.00  0.00    -0.237 OA
ATOM     80  O   UNL A   1      47.243  25.764  39.066  1.00  0.00    -0.237 OA
ATOM     81  O   UNL A   1      47.925  24.872  36.870  1.00  0.00    -0.744 OA
ENDBRANCH  77  78
ENDBRANCH  56  70
BRANCH  57  82
ATOM     82  C   UNL A   1      36.851  33.042  31.030  1.00  0.00     0.058 A 
ATOM     83  C   UNL A   1      37.077  34.027  30.057  1.00  0.00     0.135 A 
ATOM     84  C   UNL A   1      35.520  32.698  31.312  1.00  0.00     0.135 A 
ATOM     85  F   UNL A   1      38.332  34.396  29.755  1.00  0.00    -0.206 F 
ATOM     86  C   UNL A   1      36.026  34.655  29.397  1.00  0.00     0.059 A 
ATOM     87  C   UNL A   1      34.452  33.291  30.645  1.00  0.00     0.059 A 
ATOM     88  F   UNL A   1      35.249  31.749  32.223  1.00  0.00    -0.206 F 
ATOM     89  C   UNL A   1      34.717  34.275  29.693  1.00  0.00     0.060 A 
BRANCH  89  90
ATOM     90  S   UNL A   1      33.364  35.055  28.786  1.00  0.00     0.124 S 
ATOM     91  O   UNL A   1      32.552  35.592  29.871  1.00  0.00    -0.237 OA
ATOM     92  O   UNL A   1      34.072  36.037  27.970  1.00  0.00    -0.237 OA
ATOM     93  O   UNL A   1      32.773  33.944  28.044  1.00  0.00    -0.744 OA
ENDBRANCH  89  90
ENDBRANCH  57  82
BRANCH  69  94
ATOM     94  C   UNL A   1      39.952  33.905  37.227  1.00  0.00     0.058 A 
ATOM     95  C   UNL A   1      40.598  35.151  37.274  1.00  0.00     0.135 A 
ATOM     96  C   UNL A   1      39.034  33.607  38.249  1.00  0.00     0.135 A 
ATOM     97  F   UNL A   1      41.490  35.485  36.328  1.00  0.00    -0.206 F 
ATOM     98  C   UNL A   1      40.362  36.054  38.305  1.00  0.00     0.059 A 
ATOM     99  C   UNL A   1      38.757  34.508  39.270  1.00  0.00     0.059 A 
ATOM    100  F   UNL A   1      38.380  32.434  38.247  1.00  0.00    -0.206 F 
ATOM    101  C   UNL A   1      39.435  35.725  39.298  1.00  0.00     0.060 A 
BRANCH 101 102
ATOM    102  S   UNL A   1      39.111  36.922  40.609  1.00  0.00     0.124 S 
ATOM    103  O   UNL A   1      38.507  36.078  41.634  1.00  0.00    -0.237 OA
ATOM    104  O   UNL A   1      40.449  37.424  40.909  1.00  0.00    -0.237 OA
ATOM    105  O   UNL A   1      38.213  37.885  39.978  1.00  0.00    -0.744 OA
ENDBRANCH 101 102
ENDBRANCH  69  94
ENDBRANCH  43  44
ENDBRANCH  35  38
ENDBRANCH  33  34
ENDBRANCH  32  33
ENDBRANCH   1  32
TORSDOF 20
ENDMDL
MODEL 2
REMARK VINA RESULT:     -12.0      6.224     12.123
REMARK SMILES O=C1CC[C@@H](CC(=O)N2CCC(Oc3ccccc3)(C(=O)NCCCCCCNC(=O)c3ccc(-c4c5nc(c(-c6c(F)cc(S(=O)(=O)[O-])cc6F)c6ccc([nH]6)c(-c6c(F)cc(S(=O)(=O)[O-])cc6F)c6nc(c(-c7c(F)cc(S(=O)(=O)[O-])cc7F)c7ccc4[nH]7)C=C6)C=C5)cc3)CC2)N1
REMARK SMILES IDX 26 1 25 2 24 3 23 4 22 5 20 6 21 7 12 9 7 10 8 11 9 12 10 13
REMARK SMILES IDX 99 14 11 15 98 16 6 17 5 18 1 19 2 20 3 21 100 22 4 23 13 25
REMARK SMILES IDX 14 26 15 27 19 28 16 29 18 30 17 31 27 32 28 33 29 34 30 35
REMARK SMILES IDX 31 37 32 38 33 39 97 40 34 41 96 42 35 43 36 44 37 45 90 46
REMARK SMILES IDX 38 47 95 48 89 49 91 50 39 51 94 52 88 53 87 54 40 56 74 57
REMARK SMILES IDX 53 58 73 59 54 60 57 61 72 62 92 63 55 64 56 65 71 67 93 68
REMARK SMILES IDX 58 69 41 70 42 71 51 72 43 73 44 74 50 75 52 76 45 77 46 78
REMARK SMILES IDX 47 79 48 80 49 81 75 82 76 83 85 84 77 85 78 86 84 87 86 88
REMARK SMILES IDX 79 89 80 90 81 91 82 92 83 93 59 94 60 95 69 96 61 97 62 98
REMARK SMILES IDX 68 99 70 100 63 101 64 102 65 103 66 104 67 105
REMARK H PARENT 22 8 100 24 29 36 91 55 57 66
REMARK Flexibility Score: inf
ROOT
ATOM      1  C   UNL A   1      33.797  33.073  28.179  1.00  0.00     0.002 C 
ENDROOT
BRANCH   1   2
ATOM      2  C   UNL A   1      33.560  31.682  27.581  1.00  0.00     0.002 C 
BRANCH   2   3
ATOM      3  C   UNL A   1      32.297  31.567  26.717  1.00  0.00     0.021 C 
BRANCH   3   4
ATOM      4  C   UNL A   1      32.052  30.158  26.191  1.00  0.00     0.116 C 
BRANCH   4   5
ATOM      5  N   UNL A   1      33.185  29.739  25.404  1.00  0.00    -0.353 N 
ATOM      6  C   UNL A   1      33.317  28.686  24.562  1.00  0.00     0.264 C 
ATOM      7  O   UNL A   1      34.425  28.579  24.024  1.00  0.00    -0.270 OA
ATOM      8  H   UNL A   1      33.986  30.305  25.491  1.00  0.00     0.163 HD
BRANCH   6   9
ATOM      9  C   UNL A   1      32.135  27.713  24.274  1.00  0.00     0.190 C 
ATOM     10  C   UNL A   1      32.164  24.243  26.588  1.00  0.00     0.224 C 
ATOM     11  O   UNL A   1      31.057  24.096  27.124  1.00  0.00    -0.275 OA
ATOM     12  N   UNL A   1      32.546  25.490  26.135  1.00  0.00    -0.342 N 
ATOM     13  C   UNL A   1      31.873  26.695  26.619  1.00  0.00     0.124 C 
ATOM     14  C   UNL A   1      33.453  25.727  25.042  1.00  0.00     0.124 C 
ATOM     15  C   UNL A   1      31.204  27.463  25.483  1.00  0.00     0.080 C 
ATOM     16  C   UNL A   1      32.756  26.376  23.853  1.00  0.00     0.080 C 
BRANCH  10  17
ATOM     17  C   UNL A   1      33.148  23.061  26.682  1.00  0.00     0.125 C 
BRANCH  17  18
ATOM     18  C   UNL A   1      33.426  21.960  25.655  1.00  0.00     0.091 C 
ATOM     19  O   UNL A   1      32.135  18.745  25.063  1.00  0.00    -0.275 OA
ATOM     20  C   UNL A   1      32.486  19.912  24.992  1.00  0.00     0.220 C 
ATOM     21  C   UNL A   1      32.317  20.819  23.798  1.00  0.00     0.102 C 
ATOM     22  N   UNL A   1      33.063  20.624  26.021  1.00  0.00    -0.353 N 
ATOM     23  C   UNL A   1      32.841  22.184  24.257  1.00  0.00     0.035 C 
ATOM     24  H   UNL A   1      33.210  20.251  26.920  1.00  0.00     0.163 HD
ENDBRANCH  17  18
ENDBRANCH  10  17
BRANCH   9  25
ATOM     25  O   UNL A   1      31.508  28.396  23.158  1.00  0.00    -0.477 OA
BRANCH  25  26
ATOM     26  C   UNL A   1      30.149  28.473  23.127  1.00  0.00     0.120 A 
ATOM     27  C   UNL A   1      29.562  29.727  22.978  1.00  0.00     0.046 A 
ATOM     28  C   UNL A   1      29.359  27.360  23.404  1.00  0.00     0.046 A 
ATOM     29  C   UNL A   1      28.173  29.854  23.025  1.00  0.00     0.004 A 
ATOM     30  C   UNL A   1      27.971  27.482  23.430  1.00  0.00     0.004 A 
ATOM     31  C   UNL A   1      27.378  28.728  23.235  1.00  0.00     0.000 A 
ENDBRANCH  25  26
ENDBRANCH   9  25
ENDBRANCH   6   9
ENDBRANCH   4   5
ENDBRANCH   3   4
ENDBRANCH   2   3
ENDBRANCH   1   2
BRANCH   1  32
ATOM     32  C   UNL A   1      35.198  33.282  28.757  1.00  0.00     0.021 C 
BRANCH  32  33
ATOM     33  C   UNL A   1      35.997  31.997  28.916  1.00  0.00     0.116 C 
BRANCH  33  34
ATOM     34  N   UNL A   1      35.770  31.384  30.212  1.00  0.00    -0.352 N 
ATOM     35  C   UNL A   1      36.548  30.467  30.873  1.00  0.00     0.251 C 
ATOM     36  H   UNL A   1      34.949  31.663  30.680  1.00  0.00     0.163 HD
ATOM     37  O   UNL A   1      36.105  29.872  31.849  1.00  0.00    -0.269 OA
BRANCH  35  38
ATOM     38  C   UNL A   1      37.915  30.197  30.383  1.00  0.00     0.039 A 
ATOM     39  C   UNL A   1      38.942  30.014  31.308  1.00  0.00     0.014 A 
ATOM     40  C   UNL A   1      38.173  30.109  29.011  1.00  0.00     0.014 A 
ATOM     41  C   UNL A   1      40.223  29.694  30.857  1.00  0.00     0.010 A 
ATOM     42  C   UNL A   1      39.428  29.708  28.569  1.00  0.00     0.010 A 
ATOM     43  C   UNL A   1      40.470  29.507  29.486  1.00  0.00    -0.014 A 
BRANCH  43  44
ATOM     44  C   UNL A   1      41.812  29.106  28.995  1.00  0.00     0.031 A 
ATOM     45  C   UNL A   1      42.919  30.121  28.908  1.00  0.00     0.074 A 
ATOM     46  C   UNL A   1      42.016  27.841  28.574  1.00  0.00     0.049 A 
ATOM     47  N   UNL A   1      44.140  29.975  28.461  1.00  0.00    -0.248 NA
ATOM     48  C   UNL A   1      42.603  31.488  29.355  1.00  0.00     0.031 C 
ATOM     49  C   UNL A   1      41.007  26.780  28.567  1.00  0.00     0.029 A 
ATOM     50  N   UNL A   1      43.138  27.236  28.066  1.00  0.00    -0.354 N 
ATOM     51  C   UNL A   1      44.733  31.229  28.563  1.00  0.00     0.074 A 
ATOM     52  C   UNL A   1      43.719  32.136  29.057  1.00  0.00     0.031 C 
ATOM     53  C   UNL A   1      41.562  25.648  28.107  1.00  0.00     0.029 A 
ATOM     54  C   UNL A   1      42.952  25.911  27.745  1.00  0.00     0.049 A 
ATOM     55  H   UNL A   1      43.994  27.705  27.942  1.00  0.00     0.167 HD
ATOM     56  C   UNL A   1      46.011  31.586  28.293  1.00  0.00     0.037 A 
ATOM     57  C   UNL A   1      43.803  25.013  27.214  1.00  0.00     0.037 A 
ATOM     58  C   UNL A   1      47.016  30.670  27.817  1.00  0.00     0.049 A 
ATOM     59  C   UNL A   1      45.214  25.435  26.906  1.00  0.00     0.074 A 
ATOM     60  C   UNL A   1      48.354  30.916  27.567  1.00  0.00     0.029 A 
ATOM     61  N   UNL A   1      46.791  29.335  27.508  1.00  0.00    -0.354 N 
ATOM     62  N   UNL A   1      45.779  26.607  27.074  1.00  0.00    -0.248 NA
ATOM     63  C   UNL A   1      46.106  24.412  26.343  1.00  0.00     0.031 C 
ATOM     64  C   UNL A   1      48.924  29.748  27.053  1.00  0.00     0.029 A 
ATOM     65  C   UNL A   1      47.960  28.753  27.043  1.00  0.00     0.049 A 
ATOM     66  H   UNL A   1      45.929  28.870  27.606  1.00  0.00     0.167 HD
ATOM     67  C   UNL A   1      47.099  26.456  26.665  1.00  0.00     0.074 A 
ATOM     68  C   UNL A   1      47.251  25.075  26.252  1.00  0.00     0.031 C 
ATOM     69  C   UNL A   1      48.097  27.375  26.637  1.00  0.00     0.037 A 
BRANCH  56  70
ATOM     70  C   UNL A   1      46.391  33.028  28.497  1.00  0.00     0.058 A 
ATOM     71  C   UNL A   1      46.878  33.499  29.728  1.00  0.00     0.135 A 
ATOM     72  C   UNL A   1      46.289  33.949  27.442  1.00  0.00     0.135 A 
ATOM     73  F   UNL A   1      46.985  32.668  30.777  1.00  0.00    -0.206 F 
ATOM     74  C   UNL A   1      47.211  34.837  29.915  1.00  0.00     0.059 A 
ATOM     75  C   UNL A   1      46.650  35.285  27.597  1.00  0.00     0.059 A 
ATOM     76  F   UNL A   1      45.831  33.556  26.243  1.00  0.00    -0.206 F 
ATOM     77  C   UNL A   1      47.092  35.723  28.844  1.00  0.00     0.060 A 
BRANCH  77  78
ATOM     78  S   UNL A   1      47.521  37.456  29.108  1.00  0.00     0.124 S 
ATOM     79  O   UNL A   1      47.665  37.502  30.560  1.00  0.00    -0.237 OA
ATOM     80  O   UNL A   1      48.757  37.591  28.344  1.00  0.00    -0.237 OA
ATOM     81  O   UNL A   1      46.371  38.177  28.570  1.00  0.00    -0.744 OA
ENDBRANCH  77  78
ENDBRANCH  56  70
BRANCH  57  82
ATOM     82  C   UNL A   1      43.347  23.619  26.966  1.00  0.00     0.058 A 
ATOM     83  C   UNL A   1      43.110  23.159  25.662  1.00  0.00     0.135 A 
ATOM     84  C   UNL A   1      43.167  22.711  28.020  1.00  0.00     0.135 A 
ATOM     85  F   UNL A   1      43.262  23.990  24.619  1.00  0.00    -0.206 F 
ATOM     86  C   UNL A   1      42.698  21.853  25.412  1.00  0.00     0.059 A 
ATOM     87  C   UNL A   1      42.784  21.392  27.795  1.00  0.00     0.059 A 
ATOM     88  F   UNL A   1      43.397  23.096  29.286  1.00  0.00    -0.206 F 
ATOM     89  C   UNL A   1      42.545  20.975  26.486  1.00  0.00     0.060 A 
BRANCH  89  90
ATOM     90  S   UNL A   1      42.069  19.267  26.144  1.00  0.00     0.124 S 
ATOM     91  O   UNL A   1      40.627  19.392  25.966  1.00  0.00    -0.237 OA
ATOM     92  O   UNL A   1      42.839  18.972  24.940  1.00  0.00    -0.237 OA
ATOM     93  O   UNL A   1      42.497  18.553  27.344  1.00  0.00    -0.744 OA
ENDBRANCH  89  90
ENDBRANCH  57  82
BRANCH  69  94
ATOM     94  C   UNL A   1      49.453  26.915  26.178  1.00  0.00     0.058 A 
ATOM     95  C   UNL A   1      50.344  26.252  27.038  1.00  0.00     0.135 A 
ATOM     96  C   UNL A   1      49.847  27.091  24.840  1.00  0.00     0.135 A 
ATOM     97  F   UNL A   1      50.021  26.062  28.327  1.00  0.00    -0.206 F 
ATOM     98  C   UNL A   1      51.584  25.804  26.596  1.00  0.00     0.059 A 
ATOM     99  C   UNL A   1      51.068  26.622  24.369  1.00  0.00     0.059 A 
ATOM    100  F   UNL A   1      49.031  27.709  23.972  1.00  0.00    -0.206 F 
ATOM    101  C   UNL A   1      51.936  25.990  25.257  1.00  0.00     0.060 A 
BRANCH 101 102
ATOM    102  S   UNL A   1      53.533  25.370  24.689  1.00  0.00     0.124 S 
ATOM    103  O   UNL A   1      53.442  25.599  23.251  1.00  0.00    -0.237 OA
ATOM    104  O   UNL A   1      54.472  26.226  25.408  1.00  0.00    -0.237 OA
ATOM    105  O   UNL A   1      53.524  23.971  25.104  1.00  0.00    -0.744 OA
ENDBRANCH 101 102
ENDBRANCH  69  94
ENDBRANCH  43  44
ENDBRANCH  35  38
ENDBRANCH  33  34
ENDBRANCH  32  33
ENDBRANCH   1  32
TORSDOF 20
ENDMDL
MODEL 3
REMARK VINA RESULT:     -11.8      1.683      4.376
REMARK SMILES O=C1CC[C@@H](CC(=O)N2CCC(Oc3ccccc3)(C(=O)NCCCCCCNC(=O)c3ccc(-c4c5nc(c(-c6c(F)cc(S(=O)(=O)[O-])cc6F)c6ccc([nH]6)c(-c6c(F)cc(S(=O)(=O)[O-])cc6F)c6nc(c(-c7c(F)cc(S(=O)(=O)[O-])cc7F)c7ccc4[nH]7)C=C6)C=C5)cc3)CC2)N1
REMARK SMILES IDX 26 1 25 2 24 3 23 4 22 5 20 6 21 7 12 9 7 10 8 11 9 12 10 13
REMARK SMILES IDX 99 14 11 15 98 16 6 17 5 18 1 19 2 20 3 21 100 22 4 23 13 25
REMARK SMILES IDX 14 26 15 27 19 28 16 29 18 30 17 31 27 32 28 33 29 34 30 35
REMARK SMILES IDX 31 37 32 38 33 39 97 40 34 41 96 42 35 43 36 44 37 45 90 46
REMARK SMILES IDX 38 47 95 48 89 49 91 50 39 51 94 52 88 53 87 54 40 56 74 57
REMARK SMILES IDX 53 58 73 59 54 60 57 61 72 62 92 63 55 64 56 65 71 67 93 68
REMARK SMILES IDX 58 69 41 70 42 71 51 72 43 73 44 74 50 75 52 76 45 77 46 78
REMARK SMILES IDX 47 79 48 80 49 81 75 82 76 83 85 84 77 85 78 86 84 87 86 88
REMARK SMILES IDX 79 89 80 90 81 91 82 92 83 93 59 94 60 95 69 96 61 97 62 98
REMARK SMILES IDX 68 99 70 100 63 101 64 102 65 103 66 104 67 105
REMARK H PARENT 22 8 100 24 29 36 91 55 57 66
REMARK Flexibility Score: inf
ROOT
ATOM      1  C   UNL A   1      41.082  21.739  26.431  1.00  0.00     0.002 C 
ENDROOT
BRANCH   1   2
ATOM      2  C   UNL A   1      39.581  22.040  26.499  1.00  0.00     0.002 C 
BRANCH   2   3
ATOM      3  C   UNL A   1      39.234  23.533  26.571  1.00  0.00     0.021 C 
BRANCH   3   4
ATOM      4  C   UNL A   1      37.789  23.835  26.196  1.00  0.00     0.116 C 
BRANCH   4   5
ATOM      5  N   UNL A   1      37.598  23.583  24.789  1.00  0.00    -0.353 N 
ATOM      6  C   UNL A   1      36.453  23.439  24.079  1.00  0.00     0.264 C 
ATOM      7  O   UNL A   1      36.607  23.223  22.872  1.00  0.00    -0.270 OA
ATOM      8  H   UNL A   1      38.426  23.503  24.264  1.00  0.00     0.163 HD
BRANCH   6   9
ATOM      9  C   UNL A   1      35.052  23.578  24.745  1.00  0.00     0.190 C 
ATOM     10  C   UNL A   1      33.212  19.944  25.645  1.00  0.00     0.224 C 
ATOM     11  O   UNL A   1      32.850  19.948  26.830  1.00  0.00    -0.275 OA
ATOM     12  N   UNL A   1      34.194  20.819  25.226  1.00  0.00    -0.342 N 
ATOM     13  C   UNL A   1      35.086  21.456  26.194  1.00  0.00     0.124 C 
ATOM     14  C   UNL A   1      34.315  21.342  23.889  1.00  0.00     0.124 C 
ATOM     15  C   UNL A   1      34.957  22.976  26.166  1.00  0.00     0.080 C 
ATOM     16  C   UNL A   1      34.057  22.843  23.839  1.00  0.00     0.080 C 
BRANCH  10  17
ATOM     17  C   UNL A   1      32.706  18.785  24.764  1.00  0.00     0.125 C 
BRANCH  17  18
ATOM     18  C   UNL A   1      33.387  17.450  24.450  1.00  0.00     0.091 C 
ATOM     19  O   UNL A   1      36.176  15.736  25.727  1.00  0.00    -0.275 OA
ATOM     20  C   UNL A   1      35.063  16.086  25.370  1.00  0.00     0.220 C 
ATOM     21  C   UNL A   1      33.796  15.276  25.492  1.00  0.00     0.102 C 
ATOM     22  N   UNL A   1      34.761  17.317  24.831  1.00  0.00    -0.353 N 
ATOM     23  C   UNL A   1      32.684  16.198  24.981  1.00  0.00     0.035 C 
ATOM     24  H   UNL A   1      35.425  18.036  24.718  1.00  0.00     0.163 HD
ENDBRANCH  17  18
ENDBRANCH  10  17
BRANCH   9  25
ATOM     25  O   UNL A   1      34.881  25.018  24.684  1.00  0.00    -0.477 OA
BRANCH  25  26
ATOM     26  C   UNL A   1      33.628  25.527  24.835  1.00  0.00     0.120 A 
ATOM     27  C   UNL A   1      32.823  25.642  23.704  1.00  0.00     0.046 A 
ATOM     28  C   UNL A   1      33.214  26.074  26.047  1.00  0.00     0.046 A 
ATOM     29  C   UNL A   1      31.564  26.236  23.806  1.00  0.00     0.004 A 
ATOM     30  C   UNL A   1      31.948  26.647  26.155  1.00  0.00     0.004 A 
ATOM     31  C   UNL A   1      31.121  26.723  25.036  1.00  0.00     0.000 A 
ENDBRANCH  25  26
ENDBRANCH   9  25
ENDBRANCH   6   9
ENDBRANCH   4   5
ENDBRANCH   3   4
ENDBRANCH   2   3
ENDBRANCH   1   2
BRANCH   1  32
ATOM     32  C   UNL A   1      41.802  21.801  27.779  1.00  0.00     0.021 C 
BRANCH  32  33
ATOM     33  C   UNL A   1      42.610  23.074  27.988  1.00  0.00     0.116 C 
BRANCH  33  34
ATOM     34  N   UNL A   1      42.894  23.738  26.729  1.00  0.00    -0.352 N 
ATOM     35  C   UNL A   1      42.658  25.044  26.379  1.00  0.00     0.251 C 
ATOM     36  H   UNL A   1      43.310  23.179  26.034  1.00  0.00     0.163 HD
ATOM     37  O   UNL A   1      42.737  25.392  25.206  1.00  0.00    -0.269 OA
BRANCH  35  38
ATOM     38  C   UNL A   1      42.292  26.016  27.429  1.00  0.00     0.039 A 
ATOM     39  C   UNL A   1      41.155  25.781  28.203  1.00  0.00     0.014 A 
ATOM     40  C   UNL A   1      43.083  27.147  27.658  1.00  0.00     0.014 A 
ATOM     41  C   UNL A   1      40.838  26.658  29.240  1.00  0.00     0.010 A 
ATOM     42  C   UNL A   1      42.812  27.971  28.743  1.00  0.00     0.010 A 
ATOM     43  C   UNL A   1      41.681  27.743  29.539  1.00  0.00    -0.014 A 
BRANCH  43  44
ATOM     44  C   UNL A   1      41.390  28.649  30.679  1.00  0.00     0.031 A 
ATOM     45  C   UNL A   1      42.202  28.558  31.942  1.00  0.00     0.074 A 
ATOM     46  C   UNL A   1      40.360  29.514  30.595  1.00  0.00     0.049 A 
ATOM     47  N   UNL A   1      42.070  29.226  33.058  1.00  0.00    -0.248 NA
ATOM     48  C   UNL A   1      43.288  27.563  31.963  1.00  0.00     0.031 C 
ATOM     49  C   UNL A   1      39.472  29.662  29.440  1.00  0.00     0.029 A 
ATOM     50  N   UNL A   1      39.881  30.428  31.500  1.00  0.00    -0.354 N 
ATOM     51  C   UNL A   1      43.045  28.728  33.916  1.00  0.00     0.074 A 
ATOM     52  C   UNL A   1      43.720  27.660  33.211  1.00  0.00     0.031 C 
ATOM     53  C   UNL A   1      38.576  30.629  29.694  1.00  0.00     0.029 A 
ATOM     54  C   UNL A   1      38.796  31.139  31.044  1.00  0.00     0.049 A 
ATOM     55  H   UNL A   1      40.276  30.561  32.392  1.00  0.00     0.167 HD
ATOM     56  C   UNL A   1      43.363  29.139  35.166  1.00  0.00     0.037 A 
ATOM     57  C   UNL A   1      38.057  32.090  31.648  1.00  0.00     0.037 A 
ATOM     58  C   UNL A   1      42.694  30.215  35.852  1.00  0.00     0.049 A 
ATOM     59  C   UNL A   1      38.418  32.520  33.044  1.00  0.00     0.074 A 
ATOM     60  C   UNL A   1      42.976  30.748  37.097  1.00  0.00     0.029 A 
ATOM     61  N   UNL A   1      41.602  30.915  35.356  1.00  0.00    -0.354 N 
ATOM     62  N   UNL A   1      39.387  32.087  33.815  1.00  0.00    -0.248 NA
ATOM     63  C   UNL A   1      37.591  33.572  33.650  1.00  0.00     0.031 C 
ATOM     64  C   UNL A   1      42.020  31.729  37.378  1.00  0.00     0.029 A 
ATOM     65  C   UNL A   1      41.181  31.855  36.283  1.00  0.00     0.049 A 
ATOM     66  H   UNL A   1      41.189  30.766  34.475  1.00  0.00     0.167 HD
ATOM     67  C   UNL A   1      39.305  32.833  34.986  1.00  0.00     0.074 A 
ATOM     68  C   UNL A   1      38.197  33.752  34.815  1.00  0.00     0.031 C 
ATOM     69  C   UNL A   1      40.077  32.766  36.099  1.00  0.00     0.037 A 
BRANCH  56  70
ATOM     70  C   UNL A   1      44.477  28.417  35.877  1.00  0.00     0.058 A 
ATOM     71  C   UNL A   1      44.231  27.317  36.716  1.00  0.00     0.135 A 
ATOM     72  C   UNL A   1      45.812  28.815  35.700  1.00  0.00     0.135 A 
ATOM     73  F   UNL A   1      42.974  26.898  36.933  1.00  0.00    -0.206 F 
ATOM     74  C   UNL A   1      45.264  26.665  37.383  1.00  0.00     0.059 A 
ATOM     75  C   UNL A   1      46.864  28.156  36.331  1.00  0.00     0.059 A 
ATOM     76  F   UNL A   1      46.107  29.859  34.910  1.00  0.00    -0.206 F 
ATOM     77  C   UNL A   1      46.577  27.093  37.186  1.00  0.00     0.060 A 
BRANCH  77  78
ATOM     78  S   UNL A   1      47.902  26.241  38.066  1.00  0.00     0.124 S 
ATOM     79  O   UNL A   1      47.711  26.735  39.427  1.00  0.00    -0.237 OA
ATOM     80  O   UNL A   1      47.568  24.838  37.849  1.00  0.00    -0.237 OA
ATOM     81  O   UNL A   1      49.112  26.707  37.395  1.00  0.00    -0.744 OA
ENDBRANCH  77  78
ENDBRANCH  56  70
BRANCH  57  82
ATOM     82  C   UNL A   1      36.920  32.716  30.921  1.00  0.00     0.058 A 
ATOM     83  C   UNL A   1      37.130  33.787  30.040  1.00  0.00     0.135 A 
ATOM     84  C   UNL A   1      35.608  32.241  31.070  1.00  0.00     0.135 A 
ATOM     85  F   UNL A   1      38.365  34.282  29.868  1.00  0.00    -0.206 F 
ATOM     86  C   UNL A   1      36.080  34.374  29.342  1.00  0.00     0.059 A 
ATOM     87  C   UNL A   1      34.545  32.792  30.361  1.00  0.00     0.059 A 
ATOM     88  F   UNL A   1      35.355  31.207  31.889  1.00  0.00    -0.206 F 
ATOM     89  C   UNL A   1      34.791  33.863  29.504  1.00  0.00     0.060 A 
BRANCH  89  90
ATOM     90  S   UNL A   1      33.445  34.594  28.545  1.00  0.00     0.124 S 
ATOM     91  O   UNL A   1      33.014  33.463  27.732  1.00  0.00    -0.237 OA
ATOM     92  O   UNL A   1      32.521  35.017  29.593  1.00  0.00    -0.237 OA
ATOM     93  O   UNL A   1      34.100  35.679  27.821  1.00  0.00    -0.744 OA
ENDBRANCH  89  90
ENDBRANCH  57  82
BRANCH  69  94
ATOM     94  C   UNL A   1      39.779  33.735  37.211  1.00  0.00     0.058 A 
ATOM     95  C   UNL A   1      38.902  33.416  38.260  1.00  0.00     0.135 A 
ATOM     96  C   UNL A   1      40.425  34.983  37.256  1.00  0.00     0.135 A 
ATOM     97  F   UNL A   1      38.253  32.240  38.263  1.00  0.00    -0.206 F 
ATOM     98  C   UNL A   1      38.656  34.308  39.298  1.00  0.00     0.059 A 
ATOM     99  C   UNL A   1      40.219  35.876  38.301  1.00  0.00     0.059 A 
ATOM    100  F   UNL A   1      41.282  35.335  36.284  1.00  0.00    -0.206 F 
ATOM    101  C   UNL A   1      39.323  35.535  39.313  1.00  0.00     0.060 A 
BRANCH 101 102
ATOM    102  S   UNL A   1      39.022  36.667  40.686  1.00  0.00     0.124 S 
ATOM    103  O   UNL A   1      38.211  35.841  41.574  1.00  0.00    -0.237 OA
ATOM    104  O   UNL A   1      40.375  36.959  41.151  1.00  0.00    -0.237 OA
ATOM    105  O   UNL A   1      38.325  37.786  40.059  1.00  0.00    -0.744 OA
ENDBRANCH 101 102
ENDBRANCH  69  94
ENDBRANCH  43  44
ENDBRANCH  35  38
ENDBRANCH  33  34
ENDBRANCH  32  33
ENDBRANCH   1  32
TORSDOF 20
ENDMDL
