MODEL 1
REMARK VINA RESULT:     -11.5      0.000      0.000
REMARK SMILES CC1(C)S[C@H](c2ccccc2O)[NH2+][C@H]1C(=O)NCCCCCCNC(=O)c1ccc(-c2c3nc(c(-c4c(F)cc(S(=O)(=O)[O-])cc4F)c4ccc([nH]4)c(-c4c(F)cc(S(=O)(=O)[O-])cc4F)c4nc(c(-c5c(F)cc(S(=O)(=O)[O-])cc5F)c5ccc2[nH]5)C=C4)C=C3)cc1
REMARK SMILES IDX 21 1 20 2 19 3 18 4 17 5 15 6 16 7 14 9 1 10 2 11 3 12 4 13
REMARK SMILES IDX 5 14 13 15 6 18 7 19 11 20 8 21 10 22 9 23 12 24 22 26 23 27
REMARK SMILES IDX 24 28 25 29 26 31 27 32 28 33 92 34 29 35 91 36 30 37 31 38
REMARK SMILES IDX 32 39 85 40 33 41 90 42 84 43 86 44 34 45 89 46 83 47 82 48
REMARK SMILES IDX 35 50 69 51 48 52 68 53 49 54 52 55 67 56 87 57 50 58 51 59
REMARK SMILES IDX 66 61 88 62 53 63 36 64 37 65 46 66 38 67 39 68 45 69 47 70
REMARK SMILES IDX 40 71 41 72 42 73 43 74 44 75 70 76 71 77 80 78 72 79 73 80
REMARK SMILES IDX 79 81 81 82 74 83 75 84 76 85 77 86 78 87 54 88 55 89 64 90
REMARK SMILES IDX 56 91 57 92 63 93 65 94 58 95 59 96 60 97 61 98 62 99
REMARK H PARENT 17 8 13 16 13 17 12 25 24 30 86 49 52 60
REMARK Flexibility Score: inf
ROOT
ATOM      1  C   UNL A   1      32.267  27.552  24.952  1.00  0.00     0.002 C 
ENDROOT
BRANCH   1   2
ATOM      2  C   UNL A   1      30.817  27.348  24.506  1.00  0.00     0.002 C 
BRANCH   2   3
ATOM      3  C   UNL A   1      30.629  26.412  23.311  1.00  0.00     0.021 C 
BRANCH   3   4
ATOM      4  C   UNL A   1      30.212  24.989  23.678  1.00  0.00     0.116 C 
BRANCH   4   5
ATOM      5  N   UNL A   1      30.223  24.792  25.114  1.00  0.00    -0.351 N 
ATOM      6  C   UNL A   1      30.889  23.939  25.935  1.00  0.00     0.279 C 
ATOM      7  O   UNL A   1      30.561  23.977  27.129  1.00  0.00    -0.268 OA
ATOM      8  H   UNL A   1      29.622  25.407  25.595  1.00  0.00     0.163 HD
BRANCH   6   9
ATOM      9  C   UNL A   1      31.966  22.931  25.479  1.00  0.00     0.289 C 
ATOM     10  C   UNL A   1      33.973  24.367  26.375  1.00  0.00     0.030 C 
ATOM     11  C   UNL A   1      33.377  23.506  25.266  1.00  0.00     0.077 C 
ATOM     12  C   UNL A   1      33.472  24.261  23.934  1.00  0.00     0.030 C 
ATOM     13  S   UNL A   1      34.398  22.000  25.164  1.00  0.00    -0.081 SA
ATOM     14  C   UNL A   1      33.124  20.872  25.838  1.00  0.00     0.278 C 
ATOM     15  N   UNL A   1      31.981  21.689  26.293  1.00  0.00    -0.320 N 
ATOM     16  H   UNL A   1      32.090  21.920  27.280  1.00  0.00     0.348 HD
ATOM     17  H   UNL A   1      31.107  21.176  26.181  1.00  0.00     0.348 HD
BRANCH  14  18
ATOM     18  C   UNL A   1      32.783  19.774  24.845  1.00  0.00     0.062 A 
ATOM     19  C   UNL A   1      32.573  20.018  23.476  1.00  0.00     0.015 A 
ATOM     20  C   UNL A   1      32.698  18.439  25.282  1.00  0.00     0.125 A 
ATOM     21  C   UNL A   1      32.337  18.969  22.582  1.00  0.00     0.001 A 
ATOM     22  C   UNL A   1      32.469  17.387  24.394  1.00  0.00     0.047 A 
ATOM     23  C   UNL A   1      32.297  17.654  23.039  1.00  0.00     0.004 A 
BRANCH  20  24
ATOM     24  O   UNL A   1      32.838  18.172  26.617  1.00  0.00    -0.507 OA
ATOM     25  H   UNL A   1      33.470  17.543  26.905  1.00  0.00     0.293 HD
ENDBRANCH  20  24
ENDBRANCH  14  18
ENDBRANCH   6   9
ENDBRANCH   4   5
ENDBRANCH   3   4
ENDBRANCH   2   3
ENDBRANCH   1   2
BRANCH   1  26
ATOM     26  C   UNL A   1      32.487  27.655  26.465  1.00  0.00     0.021 C 
BRANCH  26  27
ATOM     27  C   UNL A   1      33.793  28.318  26.895  1.00  0.00     0.116 C 
BRANCH  27  28
ATOM     28  N   UNL A   1      33.590  29.667  27.388  1.00  0.00    -0.352 N 
ATOM     29  C   UNL A   1      34.446  30.475  28.092  1.00  0.00     0.251 C 
ATOM     30  H   UNL A   1      32.711  30.060  27.188  1.00  0.00     0.163 HD
ATOM     31  O   UNL A   1      34.028  31.525  28.572  1.00  0.00    -0.269 OA
BRANCH  29  32
ATOM     32  C   UNL A   1      35.859  30.081  28.286  1.00  0.00     0.039 A 
ATOM     33  C   UNL A   1      36.252  29.610  29.542  1.00  0.00     0.014 A 
ATOM     34  C   UNL A   1      36.804  30.221  27.264  1.00  0.00     0.014 A 
ATOM     35  C   UNL A   1      37.584  29.257  29.766  1.00  0.00     0.010 A 
ATOM     36  C   UNL A   1      38.120  29.807  27.470  1.00  0.00     0.010 A 
ATOM     37  C   UNL A   1      38.527  29.344  28.730  1.00  0.00    -0.014 A 
BRANCH  37  38
ATOM     38  C   UNL A   1      39.949  28.996  28.974  1.00  0.00     0.031 A 
ATOM     39  C   UNL A   1      40.879  30.006  29.593  1.00  0.00     0.074 A 
ATOM     40  C   UNL A   1      40.409  27.779  28.625  1.00  0.00     0.049 A 
ATOM     41  N   UNL A   1      42.146  29.888  29.895  1.00  0.00    -0.248 NA
ATOM     42  C   UNL A   1      40.315  31.334  29.889  1.00  0.00     0.031 C 
ATOM     43  C   UNL A   1      39.620  26.733  27.968  1.00  0.00     0.029 A 
ATOM     44  N   UNL A   1      41.649  27.213  28.774  1.00  0.00    -0.354 N 
ATOM     45  C   UNL A   1      42.534  31.122  30.404  1.00  0.00     0.074 A 
ATOM     46  C   UNL A   1      41.381  31.993  30.320  1.00  0.00     0.031 C 
ATOM     47  C   UNL A   1      40.389  25.646  27.797  1.00  0.00     0.029 A 
ATOM     48  C   UNL A   1      41.727  25.921  28.311  1.00  0.00     0.049 A 
ATOM     49  H   UNL A   1      42.413  27.689  29.175  1.00  0.00     0.167 HD
ATOM     50  C   UNL A   1      43.731  31.490  30.920  1.00  0.00     0.037 A 
ATOM     51  C   UNL A   1      42.758  25.055  28.312  1.00  0.00     0.037 A 
ATOM     52  C   UNL A   1      44.865  30.610  31.032  1.00  0.00     0.049 A 
ATOM     53  C   UNL A   1      44.068  25.474  28.923  1.00  0.00     0.074 A 
ATOM     54  C   UNL A   1      46.103  30.866  31.594  1.00  0.00     0.029 A 
ATOM     55  N   UNL A   1      44.896  29.300  30.577  1.00  0.00    -0.354 N 
ATOM     56  N   UNL A   1      44.396  26.626  29.460  1.00  0.00    -0.248 NA
ATOM     57  C   UNL A   1      45.142  24.472  28.943  1.00  0.00     0.031 C 
ATOM     58  C   UNL A   1      46.894  29.720  31.450  1.00  0.00     0.029 A 
ATOM     59  C   UNL A   1      46.136  28.739  30.833  1.00  0.00     0.049 A 
ATOM     60  H   UNL A   1      44.147  28.838  30.137  1.00  0.00     0.167 HD
ATOM     61  C   UNL A   1      45.707  26.480  29.898  1.00  0.00     0.074 A 
ATOM     62  C   UNL A   1      46.104  25.122  29.581  1.00  0.00     0.031 C 
ATOM     63  C   UNL A   1      46.512  27.386  30.507  1.00  0.00     0.037 A 
BRANCH  50  64
ATOM     64  C   UNL A   1      43.868  32.905  31.412  1.00  0.00     0.058 A 
ATOM     65  C   UNL A   1      43.546  33.259  32.733  1.00  0.00     0.135 A 
ATOM     66  C   UNL A   1      44.343  33.916  30.562  1.00  0.00     0.135 A 
ATOM     67  F   UNL A   1      43.071  32.335  33.584  1.00  0.00    -0.206 F 
ATOM     68  C   UNL A   1      43.658  34.570  33.184  1.00  0.00     0.059 A 
ATOM     69  C   UNL A   1      44.488  35.230  31.000  1.00  0.00     0.059 A 
ATOM     70  F   UNL A   1      44.665  33.634  29.291  1.00  0.00    -0.206 F 
ATOM     71  C   UNL A   1      44.127  35.550  32.308  1.00  0.00     0.060 A 
BRANCH  71  72
ATOM     72  S   UNL A   1      44.262  37.248  32.905  1.00  0.00     0.124 S 
ATOM     73  O   UNL A   1      45.671  37.313  33.282  1.00  0.00    -0.237 OA
ATOM     74  O   UNL A   1      43.887  38.026  31.728  1.00  0.00    -0.237 OA
ATOM     75  O   UNL A   1      43.313  37.295  34.012  1.00  0.00    -0.744 OA
ENDBRANCH  71  72
ENDBRANCH  50  64
BRANCH  51  76
ATOM     76  C   UNL A   1      42.581  23.691  27.750  1.00  0.00     0.058 A 
ATOM     77  C   UNL A   1      42.631  23.468  26.367  1.00  0.00     0.135 A 
ATOM     78  C   UNL A   1      42.374  22.582  28.585  1.00  0.00     0.135 A 
ATOM     79  F   UNL A   1      42.823  24.498  25.528  1.00  0.00    -0.206 F 
ATOM     80  C   UNL A   1      42.465  22.197  25.826  1.00  0.00     0.059 A 
ATOM     81  C   UNL A   1      42.227  21.297  28.070  1.00  0.00     0.059 A 
ATOM     82  F   UNL A   1      42.335  22.741  29.917  1.00  0.00    -0.206 F 
ATOM     83  C   UNL A   1      42.265  21.116  26.688  1.00  0.00     0.060 A 
BRANCH  83  84
ATOM     84  S   UNL A   1      42.101  19.463  25.982  1.00  0.00     0.124 S 
ATOM     85  O   UNL A   1      42.930  19.570  24.787  1.00  0.00    -0.237 OA
ATOM     86  O   UNL A   1      42.626  18.618  27.050  1.00  0.00    -0.237 OA
ATOM     87  O   UNL A   1      40.665  19.341  25.748  1.00  0.00    -0.744 OA
ENDBRANCH  83  84
ENDBRANCH  51  76
BRANCH  63  88
ATOM     88  C   UNL A   1      47.892  26.928  30.885  1.00  0.00     0.058 A 
ATOM     89  C   UNL A   1      48.996  27.148  30.044  1.00  0.00     0.135 A 
ATOM     90  C   UNL A   1      48.118  26.279  32.108  1.00  0.00     0.135 A 
ATOM     91  F   UNL A   1      48.831  27.761  28.861  1.00  0.00    -0.206 F 
ATOM     92  C   UNL A   1      50.269  26.708  30.388  1.00  0.00     0.059 A 
ATOM     93  C   UNL A   1      49.388  25.852  32.484  1.00  0.00     0.059 A 
ATOM     94  F   UNL A   1      47.099  26.055  32.954  1.00  0.00    -0.206 F 
ATOM     95  C   UNL A   1      50.454  26.055  31.608  1.00  0.00     0.060 A 
BRANCH  95  96
ATOM     96  S   UNL A   1      52.111  25.489  32.048  1.00  0.00     0.124 S 
ATOM     97  O   UNL A   1      52.382  26.283  33.243  1.00  0.00    -0.237 OA
ATOM     98  O   UNL A   1      51.909  24.061  32.270  1.00  0.00    -0.237 OA
ATOM     99  O   UNL A   1      52.908  25.828  30.873  1.00  0.00    -0.744 OA
ENDBRANCH  95  96
ENDBRANCH  63  88
ENDBRANCH  37  38
ENDBRANCH  29  32
ENDBRANCH  27  28
ENDBRANCH  26  27
ENDBRANCH   1  26
TORSDOF 18
ENDMDL
MODEL 2
REMARK VINA RESULT:     -11.4      5.130     10.743
REMARK SMILES CC1(C)S[C@H](c2ccccc2O)[NH2+][C@H]1C(=O)NCCCCCCNC(=O)c1ccc(-c2c3nc(c(-c4c(F)cc(S(=O)(=O)[O-])cc4F)c4ccc([nH]4)c(-c4c(F)cc(S(=O)(=O)[O-])cc4F)c4nc(c(-c5c(F)cc(S(=O)(=O)[O-])cc5F)c5ccc2[nH]5)C=C4)C=C3)cc1
REMARK SMILES IDX 21 1 20 2 19 3 18 4 17 5 15 6 16 7 14 9 1 10 2 11 3 12 4 13
REMARK SMILES IDX 5 14 13 15 6 18 7 19 11 20 8 21 10 22 9 23 12 24 22 26 23 27
REMARK SMILES IDX 24 28 25 29 26 31 27 32 28 33 92 34 29 35 91 36 30 37 31 38
REMARK SMILES IDX 32 39 85 40 33 41 90 42 84 43 86 44 34 45 89 46 83 47 82 48
REMARK SMILES IDX 35 50 69 51 48 52 68 53 49 54 52 55 67 56 87 57 50 58 51 59
REMARK SMILES IDX 66 61 88 62 53 63 36 64 37 65 46 66 38 67 39 68 45 69 47 70
REMARK SMILES IDX 40 71 41 72 42 73 43 74 44 75 70 76 71 77 80 78 72 79 73 80
REMARK SMILES IDX 79 81 81 82 74 83 75 84 76 85 77 86 78 87 54 88 55 89 64 90
REMARK SMILES IDX 56 91 57 92 63 93 65 94 58 95 59 96 60 97 61 98 62 99
REMARK H PARENT 17 8 13 16 13 17 12 25 24 30 86 49 52 60
REMARK Flexibility Score: inf
ROOT
ATOM      1  C   UNL A   1      36.127  23.578  26.041  1.00  0.00     0.002 C 
ENDROOT
BRANCH   1   2
ATOM      2  C   UNL A   1      35.200  23.719  24.832  1.00  0.00     0.002 C 
BRANCH   2   3
ATOM      3  C   UNL A   1      34.509  25.077  24.695  1.00  0.00     0.021 C 
BRANCH   3   4
ATOM      4  C   UNL A   1      33.110  25.020  24.086  1.00  0.00     0.116 C 
BRANCH   4   5
ATOM      5  N   UNL A   1      32.095  24.893  25.114  1.00  0.00    -0.351 N 
ATOM      6  C   UNL A   1      31.324  25.791  25.781  1.00  0.00     0.279 C 
ATOM      7  O   UNL A   1      30.629  25.326  26.695  1.00  0.00    -0.268 OA
ATOM      8  H   UNL A   1      31.931  23.960  25.384  1.00  0.00     0.163 HD
BRANCH   6   9
ATOM      9  C   UNL A   1      31.291  27.309  25.504  1.00  0.00     0.289 C 
ATOM     10  C   UNL A   1      33.567  27.782  26.723  1.00  0.00     0.030 C 
ATOM     11  C   UNL A   1      32.120  28.185  26.460  1.00  0.00     0.077 C 
ATOM     12  C   UNL A   1      31.399  28.380  27.799  1.00  0.00     0.030 C 
ATOM     13  S   UNL A   1      32.170  29.779  25.580  1.00  0.00    -0.081 SA
ATOM     14  C   UNL A   1      31.598  29.117  23.972  1.00  0.00     0.278 C 
ATOM     15  N   UNL A   1      31.534  27.645  24.078  1.00  0.00    -0.320 N 
ATOM     16  H   UNL A   1      32.416  27.235  23.769  1.00  0.00     0.348 HD
ATOM     17  H   UNL A   1      30.788  27.276  23.490  1.00  0.00     0.348 HD
BRANCH  14  18
ATOM     18  C   UNL A   1      30.313  29.793  23.525  1.00  0.00     0.062 A 
ATOM     19  C   UNL A   1      29.706  30.835  24.248  1.00  0.00     0.015 A 
ATOM     20  C   UNL A   1      29.699  29.399  22.322  1.00  0.00     0.125 A 
ATOM     21  C   UNL A   1      28.566  31.482  23.763  1.00  0.00     0.001 A 
ATOM     22  C   UNL A   1      28.565  30.045  21.829  1.00  0.00     0.047 A 
ATOM     23  C   UNL A   1      28.003  31.096  22.549  1.00  0.00     0.004 A 
BRANCH  20  24
ATOM     24  O   UNL A   1      30.230  28.349  21.623  1.00  0.00    -0.507 OA
ATOM     25  H   UNL A   1      31.153  28.308  21.468  1.00  0.00     0.293 HD
ENDBRANCH  20  24
ENDBRANCH  14  18
ENDBRANCH   6   9
ENDBRANCH   4   5
ENDBRANCH   3   4
ENDBRANCH   2   3
ENDBRANCH   1   2
BRANCH   1  26
ATOM     26  C   UNL A   1      37.618  23.429  25.719  1.00  0.00     0.021 C 
BRANCH  26  27
ATOM     27  C   UNL A   1      38.564  24.244  26.598  1.00  0.00     0.116 C 
BRANCH  27  28
ATOM     28  N   UNL A   1      39.917  24.270  26.076  1.00  0.00    -0.352 N 
ATOM     29  C   UNL A   1      40.957  25.106  26.392  1.00  0.00     0.251 C 
ATOM     30  H   UNL A   1      40.118  23.588  25.395  1.00  0.00     0.163 HD
ATOM     31  O   UNL A   1      41.979  25.082  25.712  1.00  0.00    -0.269 OA
BRANCH  29  32
ATOM     32  C   UNL A   1      40.846  26.043  27.532  1.00  0.00     0.039 A 
ATOM     33  C   UNL A   1      39.883  25.787  28.512  1.00  0.00     0.014 A 
ATOM     34  C   UNL A   1      41.642  27.190  27.615  1.00  0.00     0.014 A 
ATOM     35  C   UNL A   1      39.733  26.667  29.585  1.00  0.00     0.010 A 
ATOM     36  C   UNL A   1      41.536  28.034  28.721  1.00  0.00     0.010 A 
ATOM     37  C   UNL A   1      40.565  27.793  29.704  1.00  0.00    -0.014 A 
BRANCH  37  38
ATOM     38  C   UNL A   1      40.388  28.744  30.829  1.00  0.00     0.031 A 
ATOM     39  C   UNL A   1      41.244  28.623  32.062  1.00  0.00     0.074 A 
ATOM     40  C   UNL A   1      39.447  29.705  30.750  1.00  0.00     0.049 A 
ATOM     41  N   UNL A   1      41.247  29.362  33.142  1.00  0.00    -0.248 NA
ATOM     42  C   UNL A   1      42.205  27.509  32.098  1.00  0.00     0.031 C 
ATOM     43  C   UNL A   1      38.520  29.891  29.632  1.00  0.00     0.029 A 
ATOM     44  N   UNL A   1      39.116  30.709  31.625  1.00  0.00    -0.354 N 
ATOM     45  C   UNL A   1      42.199  28.800  33.986  1.00  0.00     0.074 A 
ATOM     46  C   UNL A   1      42.713  27.625  33.316  1.00  0.00     0.031 C 
ATOM     47  C   UNL A   1      37.744  30.959  29.876  1.00  0.00     0.029 A 
ATOM     48  C   UNL A   1      38.104  31.522  31.175  1.00  0.00     0.049 A 
ATOM     49  H   UNL A   1      39.562  30.834  32.494  1.00  0.00     0.167 HD
ATOM     50  C   UNL A   1      42.625  29.236  35.195  1.00  0.00     0.037 A 
ATOM     51  C   UNL A   1      37.538  32.605  31.740  1.00  0.00     0.037 A 
ATOM     52  C   UNL A   1      42.133  30.424  35.842  1.00  0.00     0.049 A 
ATOM     53  C   UNL A   1      38.054  33.092  33.068  1.00  0.00     0.074 A 
ATOM     54  C   UNL A   1      42.542  30.986  37.039  1.00  0.00     0.029 A 
ATOM     55  N   UNL A   1      41.127  31.238  35.342  1.00  0.00    -0.354 N 
ATOM     56  N   UNL A   1      39.000  32.584  33.822  1.00  0.00    -0.248 NA
ATOM     57  C   UNL A   1      37.435  34.307  33.614  1.00  0.00     0.031 C 
ATOM     58  C   UNL A   1      41.759  32.122  37.278  1.00  0.00     0.029 A 
ATOM     59  C   UNL A   1      40.892  32.289  36.212  1.00  0.00     0.049 A 
ATOM     60  H   UNL A   1      40.651  31.089  34.494  1.00  0.00     0.167 HD
ATOM     61  C   UNL A   1      39.103  33.428  34.922  1.00  0.00     0.074 A 
ATOM     62  C   UNL A   1      38.136  34.489  34.724  1.00  0.00     0.031 C 
ATOM     63  C   UNL A   1      39.922  33.334  35.999  1.00  0.00     0.037 A 
BRANCH  50  64
ATOM     64  C   UNL A   1      43.685  28.425  35.890  1.00  0.00     0.058 A 
ATOM     65  C   UNL A   1      43.354  27.361  36.745  1.00  0.00     0.135 A 
ATOM     66  C   UNL A   1      45.046  28.702  35.688  1.00  0.00     0.135 A 
ATOM     67  F   UNL A   1      42.066  27.064  36.987  1.00  0.00    -0.206 F 
ATOM     68  C   UNL A   1      44.332  26.621  37.401  1.00  0.00     0.059 A 
ATOM     69  C   UNL A   1      46.043  27.957  36.313  1.00  0.00     0.059 A 
ATOM     70  F   UNL A   1      45.419  29.707  34.882  1.00  0.00    -0.206 F 
ATOM     71  C   UNL A   1      45.675  26.930  37.181  1.00  0.00     0.060 A 
BRANCH  71  72
ATOM     72  S   UNL A   1      46.935  25.965  38.042  1.00  0.00     0.124 S 
ATOM     73  O   UNL A   1      46.238  25.614  39.277  1.00  0.00    -0.237 OA
ATOM     74  O   UNL A   1      47.174  24.862  37.117  1.00  0.00    -0.237 OA
ATOM     75  O   UNL A   1      48.040  26.906  38.191  1.00  0.00    -0.744 OA
ENDBRANCH  71  72
ENDBRANCH  50  64
BRANCH  51  76
ATOM     76  C   UNL A   1      36.448  33.327  31.035  1.00  0.00     0.058 A 
ATOM     77  C   UNL A   1      36.713  34.099  29.894  1.00  0.00     0.135 A 
ATOM     78  C   UNL A   1      35.118  33.247  31.475  1.00  0.00     0.135 A 
ATOM     79  F   UNL A   1      37.971  34.208  29.437  1.00  0.00    -0.206 F 
ATOM     80  C   UNL A   1      35.704  34.780  29.224  1.00  0.00     0.059 A 
ATOM     81  C   UNL A   1      34.087  33.902  30.810  1.00  0.00     0.059 A 
ATOM     82  F   UNL A   1      34.810  32.506  32.552  1.00  0.00    -0.206 F 
ATOM     83  C   UNL A   1      34.391  34.675  29.689  1.00  0.00     0.060 A 
BRANCH  83  84
ATOM     84  S   UNL A   1      33.079  35.522  28.784  1.00  0.00     0.124 S 
ATOM     85  O   UNL A   1      32.511  34.432  28.000  1.00  0.00    -0.237 OA
ATOM     86  O   UNL A   1      32.242  36.037  29.864  1.00  0.00    -0.237 OA
ATOM     87  O   UNL A   1      33.801  36.539  28.025  1.00  0.00    -0.744 OA
ENDBRANCH  83  84
ENDBRANCH  51  76
BRANCH  63  88
ATOM     88  C   UNL A   1      39.817  34.420  37.032  1.00  0.00     0.058 A 
ATOM     89  C   UNL A   1      40.543  35.617  36.917  1.00  0.00     0.135 A 
ATOM     90  C   UNL A   1      38.969  34.271  38.141  1.00  0.00     0.135 A 
ATOM     91  F   UNL A   1      41.372  35.806  35.878  1.00  0.00    -0.206 F 
ATOM     92  C   UNL A   1      40.459  36.613  37.884  1.00  0.00     0.059 A 
ATOM     93  C   UNL A   1      38.850  35.264  39.107  1.00  0.00     0.059 A 
ATOM     94  F   UNL A   1      38.244  33.151  38.291  1.00  0.00    -0.206 F 
ATOM     95  C   UNL A   1      39.614  36.424  38.979  1.00  0.00     0.060 A 
BRANCH  95  96
ATOM     96  S   UNL A   1      39.507  37.723  40.228  1.00  0.00     0.124 S 
ATOM     97  O   UNL A   1      39.009  36.979  41.381  1.00  0.00    -0.237 OA
ATOM     98  O   UNL A   1      40.888  38.185  40.322  1.00  0.00    -0.237 OA
ATOM     99  O   UNL A   1      38.571  38.679  39.643  1.00  0.00    -0.744 OA
ENDBRANCH  95  96
ENDBRANCH  63  88
ENDBRANCH  37  38
ENDBRANCH  29  32
ENDBRANCH  27  28
ENDBRANCH  26  27
ENDBRANCH   1  26
TORSDOF 18
ENDMDL
MODEL 3
REMARK VINA RESULT:     -11.4      4.937     10.807
REMARK SMILES CC1(C)S[C@H](c2ccccc2O)[NH2+][C@H]1C(=O)NCCCCCCNC(=O)c1ccc(-c2c3nc(c(-c4c(F)cc(S(=O)(=O)[O-])cc4F)c4ccc([nH]4)c(-c4c(F)cc(S(=O)(=O)[O-])cc4F)c4nc(c(-c5c(F)cc(S(=O)(=O)[O-])cc5F)c5ccc2[nH]5)C=C4)C=C3)cc1
REMARK SMILES IDX 21 1 20 2 19 3 18 4 17 5 15 6 16 7 14 9 1 10 2 11 3 12 4 13
REMARK SMILES IDX 5 14 13 15 6 18 7 19 11 20 8 21 10 22 9 23 12 24 22 26 23 27
REMARK SMILES IDX 24 28 25 29 26 31 27 32 28 33 92 34 29 35 91 36 30 37 31 38
REMARK SMILES IDX 32 39 85 40 33 41 90 42 84 43 86 44 34 45 89 46 83 47 82 48
REMARK SMILES IDX 35 50 69 51 48 52 68 53 49 54 52 55 67 56 87 57 50 58 51 59
REMARK SMILES IDX 66 61 88 62 53 63 36 64 37 65 46 66 38 67 39 68 45 69 47 70
REMARK SMILES IDX 40 71 41 72 42 73 43 74 44 75 70 76 71 77 80 78 72 79 73 80
REMARK SMILES IDX 79 81 81 82 74 83 75 84 76 85 77 86 78 87 54 88 55 89 64 90
REMARK SMILES IDX 56 91 57 92 63 93 65 94 58 95 59 96 60 97 61 98 62 99
REMARK H PARENT 17 8 13 16 13 17 12 25 24 30 86 49 52 60
REMARK Flexibility Score: inf
ROOT
ATOM      1  C   UNL A   1      38.284  22.023  25.783  1.00  0.00     0.002 C 
ENDROOT
BRANCH   1   2
ATOM      2  C   UNL A   1      37.589  23.379  25.629  1.00  0.00     0.002 C 
BRANCH   2   3
ATOM      3  C   UNL A   1      36.132  23.420  26.090  1.00  0.00     0.021 C 
BRANCH   3   4
ATOM      4  C   UNL A   1      35.167  24.058  25.092  1.00  0.00     0.116 C 
BRANCH   4   5
ATOM      5  N   UNL A   1      33.788  23.843  25.484  1.00  0.00    -0.351 N 
ATOM      6  C   UNL A   1      32.738  24.678  25.701  1.00  0.00     0.279 C 
ATOM      7  O   UNL A   1      31.712  24.144  26.147  1.00  0.00    -0.268 OA
ATOM      8  H   UNL A   1      33.567  22.893  25.622  1.00  0.00     0.163 HD
BRANCH   6   9
ATOM      9  C   UNL A   1      32.757  26.204  25.472  1.00  0.00     0.289 C 
ATOM     10  C   UNL A   1      31.050  26.127  23.480  1.00  0.00     0.030 C 
ATOM     11  C   UNL A   1      32.345  26.678  24.068  1.00  0.00     0.077 C 
ATOM     12  C   UNL A   1      33.482  26.478  23.059  1.00  0.00     0.030 C 
ATOM     13  S   UNL A   1      32.088  28.464  24.321  1.00  0.00    -0.081 SA
ATOM     14  C   UNL A   1      32.052  28.384  26.149  1.00  0.00     0.278 C 
ATOM     15  N   UNL A   1      32.069  26.962  26.548  1.00  0.00    -0.320 N 
ATOM     16  H   UNL A   1      31.114  26.621  26.658  1.00  0.00     0.348 HD
ATOM     17  H   UNL A   1      32.554  26.845  27.437  1.00  0.00     0.348 HD
BRANCH  14  18
ATOM     18  C   UNL A   1      33.148  29.243  26.758  1.00  0.00     0.062 A 
ATOM     19  C   UNL A   1      34.436  28.753  27.039  1.00  0.00     0.015 A 
ATOM     20  C   UNL A   1      32.899  30.600  27.034  1.00  0.00     0.125 A 
ATOM     21  C   UNL A   1      35.438  29.595  27.528  1.00  0.00     0.001 A 
ATOM     22  C   UNL A   1      33.898  31.447  27.516  1.00  0.00     0.047 A 
ATOM     23  C   UNL A   1      35.173  30.943  27.755  1.00  0.00     0.004 A 
BRANCH  20  24
ATOM     24  O   UNL A   1      31.641  31.095  26.827  1.00  0.00    -0.507 OA
ATOM     25  H   UNL A   1      30.899  30.664  27.204  1.00  0.00     0.293 HD
ENDBRANCH  20  24
ENDBRANCH  14  18
ENDBRANCH   6   9
ENDBRANCH   4   5
ENDBRANCH   3   4
ENDBRANCH   2   3
ENDBRANCH   1   2
BRANCH   1  26
ATOM     26  C   UNL A   1      39.635  22.049  26.505  1.00  0.00     0.021 C 
BRANCH  26  27
ATOM     27  C   UNL A   1      40.104  23.425  26.971  1.00  0.00     0.116 C 
BRANCH  27  28
ATOM     28  N   UNL A   1      40.970  24.070  26.002  1.00  0.00    -0.352 N 
ATOM     29  C   UNL A   1      41.470  25.347  25.995  1.00  0.00     0.251 C 
ATOM     30  H   UNL A   1      41.237  23.509  25.239  1.00  0.00     0.163 HD
ATOM     31  O   UNL A   1      42.047  25.764  24.995  1.00  0.00    -0.269 OA
BRANCH  29  32
ATOM     32  C   UNL A   1      41.304  26.223  27.176  1.00  0.00     0.039 A 
ATOM     33  C   UNL A   1      40.241  25.972  28.047  1.00  0.00     0.014 A 
ATOM     34  C   UNL A   1      42.152  27.313  27.401  1.00  0.00     0.014 A 
ATOM     35  C   UNL A   1      40.041  26.798  29.154  1.00  0.00     0.010 A 
ATOM     36  C   UNL A   1      41.990  28.098  28.543  1.00  0.00     0.010 A 
ATOM     37  C   UNL A   1      40.919  27.862  29.417  1.00  0.00    -0.014 A 
BRANCH  37  38
ATOM     38  C   UNL A   1      40.691  28.758  30.578  1.00  0.00     0.031 A 
ATOM     39  C   UNL A   1      41.530  28.615  31.820  1.00  0.00     0.074 A 
ATOM     40  C   UNL A   1      39.718  29.688  30.523  1.00  0.00     0.049 A 
ATOM     41  N   UNL A   1      41.491  29.307  32.929  1.00  0.00    -0.248 NA
ATOM     42  C   UNL A   1      42.530  27.534  31.826  1.00  0.00     0.031 C 
ATOM     43  C   UNL A   1      38.802  29.889  29.398  1.00  0.00     0.029 A 
ATOM     44  N   UNL A   1      39.338  30.642  31.433  1.00  0.00    -0.354 N 
ATOM     45  C   UNL A   1      42.447  28.742  33.766  1.00  0.00     0.074 A 
ATOM     46  C   UNL A   1      43.013  27.615  33.056  1.00  0.00     0.031 C 
ATOM     47  C   UNL A   1      37.985  30.918  29.673  1.00  0.00     0.029 A 
ATOM     48  C   UNL A   1      38.304  31.438  31.000  1.00  0.00     0.049 A 
ATOM     49  H   UNL A   1      39.765  30.745  32.315  1.00  0.00     0.167 HD
ATOM     50  C   UNL A   1      42.839  29.141  34.999  1.00  0.00     0.037 A 
ATOM     51  C   UNL A   1      37.691  32.476  31.601  1.00  0.00     0.037 A 
ATOM     52  C   UNL A   1      42.295  30.283  35.687  1.00  0.00     0.049 A 
ATOM     53  C   UNL A   1      38.168  32.923  32.957  1.00  0.00     0.074 A 
ATOM     54  C   UNL A   1      42.664  30.807  36.913  1.00  0.00     0.029 A 
ATOM     55  N   UNL A   1      41.269  31.081  35.204  1.00  0.00    -0.354 N 
ATOM     56  N   UNL A   1      39.119  32.416  33.705  1.00  0.00    -0.248 NA
ATOM     57  C   UNL A   1      37.498  34.092  33.543  1.00  0.00     0.031 C 
ATOM     58  C   UNL A   1      41.838  31.904  37.186  1.00  0.00     0.029 A 
ATOM     59  C   UNL A   1      40.982  32.086  36.113  1.00  0.00     0.049 A 
ATOM     60  H   UNL A   1      40.812  30.952  34.342  1.00  0.00     0.167 HD
ATOM     61  C   UNL A   1      39.175  33.216  34.841  1.00  0.00     0.074 A 
ATOM     62  C   UNL A   1      38.174  34.251  34.671  1.00  0.00     0.031 C 
ATOM     63  C   UNL A   1      39.979  33.105  35.927  1.00  0.00     0.037 A 
BRANCH  50  64
ATOM     64  C   UNL A   1      43.915  28.339  35.678  1.00  0.00     0.058 A 
ATOM     65  C   UNL A   1      45.274  28.666  35.539  1.00  0.00     0.135 A 
ATOM     66  C   UNL A   1      43.587  27.243  36.491  1.00  0.00     0.135 A 
ATOM     67  F   UNL A   1      45.646  29.695  34.760  1.00  0.00    -0.206 F 
ATOM     68  C   UNL A   1      46.271  27.915  36.154  1.00  0.00     0.059 A 
ATOM     69  C   UNL A   1      44.566  26.493  37.137  1.00  0.00     0.059 A 
ATOM     70  F   UNL A   1      42.305  26.885  36.658  1.00  0.00    -0.206 F 
ATOM     71  C   UNL A   1      45.907  26.828  36.948  1.00  0.00     0.060 A 
BRANCH  71  72
ATOM     72  S   UNL A   1      47.211  25.858  37.736  1.00  0.00     0.124 S 
ATOM     73  O   UNL A   1      48.274  25.936  36.738  1.00  0.00    -0.237 OA
ATOM     74  O   UNL A   1      47.449  26.598  38.972  1.00  0.00    -0.237 OA
ATOM     75  O   UNL A   1      46.602  24.543  37.903  1.00  0.00    -0.744 OA
ENDBRANCH  71  72
ENDBRANCH  50  64
BRANCH  51  76
ATOM     76  C   UNL A   1      36.587  33.188  30.907  1.00  0.00     0.058 A 
ATOM     77  C   UNL A   1      35.262  33.070  31.349  1.00  0.00     0.135 A 
ATOM     78  C   UNL A   1      36.837  34.013  29.800  1.00  0.00     0.135 A 
ATOM     79  F   UNL A   1      34.974  32.289  32.402  1.00  0.00    -0.206 F 
ATOM     80  C   UNL A   1      34.218  33.729  30.710  1.00  0.00     0.059 A 
ATOM     81  C   UNL A   1      35.813  34.701  29.155  1.00  0.00     0.059 A 
ATOM     82  F   UNL A   1      38.091  34.173  29.349  1.00  0.00    -0.206 F 
ATOM     83  C   UNL A   1      34.504  34.545  29.613  1.00  0.00     0.060 A 
BRANCH  83  84
ATOM     84  S   UNL A   1      33.151  35.438  28.819  1.00  0.00     0.124 S 
ATOM     85  O   UNL A   1      32.510  34.377  28.051  1.00  0.00    -0.237 OA
ATOM     86  O   UNL A   1      32.400  35.941  29.964  1.00  0.00    -0.237 OA
ATOM     87  O   UNL A   1      33.840  36.459  28.035  1.00  0.00    -0.744 OA
ENDBRANCH  83  84
ENDBRANCH  51  76
BRANCH  63  88
ATOM     88  C   UNL A   1      39.820  34.142  37.003  1.00  0.00     0.058 A 
ATOM     89  C   UNL A   1      39.039  33.901  38.146  1.00  0.00     0.135 A 
ATOM     90  C   UNL A   1      40.469  35.382  36.901  1.00  0.00     0.135 A 
ATOM     91  F   UNL A   1      38.395  32.732  38.288  1.00  0.00    -0.206 F 
ATOM     92  C   UNL A   1      38.879  34.868  39.132  1.00  0.00     0.059 A 
ATOM     93  C   UNL A   1      40.343  36.355  37.888  1.00  0.00     0.059 A 
ATOM     94  F   UNL A   1      41.237  35.657  35.835  1.00  0.00    -0.206 F 
ATOM     95  C   UNL A   1      39.530  36.094  38.990  1.00  0.00     0.060 A 
BRANCH  95  96
ATOM     96  S   UNL A   1      39.319  37.343  40.277  1.00  0.00     0.124 S 
ATOM     97  O   UNL A   1      38.502  38.338  39.588  1.00  0.00    -0.237 OA
ATOM     98  O   UNL A   1      38.647  36.596  41.335  1.00  0.00    -0.237 OA
ATOM     99  O   UNL A   1      40.688  37.752  40.579  1.00  0.00    -0.744 OA
ENDBRANCH  95  96
ENDBRANCH  63  88
ENDBRANCH  37  38
ENDBRANCH  29  32
ENDBRANCH  27  28
ENDBRANCH  26  27
ENDBRANCH   1  26
TORSDOF 18
ENDMDL
