MODEL 1
REMARK VINA RESULT:     -10.9      0.000      0.000
REMARK SMILES CC(C)C[C@H](NC(=O)CNC(=O)[C@@H](NC(=O)OCc1ccccc1)C(C)C)C(=O)NCCCCCCNC(=O)c1ccc(-c2c3nc(c(-c4c(F)cc(S(=O)(=O)[O-])cc4F)c4ccc([nH]4)c(-c4c(F)cc(S(=O)(=O)[O-])cc4F)c4nc(c(-c5c(F)cc(S(=O)(=O)[O-])cc5F)c5ccc2[nH]5)C=C4)C=C3)cc1
REMARK SMILES IDX 31 1 30 2 28 3 29 4 5 6 4 7 2 8 1 9 3 10 6 11 7 12 8 14 9 15
REMARK SMILES IDX 10 16 11 17 12 19 13 20 14 21 15 22 16 24 17 25 18 26 19 27
REMARK SMILES IDX 20 28 24 29 21 30 23 31 22 32 25 33 26 34 27 35 32 36 33 37
REMARK SMILES IDX 34 38 35 39 36 40 37 41 38 42 39 44 40 45 41 46 105 47 42 48
REMARK SMILES IDX 104 49 43 50 44 51 45 52 98 53 46 54 103 55 97 56 99 57
REMARK SMILES IDX 47 58 102 59 96 60 95 61 48 63 82 64 61 65 81 66 62 67 65 68
REMARK SMILES IDX 80 69 100 70 63 71 64 72 79 74 101 75 66 76 49 77 50 78
REMARK SMILES IDX 59 79 51 80 52 81 58 82 60 83 53 84 54 85 55 86 56 87 57 88
REMARK SMILES IDX 83 89 84 90 93 91 85 92 86 93 92 94 94 95 87 96 88 97 89 98
REMARK SMILES IDX 90 99 91 100 67 101 68 102 77 103 69 104 70 105 76 106
REMARK SMILES IDX 78 107 71 108 72 109 73 110 74 111 75 112
REMARK H PARENT 30 5 6 13 10 18 14 23 37 43 99 62 65 73
REMARK Flexibility Score: inf
ROOT
ATOM      1  C   UNL A   1      37.556  21.453  25.328  1.00  0.00     0.116 C 
ENDROOT
BRANCH   1   2
ATOM      2  N   UNL A   1      36.473  21.477  24.317  1.00  0.00    -0.354 N 
ATOM      3  C   UNL A   1      35.902  22.654  23.804  1.00  0.00     0.242 C 
ATOM      4  O   UNL A   1      36.353  23.126  22.760  1.00  0.00    -0.273 OA
ATOM      5  H   UNL A   1      36.132  20.615  23.985  1.00  0.00     0.163 HD
BRANCH   3   6
ATOM      6  C   UNL A   1      34.482  23.056  24.381  1.00  0.00     0.171 C 
BRANCH   6   7
ATOM      7  C   UNL A   1      34.336  23.906  25.685  1.00  0.00     0.038 C 
BRANCH   7   8
ATOM      8  C   UNL A   1      33.854  23.236  27.036  1.00  0.00    -0.015 C 
ATOM      9  C   UNL A   1      32.324  23.049  27.160  1.00  0.00     0.007 C 
ATOM     10  C   UNL A   1      34.426  21.843  27.263  1.00  0.00     0.007 C 
ENDBRANCH   7   8
ENDBRANCH   6   7
BRANCH   6  11
ATOM     11  N   UNL A   1      33.703  21.872  24.491  1.00  0.00    -0.343 N 
ATOM     12  C   UNL A   1      32.747  21.531  23.597  1.00  0.00     0.240 C 
ATOM     13  H   UNL A   1      33.868  21.270  25.252  1.00  0.00     0.164 HD
ATOM     14  O   UNL A   1      32.343  20.364  23.637  1.00  0.00    -0.273 OA
BRANCH  12  15
ATOM     15  C   UNL A   1      32.126  22.567  22.576  1.00  0.00     0.216 C 
BRANCH  15  16
ATOM     16  N   UNL A   1      32.279  24.005  22.186  1.00  0.00    -0.345 N 
ATOM     17  C   UNL A   1      32.087  25.321  22.376  1.00  0.00     0.243 C 
ATOM     18  H   UNL A   1      32.790  23.964  21.346  1.00  0.00     0.164 HD
ATOM     19  O   UNL A   1      32.921  25.940  21.672  1.00  0.00    -0.273 OA
BRANCH  17  20
ATOM     20  C   UNL A   1      31.051  26.246  23.143  1.00  0.00     0.177 C 
BRANCH  20  21
ATOM     21  N   UNL A   1      30.593  27.388  22.313  1.00  0.00    -0.309 N 
ATOM     22  C   UNL A   1      30.556  28.736  22.468  1.00  0.00     0.408 C 
ATOM     23  H   UNL A   1      30.230  27.098  21.444  1.00  0.00     0.167 HD
ATOM     24  O   UNL A   1      30.024  29.443  21.596  1.00  0.00    -0.225 OA
BRANCH  22  25
ATOM     25  O   UNL A   1      31.050  29.227  23.624  1.00  0.00    -0.445 OA
BRANCH  25  26
ATOM     26  C   UNL A   1      32.454  29.005  23.859  1.00  0.00     0.270 C 
BRANCH  26  27
ATOM     27  C   UNL A   1      32.984  29.235  25.252  1.00  0.00    -0.011 A 
ATOM     28  C   UNL A   1      34.101  28.560  25.746  1.00  0.00     0.007 A 
ATOM     29  C   UNL A   1      32.404  30.252  26.035  1.00  0.00     0.007 A 
ATOM     30  C   UNL A   1      34.621  28.888  27.000  1.00  0.00     0.000 A 
ATOM     31  C   UNL A   1      32.923  30.578  27.287  1.00  0.00     0.000 A 
ATOM     32  C   UNL A   1      34.035  29.896  27.768  1.00  0.00     0.000 A 
ENDBRANCH  26  27
ENDBRANCH  25  26
ENDBRANCH  22  25
ENDBRANCH  20  21
BRANCH  20  33
ATOM     33  C   UNL A   1      30.115  25.689  24.238  1.00  0.00     0.015 C 
ATOM     34  C   UNL A   1      30.629  26.038  25.642  1.00  0.00     0.010 C 
ATOM     35  C   UNL A   1      28.694  26.290  24.133  1.00  0.00     0.010 C 
ENDBRANCH  20  33
ENDBRANCH  17  20
ENDBRANCH  15  16
ENDBRANCH  12  15
ENDBRANCH   6  11
ENDBRANCH   3   6
ENDBRANCH   1   2
BRANCH   1  36
ATOM     36  C   UNL A   1      38.067  22.840  25.759  1.00  0.00     0.021 C 
BRANCH  36  37
ATOM     37  C   UNL A   1      39.290  22.866  26.704  1.00  0.00     0.002 C 
BRANCH  37  38
ATOM     38  C   UNL A   1      40.182  21.619  26.834  1.00  0.00     0.002 C 
BRANCH  38  39
ATOM     39  C   UNL A   1      41.663  21.772  27.219  1.00  0.00     0.021 C 
BRANCH  39  40
ATOM     40  C   UNL A   1      42.207  23.166  27.480  1.00  0.00     0.116 C 
BRANCH  40  41
ATOM     41  N   UNL A   1      42.275  23.966  26.275  1.00  0.00    -0.352 N 
ATOM     42  C   UNL A   1      42.023  25.304  26.097  1.00  0.00     0.251 C 
ATOM     43  H   UNL A   1      42.540  23.477  25.462  1.00  0.00     0.163 HD
ATOM     44  O   UNL A   1      41.961  25.756  24.956  1.00  0.00    -0.269 OA
BRANCH  42  45
ATOM     45  C   UNL A   1      41.804  26.204  27.259  1.00  0.00     0.039 A 
ATOM     46  C   UNL A   1      42.722  27.233  27.492  1.00  0.00     0.014 A 
ATOM     47  C   UNL A   1      40.734  26.019  28.140  1.00  0.00     0.014 A 
ATOM     48  C   UNL A   1      42.541  28.104  28.573  1.00  0.00     0.010 A 
ATOM     49  C   UNL A   1      40.520  26.925  29.180  1.00  0.00     0.010 A 
ATOM     50  C   UNL A   1      41.424  27.973  29.412  1.00  0.00    -0.014 A 
BRANCH  50  51
ATOM     51  C   UNL A   1      41.188  28.905  30.547  1.00  0.00     0.031 A 
ATOM     52  C   UNL A   1      41.987  28.761  31.817  1.00  0.00     0.074 A 
ATOM     53  C   UNL A   1      40.207  29.828  30.467  1.00  0.00     0.049 A 
ATOM     54  N   UNL A   1      41.848  29.387  32.957  1.00  0.00    -0.248 NA
ATOM     55  C   UNL A   1      43.067  27.760  31.813  1.00  0.00     0.031 C 
ATOM     56  C   UNL A   1      39.340  30.044  29.307  1.00  0.00     0.029 A 
ATOM     57  N   UNL A   1      39.759  30.743  31.388  1.00  0.00    -0.354 N 
ATOM     58  C   UNL A   1      42.795  28.836  33.812  1.00  0.00     0.074 A 
ATOM     59  C   UNL A   1      43.487  27.806  33.069  1.00  0.00     0.031 C 
ATOM     60  C   UNL A   1      38.469  31.030  29.584  1.00  0.00     0.029 A 
ATOM     61  C   UNL A   1      38.688  31.490  30.951  1.00  0.00     0.049 A 
ATOM     62  H   UNL A   1      40.165  30.854  32.278  1.00  0.00     0.167 HD
ATOM     63  C   UNL A   1      43.070  29.168  35.096  1.00  0.00     0.037 A 
ATOM     64  C   UNL A   1      37.956  32.426  31.587  1.00  0.00     0.037 A 
ATOM     65  C   UNL A   1      42.418  30.233  35.812  1.00  0.00     0.049 A 
ATOM     66  C   UNL A   1      38.299  32.789  33.009  1.00  0.00     0.074 A 
ATOM     67  C   UNL A   1      42.689  30.704  37.085  1.00  0.00     0.029 A 
ATOM     68  N   UNL A   1      41.370  30.994  35.318  1.00  0.00    -0.354 N 
ATOM     69  N   UNL A   1      39.244  32.303  33.777  1.00  0.00    -0.248 NA
ATOM     70  C   UNL A   1      37.478  33.826  33.650  1.00  0.00     0.031 C 
ATOM     71  C   UNL A   1      41.781  31.726  37.376  1.00  0.00     0.029 A 
ATOM     72  C   UNL A   1      40.971  31.919  36.268  1.00  0.00     0.049 A 
ATOM     73  H   UNL A   1      40.968  30.893  34.425  1.00  0.00     0.167 HD
ATOM     74  C   UNL A   1      39.154  33.001  34.976  1.00  0.00     0.074 A 
ATOM     75  C   UNL A   1      38.067  33.945  34.832  1.00  0.00     0.031 C 
ATOM     76  C   UNL A   1      39.906  32.873  36.096  1.00  0.00     0.037 A 
BRANCH  63  77
ATOM     77  C   UNL A   1      44.129  28.386  35.821  1.00  0.00     0.058 A 
ATOM     78  C   UNL A   1      45.478  28.765  35.790  1.00  0.00     0.135 A 
ATOM     79  C   UNL A   1      43.773  27.291  36.628  1.00  0.00     0.135 A 
ATOM     80  F   UNL A   1      45.874  29.794  35.024  1.00  0.00    -0.206 F 
ATOM     81  C   UNL A   1      46.442  28.084  36.527  1.00  0.00     0.059 A 
ATOM     82  C   UNL A   1      44.717  26.609  37.391  1.00  0.00     0.059 A 
ATOM     83  F   UNL A   1      42.495  26.885  36.691  1.00  0.00    -0.206 F 
ATOM     84  C   UNL A   1      46.050  27.010  37.328  1.00  0.00     0.060 A 
BRANCH  84  85
ATOM     85  S   UNL A   1      47.306  26.165  38.313  1.00  0.00     0.124 S 
ATOM     86  O   UNL A   1      47.463  27.084  39.436  1.00  0.00    -0.237 OA
ATOM     87  O   UNL A   1      46.659  24.894  38.622  1.00  0.00    -0.237 OA
ATOM     88  O   UNL A   1      48.448  26.080  37.408  1.00  0.00    -0.744 OA
ENDBRANCH  84  85
ENDBRANCH  63  77
BRANCH  64  89
ATOM     89  C   UNL A   1      36.822  33.096  30.895  1.00  0.00     0.058 A 
ATOM     90  C   UNL A   1      35.496  32.713  31.148  1.00  0.00     0.135 A 
ATOM     91  C   UNL A   1      37.040  34.105  29.944  1.00  0.00     0.135 A 
ATOM     92  F   UNL A   1      35.237  31.750  32.045  1.00  0.00    -0.206 F 
ATOM     93  C   UNL A   1      34.429  33.280  30.459  1.00  0.00     0.059 A 
ATOM     94  C   UNL A   1      35.988  34.705  29.260  1.00  0.00     0.059 A 
ATOM     95  F   UNL A   1      38.288  34.521  29.678  1.00  0.00    -0.206 F 
ATOM     96  C   UNL A   1      34.686  34.271  29.511  1.00  0.00     0.060 A 
BRANCH  96  97
ATOM     97  S   UNL A   1      33.296  35.006  28.621  1.00  0.00     0.124 S 
ATOM     98  O   UNL A   1      33.975  35.975  27.768  1.00  0.00    -0.237 OA
ATOM     99  O   UNL A   1      32.717  33.851  27.942  1.00  0.00    -0.237 OA
ATOM    100  O   UNL A   1      32.477  35.569  29.691  1.00  0.00    -0.744 OA
ENDBRANCH  96  97
ENDBRANCH  64  89
BRANCH  76 101
ATOM    101  C   UNL A   1      39.623  33.809  37.238  1.00  0.00     0.058 A 
ATOM    102  C   UNL A   1      38.735  33.467  38.268  1.00  0.00     0.135 A 
ATOM    103  C   UNL A   1      40.307  35.032  37.334  1.00  0.00     0.135 A 
ATOM    104  F   UNL A   1      38.052  32.313  38.218  1.00  0.00    -0.206 F 
ATOM    105  C   UNL A   1      38.525  34.313  39.352  1.00  0.00     0.059 A 
ATOM    106  C   UNL A   1      40.130  35.881  38.421  1.00  0.00     0.059 A 
ATOM    107  F   UNL A   1      41.173  35.399  36.377  1.00  0.00    -0.206 F 
ATOM    108  C   UNL A   1      39.231  35.516  39.422  1.00  0.00     0.060 A 
BRANCH 108 109
ATOM    109  S   UNL A   1      38.992  36.580  40.861  1.00  0.00     0.124 S 
ATOM    110  O   UNL A   1      40.360  36.732  41.345  1.00  0.00    -0.237 OA
ATOM    111  O   UNL A   1      38.391  37.773  40.273  1.00  0.00    -0.237 OA
ATOM    112  O   UNL A   1      38.105  35.798  41.718  1.00  0.00    -0.744 OA
ENDBRANCH 108 109
ENDBRANCH  76 101
ENDBRANCH  50  51
ENDBRANCH  42  45
ENDBRANCH  40  41
ENDBRANCH  39  40
ENDBRANCH  38  39
ENDBRANCH  37  38
ENDBRANCH  36  37
ENDBRANCH   1  36
TORSDOF 27
ENDMDL
MODEL 2
REMARK VINA RESULT:     -10.6      5.942     11.597
REMARK SMILES CC(C)C[C@H](NC(=O)CNC(=O)[C@@H](NC(=O)OCc1ccccc1)C(C)C)C(=O)NCCCCCCNC(=O)c1ccc(-c2c3nc(c(-c4c(F)cc(S(=O)(=O)[O-])cc4F)c4ccc([nH]4)c(-c4c(F)cc(S(=O)(=O)[O-])cc4F)c4nc(c(-c5c(F)cc(S(=O)(=O)[O-])cc5F)c5ccc2[nH]5)C=C4)C=C3)cc1
REMARK SMILES IDX 31 1 30 2 28 3 29 4 5 6 4 7 2 8 1 9 3 10 6 11 7 12 8 14 9 15
REMARK SMILES IDX 10 16 11 17 12 19 13 20 14 21 15 22 16 24 17 25 18 26 19 27
REMARK SMILES IDX 20 28 24 29 21 30 23 31 22 32 25 33 26 34 27 35 32 36 33 37
REMARK SMILES IDX 34 38 35 39 36 40 37 41 38 42 39 44 40 45 41 46 105 47 42 48
REMARK SMILES IDX 104 49 43 50 44 51 45 52 98 53 46 54 103 55 97 56 99 57
REMARK SMILES IDX 47 58 102 59 96 60 95 61 48 63 82 64 61 65 81 66 62 67 65 68
REMARK SMILES IDX 80 69 100 70 63 71 64 72 79 74 101 75 66 76 49 77 50 78
REMARK SMILES IDX 59 79 51 80 52 81 58 82 60 83 53 84 54 85 55 86 56 87 57 88
REMARK SMILES IDX 83 89 84 90 93 91 85 92 86 93 92 94 94 95 87 96 88 97 89 98
REMARK SMILES IDX 90 99 91 100 67 101 68 102 77 103 69 104 70 105 76 106
REMARK SMILES IDX 78 107 71 108 72 109 73 110 74 111 75 112
REMARK H PARENT 30 5 6 13 10 18 14 23 37 43 99 62 65 73
REMARK Flexibility Score: inf
ROOT
ATOM      1  C   UNL A   1      33.205  27.378  26.167  1.00  0.00     0.116 C 
ENDROOT
BRANCH   1   2
ATOM      2  N   UNL A   1      33.504  26.849  24.815  1.00  0.00    -0.354 N 
ATOM      3  C   UNL A   1      33.372  27.595  23.631  1.00  0.00     0.242 C 
ATOM      4  O   UNL A   1      34.357  28.187  23.190  1.00  0.00    -0.273 OA
ATOM      5  H   UNL A   1      33.813  25.917  24.742  1.00  0.00     0.163 HD
BRANCH   3   6
ATOM      6  C   UNL A   1      32.088  27.297  22.752  1.00  0.00     0.171 C 
BRANCH   6   7
ATOM      7  C   UNL A   1      31.002  26.268  23.206  1.00  0.00     0.038 C 
BRANCH   7   8
ATOM      8  C   UNL A   1      29.906  26.671  24.275  1.00  0.00    -0.015 C 
ATOM      9  C   UNL A   1      28.457  26.718  23.736  1.00  0.00     0.007 C 
ATOM     10  C   UNL A   1      29.837  25.722  25.465  1.00  0.00     0.007 C 
ENDBRANCH   7   8
ENDBRANCH   6   7
BRANCH   6  11
ATOM     11  N   UNL A   1      32.523  26.986  21.435  1.00  0.00    -0.343 N 
ATOM     12  C   UNL A   1      32.710  25.719  20.998  1.00  0.00     0.240 C 
ATOM     13  H   UNL A   1      32.696  27.726  20.810  1.00  0.00     0.164 HD
ATOM     14  O   UNL A   1      32.809  25.564  19.776  1.00  0.00    -0.273 OA
BRANCH  12  15
ATOM     15  C   UNL A   1      32.844  24.488  21.982  1.00  0.00     0.216 C 
BRANCH  15  16
ATOM     16  N   UNL A   1      33.903  23.774  22.765  1.00  0.00    -0.345 N 
ATOM     17  C   UNL A   1      34.353  23.129  23.853  1.00  0.00     0.243 C 
ATOM     18  H   UNL A   1      34.682  23.782  22.162  1.00  0.00     0.164 HD
ATOM     19  O   UNL A   1      35.383  22.491  23.528  1.00  0.00    -0.273 OA
BRANCH  17  20
ATOM     20  C   UNL A   1      33.993  23.062  25.397  1.00  0.00     0.177 C 
BRANCH  20  21
ATOM     21  N   UNL A   1      32.528  23.073  25.636  1.00  0.00    -0.309 N 
ATOM     22  C   UNL A   1      31.564  22.123  25.745  1.00  0.00     0.408 C 
ATOM     23  H   UNL A   1      32.172  23.985  25.740  1.00  0.00     0.167 HD
ATOM     24  O   UNL A   1      30.376  22.462  25.873  1.00  0.00    -0.225 OA
BRANCH  22  25
ATOM     25  O   UNL A   1      31.963  20.839  25.633  1.00  0.00    -0.445 OA
BRANCH  25  26
ATOM     26  C   UNL A   1      32.134  20.343  24.292  1.00  0.00     0.270 C 
BRANCH  26  27
ATOM     27  C   UNL A   1      33.082  19.189  24.078  1.00  0.00    -0.011 A 
ATOM     28  C   UNL A   1      34.373  19.175  24.608  1.00  0.00     0.007 A 
ATOM     29  C   UNL A   1      32.604  18.036  23.423  1.00  0.00     0.007 A 
ATOM     30  C   UNL A   1      35.172  18.037  24.478  1.00  0.00     0.000 A 
ATOM     31  C   UNL A   1      33.403  16.902  23.293  1.00  0.00     0.000 A 
ATOM     32  C   UNL A   1      34.688  16.902  23.824  1.00  0.00     0.000 A 
ENDBRANCH  26  27
ENDBRANCH  25  26
ENDBRANCH  22  25
ENDBRANCH  20  21
BRANCH  20  33
ATOM     33  C   UNL A   1      34.916  22.366  26.421  1.00  0.00     0.015 C 
ATOM     34  C   UNL A   1      36.296  23.037  26.477  1.00  0.00     0.010 C 
ATOM     35  C   UNL A   1      34.337  22.441  27.854  1.00  0.00     0.010 C 
ENDBRANCH  20  33
ENDBRANCH  17  20
ENDBRANCH  15  16
ENDBRANCH  12  15
ENDBRANCH   6  11
ENDBRANCH   3   6
ENDBRANCH   1   2
BRANCH   1  36
ATOM     36  C   UNL A   1      32.044  28.386  26.223  1.00  0.00     0.021 C 
BRANCH  36  37
ATOM     37  C   UNL A   1      32.197  29.568  27.208  1.00  0.00     0.002 C 
BRANCH  37  38
ATOM     38  C   UNL A   1      33.334  30.585  27.010  1.00  0.00     0.002 C 
BRANCH  38  39
ATOM     39  C   UNL A   1      34.758  30.246  27.482  1.00  0.00     0.021 C 
BRANCH  39  40
ATOM     40  C   UNL A   1      35.562  31.318  28.196  1.00  0.00     0.116 C 
BRANCH  40  41
ATOM     41  N   UNL A   1      35.398  31.264  29.634  1.00  0.00    -0.352 N 
ATOM     42  C   UNL A   1      36.250  30.776  30.595  1.00  0.00     0.251 C 
ATOM     43  H   UNL A   1      34.550  31.631  29.973  1.00  0.00     0.163 HD
ATOM     44  O   UNL A   1      35.846  30.657  31.749  1.00  0.00    -0.269 OA
BRANCH  42  45
ATOM     45  C   UNL A   1      37.638  30.372  30.255  1.00  0.00     0.039 A 
ATOM     46  C   UNL A   1      38.465  29.891  31.275  1.00  0.00     0.014 A 
ATOM     47  C   UNL A   1      38.145  30.503  28.958  1.00  0.00     0.014 A 
ATOM     48  C   UNL A   1      39.777  29.494  30.988  1.00  0.00     0.010 A 
ATOM     49  C   UNL A   1      39.431  30.049  28.661  1.00  0.00     0.010 A 
ATOM     50  C   UNL A   1      40.263  29.546  29.673  1.00  0.00    -0.014 A 
BRANCH  50  51
ATOM     51  C   UNL A   1      41.640  29.098  29.332  1.00  0.00     0.031 A 
ATOM     52  C   UNL A   1      42.779  30.084  29.361  1.00  0.00     0.074 A 
ATOM     53  C   UNL A   1      41.854  27.831  28.923  1.00  0.00     0.049 A 
ATOM     54  N   UNL A   1      44.021  29.925  28.981  1.00  0.00    -0.248 NA
ATOM     55  C   UNL A   1      42.476  31.437  29.858  1.00  0.00     0.031 C 
ATOM     56  C   UNL A   1      40.829  26.790  28.818  1.00  0.00     0.029 A 
ATOM     57  N   UNL A   1      43.002  27.206  28.499  1.00  0.00    -0.354 N 
ATOM     58  C   UNL A   1      44.635  31.159  29.159  1.00  0.00     0.074 A 
ATOM     59  C   UNL A   1      43.626  32.066  29.658  1.00  0.00     0.031 C 
ATOM     60  C   UNL A   1      41.394  25.659  28.364  1.00  0.00     0.029 A 
ATOM     61  C   UNL A   1      42.810  25.900  28.109  1.00  0.00     0.049 A 
ATOM     62  H   UNL A   1      43.879  27.652  28.476  1.00  0.00     0.167 HD
ATOM     63  C   UNL A   1      45.927  31.501  28.939  1.00  0.00     0.037 A 
ATOM     64  C   UNL A   1      43.674  25.006  27.590  1.00  0.00     0.037 A 
ATOM     65  C   UNL A   1      46.942  30.579  28.498  1.00  0.00     0.049 A 
ATOM     66  C   UNL A   1      45.110  25.408  27.375  1.00  0.00     0.074 A 
ATOM     67  C   UNL A   1      48.297  30.809  28.332  1.00  0.00     0.029 A 
ATOM     68  N   UNL A   1      46.715  29.255  28.157  1.00  0.00    -0.354 N 
ATOM     69  N   UNL A   1      45.686  26.561  27.615  1.00  0.00    -0.248 NA
ATOM     70  C   UNL A   1      46.013  24.390  26.820  1.00  0.00     0.031 C 
ATOM     71  C   UNL A   1      48.884  29.633  27.855  1.00  0.00     0.029 A 
ATOM     72  C   UNL A   1      47.902  28.660  27.764  1.00  0.00     0.049 A 
ATOM     73  H   UNL A   1      45.840  28.804  28.189  1.00  0.00     0.167 HD
ATOM     74  C   UNL A   1      47.025  26.394  27.276  1.00  0.00     0.074 A 
ATOM     75  C   UNL A   1      47.175  25.030  26.817  1.00  0.00     0.031 C 
ATOM     76  C   UNL A   1      48.039  27.291  27.340  1.00  0.00     0.037 A 
BRANCH  63  77
ATOM     77  C   UNL A   1      46.337  32.927  29.178  1.00  0.00     0.058 A 
ATOM     78  C   UNL A   1      46.821  33.357  30.421  1.00  0.00     0.135 A 
ATOM     79  C   UNL A   1      46.324  33.854  28.121  1.00  0.00     0.135 A 
ATOM     80  F   UNL A   1      46.840  32.517  31.468  1.00  0.00    -0.206 F 
ATOM     81  C   UNL A   1      47.272  34.660  30.615  1.00  0.00     0.059 A 
ATOM     82  C   UNL A   1      46.791  35.154  28.286  1.00  0.00     0.059 A 
ATOM     83  F   UNL A   1      45.868  33.494  26.911  1.00  0.00    -0.206 F 
ATOM     84  C   UNL A   1      47.258  35.549  29.538  1.00  0.00     0.060 A 
BRANCH  84  85
ATOM     85  S   UNL A   1      47.889  37.222  29.794  1.00  0.00     0.124 S 
ATOM     86  O   UNL A   1      46.732  38.030  29.419  1.00  0.00    -0.237 OA
ATOM     87  O   UNL A   1      48.225  37.217  31.214  1.00  0.00    -0.237 OA
ATOM     88  O   UNL A   1      49.027  37.299  28.884  1.00  0.00    -0.744 OA
ENDBRANCH  84  85
ENDBRANCH  63  77
BRANCH  64  89
ATOM     89  C   UNL A   1      43.218  23.635  27.232  1.00  0.00     0.058 A 
ATOM     90  C   UNL A   1      43.157  22.621  28.200  1.00  0.00     0.135 A 
ATOM     91  C   UNL A   1      42.867  23.302  25.914  1.00  0.00     0.135 A 
ATOM     92  F   UNL A   1      43.487  22.889  29.473  1.00  0.00    -0.206 F 
ATOM     93  C   UNL A   1      42.800  21.318  27.870  1.00  0.00     0.059 A 
ATOM     94  C   UNL A   1      42.483  22.012  25.564  1.00  0.00     0.059 A 
ATOM     95  F   UNL A   1      42.890  24.240  24.954  1.00  0.00    -0.206 F 
ATOM     96  C   UNL A   1      42.471  21.022  26.546  1.00  0.00     0.060 A 
BRANCH  96  97
ATOM     97  S   UNL A   1      42.005  19.328  26.123  1.00  0.00     0.124 S 
ATOM     98  O   UNL A   1      42.240  18.637  27.385  1.00  0.00    -0.237 OA
ATOM     99  O   UNL A   1      40.609  19.480  25.728  1.00  0.00    -0.237 OA
ATOM    100  O   UNL A   1      42.922  18.993  25.038  1.00  0.00    -0.744 OA
ENDBRANCH  96  97
ENDBRANCH  64  89
BRANCH  76 101
ATOM    101  C   UNL A   1      49.414  26.817  26.959  1.00  0.00     0.058 A 
ATOM    102  C   UNL A   1      50.317  26.332  27.916  1.00  0.00     0.135 A 
ATOM    103  C   UNL A   1      49.800  26.781  25.609  1.00  0.00     0.135 A 
ATOM    104  F   UNL A   1      49.997  26.352  29.220  1.00  0.00    -0.206 F 
ATOM    105  C   UNL A   1      51.564  25.838  27.549  1.00  0.00     0.059 A 
ATOM    106  C   UNL A   1      51.031  26.269  25.217  1.00  0.00     0.059 A 
ATOM    107  F   UNL A   1      48.966  27.225  24.656  1.00  0.00    -0.206 F 
ATOM    108  C   UNL A   1      51.910  25.806  26.196  1.00  0.00     0.060 A 
BRANCH 108 109
ATOM    109  S   UNL A   1      53.510  25.112  25.726  1.00  0.00     0.124 S 
ATOM    110  O   UNL A   1      54.019  26.136  24.819  1.00  0.00    -0.237 OA
ATOM    111  O   UNL A   1      54.196  25.005  27.010  1.00  0.00    -0.237 OA
ATOM    112  O   UNL A   1      53.158  23.839  25.103  1.00  0.00    -0.744 OA
ENDBRANCH 108 109
ENDBRANCH  76 101
ENDBRANCH  50  51
ENDBRANCH  42  45
ENDBRANCH  40  41
ENDBRANCH  39  40
ENDBRANCH  38  39
ENDBRANCH  37  38
ENDBRANCH  36  37
ENDBRANCH   1  36
TORSDOF 27
ENDMDL
MODEL 3
REMARK VINA RESULT:     -10.1      6.042     11.751
REMARK SMILES CC(C)C[C@H](NC(=O)CNC(=O)[C@@H](NC(=O)OCc1ccccc1)C(C)C)C(=O)NCCCCCCNC(=O)c1ccc(-c2c3nc(c(-c4c(F)cc(S(=O)(=O)[O-])cc4F)c4ccc([nH]4)c(-c4c(F)cc(S(=O)(=O)[O-])cc4F)c4nc(c(-c5c(F)cc(S(=O)(=O)[O-])cc5F)c5ccc2[nH]5)C=C4)C=C3)cc1
REMARK SMILES IDX 31 1 30 2 28 3 29 4 5 6 4 7 2 8 1 9 3 10 6 11 7 12 8 14 9 15
REMARK SMILES IDX 10 16 11 17 12 19 13 20 14 21 15 22 16 24 17 25 18 26 19 27
REMARK SMILES IDX 20 28 24 29 21 30 23 31 22 32 25 33 26 34 27 35 32 36 33 37
REMARK SMILES IDX 34 38 35 39 36 40 37 41 38 42 39 44 40 45 41 46 105 47 42 48
REMARK SMILES IDX 104 49 43 50 44 51 45 52 98 53 46 54 103 55 97 56 99 57
REMARK SMILES IDX 47 58 102 59 96 60 95 61 48 63 82 64 61 65 81 66 62 67 65 68
REMARK SMILES IDX 80 69 100 70 63 71 64 72 79 74 101 75 66 76 49 77 50 78
REMARK SMILES IDX 59 79 51 80 52 81 58 82 60 83 53 84 54 85 55 86 56 87 57 88
REMARK SMILES IDX 83 89 84 90 93 91 85 92 86 93 92 94 94 95 87 96 88 97 89 98
REMARK SMILES IDX 90 99 91 100 67 101 68 102 77 103 69 104 70 105 76 106
REMARK SMILES IDX 78 107 71 108 72 109 73 110 74 111 75 112
REMARK H PARENT 30 5 6 13 10 18 14 23 37 43 99 62 65 73
REMARK Flexibility Score: inf
ROOT
ATOM      1  C   UNL A   1      33.927  28.744  26.105  1.00  0.00     0.116 C 
ENDROOT
BRANCH   1   2
ATOM      2  N   UNL A   1      33.632  27.944  24.893  1.00  0.00    -0.354 N 
ATOM      3  C   UNL A   1      33.421  28.496  23.618  1.00  0.00     0.242 C 
ATOM      4  O   UNL A   1      34.376  28.590  22.847  1.00  0.00    -0.273 OA
ATOM      5  H   UNL A   1      33.581  26.965  24.987  1.00  0.00     0.163 HD
BRANCH   3   6
ATOM      6  C   UNL A   1      31.916  28.584  23.131  1.00  0.00     0.171 C 
BRANCH   6   7
ATOM      7  C   UNL A   1      30.729  28.140  24.046  1.00  0.00     0.038 C 
BRANCH   7   8
ATOM      8  C   UNL A   1      29.420  27.505  23.420  1.00  0.00    -0.015 C 
ATOM      9  C   UNL A   1      28.811  26.338  24.232  1.00  0.00     0.007 C 
ATOM     10  C   UNL A   1      28.275  28.498  23.265  1.00  0.00     0.007 C 
ENDBRANCH   7   8
ENDBRANCH   6   7
BRANCH   6  11
ATOM     11  N   UNL A   1      31.824  27.926  21.874  1.00  0.00    -0.343 N 
ATOM     12  C   UNL A   1      31.978  26.590  21.727  1.00  0.00     0.240 C 
ATOM     13  H   UNL A   1      31.639  28.467  21.073  1.00  0.00     0.164 HD
ATOM     14  O   UNL A   1      31.600  26.105  20.654  1.00  0.00    -0.273 OA
BRANCH  12  15
ATOM     15  C   UNL A   1      32.647  25.680  22.834  1.00  0.00     0.216 C 
BRANCH  15  16
ATOM     16  N   UNL A   1      33.787  24.718  22.973  1.00  0.00    -0.345 N 
ATOM     17  C   UNL A   1      34.438  23.719  23.591  1.00  0.00     0.243 C 
ATOM     18  H   UNL A   1      34.365  24.931  22.205  1.00  0.00     0.164 HD
ATOM     19  O   UNL A   1      35.255  23.227  22.777  1.00  0.00    -0.273 OA
BRANCH  17  20
ATOM     20  C   UNL A   1      34.510  23.108  25.054  1.00  0.00     0.177 C 
BRANCH  20  21
ATOM     21  N   UNL A   1      33.222  22.504  25.477  1.00  0.00    -0.309 N 
ATOM     22  C   UNL A   1      32.520  21.395  25.130  1.00  0.00     0.408 C 
ATOM     23  H   UNL A   1      32.772  23.032  26.175  1.00  0.00     0.167 HD
ATOM     24  O   UNL A   1      31.398  21.196  25.625  1.00  0.00    -0.225 OA
BRANCH  22  25
ATOM     25  O   UNL A   1      33.070  20.599  24.190  1.00  0.00    -0.445 OA
BRANCH  25  26
ATOM     26  C   UNL A   1      32.430  19.325  23.985  1.00  0.00     0.270 C 
BRANCH  26  27
ATOM     27  C   UNL A   1      33.130  18.090  24.496  1.00  0.00    -0.011 A 
ATOM     28  C   UNL A   1      32.432  16.961  24.927  1.00  0.00     0.007 A 
ATOM     29  C   UNL A   1      34.536  18.033  24.424  1.00  0.00     0.007 A 
ATOM     30  C   UNL A   1      33.125  15.803  25.285  1.00  0.00     0.000 A 
ATOM     31  C   UNL A   1      35.226  16.877  24.784  1.00  0.00     0.000 A 
ATOM     32  C   UNL A   1      34.519  15.760  25.212  1.00  0.00     0.000 A 
ENDBRANCH  26  27
ENDBRANCH  25  26
ENDBRANCH  22  25
ENDBRANCH  20  21
BRANCH  20  33
ATOM     33  C   UNL A   1      35.828  22.561  25.645  1.00  0.00     0.015 C 
ATOM     34  C   UNL A   1      36.349  21.364  24.837  1.00  0.00     0.010 C 
ATOM     35  C   UNL A   1      36.949  23.626  25.618  1.00  0.00     0.010 C 
ENDBRANCH  20  33
ENDBRANCH  17  20
ENDBRANCH  15  16
ENDBRANCH  12  15
ENDBRANCH   6  11
ENDBRANCH   3   6
ENDBRANCH   1   2
BRANCH   1  36
ATOM     36  C   UNL A   1      32.688  29.170  26.914  1.00  0.00     0.021 C 
BRANCH  36  37
ATOM     37  C   UNL A   1      32.557  30.675  27.240  1.00  0.00     0.002 C 
BRANCH  37  38
ATOM     38  C   UNL A   1      33.808  31.489  27.611  1.00  0.00     0.002 C 
BRANCH  38  39
ATOM     39  C   UNL A   1      34.986  30.803  28.324  1.00  0.00     0.021 C 
BRANCH  39  40
ATOM     40  C   UNL A   1      35.854  31.630  29.256  1.00  0.00     0.116 C 
BRANCH  40  41
ATOM     41  N   UNL A   1      35.810  31.150  30.621  1.00  0.00    -0.352 N 
ATOM     42  C   UNL A   1      36.701  30.354  31.299  1.00  0.00     0.251 C 
ATOM     43  H   UNL A   1      35.023  31.435  31.141  1.00  0.00     0.163 HD
ATOM     44  O   UNL A   1      36.390  29.909  32.401  1.00  0.00    -0.269 OA
BRANCH  42  45
ATOM     45  C   UNL A   1      38.021  30.009  30.711  1.00  0.00     0.039 A 
ATOM     46  C   UNL A   1      38.251  30.301  29.363  1.00  0.00     0.014 A 
ATOM     47  C   UNL A   1      39.012  29.366  31.458  1.00  0.00     0.014 A 
ATOM     48  C   UNL A   1      39.487  29.997  28.779  1.00  0.00     0.010 A 
ATOM     49  C   UNL A   1      40.265  29.120  30.893  1.00  0.00     0.010 A 
ATOM     50  C   UNL A   1      40.514  29.426  29.546  1.00  0.00    -0.014 A 
BRANCH  50  51
ATOM     51  C   UNL A   1      41.848  29.125  28.962  1.00  0.00     0.031 A 
ATOM     52  C   UNL A   1      42.136  27.750  28.418  1.00  0.00     0.074 A 
ATOM     53  C   UNL A   1      42.822  30.058  28.989  1.00  0.00     0.049 A 
ATOM     54  N   UNL A   1      43.265  27.252  27.983  1.00  0.00    -0.248 NA
ATOM     55  C   UNL A   1      41.012  26.799  28.382  1.00  0.00     0.031 C 
ATOM     56  C   UNL A   1      42.679  31.415  29.522  1.00  0.00     0.029 A 
ATOM     57  N   UNL A   1      44.132  30.000  28.580  1.00  0.00    -0.354 N 
ATOM     58  C   UNL A   1      42.998  25.927  27.658  1.00  0.00     0.074 A 
ATOM     59  C   UNL A   1      41.605  25.689  27.966  1.00  0.00     0.031 C 
ATOM     60  C   UNL A   1      43.852  32.061  29.402  1.00  0.00     0.029 A 
ATOM     61  C   UNL A   1      44.839  31.156  28.822  1.00  0.00     0.049 A 
ATOM     62  H   UNL A   1      44.528  29.207  28.155  1.00  0.00     0.167 HD
ATOM     63  C   UNL A   1      43.834  24.999  27.136  1.00  0.00     0.037 A 
ATOM     64  C   UNL A   1      46.138  31.447  28.616  1.00  0.00     0.037 A 
ATOM     65  C   UNL A   1      45.204  25.258  26.776  1.00  0.00     0.049 A 
ATOM     66  C   UNL A   1      47.041  30.400  28.015  1.00  0.00     0.074 A 
ATOM     67  C   UNL A   1      46.105  24.408  26.158  1.00  0.00     0.029 A 
ATOM     68  N   UNL A   1      45.868  26.454  26.996  1.00  0.00    -0.354 N 
ATOM     69  N   UNL A   1      46.750  29.175  27.650  1.00  0.00    -0.248 NA
ATOM     70  C   UNL A   1      48.445  30.775  27.797  1.00  0.00     0.031 C 
ATOM     71  C   UNL A   1      47.326  25.078  26.038  1.00  0.00     0.029 A 
ATOM     72  C   UNL A   1      47.173  26.359  26.543  1.00  0.00     0.049 A 
ATOM     73  H   UNL A   1      45.472  27.254  27.412  1.00  0.00     0.167 HD
ATOM     74  C   UNL A   1      47.925  28.647  27.126  1.00  0.00     0.074 A 
ATOM     75  C   UNL A   1      48.930  29.685  27.218  1.00  0.00     0.031 C 
ATOM     76  C   UNL A   1      48.152  27.413  26.614  1.00  0.00     0.037 A 
BRANCH  63  77
ATOM     77  C   UNL A   1      43.303  23.612  26.907  1.00  0.00     0.058 A 
ATOM     78  C   UNL A   1      43.028  23.130  25.618  1.00  0.00     0.135 A 
ATOM     79  C   UNL A   1      43.150  22.725  27.986  1.00  0.00     0.135 A 
ATOM     80  F   UNL A   1      43.144  23.941  24.555  1.00  0.00    -0.206 F 
ATOM     81  C   UNL A   1      42.611  21.820  25.406  1.00  0.00     0.059 A 
ATOM     82  C   UNL A   1      42.756  21.403  27.794  1.00  0.00     0.059 A 
ATOM     83  F   UNL A   1      43.397  23.136  29.239  1.00  0.00    -0.206 F 
ATOM     84  C   UNL A   1      42.484  20.962  26.500  1.00  0.00     0.060 A 
BRANCH  84  85
ATOM     85  S   UNL A   1      41.986  19.252  26.203  1.00  0.00     0.124 S 
ATOM     86  O   UNL A   1      42.788  18.915  25.032  1.00  0.00    -0.237 OA
ATOM     87  O   UNL A   1      42.372  18.593  27.446  1.00  0.00    -0.237 OA
ATOM     88  O   UNL A   1      40.549  19.352  25.970  1.00  0.00    -0.744 OA
ENDBRANCH  84  85
ENDBRANCH  63  77
BRANCH  64  89
ATOM     89  C   UNL A   1      46.679  32.787  28.976  1.00  0.00     0.058 A 
ATOM     90  C   UNL A   1      46.738  33.818  28.027  1.00  0.00     0.135 A 
ATOM     91  C   UNL A   1      47.178  33.052  30.261  1.00  0.00     0.135 A 
ATOM     92  F   UNL A   1      46.278  33.611  26.783  1.00  0.00    -0.206 F 
ATOM     93  C   UNL A   1      47.304  35.053  28.325  1.00  0.00     0.059 A 
ATOM     94  C   UNL A   1      47.726  34.287  30.591  1.00  0.00     0.059 A 
ATOM     95  F   UNL A   1      47.128  32.105  31.211  1.00  0.00    -0.206 F 
ATOM     96  C   UNL A   1      47.802  35.275  29.610  1.00  0.00     0.060 A 
BRANCH  96  97
ATOM     97  S   UNL A   1      48.533  36.882  29.994  1.00  0.00     0.124 S 
ATOM     98  O   UNL A   1      49.941  36.638  29.706  1.00  0.00    -0.237 OA
ATOM     99  O   UNL A   1      47.836  37.769  29.068  1.00  0.00    -0.237 OA
ATOM    100  O   UNL A   1      48.198  37.072  31.402  1.00  0.00    -0.744 OA
ENDBRANCH  96  97
ENDBRANCH  64  89
BRANCH  76 101
ATOM    101  C   UNL A   1      49.519  27.128  26.059  1.00  0.00     0.058 A 
ATOM    102  C   UNL A   1      50.571  26.691  26.878  1.00  0.00     0.135 A 
ATOM    103  C   UNL A   1      49.755  27.225  24.678  1.00  0.00     0.135 A 
ATOM    104  F   UNL A   1      50.397  26.589  28.205  1.00  0.00    -0.206 F 
ATOM    105  C   UNL A   1      51.816  26.371  26.347  1.00  0.00     0.059 A 
ATOM    106  C   UNL A   1      50.984  26.887  24.123  1.00  0.00     0.059 A 
ATOM    107  F   UNL A   1      48.778  27.630  23.852  1.00  0.00    -0.206 F 
ATOM    108  C   UNL A   1      52.011  26.468  24.968  1.00  0.00     0.060 A 
BRANCH 108 109
ATOM    109  S   UNL A   1      53.615  25.997  24.284  1.00  0.00     0.124 S 
ATOM    110  O   UNL A   1      54.519  26.871  25.026  1.00  0.00    -0.237 OA
ATOM    111  O   UNL A   1      53.693  24.577  24.614  1.00  0.00    -0.237 OA
ATOM    112  O   UNL A   1      53.479  26.296  22.862  1.00  0.00    -0.744 OA
ENDBRANCH 108 109
ENDBRANCH  76 101
ENDBRANCH  50  51
ENDBRANCH  42  45
ENDBRANCH  40  41
ENDBRANCH  39  40
ENDBRANCH  38  39
ENDBRANCH  37  38
ENDBRANCH  36  37
ENDBRANCH   1  36
TORSDOF 27
ENDMDL
