MODEL 1
REMARK VINA RESULT:     -11.7      0.000      0.000
REMARK SMILES CC(C)[C@@H](NC(=O)[C@@H]1CC[C@H]2CCCC[C@@H]2[NH2+]1)C(=O)NCCCCCCNC(=O)c1ccc(-c2c3nc(c(-c4c(F)cc(S(=O)(=O)[O-])cc4F)c4ccc([nH]4)c(-c4c(F)cc(S(=O)(=O)[O-])cc4F)c4nc(c(-c5c(F)cc(S(=O)(=O)[O-])cc5F)c5ccc2[nH]5)C=C4)C=C3)cc1
REMARK SMILES IDX 24 1 23 2 22 3 21 4 20 5 18 6 19 7 4 9 2 10 1 11 3 12 5 13
REMARK SMILES IDX 6 14 7 16 8 17 9 18 17 19 10 20 16 21 11 24 15 25 12 26
REMARK SMILES IDX 14 27 13 28 25 29 26 30 27 31 28 32 29 34 30 35 31 36 95 37
REMARK SMILES IDX 32 38 94 39 33 40 34 41 35 42 88 43 36 44 93 45 87 46 89 47
REMARK SMILES IDX 37 48 92 49 86 50 85 51 38 53 72 54 51 55 71 56 52 57 55 58
REMARK SMILES IDX 70 59 90 60 53 61 54 62 69 64 91 65 56 66 39 67 40 68 49 69
REMARK SMILES IDX 41 70 42 71 48 72 50 73 43 74 44 75 45 76 46 77 47 78 73 79
REMARK SMILES IDX 74 80 83 81 75 82 76 83 82 84 84 85 77 86 78 87 79 88 80 89
REMARK SMILES IDX 81 90 57 91 58 92 67 93 59 94 60 95 66 96 68 97 61 98 62 99
REMARK SMILES IDX 63 100 64 101 65 102
REMARK H PARENT 20 8 5 15 17 22 17 23 27 33 89 52 55 63
REMARK Flexibility Score: inf
ROOT
ATOM      1  C   UNL A   1      32.842  30.093  26.922  1.00  0.00     0.002 C 
ENDROOT
BRANCH   1   2
ATOM      2  C   UNL A   1      32.451  30.016  25.433  1.00  0.00     0.002 C 
BRANCH   2   3
ATOM      3  C   UNL A   1      30.978  30.195  24.990  1.00  0.00     0.021 C 
BRANCH   3   4
ATOM      4  C   UNL A   1      30.497  29.334  23.793  1.00  0.00     0.116 C 
BRANCH   4   5
ATOM      5  N   UNL A   1      31.632  28.713  23.027  1.00  0.00    -0.354 N 
ATOM      6  C   UNL A   1      31.807  27.369  22.711  1.00  0.00     0.242 C 
ATOM      7  O   UNL A   1      31.099  26.889  21.819  1.00  0.00    -0.273 OA
ATOM      8  H   UNL A   1      32.334  29.329  22.712  1.00  0.00     0.163 HD
BRANCH   6   9
ATOM      9  C   UNL A   1      33.015  26.491  23.343  1.00  0.00     0.174 C 
BRANCH   9  10
ATOM     10  C   UNL A   1      33.169  26.552  24.917  1.00  0.00     0.015 C 
ATOM     11  C   UNL A   1      31.848  26.269  25.656  1.00  0.00     0.010 C 
ATOM     12  C   UNL A   1      34.216  25.550  25.430  1.00  0.00     0.010 C 
ENDBRANCH   9  10
BRANCH   9  13
ATOM     13  N   UNL A   1      33.627  25.228  22.712  1.00  0.00    -0.339 N 
ATOM     14  C   UNL A   1      33.492  23.858  22.647  1.00  0.00     0.278 C 
ATOM     15  H   UNL A   1      34.390  25.496  22.150  1.00  0.00     0.164 HD
ATOM     16  O   UNL A   1      34.549  23.250  22.425  1.00  0.00    -0.268 OA
BRANCH  14  17
ATOM     17  C   UNL A   1      32.132  23.092  22.626  1.00  0.00     0.272 C 
ATOM     18  C   UNL A   1      31.559  23.046  23.997  1.00  0.00     0.076 C 
ATOM     19  N   UNL A   1      32.174  21.687  22.070  1.00  0.00    -0.333 N 
ATOM     20  C   UNL A   1      32.488  22.213  24.885  1.00  0.00     0.016 C 
ATOM     21  C   UNL A   1      32.141  20.622  23.115  1.00  0.00     0.186 C 
ATOM     22  H   UNL A   1      33.033  21.582  21.531  1.00  0.00     0.347 HD
ATOM     23  H   UNL A   1      31.336  21.569  21.502  1.00  0.00     0.347 HD
ATOM     24  C   UNL A   1      33.145  21.039  24.177  1.00  0.00     0.048 C 
ATOM     25  C   UNL A   1      32.356  19.204  22.602  1.00  0.00     0.065 C 
ATOM     26  C   UNL A   1      33.602  20.010  25.209  1.00  0.00     0.010 C 
ATOM     27  C   UNL A   1      32.570  18.225  23.766  1.00  0.00     0.006 C 
ATOM     28  C   UNL A   1      33.764  18.622  24.627  1.00  0.00     0.001 C 
ENDBRANCH  14  17
ENDBRANCH   9  13
ENDBRANCH   6   9
ENDBRANCH   4   5
ENDBRANCH   3   4
ENDBRANCH   2   3
ENDBRANCH   1   2
BRANCH   1  29
ATOM     29  C   UNL A   1      34.240  29.628  27.364  1.00  0.00     0.021 C 
BRANCH  29  30
ATOM     30  C   UNL A   1      35.249  30.669  27.863  1.00  0.00     0.116 C 
BRANCH  30  31
ATOM     31  N   UNL A   1      35.292  30.755  29.312  1.00  0.00    -0.352 N 
ATOM     32  C   UNL A   1      36.251  30.387  30.228  1.00  0.00     0.251 C 
ATOM     33  H   UNL A   1      34.485  31.150  29.715  1.00  0.00     0.163 HD
ATOM     34  O   UNL A   1      35.938  30.375  31.418  1.00  0.00    -0.269 OA
BRANCH  32  35
ATOM     35  C   UNL A   1      37.637  30.000  29.847  1.00  0.00     0.039 A 
ATOM     36  C   UNL A   1      38.542  29.684  30.873  1.00  0.00     0.014 A 
ATOM     37  C   UNL A   1      38.103  30.052  28.531  1.00  0.00     0.014 A 
ATOM     38  C   UNL A   1      39.877  29.377  30.579  1.00  0.00     0.010 A 
ATOM     39  C   UNL A   1      39.427  29.693  28.233  1.00  0.00     0.010 A 
ATOM     40  C   UNL A   1      40.330  29.348  29.251  1.00  0.00    -0.014 A 
BRANCH  40  41
ATOM     41  C   UNL A   1      41.727  28.935  28.923  1.00  0.00     0.031 A 
ATOM     42  C   UNL A   1      42.861  29.929  28.948  1.00  0.00     0.074 A 
ATOM     43  C   UNL A   1      41.973  27.661  28.555  1.00  0.00     0.049 A 
ATOM     44  N   UNL A   1      44.122  29.756  28.634  1.00  0.00    -0.248 NA
ATOM     45  C   UNL A   1      42.533  31.302  29.361  1.00  0.00     0.031 C 
ATOM     46  C   UNL A   1      40.965  26.603  28.460  1.00  0.00     0.029 A 
ATOM     47  N   UNL A   1      43.140  27.038  28.180  1.00  0.00    -0.354 N 
ATOM     48  C   UNL A   1      44.734  30.993  28.798  1.00  0.00     0.074 A 
ATOM     49  C   UNL A   1      43.696  31.920  29.202  1.00  0.00     0.031 C 
ATOM     50  C   UNL A   1      41.555  25.463  28.068  1.00  0.00     0.029 A 
ATOM     51  C   UNL A   1      42.975  25.714  27.841  1.00  0.00     0.049 A 
ATOM     52  H   UNL A   1      44.011  27.495  28.157  1.00  0.00     0.167 HD
ATOM     53  C   UNL A   1      46.040  31.325  28.643  1.00  0.00     0.037 A 
ATOM     54  C   UNL A   1      43.859  24.804  27.379  1.00  0.00     0.037 A 
ATOM     55  C   UNL A   1      47.074  30.396  28.260  1.00  0.00     0.049 A 
ATOM     56  C   UNL A   1      45.296  25.203  27.186  1.00  0.00     0.074 A 
ATOM     57  C   UNL A   1      48.436  30.623  28.145  1.00  0.00     0.029 A 
ATOM     58  N   UNL A   1      46.864  29.068  27.916  1.00  0.00    -0.354 N 
ATOM     59  N   UNL A   1      45.867  26.362  27.417  1.00  0.00    -0.248 NA
ATOM     60  C   UNL A   1      46.210  24.175  26.669  1.00  0.00     0.031 C 
ATOM     61  C   UNL A   1      49.039  29.450  27.680  1.00  0.00     0.029 A 
ATOM     62  C   UNL A   1      48.064  28.476  27.552  1.00  0.00     0.049 A 
ATOM     63  H   UNL A   1      45.990  28.614  27.928  1.00  0.00     0.167 HD
ATOM     64  C   UNL A   1      47.208  26.198  27.082  1.00  0.00     0.074 A 
ATOM     65  C   UNL A   1      47.367  24.823  26.657  1.00  0.00     0.031 C 
ATOM     66  C   UNL A   1      48.212  27.108  27.120  1.00  0.00     0.037 A 
BRANCH  53  67
ATOM     67  C   UNL A   1      46.436  32.760  28.882  1.00  0.00     0.058 A 
ATOM     68  C   UNL A   1      46.434  33.710  27.849  1.00  0.00     0.135 A 
ATOM     69  C   UNL A   1      46.772  33.202  30.173  1.00  0.00     0.135 A 
ATOM     70  F   UNL A   1      46.128  33.344  26.594  1.00  0.00    -0.206 F 
ATOM     71  C   UNL A   1      46.784  35.038  28.078  1.00  0.00     0.059 A 
ATOM     72  C   UNL A   1      47.097  34.532  30.432  1.00  0.00     0.059 A 
ATOM     73  F   UNL A   1      46.785  32.340  31.202  1.00  0.00    -0.206 F 
ATOM     74  C   UNL A   1      47.115  35.439  29.374  1.00  0.00     0.060 A 
BRANCH  74  75
ATOM     75  S   UNL A   1      47.569  37.165  29.652  1.00  0.00     0.124 S 
ATOM     76  O   UNL A   1      48.503  37.400  28.555  1.00  0.00    -0.237 OA
ATOM     77  O   UNL A   1      46.283  37.847  29.546  1.00  0.00    -0.237 OA
ATOM     78  O   UNL A   1      48.160  37.151  30.987  1.00  0.00    -0.744 OA
ENDBRANCH  74  75
ENDBRANCH  53  67
BRANCH  54  79
ATOM     79  C   UNL A   1      43.402  23.424  27.063  1.00  0.00     0.058 A 
ATOM     80  C   UNL A   1      43.189  23.019  25.737  1.00  0.00     0.135 A 
ATOM     81  C   UNL A   1      43.191  22.476  28.078  1.00  0.00     0.135 A 
ATOM     82  F   UNL A   1      43.366  23.891  24.733  1.00  0.00    -0.206 F 
ATOM     83  C   UNL A   1      42.776  21.727  25.427  1.00  0.00     0.059 A 
ATOM     84  C   UNL A   1      42.805  21.170  27.790  1.00  0.00     0.059 A 
ATOM     85  F   UNL A   1      43.392  22.809  29.362  1.00  0.00    -0.206 F 
ATOM     86  C   UNL A   1      42.592  20.807  26.462  1.00  0.00     0.060 A 
BRANCH  86  87
ATOM     87  S   UNL A   1      42.118  19.117  26.039  1.00  0.00     0.124 S 
ATOM     88  O   UNL A   1      40.691  19.265  25.787  1.00  0.00    -0.237 OA
ATOM     89  O   UNL A   1      42.951  18.847  24.873  1.00  0.00    -0.237 OA
ATOM     90  O   UNL A   1      42.472  18.361  27.241  1.00  0.00    -0.744 OA
ENDBRANCH  86  87
ENDBRANCH  54  79
BRANCH  66  91
ATOM     91  C   UNL A   1      49.579  26.651  26.688  1.00  0.00     0.058 A 
ATOM     92  C   UNL A   1      50.453  26.011  27.581  1.00  0.00     0.135 A 
ATOM     93  C   UNL A   1      49.998  26.799  25.356  1.00  0.00     0.135 A 
ATOM     94  F   UNL A   1      50.106  25.851  28.869  1.00  0.00    -0.206 F 
ATOM     95  C   UNL A   1      51.700  25.546  27.173  1.00  0.00     0.059 A 
ATOM     96  C   UNL A   1      51.230  26.318  24.919  1.00  0.00     0.059 A 
ATOM     97  F   UNL A   1      49.200  27.398  24.458  1.00  0.00    -0.206 F 
ATOM     98  C   UNL A   1      52.077  25.699  25.838  1.00  0.00     0.060 A 
BRANCH  98  99
ATOM     99  S   UNL A   1      53.676  25.047  25.312  1.00  0.00     0.124 S 
ATOM    100  O   UNL A   1      54.549  25.503  26.389  1.00  0.00    -0.237 OA
ATOM    101  O   UNL A   1      53.426  23.609  25.264  1.00  0.00    -0.237 OA
ATOM    102  O   UNL A   1      53.894  25.682  24.016  1.00  0.00    -0.744 OA
ENDBRANCH  98  99
ENDBRANCH  66  91
ENDBRANCH  40  41
ENDBRANCH  32  35
ENDBRANCH  30  31
ENDBRANCH  29  30
ENDBRANCH   1  29
TORSDOF 19
ENDMDL
MODEL 2
REMARK VINA RESULT:     -11.6      6.492     12.025
REMARK SMILES CC(C)[C@@H](NC(=O)[C@@H]1CC[C@H]2CCCC[C@@H]2[NH2+]1)C(=O)NCCCCCCNC(=O)c1ccc(-c2c3nc(c(-c4c(F)cc(S(=O)(=O)[O-])cc4F)c4ccc([nH]4)c(-c4c(F)cc(S(=O)(=O)[O-])cc4F)c4nc(c(-c5c(F)cc(S(=O)(=O)[O-])cc5F)c5ccc2[nH]5)C=C4)C=C3)cc1
REMARK SMILES IDX 24 1 23 2 22 3 21 4 20 5 18 6 19 7 4 9 2 10 1 11 3 12 5 13
REMARK SMILES IDX 6 14 7 16 8 17 9 18 17 19 10 20 16 21 11 24 15 25 12 26
REMARK SMILES IDX 14 27 13 28 25 29 26 30 27 31 28 32 29 34 30 35 31 36 95 37
REMARK SMILES IDX 32 38 94 39 33 40 34 41 35 42 88 43 36 44 93 45 87 46 89 47
REMARK SMILES IDX 37 48 92 49 86 50 85 51 38 53 72 54 51 55 71 56 52 57 55 58
REMARK SMILES IDX 70 59 90 60 53 61 54 62 69 64 91 65 56 66 39 67 40 68 49 69
REMARK SMILES IDX 41 70 42 71 48 72 50 73 43 74 44 75 45 76 46 77 47 78 73 79
REMARK SMILES IDX 74 80 83 81 75 82 76 83 82 84 84 85 77 86 78 87 79 88 80 89
REMARK SMILES IDX 81 90 57 91 58 92 67 93 59 94 60 95 66 96 68 97 61 98 62 99
REMARK SMILES IDX 63 100 64 101 65 102
REMARK H PARENT 20 8 5 15 17 22 17 23 27 33 89 52 55 63
REMARK Flexibility Score: inf
ROOT
ATOM      1  C   UNL A   1      40.073  21.604  26.596  1.00  0.00     0.002 C 
ENDROOT
BRANCH   1   2
ATOM      2  C   UNL A   1      38.818  22.355  26.109  1.00  0.00     0.002 C 
BRANCH   2   3
ATOM      3  C   UNL A   1      37.695  21.611  25.347  1.00  0.00     0.021 C 
BRANCH   3   4
ATOM      4  C   UNL A   1      36.306  22.301  25.296  1.00  0.00     0.116 C 
BRANCH   4   5
ATOM      5  N   UNL A   1      35.259  21.456  24.624  1.00  0.00    -0.354 N 
ATOM      6  C   UNL A   1      34.036  21.873  24.108  1.00  0.00     0.242 C 
ATOM      7  O   UNL A   1      34.044  22.500  23.043  1.00  0.00    -0.273 OA
ATOM      8  H   UNL A   1      35.463  20.496  24.539  1.00  0.00     0.163 HD
BRANCH   6   9
ATOM      9  C   UNL A   1      32.627  21.404  24.759  1.00  0.00     0.174 C 
BRANCH   9  10
ATOM     10  C   UNL A   1      32.198  19.907  24.481  1.00  0.00     0.015 C 
ATOM     11  C   UNL A   1      32.524  19.450  23.047  1.00  0.00     0.010 C 
ATOM     12  C   UNL A   1      32.878  18.926  25.450  1.00  0.00     0.010 C 
ENDBRANCH   9  10
BRANCH   9  13
ATOM     13  N   UNL A   1      31.979  22.009  26.016  1.00  0.00    -0.339 N 
ATOM     14  C   UNL A   1      31.504  23.189  26.547  1.00  0.00     0.278 C 
ATOM     15  H   UNL A   1      31.858  21.294  26.682  1.00  0.00     0.164 HD
ATOM     16  O   UNL A   1      31.566  23.255  27.783  1.00  0.00    -0.268 OA
BRANCH  14  17
ATOM     17  C   UNL A   1      30.744  24.291  25.744  1.00  0.00     0.272 C 
ATOM     18  C   UNL A   1      31.499  24.623  24.506  1.00  0.00     0.076 C 
ATOM     19  N   UNL A   1      30.452  25.571  26.492  1.00  0.00    -0.333 N 
ATOM     20  C   UNL A   1      32.836  25.253  24.907  1.00  0.00     0.016 C 
ATOM     21  C   UNL A   1      31.361  26.701  26.137  1.00  0.00     0.186 C 
ATOM     22  H   UNL A   1      30.544  25.386  27.490  1.00  0.00     0.347 HD
ATOM     23  H   UNL A   1      29.509  25.858  26.231  1.00  0.00     0.347 HD
ATOM     24  C   UNL A   1      32.769  26.130  26.147  1.00  0.00     0.048 C 
ATOM     25  C   UNL A   1      31.208  27.950  26.994  1.00  0.00     0.065 C 
ATOM     26  C   UNL A   1      33.957  27.090  26.159  1.00  0.00     0.010 C 
ATOM     27  C   UNL A   1      32.350  28.941  26.730  1.00  0.00     0.006 C 
ATOM     28  C   UNL A   1      33.714  28.320  27.008  1.00  0.00     0.001 C 
ENDBRANCH  14  17
ENDBRANCH   9  13
ENDBRANCH   6   9
ENDBRANCH   4   5
ENDBRANCH   3   4
ENDBRANCH   2   3
ENDBRANCH   1   2
BRANCH   1  29
ATOM     29  C   UNL A   1      40.913  22.193  27.742  1.00  0.00     0.021 C 
BRANCH  29  30
ATOM     30  C   UNL A   1      42.187  22.977  27.406  1.00  0.00     0.116 C 
BRANCH  30  31
ATOM     31  N   UNL A   1      42.020  23.845  26.253  1.00  0.00    -0.352 N 
ATOM     32  C   UNL A   1      41.571  25.140  26.132  1.00  0.00     0.251 C 
ATOM     33  H   UNL A   1      42.277  23.430  25.397  1.00  0.00     0.163 HD
ATOM     34  O   UNL A   1      41.328  25.564  25.003  1.00  0.00    -0.269 OA
BRANCH  32  35
ATOM     35  C   UNL A   1      41.364  26.043  27.298  1.00  0.00     0.039 A 
ATOM     36  C   UNL A   1      42.323  27.038  27.543  1.00  0.00     0.014 A 
ATOM     37  C   UNL A   1      40.326  25.868  28.216  1.00  0.00     0.014 A 
ATOM     38  C   UNL A   1      42.215  27.876  28.661  1.00  0.00     0.010 A 
ATOM     39  C   UNL A   1      40.189  26.741  29.307  1.00  0.00     0.010 A 
ATOM     40  C   UNL A   1      41.129  27.756  29.543  1.00  0.00    -0.014 A 
BRANCH  40  41
ATOM     41  C   UNL A   1      40.960  28.702  30.687  1.00  0.00     0.031 A 
ATOM     42  C   UNL A   1      41.791  28.569  31.938  1.00  0.00     0.074 A 
ATOM     43  C   UNL A   1      40.015  29.663  30.618  1.00  0.00     0.049 A 
ATOM     44  N   UNL A   1      41.734  29.265  33.047  1.00  0.00    -0.248 NA
ATOM     45  C   UNL A   1      42.807  27.506  31.952  1.00  0.00     0.031 C 
ATOM     46  C   UNL A   1      39.121  29.884  29.480  1.00  0.00     0.029 A 
ATOM     47  N   UNL A   1      39.638  30.625  31.525  1.00  0.00    -0.354 N 
ATOM     48  C   UNL A   1      42.692  28.718  33.895  1.00  0.00     0.074 A 
ATOM     49  C   UNL A   1      43.290  27.607  33.184  1.00  0.00     0.031 C 
ATOM     50  C   UNL A   1      38.312  30.921  29.749  1.00  0.00     0.029 A 
ATOM     51  C   UNL A   1      38.595  31.413  31.094  1.00  0.00     0.049 A 
ATOM     52  H   UNL A   1      40.073  30.740  32.400  1.00  0.00     0.167 HD
ATOM     53  C   UNL A   1      43.052  29.114  35.141  1.00  0.00     0.037 A 
ATOM     54  C   UNL A   1      37.926  32.407  31.712  1.00  0.00     0.037 A 
ATOM     55  C   UNL A   1      42.468  30.234  35.838  1.00  0.00     0.049 A 
ATOM     56  C   UNL A   1      38.323  32.809  33.107  1.00  0.00     0.074 A 
ATOM     57  C   UNL A   1      42.816  30.753  37.074  1.00  0.00     0.029 A 
ATOM     58  N   UNL A   1      41.409  30.999  35.371  1.00  0.00    -0.354 N 
ATOM     59  N   UNL A   1      39.281  32.326  33.861  1.00  0.00    -0.248 NA
ATOM     60  C   UNL A   1      37.550  33.890  33.735  1.00  0.00     0.031 C 
ATOM     61  C   UNL A   1      41.932  31.795  37.377  1.00  0.00     0.029 A 
ATOM     62  C   UNL A   1      41.066  31.960  36.309  1.00  0.00     0.049 A 
ATOM     63  H   UNL A   1      40.966  30.876  34.500  1.00  0.00     0.167 HD
ATOM     64  C   UNL A   1      39.231  33.049  35.049  1.00  0.00     0.074 A 
ATOM     65  C   UNL A   1      38.165  34.018  34.903  1.00  0.00     0.031 C 
ATOM     66  C   UNL A   1      39.996  32.916  36.160  1.00  0.00     0.037 A 
BRANCH  53  67
ATOM     67  C   UNL A   1      44.129  28.330  35.846  1.00  0.00     0.058 A 
ATOM     68  C   UNL A   1      45.490  28.635  35.686  1.00  0.00     0.135 A 
ATOM     69  C   UNL A   1      43.794  27.292  36.732  1.00  0.00     0.135 A 
ATOM     70  F   UNL A   1      45.871  29.612  34.847  1.00  0.00    -0.206 F 
ATOM     71  C   UNL A   1      46.482  27.920  36.352  1.00  0.00     0.059 A 
ATOM     72  C   UNL A   1      44.768  26.582  37.431  1.00  0.00     0.059 A 
ATOM     73  F   UNL A   1      42.509  26.960  36.929  1.00  0.00    -0.206 F 
ATOM     74  C   UNL A   1      46.110  26.894  37.222  1.00  0.00     0.060 A 
BRANCH  74  75
ATOM     75  S   UNL A   1      47.409  25.974  38.075  1.00  0.00     0.124 S 
ATOM     76  O   UNL A   1      46.692  25.474  39.244  1.00  0.00    -0.237 OA
ATOM     77  O   UNL A   1      47.784  24.969  37.084  1.00  0.00    -0.237 OA
ATOM     78  O   UNL A   1      48.422  26.988  38.349  1.00  0.00    -0.744 OA
ENDBRANCH  74  75
ENDBRANCH  53  67
BRANCH  54  79
ATOM     79  C   UNL A   1      36.803  33.089  31.014  1.00  0.00     0.058 A 
ATOM     80  C   UNL A   1      37.046  34.023  29.995  1.00  0.00     0.135 A 
ATOM     81  C   UNL A   1      35.465  32.805  31.333  1.00  0.00     0.135 A 
ATOM     82  F   UNL A   1      38.307  34.337  29.660  1.00  0.00    -0.206 F 
ATOM     83  C   UNL A   1      36.005  34.657  29.323  1.00  0.00     0.059 A 
ATOM     84  C   UNL A   1      34.408  33.405  30.657  1.00  0.00     0.059 A 
ATOM     85  F   UNL A   1      35.178  31.910  32.292  1.00  0.00    -0.206 F 
ATOM     86  C   UNL A   1      34.688  34.335  29.658  1.00  0.00     0.060 A 
BRANCH  86  87
ATOM     87  S   UNL A   1      33.348  35.119  28.735  1.00  0.00     0.124 S 
ATOM     88  O   UNL A   1      34.073  36.096  27.934  1.00  0.00    -0.237 OA
ATOM     89  O   UNL A   1      32.776  33.991  28.007  1.00  0.00    -0.237 OA
ATOM     90  O   UNL A   1      32.496  35.671  29.788  1.00  0.00    -0.744 OA
ENDBRANCH  86  87
ENDBRANCH  54  79
BRANCH  66  91
ATOM     91  C   UNL A   1      39.712  33.839  37.314  1.00  0.00     0.058 A 
ATOM     92  C   UNL A   1      38.897  33.442  38.386  1.00  0.00     0.135 A 
ATOM     93  C   UNL A   1      40.306  35.110  37.379  1.00  0.00     0.135 A 
ATOM     94  F   UNL A   1      38.297  32.240  38.370  1.00  0.00    -0.206 F 
ATOM     95  C   UNL A   1      38.670  34.276  39.476  1.00  0.00     0.059 A 
ATOM     96  C   UNL A   1      40.114  35.951  38.472  1.00  0.00     0.059 A 
ATOM     97  F   UNL A   1      41.099  35.538  36.384  1.00  0.00    -0.206 F 
ATOM     98  C   UNL A   1      39.289  35.527  39.513  1.00  0.00     0.060 A 
BRANCH  98  99
ATOM     99  S   UNL A   1      39.024  36.579  40.956  1.00  0.00     0.124 S 
ATOM    100  O   UNL A   1      38.539  37.810  40.340  1.00  0.00    -0.237 OA
ATOM    101  O   UNL A   1      38.037  35.820  41.718  1.00  0.00    -0.237 OA
ATOM    102  O   UNL A   1      40.348  36.661  41.566  1.00  0.00    -0.744 OA
ENDBRANCH  98  99
ENDBRANCH  66  91
ENDBRANCH  40  41
ENDBRANCH  32  35
ENDBRANCH  30  31
ENDBRANCH  29  30
ENDBRANCH   1  29
TORSDOF 19
ENDMDL
MODEL 3
REMARK VINA RESULT:     -11.4      6.544     12.027
REMARK SMILES CC(C)[C@@H](NC(=O)[C@@H]1CC[C@H]2CCCC[C@@H]2[NH2+]1)C(=O)NCCCCCCNC(=O)c1ccc(-c2c3nc(c(-c4c(F)cc(S(=O)(=O)[O-])cc4F)c4ccc([nH]4)c(-c4c(F)cc(S(=O)(=O)[O-])cc4F)c4nc(c(-c5c(F)cc(S(=O)(=O)[O-])cc5F)c5ccc2[nH]5)C=C4)C=C3)cc1
REMARK SMILES IDX 24 1 23 2 22 3 21 4 20 5 18 6 19 7 4 9 2 10 1 11 3 12 5 13
REMARK SMILES IDX 6 14 7 16 8 17 9 18 17 19 10 20 16 21 11 24 15 25 12 26
REMARK SMILES IDX 14 27 13 28 25 29 26 30 27 31 28 32 29 34 30 35 31 36 95 37
REMARK SMILES IDX 32 38 94 39 33 40 34 41 35 42 88 43 36 44 93 45 87 46 89 47
REMARK SMILES IDX 37 48 92 49 86 50 85 51 38 53 72 54 51 55 71 56 52 57 55 58
REMARK SMILES IDX 70 59 90 60 53 61 54 62 69 64 91 65 56 66 39 67 40 68 49 69
REMARK SMILES IDX 41 70 42 71 48 72 50 73 43 74 44 75 45 76 46 77 47 78 73 79
REMARK SMILES IDX 74 80 83 81 75 82 76 83 82 84 84 85 77 86 78 87 79 88 80 89
REMARK SMILES IDX 81 90 57 91 58 92 67 93 59 94 60 95 66 96 68 97 61 98 62 99
REMARK SMILES IDX 63 100 64 101 65 102
REMARK H PARENT 20 8 5 15 17 22 17 23 27 33 89 52 55 63
REMARK Flexibility Score: inf
ROOT
ATOM      1  C   UNL A   1      36.823  22.283  24.809  1.00  0.00     0.002 C 
ENDROOT
BRANCH   1   2
ATOM      2  C   UNL A   1      35.657  21.575  25.528  1.00  0.00     0.002 C 
BRANCH   2   3
ATOM      3  C   UNL A   1      34.247  21.525  24.892  1.00  0.00     0.021 C 
BRANCH   3   4
ATOM      4  C   UNL A   1      33.038  21.519  25.865  1.00  0.00     0.116 C 
BRANCH   4   5
ATOM      5  N   UNL A   1      32.849  22.835  26.567  1.00  0.00    -0.354 N 
ATOM      6  C   UNL A   1      31.658  23.528  26.763  1.00  0.00     0.242 C 
ATOM      7  O   UNL A   1      30.873  23.095  27.615  1.00  0.00    -0.273 OA
ATOM      8  H   UNL A   1      33.662  23.256  26.931  1.00  0.00     0.163 HD
BRANCH   6   9
ATOM      9  C   UNL A   1      31.370  24.955  26.051  1.00  0.00     0.174 C 
BRANCH   9  10
ATOM     10  C   UNL A   1      30.565  24.902  24.689  1.00  0.00     0.015 C 
ATOM     11  C   UNL A   1      29.639  26.117  24.496  1.00  0.00     0.010 C 
ATOM     12  C   UNL A   1      31.503  24.830  23.472  1.00  0.00     0.010 C 
ENDBRANCH   9  10
BRANCH   9  13
ATOM     13  N   UNL A   1      31.273  26.310  26.772  1.00  0.00    -0.339 N 
ATOM     14  C   UNL A   1      31.991  27.447  27.073  1.00  0.00     0.278 C 
ATOM     15  H   UNL A   1      30.371  26.397  27.157  1.00  0.00     0.164 HD
ATOM     16  O   UNL A   1      31.640  28.012  28.119  1.00  0.00    -0.268 OA
BRANCH  14  17
ATOM     17  C   UNL A   1      33.016  28.138  26.119  1.00  0.00     0.272 C 
ATOM     18  C   UNL A   1      32.947  29.614  26.291  1.00  0.00     0.076 C 
ATOM     19  N   UNL A   1      32.875  27.814  24.650  1.00  0.00    -0.333 N 
ATOM     20  C   UNL A   1      31.567  30.093  25.831  1.00  0.00     0.016 C 
ATOM     21  C   UNL A   1      32.222  28.893  23.852  1.00  0.00     0.186 C 
ATOM     22  H   UNL A   1      32.315  26.967  24.562  1.00  0.00     0.347 HD
ATOM     23  H   UNL A   1      33.818  27.702  24.280  1.00  0.00     0.347 HD
ATOM     24  C   UNL A   1      31.001  29.328  24.646  1.00  0.00     0.048 C 
ATOM     25  C   UNL A   1      31.907  28.531  22.407  1.00  0.00     0.065 C 
ATOM     26  C   UNL A   1      29.931  30.172  23.956  1.00  0.00     0.010 C 
ATOM     27  C   UNL A   1      31.010  29.594  21.756  1.00  0.00     0.006 C 
ATOM     28  C   UNL A   1      29.699  29.769  22.515  1.00  0.00     0.001 C 
ENDBRANCH  14  17
ENDBRANCH   9  13
ENDBRANCH   6   9
ENDBRANCH   4   5
ENDBRANCH   3   4
ENDBRANCH   2   3
ENDBRANCH   1   2
BRANCH   1  29
ATOM     29  C   UNL A   1      37.149  23.746  25.153  1.00  0.00     0.021 C 
BRANCH  29  30
ATOM     30  C   UNL A   1      38.006  24.049  26.387  1.00  0.00     0.116 C 
BRANCH  30  31
ATOM     31  N   UNL A   1      39.428  23.908  26.128  1.00  0.00    -0.352 N 
ATOM     32  C   UNL A   1      40.518  24.633  26.552  1.00  0.00     0.251 C 
ATOM     33  H   UNL A   1      39.656  23.152  25.539  1.00  0.00     0.163 HD
ATOM     34  O   UNL A   1      41.600  24.423  26.004  1.00  0.00    -0.269 OA
BRANCH  32  35
ATOM     35  C   UNL A   1      40.447  25.657  27.631  1.00  0.00     0.039 A 
ATOM     36  C   UNL A   1      41.475  26.609  27.708  1.00  0.00     0.014 A 
ATOM     37  C   UNL A   1      39.471  25.637  28.630  1.00  0.00     0.014 A 
ATOM     38  C   UNL A   1      41.496  27.556  28.741  1.00  0.00     0.010 A 
ATOM     39  C   UNL A   1      39.463  26.619  29.633  1.00  0.00     0.010 A 
ATOM     40  C   UNL A   1      40.473  27.591  29.701  1.00  0.00    -0.014 A 
BRANCH  40  41
ATOM     41  C   UNL A   1      40.441  28.652  30.752  1.00  0.00     0.031 A 
ATOM     42  C   UNL A   1      41.354  28.591  31.951  1.00  0.00     0.074 A 
ATOM     43  C   UNL A   1      39.548  29.658  30.651  1.00  0.00     0.049 A 
ATOM     44  N   UNL A   1      41.418  29.394  32.985  1.00  0.00    -0.248 NA
ATOM     45  C   UNL A   1      42.309  27.474  32.003  1.00  0.00     0.031 C 
ATOM     46  C   UNL A   1      38.585  29.823  29.560  1.00  0.00     0.029 A 
ATOM     47  N   UNL A   1      39.292  30.725  31.480  1.00  0.00    -0.354 N 
ATOM     48  C   UNL A   1      42.404  28.874  33.816  1.00  0.00     0.074 A 
ATOM     49  C   UNL A   1      42.886  27.664  33.183  1.00  0.00     0.031 C 
ATOM     50  C   UNL A   1      37.856  30.929  29.777  1.00  0.00     0.029 A 
ATOM     51  C   UNL A   1      38.265  31.531  31.043  1.00  0.00     0.049 A 
ATOM     52  H   UNL A   1      39.797  30.898  32.307  1.00  0.00     0.167 HD
ATOM     53  C   UNL A   1      42.877  29.366  34.988  1.00  0.00     0.037 A 
ATOM     54  C   UNL A   1      37.698  32.620  31.602  1.00  0.00     0.037 A 
ATOM     55  C   UNL A   1      42.408  30.583  35.606  1.00  0.00     0.049 A 
ATOM     56  C   UNL A   1      38.219  33.130  32.917  1.00  0.00     0.074 A 
ATOM     57  C   UNL A   1      42.875  31.198  36.757  1.00  0.00     0.029 A 
ATOM     58  N   UNL A   1      41.361  31.362  35.137  1.00  0.00    -0.354 N 
ATOM     59  N   UNL A   1      39.202  32.664  33.650  1.00  0.00    -0.248 NA
ATOM     60  C   UNL A   1      37.555  34.313  33.484  1.00  0.00     0.031 C 
ATOM     61  C   UNL A   1      42.075  32.316  37.012  1.00  0.00     0.029 A 
ATOM     62  C   UNL A   1      41.141  32.429  35.995  1.00  0.00     0.049 A 
ATOM     63  H   UNL A   1      40.848  31.182  34.316  1.00  0.00     0.167 HD
ATOM     64  C   UNL A   1      39.280  33.501  34.758  1.00  0.00     0.074 A 
ATOM     65  C   UNL A   1      38.261  34.516  34.588  1.00  0.00     0.031 C 
ATOM     66  C   UNL A   1      40.117  33.430  35.823  1.00  0.00     0.037 A 
BRANCH  53  67
ATOM     67  C   UNL A   1      43.959  28.590  35.693  1.00  0.00     0.058 A 
ATOM     68  C   UNL A   1      43.661  27.573  36.614  1.00  0.00     0.135 A 
ATOM     69  C   UNL A   1      45.314  28.831  35.407  1.00  0.00     0.135 A 
ATOM     70  F   UNL A   1      42.385  27.302  36.932  1.00  0.00    -0.206 F 
ATOM     71  C   UNL A   1      44.663  26.846  37.249  1.00  0.00     0.059 A 
ATOM     72  C   UNL A   1      46.334  28.097  36.009  1.00  0.00     0.059 A 
ATOM     73  F   UNL A   1      45.660  29.787  34.530  1.00  0.00    -0.206 F 
ATOM     74  C   UNL A   1      45.998  27.117  36.941  1.00  0.00     0.060 A 
BRANCH  74  75
ATOM     75  S   UNL A   1      47.286  26.167  37.778  1.00  0.00     0.124 S 
ATOM     76  O   UNL A   1      46.562  25.657  38.939  1.00  0.00    -0.237 OA
ATOM     77  O   UNL A   1      47.646  25.174  36.770  1.00  0.00    -0.237 OA
ATOM     78  O   UNL A   1      48.312  27.163  38.067  1.00  0.00    -0.744 OA
ENDBRANCH  74  75
ENDBRANCH  53  67
BRANCH  54  79
ATOM     79  C   UNL A   1      36.565  33.299  30.916  1.00  0.00     0.058 A 
ATOM     80  C   UNL A   1      35.251  33.166  31.387  1.00  0.00     0.135 A 
ATOM     81  C   UNL A   1      36.776  34.110  29.789  1.00  0.00     0.135 A 
ATOM     82  F   UNL A   1      34.996  32.393  32.453  1.00  0.00    -0.206 F 
ATOM     83  C   UNL A   1      34.184  33.807  30.764  1.00  0.00     0.059 A 
ATOM     84  C   UNL A   1      35.730  34.783  29.166  1.00  0.00     0.059 A 
ATOM     85  F   UNL A   1      38.017  34.280  29.305  1.00  0.00    -0.206 F 
ATOM     86  C   UNL A   1      34.436  34.619  29.656  1.00  0.00     0.060 A 
BRANCH  86  87
ATOM     87  S   UNL A   1      33.051  35.494  28.896  1.00  0.00     0.124 S 
ATOM     88  O   UNL A   1      32.301  35.931  30.066  1.00  0.00    -0.237 OA
ATOM     89  O   UNL A   1      33.728  36.542  28.140  1.00  0.00    -0.237 OA
ATOM     90  O   UNL A   1      32.410  34.461  28.083  1.00  0.00    -0.744 OA
ENDBRANCH  86  87
ENDBRANCH  54  79
BRANCH  66  91
ATOM     91  C   UNL A   1      39.970  34.477  36.893  1.00  0.00     0.058 A 
ATOM     92  C   UNL A   1      39.118  34.286  37.992  1.00  0.00     0.135 A 
ATOM     93  C   UNL A   1      40.732  35.656  36.854  1.00  0.00     0.135 A 
ATOM     94  F   UNL A   1      38.360  33.180  38.075  1.00  0.00    -0.206 F 
ATOM     95  C   UNL A   1      39.015  35.232  39.007  1.00  0.00     0.059 A 
ATOM     96  C   UNL A   1      40.665  36.605  37.871  1.00  0.00     0.059 A 
ATOM     97  F   UNL A   1      41.568  35.888  35.828  1.00  0.00    -0.206 F 
ATOM     98  C   UNL A   1      39.798  36.386  38.941  1.00  0.00     0.060 A 
BRANCH  98  99
ATOM     99  S   UNL A   1      39.690  37.582  40.289  1.00  0.00     0.124 S 
ATOM    100  O   UNL A   1      40.674  38.579  39.880  1.00  0.00    -0.237 OA
ATOM    101  O   UNL A   1      38.293  38.004  40.220  1.00  0.00    -0.237 OA
ATOM    102  O   UNL A   1      40.043  36.798  41.469  1.00  0.00    -0.744 OA
ENDBRANCH  98  99
ENDBRANCH  66  91
ENDBRANCH  40  41
ENDBRANCH  32  35
ENDBRANCH  30  31
ENDBRANCH  29  30
ENDBRANCH   1  29
TORSDOF 19
ENDMDL
