MODEL 1
REMARK VINA RESULT:     -12.2      0.000      0.000
REMARK SMILES C[NH+]1CCN(C(=O)c2ccc3c(c2)N(CC(=O)NCCCCCCNC(=O)c2ccc(-c4c5nc(c(-c6c(F)cc(S(=O)(=O)[O-])cc6F)c6ccc([nH]6)c(-c6c(F)cc(S(=O)(=O)[O-])cc6F)c6nc(c(-c7c(F)cc(S(=O)(=O)[O-])cc7F)c7ccc4[nH]7)C=C6)C=C5)cc2)C(=O)CO3)CC1
REMARK SMILES IDX 22 1 21 2 20 3 19 4 18 5 16 6 17 7 15 9 14 10 8 11 9 12
REMARK SMILES IDX 13 13 10 14 12 15 11 16 97 17 94 18 96 19 95 20 6 21 1 22
REMARK SMILES IDX 2 23 3 24 99 25 4 27 98 28 5 29 7 30 23 31 24 32 25 33 26 34
REMARK SMILES IDX 27 36 28 37 29 38 93 39 30 40 92 41 31 42 32 43 33 44 86 45
REMARK SMILES IDX 34 46 91 47 85 48 87 49 35 50 90 51 84 52 83 53 36 55 70 56
REMARK SMILES IDX 49 57 69 58 50 59 53 60 68 61 88 62 51 63 52 64 67 66 89 67
REMARK SMILES IDX 54 68 37 69 38 70 47 71 39 72 40 73 46 74 48 75 41 76 42 77
REMARK SMILES IDX 43 78 44 79 45 80 71 81 72 82 81 83 73 84 74 85 80 86 82 87
REMARK SMILES IDX 75 88 76 89 77 90 78 91 79 92 55 93 56 94 65 95 57 96 58 97
REMARK SMILES IDX 64 98 66 99 59 100 60 101 61 102 62 103 63 104
REMARK H PARENT 18 8 2 26 25 35 87 54 53 65
REMARK Flexibility Score: inf
ROOT
ATOM      1  C   UNL A   1      37.849  22.416  25.369  1.00  0.00     0.002 C 
ENDROOT
BRANCH   1   2
ATOM      2  C   UNL A   1      36.893  23.551  25.753  1.00  0.00     0.002 C 
BRANCH   2   3
ATOM      3  C   UNL A   1      35.487  23.452  25.145  1.00  0.00     0.021 C 
BRANCH   3   4
ATOM      4  C   UNL A   1      34.498  22.657  25.996  1.00  0.00     0.116 C 
BRANCH   4   5
ATOM      5  N   UNL A   1      33.586  23.530  26.706  1.00  0.00    -0.355 N 
ATOM      6  C   UNL A   1      32.244  23.691  26.545  1.00  0.00     0.240 C 
ATOM      7  O   UNL A   1      31.659  24.436  27.337  1.00  0.00    -0.273 OA
ATOM      8  H   UNL A   1      33.996  24.087  27.406  1.00  0.00     0.163 HD
BRANCH   6   9
ATOM      9  C   UNL A   1      31.458  22.909  25.484  1.00  0.00     0.225 C 
BRANCH   9  10
ATOM     10  N   UNL A   1      31.951  23.044  24.112  1.00  0.00    -0.296 N 
ATOM     11  C   UNL A   1      31.783  26.732  23.462  1.00  0.00     0.042 A 
ATOM     12  C   UNL A   1      32.489  26.824  22.263  1.00  0.00     0.018 A 
ATOM     13  C   UNL A   1      31.550  25.485  24.062  1.00  0.00     0.044 A 
ATOM     14  C   UNL A   1      33.005  25.668  21.684  1.00  0.00     0.049 A 
ATOM     15  C   UNL A   1      32.082  24.318  23.495  1.00  0.00     0.087 A 
ATOM     16  C   UNL A   1      32.797  24.427  22.292  1.00  0.00     0.143 A 
ATOM     17  O   UNL A   1      33.398  23.368  21.670  1.00  0.00    -0.482 OA
ATOM     18  C   UNL A   1      32.302  21.897  23.412  1.00  0.00     0.265 C 
ATOM     19  C   UNL A   1      32.819  22.121  21.997  1.00  0.00     0.330 C 
ATOM     20  O   UNL A   1      32.168  20.759  23.865  1.00  0.00    -0.270 OA
BRANCH  11  21
ATOM     21  C   UNL A   1      31.236  27.971  24.055  1.00  0.00     0.254 C 
ATOM     22  C   UNL A   1      34.182  30.725  27.932  1.00  0.00     0.332 C 
ATOM     23  N   UNL A   1      33.640  30.439  26.605  1.00  0.00    -0.334 N 
ATOM     24  C   UNL A   1      32.160  30.440  26.636  1.00  0.00     0.283 C 
ATOM     25  C   UNL A   1      34.113  29.119  26.134  1.00  0.00     0.283 C 
ATOM     26  H   UNL A   1      33.961  31.166  25.967  1.00  0.00     0.347 HD
ATOM     27  C   UNL A   1      31.540  30.084  25.270  1.00  0.00     0.181 C 
ATOM     28  C   UNL A   1      33.556  28.780  24.740  1.00  0.00     0.181 C 
ATOM     29  N   UNL A   1      32.088  28.842  24.720  1.00  0.00    -0.327 N 
ATOM     30  O   UNL A   1      30.033  28.174  23.910  1.00  0.00    -0.269 OA
ENDBRANCH  11  21
ENDBRANCH   9  10
ENDBRANCH   6   9
ENDBRANCH   4   5
ENDBRANCH   3   4
ENDBRANCH   2   3
ENDBRANCH   1   2
BRANCH   1  31
ATOM     31  C   UNL A   1      38.978  22.152  26.367  1.00  0.00     0.021 C 
BRANCH  31  32
ATOM     32  C   UNL A   1      39.657  23.410  26.899  1.00  0.00     0.116 C 
BRANCH  32  33
ATOM     33  N   UNL A   1      40.814  23.781  26.099  1.00  0.00    -0.352 N 
ATOM     34  C   UNL A   1      41.596  24.906  26.178  1.00  0.00     0.251 C 
ATOM     35  H   UNL A   1      41.072  23.135  25.403  1.00  0.00     0.163 HD
ATOM     36  O   UNL A   1      42.401  25.154  25.282  1.00  0.00    -0.269 OA
BRANCH  34  37
ATOM     37  C   UNL A   1      41.456  25.823  27.330  1.00  0.00     0.039 A 
ATOM     38  C   UNL A   1      42.380  26.858  27.490  1.00  0.00     0.014 A 
ATOM     39  C   UNL A   1      40.423  25.654  28.256  1.00  0.00     0.014 A 
ATOM     40  C   UNL A   1      42.237  27.754  28.552  1.00  0.00     0.010 A 
ATOM     41  C   UNL A   1      40.236  26.594  29.265  1.00  0.00     0.010 A 
ATOM     42  C   UNL A   1      41.147  27.647  29.432  1.00  0.00    -0.014 A 
BRANCH  42  43
ATOM     43  C   UNL A   1      40.957  28.610  30.548  1.00  0.00     0.031 A 
ATOM     44  C   UNL A   1      41.814  28.507  31.783  1.00  0.00     0.074 A 
ATOM     45  C   UNL A   1      39.984  29.540  30.474  1.00  0.00     0.049 A 
ATOM     46  N   UNL A   1      41.754  29.201  32.891  1.00  0.00    -0.248 NA
ATOM     47  C   UNL A   1      42.858  27.469  31.784  1.00  0.00     0.031 C 
ATOM     48  C   UNL A   1      39.064  29.715  29.348  1.00  0.00     0.029 A 
ATOM     49  N   UNL A   1      39.599  30.508  31.367  1.00  0.00    -0.354 N 
ATOM     50  C   UNL A   1      42.741  28.680  33.719  1.00  0.00     0.074 A 
ATOM     51  C   UNL A   1      43.344  27.571  33.012  1.00  0.00     0.031 C 
ATOM     52  C   UNL A   1      38.239  30.742  29.608  1.00  0.00     0.029 A 
ATOM     53  C   UNL A   1      38.539  31.272  30.934  1.00  0.00     0.049 A 
ATOM     54  H   UNL A   1      40.039  30.644  32.238  1.00  0.00     0.167 HD
ATOM     55  C   UNL A   1      43.130  29.103  34.945  1.00  0.00     0.037 A 
ATOM     56  C   UNL A   1      37.880  32.279  31.540  1.00  0.00     0.037 A 
ATOM     57  C   UNL A   1      42.540  30.223  35.633  1.00  0.00     0.049 A 
ATOM     58  C   UNL A   1      38.320  32.718  32.913  1.00  0.00     0.074 A 
ATOM     59  C   UNL A   1      42.890  30.758  36.860  1.00  0.00     0.029 A 
ATOM     60  N   UNL A   1      41.482  30.980  35.154  1.00  0.00    -0.354 N 
ATOM     61  N   UNL A   1      39.290  32.247  33.660  1.00  0.00    -0.248 NA
ATOM     62  C   UNL A   1      37.580  33.831  33.524  1.00  0.00     0.031 C 
ATOM     63  C   UNL A   1      42.012  31.808  37.145  1.00  0.00     0.029 A 
ATOM     64  C   UNL A   1      41.155  31.967  36.069  1.00  0.00     0.049 A 
ATOM     65  H   UNL A   1      41.030  30.837  34.291  1.00  0.00     0.167 HD
ATOM     66  C   UNL A   1      39.303  33.031  34.809  1.00  0.00     0.074 A 
ATOM     67  C   UNL A   1      38.248  34.012  34.654  1.00  0.00     0.031 C 
ATOM     68  C   UNL A   1      40.114  32.949  35.892  1.00  0.00     0.037 A 
BRANCH  55  69
ATOM     69  C   UNL A   1      44.252  28.363  35.620  1.00  0.00     0.058 A 
ATOM     70  C   UNL A   1      44.009  27.271  36.470  1.00  0.00     0.135 A 
ATOM     71  C   UNL A   1      45.590  28.715  35.378  1.00  0.00     0.135 A 
ATOM     72  F   UNL A   1      42.750  26.901  36.751  1.00  0.00    -0.206 F 
ATOM     73  C   UNL A   1      45.049  26.570  37.072  1.00  0.00     0.059 A 
ATOM     74  C   UNL A   1      46.648  28.009  35.945  1.00  0.00     0.059 A 
ATOM     75  F   UNL A   1      45.882  29.752  34.576  1.00  0.00    -0.206 F 
ATOM     76  C   UNL A   1      46.365  26.945  36.800  1.00  0.00     0.060 A 
BRANCH  76  77
ATOM     77  S   UNL A   1      47.702  26.010  37.575  1.00  0.00     0.124 S 
ATOM     78  O   UNL A   1      48.648  27.073  37.903  1.00  0.00    -0.237 OA
ATOM     79  O   UNL A   1      47.028  25.389  38.711  1.00  0.00    -0.237 OA
ATOM     80  O   UNL A   1      48.129  25.092  36.525  1.00  0.00    -0.744 OA
ENDBRANCH  76  77
ENDBRANCH  55  69
BRANCH  56  81
ATOM     81  C   UNL A   1      36.745  32.954  30.854  1.00  0.00     0.058 A 
ATOM     82  C   UNL A   1      36.970  33.852  29.800  1.00  0.00     0.135 A 
ATOM     83  C   UNL A   1      35.417  32.731  31.247  1.00  0.00     0.135 A 
ATOM     84  F   UNL A   1      38.222  34.105  29.389  1.00  0.00    -0.206 F 
ATOM     85  C   UNL A   1      35.923  34.528  29.180  1.00  0.00     0.059 A 
ATOM     86  C   UNL A   1      34.350  33.370  30.622  1.00  0.00     0.059 A 
ATOM     87  F   UNL A   1      35.144  31.868  32.238  1.00  0.00    -0.206 F 
ATOM     88  C   UNL A   1      34.616  34.280  29.599  1.00  0.00     0.060 A 
BRANCH  88  89
ATOM     89  S   UNL A   1      33.263  35.146  28.774  1.00  0.00     0.124 S 
ATOM     90  O   UNL A   1      33.975  36.214  28.084  1.00  0.00    -0.237 OA
ATOM     91  O   UNL A   1      32.703  34.099  27.925  1.00  0.00    -0.237 OA
ATOM     92  O   UNL A   1      32.410  35.568  29.881  1.00  0.00    -0.744 OA
ENDBRANCH  88  89
ENDBRANCH  56  81
BRANCH  68  93
ATOM     93  C   UNL A   1      39.936  33.979  36.974  1.00  0.00     0.058 A 
ATOM     94  C   UNL A   1      40.575  35.227  36.926  1.00  0.00     0.135 A 
ATOM     95  C   UNL A   1      39.066  33.730  38.050  1.00  0.00     0.135 A 
ATOM     96  F   UNL A   1      41.420  35.516  35.925  1.00  0.00    -0.206 F 
ATOM     97  C   UNL A   1      40.379  36.182  37.919  1.00  0.00     0.059 A 
ATOM     98  C   UNL A   1      38.830  34.681  39.035  1.00  0.00     0.059 A 
ATOM     99  F   UNL A   1      38.420  32.555  38.138  1.00  0.00    -0.206 F 
ATOM    100  C   UNL A   1      39.501  35.901  38.969  1.00  0.00     0.060 A 
BRANCH 100 101
ATOM    101  S   UNL A   1      39.229  37.162  40.231  1.00  0.00     0.124 S 
ATOM    102  O   UNL A   1      38.447  38.150  39.496  1.00  0.00    -0.237 OA
ATOM    103  O   UNL A   1      38.508  36.422  41.261  1.00  0.00    -0.237 OA
ATOM    104  O   UNL A   1      40.581  37.576  40.595  1.00  0.00    -0.744 OA
ENDBRANCH 100 101
ENDBRANCH  68  93
ENDBRANCH  42  43
ENDBRANCH  34  37
ENDBRANCH  32  33
ENDBRANCH  31  32
ENDBRANCH   1  31
TORSDOF 18
ENDMDL
MODEL 2
REMARK VINA RESULT:     -12.0      1.373      2.384
REMARK SMILES C[NH+]1CCN(C(=O)c2ccc3c(c2)N(CC(=O)NCCCCCCNC(=O)c2ccc(-c4c5nc(c(-c6c(F)cc(S(=O)(=O)[O-])cc6F)c6ccc([nH]6)c(-c6c(F)cc(S(=O)(=O)[O-])cc6F)c6nc(c(-c7c(F)cc(S(=O)(=O)[O-])cc7F)c7ccc4[nH]7)C=C6)C=C5)cc2)C(=O)CO3)CC1
REMARK SMILES IDX 22 1 21 2 20 3 19 4 18 5 16 6 17 7 15 9 14 10 8 11 9 12
REMARK SMILES IDX 13 13 10 14 12 15 11 16 97 17 94 18 96 19 95 20 6 21 1 22
REMARK SMILES IDX 2 23 3 24 99 25 4 27 98 28 5 29 7 30 23 31 24 32 25 33 26 34
REMARK SMILES IDX 27 36 28 37 29 38 93 39 30 40 92 41 31 42 32 43 33 44 86 45
REMARK SMILES IDX 34 46 91 47 85 48 87 49 35 50 90 51 84 52 83 53 36 55 70 56
REMARK SMILES IDX 49 57 69 58 50 59 53 60 68 61 88 62 51 63 52 64 67 66 89 67
REMARK SMILES IDX 54 68 37 69 38 70 47 71 39 72 40 73 46 74 48 75 41 76 42 77
REMARK SMILES IDX 43 78 44 79 45 80 71 81 72 82 81 83 73 84 74 85 80 86 82 87
REMARK SMILES IDX 75 88 76 89 77 90 78 91 79 92 55 93 56 94 65 95 57 96 58 97
REMARK SMILES IDX 64 98 66 99 59 100 60 101 61 102 62 103 63 104
REMARK H PARENT 18 8 2 26 25 35 87 54 53 65
REMARK Flexibility Score: inf
ROOT
ATOM      1  C   UNL A   1      42.236  21.214  27.726  1.00  0.00     0.002 C 
ENDROOT
BRANCH   1   2
ATOM      2  C   UNL A   1      40.713  21.063  27.642  1.00  0.00     0.002 C 
BRANCH   2   3
ATOM      3  C   UNL A   1      40.211  20.141  26.521  1.00  0.00     0.021 C 
BRANCH   3   4
ATOM      4  C   UNL A   1      39.324  20.841  25.493  1.00  0.00     0.116 C 
BRANCH   4   5
ATOM      5  N   UNL A   1      38.581  21.932  26.089  1.00  0.00    -0.355 N 
ATOM      6  C   UNL A   1      37.494  22.599  25.612  1.00  0.00     0.240 C 
ATOM      7  O   UNL A   1      36.972  23.441  26.349  1.00  0.00    -0.273 OA
ATOM      8  H   UNL A   1      38.908  22.235  26.966  1.00  0.00     0.163 HD
BRANCH   6   9
ATOM      9  C   UNL A   1      36.872  22.260  24.250  1.00  0.00     0.225 C 
BRANCH   9  10
ATOM     10  N   UNL A   1      35.492  21.775  24.294  1.00  0.00    -0.296 N 
ATOM     11  C   UNL A   1      33.476  24.711  23.125  1.00  0.00     0.042 A 
ATOM     12  C   UNL A   1      32.225  24.122  22.947  1.00  0.00     0.018 A 
ATOM     13  C   UNL A   1      34.555  23.964  23.619  1.00  0.00     0.044 A 
ATOM     14  C   UNL A   1      32.063  22.766  23.221  1.00  0.00     0.049 A 
ATOM     15  C   UNL A   1      34.406  22.594  23.880  1.00  0.00     0.087 A 
ATOM     16  C   UNL A   1      33.143  22.013  23.688  1.00  0.00     0.143 A 
ATOM     17  O   UNL A   1      32.888  20.682  23.867  1.00  0.00    -0.482 OA
ATOM     18  C   UNL A   1      35.251  20.484  24.745  1.00  0.00     0.265 C 
ATOM     19  C   UNL A   1      33.792  20.048  24.749  1.00  0.00     0.330 C 
ATOM     20  O   UNL A   1      36.136  19.737  25.166  1.00  0.00    -0.270 OA
BRANCH  11  21
ATOM     21  C   UNL A   1      33.623  26.154  22.837  1.00  0.00     0.254 C 
ATOM     22  C   UNL A   1      32.110  29.920  26.686  1.00  0.00     0.332 C 
ATOM     23  N   UNL A   1      33.020  29.086  25.904  1.00  0.00    -0.334 N 
ATOM     24  C   UNL A   1      32.890  29.384  24.461  1.00  0.00     0.283 C 
ATOM     25  C   UNL A   1      32.723  27.655  26.132  1.00  0.00     0.283 C 
ATOM     26  H   UNL A   1      33.973  29.290  26.204  1.00  0.00     0.347 HD
ATOM     27  C   UNL A   1      33.789  28.486  23.588  1.00  0.00     0.181 C 
ATOM     28  C   UNL A   1      33.660  26.743  25.318  1.00  0.00     0.181 C 
ATOM     29  N   UNL A   1      33.606  27.064  23.885  1.00  0.00    -0.327 N 
ATOM     30  O   UNL A   1      33.770  26.474  21.659  1.00  0.00    -0.269 OA
ENDBRANCH  11  21
ENDBRANCH   9  10
ENDBRANCH   6   9
ENDBRANCH   4   5
ENDBRANCH   3   4
ENDBRANCH   2   3
ENDBRANCH   1   2
BRANCH   1  31
ATOM     31  C   UNL A   1      42.763  22.629  27.472  1.00  0.00     0.021 C 
BRANCH  31  32
ATOM     32  C   UNL A   1      41.717  23.608  26.951  1.00  0.00     0.116 C 
BRANCH  32  33
ATOM     33  N   UNL A   1      42.224  24.407  25.847  1.00  0.00    -0.352 N 
ATOM     34  C   UNL A   1      42.250  25.772  25.706  1.00  0.00     0.251 C 
ATOM     35  H   UNL A   1      42.602  23.897  25.094  1.00  0.00     0.163 HD
ATOM     36  O   UNL A   1      42.522  26.268  24.613  1.00  0.00    -0.269 OA
BRANCH  34  37
ATOM     37  C   UNL A   1      41.937  26.639  26.862  1.00  0.00     0.039 A 
ATOM     38  C   UNL A   1      41.036  26.184  27.827  1.00  0.00     0.014 A 
ATOM     39  C   UNL A   1      42.522  27.902  26.986  1.00  0.00     0.014 A 
ATOM     40  C   UNL A   1      40.761  26.978  28.944  1.00  0.00     0.010 A 
ATOM     41  C   UNL A   1      42.308  28.655  28.137  1.00  0.00     0.010 A 
ATOM     42  C   UNL A   1      41.416  28.207  29.122  1.00  0.00    -0.014 A 
BRANCH  42  43
ATOM     43  C   UNL A   1      41.164  29.051  30.320  1.00  0.00     0.031 A 
ATOM     44  C   UNL A   1      42.021  28.888  31.548  1.00  0.00     0.074 A 
ATOM     45  C   UNL A   1      40.137  29.924  30.322  1.00  0.00     0.049 A 
ATOM     46  N   UNL A   1      41.916  29.472  32.714  1.00  0.00    -0.248 NA
ATOM     47  C   UNL A   1      43.126  27.917  31.464  1.00  0.00     0.031 C 
ATOM     48  C   UNL A   1      39.212  30.147  29.207  1.00  0.00     0.029 A 
ATOM     49  N   UNL A   1      39.691  30.782  31.296  1.00  0.00    -0.354 N 
ATOM     50  C   UNL A   1      42.929  28.937  33.499  1.00  0.00     0.074 A 
ATOM     51  C   UNL A   1      43.601  27.936  32.701  1.00  0.00     0.031 C 
ATOM     52  C   UNL A   1      38.326  31.095  29.552  1.00  0.00     0.029 A 
ATOM     53  C   UNL A   1      38.589  31.518  30.924  1.00  0.00     0.049 A 
ATOM     54  H   UNL A   1      40.120  30.864  32.179  1.00  0.00     0.167 HD
ATOM     55  C   UNL A   1      43.287  29.269  34.763  1.00  0.00     0.037 A 
ATOM     56  C   UNL A   1      37.869  32.424  31.614  1.00  0.00     0.037 A 
ATOM     57  C   UNL A   1      42.629  30.284  35.544  1.00  0.00     0.049 A 
ATOM     58  C   UNL A   1      38.276  32.761  33.024  1.00  0.00     0.074 A 
ATOM     59  C   UNL A   1      42.941  30.724  36.819  1.00  0.00     0.029 A 
ATOM     60  N   UNL A   1      41.528  31.017  35.127  1.00  0.00    -0.354 N 
ATOM     61  N   UNL A   1      39.270  32.283  33.734  1.00  0.00    -0.248 NA
ATOM     62  C   UNL A   1      37.468  33.768  33.727  1.00  0.00     0.031 C 
ATOM     63  C   UNL A   1      42.001  31.690  37.190  1.00  0.00     0.029 A 
ATOM     64  C   UNL A   1      41.139  31.895  36.125  1.00  0.00     0.049 A 
ATOM     65  H   UNL A   1      41.089  30.928  34.251  1.00  0.00     0.167 HD
ATOM     66  C   UNL A   1      39.231  32.958  34.949  1.00  0.00     0.074 A 
ATOM     67  C   UNL A   1      38.120  33.884  34.875  1.00  0.00     0.031 C 
ATOM     68  C   UNL A   1      40.042  32.826  36.028  1.00  0.00     0.037 A 
BRANCH  55  69
ATOM     69  C   UNL A   1      44.450  28.539  35.378  1.00  0.00     0.058 A 
ATOM     70  C   UNL A   1      45.767  29.010  35.251  1.00  0.00     0.135 A 
ATOM     71  C   UNL A   1      44.243  27.381  36.147  1.00  0.00     0.135 A 
ATOM     72  F   UNL A   1      46.026  30.102  34.514  1.00  0.00    -0.206 F 
ATOM     73  C   UNL A   1      46.838  28.349  35.843  1.00  0.00     0.059 A 
ATOM     74  C   UNL A   1      45.295  26.721  36.774  1.00  0.00     0.059 A 
ATOM     75  F   UNL A   1      43.005  26.884  36.301  1.00  0.00    -0.206 F 
ATOM     76  C   UNL A   1      46.591  27.207  36.606  1.00  0.00     0.060 A 
BRANCH  76  77
ATOM     77  S   UNL A   1      47.992  26.374  37.384  1.00  0.00     0.124 S 
ATOM     78  O   UNL A   1      48.990  27.438  37.401  1.00  0.00    -0.237 OA
ATOM     79  O   UNL A   1      47.445  25.996  38.684  1.00  0.00    -0.237 OA
ATOM     80  O   UNL A   1      48.274  25.264  36.479  1.00  0.00    -0.744 OA
ENDBRANCH  76  77
ENDBRANCH  55  69
BRANCH  56  81
ATOM     81  C   UNL A   1      36.698  33.091  30.981  1.00  0.00     0.058 A 
ATOM     82  C   UNL A   1      36.871  34.056  29.978  1.00  0.00     0.135 A 
ATOM     83  C   UNL A   1      35.385  32.791  31.377  1.00  0.00     0.135 A 
ATOM     84  F   UNL A   1      38.106  34.383  29.567  1.00  0.00    -0.206 F 
ATOM     85  C   UNL A   1      35.789  34.723  29.410  1.00  0.00     0.059 A 
ATOM     86  C   UNL A   1      34.284  33.421  30.803  1.00  0.00     0.059 A 
ATOM     87  F   UNL A   1      35.161  31.862  32.319  1.00  0.00    -0.206 F 
ATOM     88  C   UNL A   1      34.499  34.398  29.830  1.00  0.00     0.060 A 
BRANCH  88  89
ATOM     89  S   UNL A   1      33.100  35.253  29.073  1.00  0.00     0.124 S 
ATOM     90  O   UNL A   1      33.746  36.435  28.515  1.00  0.00    -0.237 OA
ATOM     91  O   UNL A   1      32.626  34.268  28.107  1.00  0.00    -0.237 OA
ATOM     92  O   UNL A   1      32.204  35.495  30.201  1.00  0.00    -0.744 OA
ENDBRANCH  88  89
ENDBRANCH  56  81
BRANCH  68  93
ATOM     93  C   UNL A   1      39.798  33.740  37.198  1.00  0.00     0.058 A 
ATOM     94  C   UNL A   1      40.490  34.951  37.353  1.00  0.00     0.135 A 
ATOM     95  C   UNL A   1      38.815  33.422  38.150  1.00  0.00     0.135 A 
ATOM     96  F   UNL A   1      41.443  35.302  36.477  1.00  0.00    -0.206 F 
ATOM     97  C   UNL A   1      40.235  35.801  38.424  1.00  0.00     0.059 A 
ATOM     98  C   UNL A   1      38.520  34.271  39.210  1.00  0.00     0.059 A 
ATOM     99  F   UNL A   1      38.114  32.280  38.042  1.00  0.00    -0.206 F 
ATOM    100  C   UNL A   1      39.244  35.454  39.347  1.00  0.00     0.060 A 
BRANCH 100 101
ATOM    101  S   UNL A   1      38.899  36.584  40.712  1.00  0.00     0.124 S 
ATOM    102  O   UNL A   1      38.271  37.702  40.016  1.00  0.00    -0.237 OA
ATOM    103  O   UNL A   1      38.016  35.788  41.559  1.00  0.00    -0.237 OA
ATOM    104  O   UNL A   1      40.219  36.854  41.272  1.00  0.00    -0.744 OA
ENDBRANCH 100 101
ENDBRANCH  68  93
ENDBRANCH  42  43
ENDBRANCH  34  37
ENDBRANCH  32  33
ENDBRANCH  31  32
ENDBRANCH   1  31
TORSDOF 18
ENDMDL
MODEL 3
REMARK VINA RESULT:     -12.0      6.038     11.422
REMARK SMILES C[NH+]1CCN(C(=O)c2ccc3c(c2)N(CC(=O)NCCCCCCNC(=O)c2ccc(-c4c5nc(c(-c6c(F)cc(S(=O)(=O)[O-])cc6F)c6ccc([nH]6)c(-c6c(F)cc(S(=O)(=O)[O-])cc6F)c6nc(c(-c7c(F)cc(S(=O)(=O)[O-])cc7F)c7ccc4[nH]7)C=C6)C=C5)cc2)C(=O)CO3)CC1
REMARK SMILES IDX 22 1 21 2 20 3 19 4 18 5 16 6 17 7 15 9 14 10 8 11 9 12
REMARK SMILES IDX 13 13 10 14 12 15 11 16 97 17 94 18 96 19 95 20 6 21 1 22
REMARK SMILES IDX 2 23 3 24 99 25 4 27 98 28 5 29 7 30 23 31 24 32 25 33 26 34
REMARK SMILES IDX 27 36 28 37 29 38 93 39 30 40 92 41 31 42 32 43 33 44 86 45
REMARK SMILES IDX 34 46 91 47 85 48 87 49 35 50 90 51 84 52 83 53 36 55 70 56
REMARK SMILES IDX 49 57 69 58 50 59 53 60 68 61 88 62 51 63 52 64 67 66 89 67
REMARK SMILES IDX 54 68 37 69 38 70 47 71 39 72 40 73 46 74 48 75 41 76 42 77
REMARK SMILES IDX 43 78 44 79 45 80 71 81 72 82 81 83 73 84 74 85 80 86 82 87
REMARK SMILES IDX 75 88 76 89 77 90 78 91 79 92 55 93 56 94 65 95 57 96 58 97
REMARK SMILES IDX 64 98 66 99 59 100 60 101 61 102 62 103 63 104
REMARK H PARENT 18 8 2 26 25 35 87 54 53 65
REMARK Flexibility Score: inf
ROOT
ATOM      1  C   UNL A   1      35.058  29.226  27.247  1.00  0.00     0.002 C 
ENDROOT
BRANCH   1   2
ATOM      2  C   UNL A   1      33.984  28.220  26.817  1.00  0.00     0.002 C 
BRANCH   2   3
ATOM      3  C   UNL A   1      32.814  28.817  26.021  1.00  0.00     0.021 C 
BRANCH   3   4
ATOM      4  C   UNL A   1      31.450  28.242  26.400  1.00  0.00     0.116 C 
BRANCH   4   5
ATOM      5  N   UNL A   1      31.569  26.896  26.922  1.00  0.00    -0.355 N 
ATOM      6  C   UNL A   1      30.994  25.744  26.479  1.00  0.00     0.240 C 
ATOM      7  O   UNL A   1      31.319  24.692  27.037  1.00  0.00    -0.273 OA
ATOM      8  H   UNL A   1      32.149  26.800  27.711  1.00  0.00     0.163 HD
BRANCH   6   9
ATOM      9  C   UNL A   1      30.048  25.726  25.271  1.00  0.00     0.225 C 
BRANCH   9  10
ATOM     10  N   UNL A   1      30.662  26.070  23.988  1.00  0.00    -0.296 N 
ATOM     11  C   UNL A   1      33.063  23.259  23.367  1.00  0.00     0.042 A 
ATOM     12  C   UNL A   1      33.423  23.503  22.042  1.00  0.00     0.018 A 
ATOM     13  C   UNL A   1      32.192  24.126  24.043  1.00  0.00     0.044 A 
ATOM     14  C   UNL A   1      32.873  24.594  21.375  1.00  0.00     0.049 A 
ATOM     15  C   UNL A   1      31.620  25.216  23.373  1.00  0.00     0.087 A 
ATOM     16  C   UNL A   1      31.985  25.445  22.038  1.00  0.00     0.143 A 
ATOM     17  O   UNL A   1      31.460  26.448  21.271  1.00  0.00    -0.482 OA
ATOM     18  C   UNL A   1      30.290  27.253  23.363  1.00  0.00     0.265 C 
ATOM     19  C   UNL A   1      30.964  27.534  22.027  1.00  0.00     0.330 C 
ATOM     20  O   UNL A   1      29.506  28.064  23.860  1.00  0.00    -0.270 OA
BRANCH  11  21
ATOM     21  C   UNL A   1      33.666  22.100  24.059  1.00  0.00     0.254 C 
ATOM     22  C   UNL A   1      38.867  22.475  26.085  1.00  0.00     0.332 C 
ATOM     23  N   UNL A   1      37.406  22.465  26.121  1.00  0.00    -0.334 N 
ATOM     24  C   UNL A   1      36.881  21.177  25.616  1.00  0.00     0.283 C 
ATOM     25  C   UNL A   1      36.867  23.566  25.292  1.00  0.00     0.283 C 
ATOM     26  H   UNL A   1      37.112  22.590  27.089  1.00  0.00     0.347 HD
ATOM     27  C   UNL A   1      35.340  21.140  25.578  1.00  0.00     0.181 C 
ATOM     28  C   UNL A   1      35.328  23.583  25.300  1.00  0.00     0.181 C 
ATOM     29  N   UNL A   1      34.776  22.291  24.870  1.00  0.00    -0.327 N 
ATOM     30  O   UNL A   1      33.130  21.007  23.885  1.00  0.00    -0.269 OA
ENDBRANCH  11  21
ENDBRANCH   9  10
ENDBRANCH   6   9
ENDBRANCH   4   5
ENDBRANCH   3   4
ENDBRANCH   2   3
ENDBRANCH   1   2
BRANCH   1  31
ATOM     31  C   UNL A   1      34.530  30.596  27.676  1.00  0.00     0.021 C 
BRANCH  31  32
ATOM     32  C   UNL A   1      35.548  31.462  28.411  1.00  0.00     0.116 C 
BRANCH  32  33
ATOM     33  N   UNL A   1      35.432  31.329  29.855  1.00  0.00    -0.352 N 
ATOM     34  C   UNL A   1      36.271  30.695  30.736  1.00  0.00     0.251 C 
ATOM     35  H   UNL A   1      34.640  31.754  30.257  1.00  0.00     0.163 HD
ATOM     36  O   UNL A   1      35.906  30.499  31.895  1.00  0.00    -0.269 OA
BRANCH  34  37
ATOM     37  C   UNL A   1      37.603  30.236  30.287  1.00  0.00     0.039 A 
ATOM     38  C   UNL A   1      37.971  30.424  28.952  1.00  0.00     0.014 A 
ATOM     39  C   UNL A   1      38.481  29.612  31.177  1.00  0.00     0.014 A 
ATOM     40  C   UNL A   1      39.241  30.029  28.524  1.00  0.00     0.010 A 
ATOM     41  C   UNL A   1      39.773  29.294  30.768  1.00  0.00     0.010 A 
ATOM     42  C   UNL A   1      40.163  29.487  29.435  1.00  0.00    -0.014 A 
BRANCH  42  43
ATOM     43  C   UNL A   1      41.531  29.092  29.008  1.00  0.00     0.031 A 
ATOM     44  C   UNL A   1      42.633  30.119  28.976  1.00  0.00     0.074 A 
ATOM     45  C   UNL A   1      41.770  27.830  28.601  1.00  0.00     0.049 A 
ATOM     46  N   UNL A   1      43.869  29.993  28.566  1.00  0.00    -0.248 NA
ATOM     47  C   UNL A   1      42.293  31.475  29.442  1.00  0.00     0.031 C 
ATOM     48  C   UNL A   1      40.776  26.754  28.550  1.00  0.00     0.029 A 
ATOM     49  N   UNL A   1      42.920  27.237  28.145  1.00  0.00    -0.354 N 
ATOM     50  C   UNL A   1      44.448  31.248  28.714  1.00  0.00     0.074 A 
ATOM     51  C   UNL A   1      43.414  32.138  29.193  1.00  0.00     0.031 C 
ATOM     52  C   UNL A   1      41.365  25.631  28.111  1.00  0.00     0.029 A 
ATOM     53  C   UNL A   1      42.765  25.912  27.808  1.00  0.00     0.049 A 
ATOM     54  H   UNL A   1      43.778  27.715  28.065  1.00  0.00     0.167 HD
ATOM     55  C   UNL A   1      45.732  31.620  28.498  1.00  0.00     0.037 A 
ATOM     56  C   UNL A   1      43.648  25.027  27.306  1.00  0.00     0.037 A 
ATOM     57  C   UNL A   1      46.763  30.723  28.043  1.00  0.00     0.049 A 
ATOM     58  C   UNL A   1      45.066  25.471  27.056  1.00  0.00     0.074 A 
ATOM     59  C   UNL A   1      48.104  30.991  27.833  1.00  0.00     0.029 A 
ATOM     60  N   UNL A   1      46.570  29.386  27.730  1.00  0.00    -0.354 N 
ATOM     61  N   UNL A   1      45.609  26.649  27.253  1.00  0.00    -0.248 NA
ATOM     62  C   UNL A   1      45.995  24.464  26.524  1.00  0.00     0.031 C 
ATOM     63  C   UNL A   1      48.712  29.829  27.348  1.00  0.00     0.029 A 
ATOM     64  C   UNL A   1      47.763  28.821  27.313  1.00  0.00     0.049 A 
ATOM     65  H   UNL A   1      45.711  28.909  27.795  1.00  0.00     0.167 HD
ATOM     66  C   UNL A   1      46.950  26.513  26.906  1.00  0.00     0.074 A 
ATOM     67  C   UNL A   1      47.136  25.137  26.496  1.00  0.00     0.031 C 
ATOM     68  C   UNL A   1      47.937  27.442  26.927  1.00  0.00     0.037 A 
BRANCH  55  69
ATOM     69  C   UNL A   1      46.102  33.055  28.761  1.00  0.00     0.058 A 
ATOM     70  C   UNL A   1      46.566  33.477  30.018  1.00  0.00     0.135 A 
ATOM     71  C   UNL A   1      46.039  34.011  27.734  1.00  0.00     0.135 A 
ATOM     72  F   UNL A   1      46.631  32.611  31.041  1.00  0.00    -0.206 F 
ATOM     73  C   UNL A   1      46.933  34.799  30.252  1.00  0.00     0.059 A 
ATOM     74  C   UNL A   1      46.430  35.331  27.937  1.00  0.00     0.059 A 
ATOM     75  F   UNL A   1      45.600  33.663  26.513  1.00  0.00    -0.206 F 
ATOM     76  C   UNL A   1      46.865  35.717  29.204  1.00  0.00     0.060 A 
BRANCH  76  77
ATOM     77  S   UNL A   1      47.365  37.422  29.522  1.00  0.00     0.124 S 
ATOM     78  O   UNL A   1      46.071  38.085  29.657  1.00  0.00    -0.237 OA
ATOM     79  O   UNL A   1      48.143  37.294  30.751  1.00  0.00    -0.237 OA
ATOM     80  O   UNL A   1      48.132  37.781  28.333  1.00  0.00    -0.744 OA
ENDBRANCH  76  77
ENDBRANCH  55  69
BRANCH  56  81
ATOM     81  C   UNL A   1      43.229  23.628  27.018  1.00  0.00     0.058 A 
ATOM     82  C   UNL A   1      43.075  22.692  28.052  1.00  0.00     0.135 A 
ATOM     83  C   UNL A   1      42.990  23.192  25.705  1.00  0.00     0.135 A 
ATOM     84  F   UNL A   1      43.297  23.056  29.325  1.00  0.00    -0.206 F 
ATOM     85  C   UNL A   1      42.730  21.369  27.795  1.00  0.00     0.059 A 
ATOM     86  C   UNL A   1      42.613  21.882  25.425  1.00  0.00     0.059 A 
ATOM     87  F   UNL A   1      43.104  24.051  24.680  1.00  0.00    -0.206 F 
ATOM     88  C   UNL A   1      42.501  20.973  26.477  1.00  0.00     0.060 A 
BRANCH  88  89
ATOM     89  S   UNL A   1      42.033  19.259  26.155  1.00  0.00     0.124 S 
ATOM     90  O   UNL A   1      42.364  18.622  27.424  1.00  0.00    -0.237 OA
ATOM     91  O   UNL A   1      40.611  19.383  25.853  1.00  0.00    -0.237 OA
ATOM     92  O   UNL A   1      42.877  18.888  25.023  1.00  0.00    -0.744 OA
ENDBRANCH  88  89
ENDBRANCH  56  81
BRANCH  68  93
ATOM     93  C   UNL A   1      49.323  26.994  26.549  1.00  0.00     0.058 A 
ATOM     94  C   UNL A   1      49.801  27.083  25.233  1.00  0.00     0.135 A 
ATOM     95  C   UNL A   1      50.205  26.518  27.534  1.00  0.00     0.135 A 
ATOM     96  F   UNL A   1      49.000  27.526  24.251  1.00  0.00    -0.206 F 
ATOM     97  C   UNL A   1      51.094  26.693  24.901  1.00  0.00     0.059 A 
ATOM     98  C   UNL A   1      51.511  26.152  27.232  1.00  0.00     0.059 A 
ATOM     99  F   UNL A   1      49.802  26.423  28.813  1.00  0.00    -0.206 F 
ATOM    100  C   UNL A   1      51.944  26.231  25.910  1.00  0.00     0.060 A 
BRANCH 100 101
ATOM    101  S   UNL A   1      53.631  25.761  25.472  1.00  0.00     0.124 S 
ATOM    102  O   UNL A   1      54.015  24.944  26.618  1.00  0.00    -0.237 OA
ATOM    103  O   UNL A   1      53.437  25.042  24.217  1.00  0.00    -0.237 OA
ATOM    104  O   UNL A   1      54.322  27.041  25.354  1.00  0.00    -0.744 OA
ENDBRANCH 100 101
ENDBRANCH  68  93
ENDBRANCH  42  43
ENDBRANCH  34  37
ENDBRANCH  32  33
ENDBRANCH  31  32
ENDBRANCH   1  31
TORSDOF 18
ENDMDL
