MODEL 1
REMARK VINA RESULT:     -11.2      0.000      0.000
REMARK SMILES CCC(CC)(NC(=O)c1c(C)noc1C)C(=O)NCCCCCCNC(=O)c1ccc(-c2c3nc(c(-c4c(F)cc(S(=O)(=O)[O-])cc4F)c4ccc([nH]4)c(-c4c(F)cc(S(=O)(=O)[O-])cc4F)c4nc(c(-c5c(F)cc(S(=O)(=O)[O-])cc5F)c5ccc2[nH]5)C=C4)C=C3)cc1
REMARK SMILES IDX 22 1 21 2 20 3 19 4 18 5 16 6 17 7 3 9 2 10 1 11 4 12 5 13
REMARK SMILES IDX 6 14 7 15 8 17 9 18 10 19 14 20 11 21 12 22 13 23 15 24
REMARK SMILES IDX 23 25 24 26 25 27 26 28 27 30 28 31 29 32 93 33 30 34 92 35
REMARK SMILES IDX 31 36 32 37 33 38 86 39 34 40 91 41 85 42 87 43 35 44 90 45
REMARK SMILES IDX 84 46 83 47 36 49 70 50 49 51 69 52 50 53 53 54 68 55 88 56
REMARK SMILES IDX 51 57 52 58 67 60 89 61 54 62 37 63 38 64 47 65 39 66 40 67
REMARK SMILES IDX 46 68 48 69 41 70 42 71 43 72 44 73 45 74 71 75 72 76 81 77
REMARK SMILES IDX 73 78 74 79 80 80 82 81 75 82 76 83 77 84 78 85 79 86 55 87
REMARK SMILES IDX 56 88 65 89 57 90 58 91 64 92 66 93 59 94 60 95 61 96 62 97
REMARK SMILES IDX 63 98
REMARK H PARENT 18 8 6 16 25 29 87 48 53 59
REMARK Flexibility Score: inf
ROOT
ATOM      1  C   UNL A   1      32.351  26.699  25.583  1.00  0.00     0.002 C 
ENDROOT
BRANCH   1   2
ATOM      2  C   UNL A   1      33.388  25.584  25.651  1.00  0.00     0.002 C 
BRANCH   2   3
ATOM      3  C   UNL A   1      33.847  25.026  24.307  1.00  0.00     0.021 C 
BRANCH   3   4
ATOM      4  C   UNL A   1      34.016  23.508  24.149  1.00  0.00     0.116 C 
BRANCH   4   5
ATOM      5  N   UNL A   1      32.855  22.646  24.370  1.00  0.00    -0.354 N 
ATOM      6  C   UNL A   1      32.643  21.514  25.128  1.00  0.00     0.245 C 
ATOM      7  O   UNL A   1      31.471  21.184  25.330  1.00  0.00    -0.272 OA
ATOM      8  H   UNL A   1      32.056  22.935  23.874  1.00  0.00     0.163 HD
BRANCH   6   9
ATOM      9  C   UNL A   1      33.804  20.820  25.865  1.00  0.00     0.118 C 
BRANCH   9  10
ATOM     10  C   UNL A   1      34.408  21.533  27.103  1.00  0.00     0.035 C 
ATOM     11  C   UNL A   1      33.555  22.558  27.837  1.00  0.00     0.007 C 
ENDBRANCH   9  10
BRANCH   9  12
ATOM     12  C   UNL A   1      34.881  20.709  24.719  1.00  0.00     0.035 C 
ATOM     13  C   UNL A   1      36.352  20.673  25.098  1.00  0.00     0.007 C 
ENDBRANCH   9  12
BRANCH   9  14
ATOM     14  N   UNL A   1      33.318  19.509  26.328  1.00  0.00    -0.337 N 
ATOM     15  C   UNL A   1      32.893  18.349  25.719  1.00  0.00     0.257 C 
ATOM     16  H   UNL A   1      33.291  19.447  27.310  1.00  0.00     0.164 HD
ATOM     17  O   UNL A   1      32.197  17.679  26.495  1.00  0.00    -0.269 OA
BRANCH  15  18
ATOM     18  C   UNL A   1      33.133  17.824  24.358  1.00  0.00     0.105 A 
ATOM     19  C   UNL A   1      34.081  16.737  24.151  1.00  0.00     0.093 A 
ATOM     20  C   UNL A   1      32.823  18.152  23.033  1.00  0.00     0.146 A 
ATOM     21  C   UNL A   1      34.933  16.022  25.135  1.00  0.00     0.071 C 
ATOM     22  N   UNL A   1      34.196  16.385  22.872  1.00  0.00    -0.084 NA
ATOM     23  O   UNL A   1      33.408  17.251  22.191  1.00  0.00    -0.361 OA
ATOM     24  C   UNL A   1      32.153  19.178  22.210  1.00  0.00     0.092 C 
ENDBRANCH  15  18
ENDBRANCH   9  14
ENDBRANCH   6   9
ENDBRANCH   4   5
ENDBRANCH   3   4
ENDBRANCH   2   3
ENDBRANCH   1   2
BRANCH   1  25
ATOM     25  C   UNL A   1      32.627  27.873  26.517  1.00  0.00     0.021 C 
BRANCH  25  26
ATOM     26  C   UNL A   1      33.852  28.704  26.154  1.00  0.00     0.116 C 
BRANCH  26  27
ATOM     27  N   UNL A   1      33.723  30.101  26.547  1.00  0.00    -0.352 N 
ATOM     28  C   UNL A   1      34.512  30.814  27.419  1.00  0.00     0.251 C 
ATOM     29  H   UNL A   1      32.978  30.598  26.137  1.00  0.00     0.163 HD
ATOM     30  O   UNL A   1      34.201  31.948  27.770  1.00  0.00    -0.269 OA
BRANCH  28  31
ATOM     31  C   UNL A   1      35.727  30.170  27.952  1.00  0.00     0.039 A 
ATOM     32  C   UNL A   1      36.916  30.249  27.226  1.00  0.00     0.014 A 
ATOM     33  C   UNL A   1      35.702  29.582  29.221  1.00  0.00     0.014 A 
ATOM     34  C   UNL A   1      38.106  29.813  27.813  1.00  0.00     0.010 A 
ATOM     35  C   UNL A   1      36.897  29.222  29.831  1.00  0.00     0.010 A 
ATOM     36  C   UNL A   1      38.112  29.343  29.138  1.00  0.00    -0.014 A 
BRANCH  36  37
ATOM     37  C   UNL A   1      39.379  28.998  29.830  1.00  0.00     0.031 A 
ATOM     38  C   UNL A   1      39.843  29.818  31.000  1.00  0.00     0.074 A 
ATOM     39  C   UNL A   1      40.154  28.006  29.346  1.00  0.00     0.049 A 
ATOM     40  N   UNL A   1      40.961  29.737  31.673  1.00  0.00    -0.248 NA
ATOM     41  C   UNL A   1      38.947  30.895  31.449  1.00  0.00     0.031 C 
ATOM     42  C   UNL A   1      39.843  27.186  28.173  1.00  0.00     0.029 A 
ATOM     43  N   UNL A   1      41.373  27.536  29.765  1.00  0.00    -0.354 N 
ATOM     44  C   UNL A   1      40.909  30.758  32.616  1.00  0.00     0.074 A 
ATOM     45  C   UNL A   1      39.677  31.481  32.385  1.00  0.00     0.031 C 
ATOM     46  C   UNL A   1      40.839  26.308  27.974  1.00  0.00     0.029 A 
ATOM     47  C   UNL A   1      41.875  26.524  28.980  1.00  0.00     0.049 A 
ATOM     48  H   UNL A   1      41.844  27.889  30.554  1.00  0.00     0.167 HD
ATOM     49  C   UNL A   1      41.792  31.047  33.601  1.00  0.00     0.037 A 
ATOM     50  C   UNL A   1      43.042  25.856  29.052  1.00  0.00     0.037 A 
ATOM     51  C   UNL A   1      43.006  30.310  33.833  1.00  0.00     0.049 A 
ATOM     52  C   UNL A   1      44.006  26.185  30.158  1.00  0.00     0.074 A 
ATOM     53  C   UNL A   1      43.937  30.480  34.842  1.00  0.00     0.029 A 
ATOM     54  N   UNL A   1      43.461  29.265  33.041  1.00  0.00    -0.354 N 
ATOM     55  N   UNL A   1      43.904  27.102  31.091  1.00  0.00    -0.248 NA
ATOM     56  C   UNL A   1      45.236  25.386  30.229  1.00  0.00     0.031 C 
ATOM     57  C   UNL A   1      44.976  29.565  34.635  1.00  0.00     0.029 A 
ATOM     58  C   UNL A   1      44.671  28.796  33.524  1.00  0.00     0.049 A 
ATOM     59  H   UNL A   1      42.992  28.910  32.252  1.00  0.00     0.167 HD
ATOM     60  C   UNL A   1      45.051  26.984  31.867  1.00  0.00     0.074 A 
ATOM     61  C   UNL A   1      45.824  25.894  31.305  1.00  0.00     0.031 C 
ATOM     62  C   UNL A   1      45.431  27.714  32.946  1.00  0.00     0.037 A 
BRANCH  49  63
ATOM     63  C   UNL A   1      41.464  32.210  34.497  1.00  0.00     0.058 A 
ATOM     64  C   UNL A   1      40.709  32.044  35.670  1.00  0.00     0.135 A 
ATOM     65  C   UNL A   1      41.898  33.506  34.178  1.00  0.00     0.135 A 
ATOM     66  F   UNL A   1      40.255  30.828  36.016  1.00  0.00    -0.206 F 
ATOM     67  C   UNL A   1      40.353  33.127  36.467  1.00  0.00     0.059 A 
ATOM     68  C   UNL A   1      41.581  34.600  34.978  1.00  0.00     0.059 A 
ATOM     69  F   UNL A   1      42.625  33.724  33.071  1.00  0.00    -0.206 F 
ATOM     70  C   UNL A   1      40.788  34.403  36.108  1.00  0.00     0.060 A 
BRANCH  70  71
ATOM     71  S   UNL A   1      40.292  35.802  37.135  1.00  0.00     0.124 S 
ATOM     72  O   UNL A   1      41.559  36.157  37.770  1.00  0.00    -0.237 OA
ATOM     73  O   UNL A   1      39.790  36.753  36.149  1.00  0.00    -0.237 OA
ATOM     74  O   UNL A   1      39.284  35.231  38.023  1.00  0.00    -0.744 OA
ENDBRANCH  70  71
ENDBRANCH  49  63
BRANCH  50  75
ATOM     75  C   UNL A   1      43.347  24.803  28.047  1.00  0.00     0.058 A 
ATOM     76  C   UNL A   1      44.034  25.107  26.863  1.00  0.00     0.135 A 
ATOM     77  C   UNL A   1      43.005  23.461  28.278  1.00  0.00     0.135 A 
ATOM     78  F   UNL A   1      44.376  26.377  26.595  1.00  0.00    -0.206 F 
ATOM     79  C   UNL A   1      44.372  24.120  25.943  1.00  0.00     0.059 A 
ATOM     80  C   UNL A   1      43.351  22.453  27.383  1.00  0.00     0.059 A 
ATOM     81  F   UNL A   1      42.363  23.115  29.405  1.00  0.00    -0.206 F 
ATOM     82  C   UNL A   1      44.033  22.793  26.216  1.00  0.00     0.060 A 
BRANCH  82  83
ATOM     83  S   UNL A   1      44.552  21.508  25.057  1.00  0.00     0.124 S 
ATOM     84  O   UNL A   1      44.441  22.202  23.780  1.00  0.00    -0.237 OA
ATOM     85  O   UNL A   1      45.908  21.216  25.512  1.00  0.00    -0.237 OA
ATOM     86  O   UNL A   1      43.580  20.442  25.286  1.00  0.00    -0.744 OA
ENDBRANCH  82  83
ENDBRANCH  50  75
BRANCH  62  87
ATOM     87  C   UNL A   1      46.738  27.357  33.596  1.00  0.00     0.058 A 
ATOM     88  C   UNL A   1      47.937  27.985  33.224  1.00  0.00     0.135 A 
ATOM     89  C   UNL A   1      46.782  26.425  34.645  1.00  0.00     0.135 A 
ATOM     90  F   UNL A   1      47.949  28.877  32.221  1.00  0.00    -0.206 F 
ATOM     91  C   UNL A   1      49.138  27.690  33.861  1.00  0.00     0.059 A 
ATOM     92  C   UNL A   1      47.967  26.133  35.312  1.00  0.00     0.059 A 
ATOM     93  F   UNL A   1      45.661  25.802  35.043  1.00  0.00    -0.206 F 
ATOM     94  C   UNL A   1      49.142  26.765  34.906  1.00  0.00     0.060 A 
BRANCH  94  95
ATOM     95  S   UNL A   1      50.699  26.428  35.755  1.00  0.00     0.124 S 
ATOM     96  O   UNL A   1      50.318  25.334  36.643  1.00  0.00    -0.237 OA
ATOM     97  O   UNL A   1      51.586  26.070  34.653  1.00  0.00    -0.237 OA
ATOM     98  O   UNL A   1      51.008  27.693  36.414  1.00  0.00    -0.744 OA
ENDBRANCH  94  95
ENDBRANCH  62  87
ENDBRANCH  36  37
ENDBRANCH  28  31
ENDBRANCH  26  27
ENDBRANCH  25  26
ENDBRANCH   1  25
TORSDOF 20
ENDMDL
MODEL 2
REMARK VINA RESULT:     -11.2      2.850      3.720
REMARK SMILES CCC(CC)(NC(=O)c1c(C)noc1C)C(=O)NCCCCCCNC(=O)c1ccc(-c2c3nc(c(-c4c(F)cc(S(=O)(=O)[O-])cc4F)c4ccc([nH]4)c(-c4c(F)cc(S(=O)(=O)[O-])cc4F)c4nc(c(-c5c(F)cc(S(=O)(=O)[O-])cc5F)c5ccc2[nH]5)C=C4)C=C3)cc1
REMARK SMILES IDX 22 1 21 2 20 3 19 4 18 5 16 6 17 7 3 9 2 10 1 11 4 12 5 13
REMARK SMILES IDX 6 14 7 15 8 17 9 18 10 19 14 20 11 21 12 22 13 23 15 24
REMARK SMILES IDX 23 25 24 26 25 27 26 28 27 30 28 31 29 32 93 33 30 34 92 35
REMARK SMILES IDX 31 36 32 37 33 38 86 39 34 40 91 41 85 42 87 43 35 44 90 45
REMARK SMILES IDX 84 46 83 47 36 49 70 50 49 51 69 52 50 53 53 54 68 55 88 56
REMARK SMILES IDX 51 57 52 58 67 60 89 61 54 62 37 63 38 64 47 65 39 66 40 67
REMARK SMILES IDX 46 68 48 69 41 70 42 71 43 72 44 73 45 74 71 75 72 76 81 77
REMARK SMILES IDX 73 78 74 79 80 80 82 81 75 82 76 83 77 84 78 85 79 86 55 87
REMARK SMILES IDX 56 88 65 89 57 90 58 91 64 92 66 93 59 94 60 95 61 96 62 97
REMARK SMILES IDX 63 98
REMARK H PARENT 18 8 6 16 25 29 87 48 53 59
REMARK Flexibility Score: inf
ROOT
ATOM      1  C   UNL A   1      32.259  28.225  25.057  1.00  0.00     0.002 C 
ENDROOT
BRANCH   1   2
ATOM      2  C   UNL A   1      30.925  27.968  24.365  1.00  0.00     0.002 C 
BRANCH   2   3
ATOM      3  C   UNL A   1      30.252  26.642  24.702  1.00  0.00     0.021 C 
BRANCH   3   4
ATOM      4  C   UNL A   1      30.713  25.366  23.982  1.00  0.00     0.116 C 
BRANCH   4   5
ATOM      5  N   UNL A   1      30.444  24.071  24.607  1.00  0.00    -0.354 N 
ATOM      6  C   UNL A   1      31.252  23.065  25.091  1.00  0.00     0.245 C 
ATOM      7  O   UNL A   1      30.722  22.222  25.821  1.00  0.00    -0.272 OA
ATOM      8  H   UNL A   1      29.484  23.878  24.702  1.00  0.00     0.163 HD
BRANCH   6   9
ATOM      9  C   UNL A   1      32.780  23.110  24.906  1.00  0.00     0.118 C 
BRANCH   9  10
ATOM     10  C   UNL A   1      33.427  24.473  24.543  1.00  0.00     0.035 C 
ATOM     11  C   UNL A   1      34.175  25.233  25.629  1.00  0.00     0.007 C 
ENDBRANCH   9  10
BRANCH   9  12
ATOM     12  C   UNL A   1      32.984  22.078  23.732  1.00  0.00     0.035 C 
ATOM     13  C   UNL A   1      32.600  22.489  22.321  1.00  0.00     0.007 C 
ENDBRANCH   9  12
BRANCH   9  14
ATOM     14  N   UNL A   1      33.396  22.674  26.171  1.00  0.00    -0.337 N 
ATOM     15  C   UNL A   1      34.568  22.043  26.524  1.00  0.00     0.257 C 
ATOM     16  H   UNL A   1      32.835  22.885  26.951  1.00  0.00     0.164 HD
ATOM     17  O   UNL A   1      34.461  21.519  27.643  1.00  0.00    -0.269 OA
BRANCH  15  18
ATOM     18  C   UNL A   1      35.853  21.909  25.805  1.00  0.00     0.105 A 
ATOM     19  C   UNL A   1      36.161  20.683  25.080  1.00  0.00     0.093 A 
ATOM     20  C   UNL A   1      37.070  22.590  25.690  1.00  0.00     0.146 A 
ATOM     21  C   UNL A   1      35.364  19.437  24.944  1.00  0.00     0.071 C 
ATOM     22  N   UNL A   1      37.357  20.711  24.497  1.00  0.00    -0.084 NA
ATOM     23  O   UNL A   1      37.906  21.895  24.865  1.00  0.00    -0.361 OA
ATOM     24  C   UNL A   1      37.809  23.758  26.209  1.00  0.00     0.092 C 
ENDBRANCH  15  18
ENDBRANCH   9  14
ENDBRANCH   6   9
ENDBRANCH   4   5
ENDBRANCH   3   4
ENDBRANCH   2   3
ENDBRANCH   1   2
BRANCH   1  25
ATOM     25  C   UNL A   1      32.193  28.193  26.581  1.00  0.00     0.021 C 
BRANCH  25  26
ATOM     26  C   UNL A   1      33.478  28.614  27.284  1.00  0.00     0.116 C 
BRANCH  26  27
ATOM     27  N   UNL A   1      33.467  30.013  27.691  1.00  0.00    -0.352 N 
ATOM     28  C   UNL A   1      34.475  30.733  28.286  1.00  0.00     0.251 C 
ATOM     29  H   UNL A   1      32.632  30.506  27.517  1.00  0.00     0.163 HD
ATOM     30  O   UNL A   1      34.278  31.868  28.708  1.00  0.00    -0.269 OA
BRANCH  28  31
ATOM     31  C   UNL A   1      35.797  30.095  28.440  1.00  0.00     0.039 A 
ATOM     32  C   UNL A   1      36.688  30.104  27.366  1.00  0.00     0.014 A 
ATOM     33  C   UNL A   1      36.180  29.583  29.683  1.00  0.00     0.014 A 
ATOM     34  C   UNL A   1      38.002  29.677  27.565  1.00  0.00     0.010 A 
ATOM     35  C   UNL A   1      37.507  29.234  29.897  1.00  0.00     0.010 A 
ATOM     36  C   UNL A   1      38.434  29.286  28.844  1.00  0.00    -0.014 A 
BRANCH  36  37
ATOM     37  C   UNL A   1      39.856  28.954  29.113  1.00  0.00     0.031 A 
ATOM     38  C   UNL A   1      40.784  30.005  29.652  1.00  0.00     0.074 A 
ATOM     39  C   UNL A   1      40.329  27.736  28.781  1.00  0.00     0.049 A 
ATOM     40  N   UNL A   1      42.073  29.940  29.860  1.00  0.00    -0.248 NA
ATOM     41  C   UNL A   1      40.189  31.314  29.964  1.00  0.00     0.031 C 
ATOM     42  C   UNL A   1      39.541  26.656  28.185  1.00  0.00     0.029 A 
ATOM     43  N   UNL A   1      41.593  27.209  28.878  1.00  0.00    -0.354 N 
ATOM     44  C   UNL A   1      42.446  31.199  30.316  1.00  0.00     0.074 A 
ATOM     45  C   UNL A   1      41.257  32.024  30.294  1.00  0.00     0.031 C 
ATOM     46  C   UNL A   1      40.335  25.593  27.978  1.00  0.00     0.029 A 
ATOM     47  C   UNL A   1      41.695  25.926  28.393  1.00  0.00     0.049 A 
ATOM     48  H   UNL A   1      42.355  27.703  29.258  1.00  0.00     0.167 HD
ATOM     49  C   UNL A   1      43.660  31.621  30.742  1.00  0.00     0.037 A 
ATOM     50  C   UNL A   1      42.764  25.114  28.281  1.00  0.00     0.037 A 
ATOM     51  C   UNL A   1      44.833  30.788  30.776  1.00  0.00     0.049 A 
ATOM     52  C   UNL A   1      44.102  25.596  28.768  1.00  0.00     0.074 A 
ATOM     53  C   UNL A   1      46.096  31.097  31.248  1.00  0.00     0.029 A 
ATOM     54  N   UNL A   1      44.888  29.479  30.314  1.00  0.00    -0.354 N 
ATOM     55  N   UNL A   1      44.421  26.765  29.271  1.00  0.00    -0.248 NA
ATOM     56  C   UNL A   1      45.223  24.650  28.681  1.00  0.00     0.031 C 
ATOM     57  C   UNL A   1      46.925  29.990  31.033  1.00  0.00     0.029 A 
ATOM     58  C   UNL A   1      46.169  28.976  30.468  1.00  0.00     0.049 A 
ATOM     59  H   UNL A   1      44.128  28.984  29.933  1.00  0.00     0.167 HD
ATOM     60  C   UNL A   1      45.777  26.693  29.571  1.00  0.00     0.074 A 
ATOM     61  C   UNL A   1      46.213  25.359  29.210  1.00  0.00     0.031 C 
ATOM     62  C   UNL A   1      46.587  27.646  30.095  1.00  0.00     0.037 A 
BRANCH  49  63
ATOM     63  C   UNL A   1      43.768  33.049  31.204  1.00  0.00     0.058 A 
ATOM     64  C   UNL A   1      44.096  34.086  30.316  1.00  0.00     0.135 A 
ATOM     65  C   UNL A   1      43.553  33.384  32.550  1.00  0.00     0.135 A 
ATOM     66  F   UNL A   1      44.327  33.819  29.020  1.00  0.00    -0.206 F 
ATOM     67  C   UNL A   1      44.256  35.397  30.753  1.00  0.00     0.059 A 
ATOM     68  C   UNL A   1      43.676  34.695  33.004  1.00  0.00     0.059 A 
ATOM     69  F   UNL A   1      43.234  32.435  33.443  1.00  0.00    -0.206 F 
ATOM     70  C   UNL A   1      44.051  35.690  32.101  1.00  0.00     0.060 A 
BRANCH  70  71
ATOM     71  S   UNL A   1      44.293  37.389  32.660  1.00  0.00     0.124 S 
ATOM     72  O   UNL A   1      45.657  37.332  33.179  1.00  0.00    -0.237 OA
ATOM     73  O   UNL A   1      44.115  38.152  31.429  1.00  0.00    -0.237 OA
ATOM     74  O   UNL A   1      43.247  37.568  33.663  1.00  0.00    -0.744 OA
ENDBRANCH  70  71
ENDBRANCH  49  63
BRANCH  50  75
ATOM     75  C   UNL A   1      42.596  23.759  27.694  1.00  0.00     0.058 A 
ATOM     76  C   UNL A   1      42.650  23.557  26.307  1.00  0.00     0.135 A 
ATOM     77  C   UNL A   1      42.435  22.629  28.513  1.00  0.00     0.135 A 
ATOM     78  F   UNL A   1      42.796  24.606  25.484  1.00  0.00    -0.206 F 
ATOM     79  C   UNL A   1      42.548  22.286  25.751  1.00  0.00     0.059 A 
ATOM     80  C   UNL A   1      42.353  21.346  27.981  1.00  0.00     0.059 A 
ATOM     81  F   UNL A   1      42.395  22.766  29.847  1.00  0.00    -0.206 F 
ATOM     82  C   UNL A   1      42.409  21.184  26.598  1.00  0.00     0.060 A 
BRANCH  82  83
ATOM     83  S   UNL A   1      42.365  19.531  25.872  1.00  0.00     0.124 S 
ATOM     84  O   UNL A   1      43.358  19.649  24.812  1.00  0.00    -0.237 OA
ATOM     85  O   UNL A   1      42.735  18.688  27.006  1.00  0.00    -0.237 OA
ATOM     86  O   UNL A   1      40.979  19.398  25.430  1.00  0.00    -0.744 OA
ENDBRANCH  82  83
ENDBRANCH  50  75
BRANCH  62  87
ATOM     87  C   UNL A   1      48.028  27.283  30.317  1.00  0.00     0.058 A 
ATOM     88  C   UNL A   1      49.014  27.583  29.365  1.00  0.00     0.135 A 
ATOM     89  C   UNL A   1      48.437  26.686  31.520  1.00  0.00     0.135 A 
ATOM     90  F   UNL A   1      48.675  28.146  28.194  1.00  0.00    -0.206 F 
ATOM     91  C   UNL A   1      50.355  27.291  29.593  1.00  0.00     0.059 A 
ATOM     92  C   UNL A   1      49.775  26.408  31.779  1.00  0.00     0.059 A 
ATOM     93  F   UNL A   1      47.533  26.386  32.466  1.00  0.00    -0.206 F 
ATOM     94  C   UNL A   1      50.726  26.707  30.805  1.00  0.00     0.060 A 
BRANCH  94  95
ATOM     95  S   UNL A   1      52.475  26.377  31.107  1.00  0.00     0.124 S 
ATOM     96  O   UNL A   1      52.868  27.556  31.872  1.00  0.00    -0.237 OA
ATOM     97  O   UNL A   1      52.434  25.122  31.851  1.00  0.00    -0.237 OA
ATOM     98  O   UNL A   1      53.040  26.284  29.764  1.00  0.00    -0.744 OA
ENDBRANCH  94  95
ENDBRANCH  62  87
ENDBRANCH  36  37
ENDBRANCH  28  31
ENDBRANCH  26  27
ENDBRANCH  25  26
ENDBRANCH   1  25
TORSDOF 20
ENDMDL
MODEL 3
REMARK VINA RESULT:     -11.0      5.198      8.193
REMARK SMILES CCC(CC)(NC(=O)c1c(C)noc1C)C(=O)NCCCCCCNC(=O)c1ccc(-c2c3nc(c(-c4c(F)cc(S(=O)(=O)[O-])cc4F)c4ccc([nH]4)c(-c4c(F)cc(S(=O)(=O)[O-])cc4F)c4nc(c(-c5c(F)cc(S(=O)(=O)[O-])cc5F)c5ccc2[nH]5)C=C4)C=C3)cc1
REMARK SMILES IDX 22 1 21 2 20 3 19 4 18 5 16 6 17 7 3 9 2 10 1 11 4 12 5 13
REMARK SMILES IDX 6 14 7 15 8 17 9 18 10 19 14 20 11 21 12 22 13 23 15 24
REMARK SMILES IDX 23 25 24 26 25 27 26 28 27 30 28 31 29 32 93 33 30 34 92 35
REMARK SMILES IDX 31 36 32 37 33 38 86 39 34 40 91 41 85 42 87 43 35 44 90 45
REMARK SMILES IDX 84 46 83 47 36 49 70 50 49 51 69 52 50 53 53 54 68 55 88 56
REMARK SMILES IDX 51 57 52 58 67 60 89 61 54 62 37 63 38 64 47 65 39 66 40 67
REMARK SMILES IDX 46 68 48 69 41 70 42 71 43 72 44 73 45 74 71 75 72 76 81 77
REMARK SMILES IDX 73 78 74 79 80 80 82 81 75 82 76 83 77 84 78 85 79 86 55 87
REMARK SMILES IDX 56 88 65 89 57 90 58 91 64 92 66 93 59 94 60 95 61 96 62 97
REMARK SMILES IDX 63 98
REMARK H PARENT 18 8 6 16 25 29 87 48 53 59
REMARK Flexibility Score: inf
ROOT
ATOM      1  C   UNL A   1      36.861  21.856  25.722  1.00  0.00     0.002 C 
ENDROOT
BRANCH   1   2
ATOM      2  C   UNL A   1      35.510  21.407  25.178  1.00  0.00     0.002 C 
BRANCH   2   3
ATOM      3  C   UNL A   1      34.368  21.376  26.190  1.00  0.00     0.021 C 
BRANCH   3   4
ATOM      4  C   UNL A   1      32.942  21.694  25.716  1.00  0.00     0.116 C 
BRANCH   4   5
ATOM      5  N   UNL A   1      31.989  22.245  26.679  1.00  0.00    -0.354 N 
ATOM      6  C   UNL A   1      31.260  23.413  26.732  1.00  0.00     0.245 C 
ATOM      7  O   UNL A   1      30.324  23.455  27.536  1.00  0.00    -0.272 OA
ATOM      8  H   UNL A   1      31.835  21.656  27.453  1.00  0.00     0.163 HD
BRANCH   6   9
ATOM      9  C   UNL A   1      31.467  24.529  25.691  1.00  0.00     0.118 C 
BRANCH   9  10
ATOM     10  C   UNL A   1      30.763  25.890  25.936  1.00  0.00     0.035 C 
ATOM     11  C   UNL A   1      31.466  26.923  26.805  1.00  0.00     0.007 C 
ENDBRANCH   9  10
BRANCH   9  12
ATOM     12  C   UNL A   1      30.901  23.849  24.386  1.00  0.00     0.035 C 
ATOM     13  C   UNL A   1      30.121  24.698  23.398  1.00  0.00     0.007 C 
ENDBRANCH   9  12
BRANCH   9  14
ATOM     14  N   UNL A   1      32.911  24.808  25.616  1.00  0.00    -0.337 N 
ATOM     15  C   UNL A   1      33.801  25.107  24.609  1.00  0.00     0.257 C 
ATOM     16  H   UNL A   1      33.344  24.771  26.499  1.00  0.00     0.164 HD
ATOM     17  O   UNL A   1      34.961  24.849  24.961  1.00  0.00    -0.269 OA
BRANCH  15  18
ATOM     18  C   UNL A   1      33.584  25.659  23.255  1.00  0.00     0.105 A 
ATOM     19  C   UNL A   1      33.444  24.763  22.114  1.00  0.00     0.093 A 
ATOM     20  C   UNL A   1      33.608  26.899  22.606  1.00  0.00     0.146 A 
ATOM     21  C   UNL A   1      33.512  23.280  22.060  1.00  0.00     0.071 C 
ATOM     22  N   UNL A   1      33.267  25.409  20.964  1.00  0.00    -0.084 NA
ATOM     23  O   UNL A   1      33.354  26.725  21.277  1.00  0.00    -0.361 OA
ATOM     24  C   UNL A   1      33.892  28.330  22.833  1.00  0.00     0.092 C 
ENDBRANCH  15  18
ENDBRANCH   9  14
ENDBRANCH   6   9
ENDBRANCH   4   5
ENDBRANCH   3   4
ENDBRANCH   2   3
ENDBRANCH   1   2
BRANCH   1  25
ATOM     25  C   UNL A   1      38.051  21.078  25.169  1.00  0.00     0.021 C 
BRANCH  25  26
ATOM     26  C   UNL A   1      39.300  21.117  26.041  1.00  0.00     0.116 C 
BRANCH  26  27
ATOM     27  N   UNL A   1      40.049  19.867  26.011  1.00  0.00    -0.352 N 
ATOM     28  C   UNL A   1      41.411  19.692  26.075  1.00  0.00     0.251 C 
ATOM     29  H   UNL A   1      39.513  19.045  25.935  1.00  0.00     0.163 HD
ATOM     30  O   UNL A   1      41.916  18.589  25.891  1.00  0.00    -0.269 OA
BRANCH  28  31
ATOM     31  C   UNL A   1      42.259  20.871  26.335  1.00  0.00     0.039 A 
ATOM     32  C   UNL A   1      42.684  21.656  25.262  1.00  0.00     0.014 A 
ATOM     33  C   UNL A   1      42.538  21.249  27.652  1.00  0.00     0.014 A 
ATOM     34  C   UNL A   1      43.319  22.873  25.515  1.00  0.00     0.010 A 
ATOM     35  C   UNL A   1      43.098  22.496  27.900  1.00  0.00     0.010 A 
ATOM     36  C   UNL A   1      43.485  23.325  26.835  1.00  0.00    -0.014 A 
BRANCH  36  37
ATOM     37  C   UNL A   1      44.036  24.672  27.129  1.00  0.00     0.031 A 
ATOM     38  C   UNL A   1      43.118  25.784  27.550  1.00  0.00     0.074 A 
ATOM     39  C   UNL A   1      45.347  24.914  26.924  1.00  0.00     0.049 A 
ATOM     40  N   UNL A   1      43.390  27.046  27.756  1.00  0.00    -0.248 NA
ATOM     41  C   UNL A   1      41.699  25.437  27.727  1.00  0.00     0.031 C 
ATOM     42  C   UNL A   1      46.324  23.933  26.448  1.00  0.00     0.029 A 
ATOM     43  N   UNL A   1      46.077  26.067  27.067  1.00  0.00    -0.354 N 
ATOM     44  C   UNL A   1      42.177  27.646  28.076  1.00  0.00     0.074 A 
ATOM     45  C   UNL A   1      41.161  26.621  27.974  1.00  0.00     0.031 C 
ATOM     46  C   UNL A   1      47.527  24.523  26.349  1.00  0.00     0.029 A 
ATOM     47  C   UNL A   1      47.401  25.930  26.719  1.00  0.00     0.049 A 
ATOM     48  H   UNL A   1      45.691  26.913  27.390  1.00  0.00     0.167 HD
ATOM     49  C   UNL A   1      41.937  28.925  28.448  1.00  0.00     0.037 A 
ATOM     50  C   UNL A   1      48.397  26.835  26.686  1.00  0.00     0.037 A 
ATOM     51  C   UNL A   1      42.958  29.933  28.562  1.00  0.00     0.049 A 
ATOM     52  C   UNL A   1      48.114  28.249  27.112  1.00  0.00     0.074 A 
ATOM     53  C   UNL A   1      42.832  31.242  28.992  1.00  0.00     0.029 A 
ATOM     54  N   UNL A   1      44.296  29.745  28.240  1.00  0.00    -0.354 N 
ATOM     55  N   UNL A   1      46.975  28.782  27.488  1.00  0.00    -0.248 NA
ATOM     56  C   UNL A   1      49.248  29.183  27.118  1.00  0.00     0.031 C 
ATOM     57  C   UNL A   1      44.085  31.857  28.889  1.00  0.00     0.029 A 
ATOM     58  C   UNL A   1      45.001  30.921  28.438  1.00  0.00     0.049 A 
ATOM     59  H   UNL A   1      44.684  28.901  27.917  1.00  0.00     0.167 HD
ATOM     60  C   UNL A   1      47.257  30.110  27.786  1.00  0.00     0.074 A 
ATOM     61  C   UNL A   1      48.677  30.295  27.564  1.00  0.00     0.031 C 
ATOM     62  C   UNL A   1      46.415  31.088  28.203  1.00  0.00     0.037 A 
BRANCH  49  63
ATOM     63  C   UNL A   1      40.513  29.295  28.758  1.00  0.00     0.058 A 
ATOM     64  C   UNL A   1      40.061  29.438  30.081  1.00  0.00     0.135 A 
ATOM     65  C   UNL A   1      39.584  29.498  27.726  1.00  0.00     0.135 A 
ATOM     66  F   UNL A   1      40.904  29.240  31.108  1.00  0.00    -0.206 F 
ATOM     67  C   UNL A   1      38.730  29.719  30.371  1.00  0.00     0.059 A 
ATOM     68  C   UNL A   1      38.253  29.812  27.992  1.00  0.00     0.059 A 
ATOM     69  F   UNL A   1      39.959  29.378  26.443  1.00  0.00    -0.206 F 
ATOM     70  C   UNL A   1      37.832  29.897  29.318  1.00  0.00     0.060 A 
BRANCH  70  71
ATOM     71  S   UNL A   1      36.102  30.231  29.710  1.00  0.00     0.124 S 
ATOM     72  O   UNL A   1      35.968  29.578  31.010  1.00  0.00    -0.237 OA
ATOM     73  O   UNL A   1      36.060  31.689  29.727  1.00  0.00    -0.237 OA
ATOM     74  O   UNL A   1      35.377  29.597  28.613  1.00  0.00    -0.744 OA
ENDBRANCH  70  71
ENDBRANCH  49  63
BRANCH  50  75
ATOM     75  C   UNL A   1      49.754  26.417  26.245  1.00  0.00     0.058 A 
ATOM     76  C   UNL A   1      50.208  26.683  24.945  1.00  0.00     0.135 A 
ATOM     77  C   UNL A   1      50.644  25.791  27.133  1.00  0.00     0.135 A 
ATOM     78  F   UNL A   1      49.391  27.272  24.058  1.00  0.00    -0.206 F 
ATOM     79  C   UNL A   1      51.494  26.344  24.539  1.00  0.00     0.059 A 
ATOM     80  C   UNL A   1      51.943  25.463  26.757  1.00  0.00     0.059 A 
ATOM     81  F   UNL A   1      50.264  25.531  28.394  1.00  0.00    -0.206 F 
ATOM     82  C   UNL A   1      52.358  25.741  25.456  1.00  0.00     0.060 A 
BRANCH  82  83
ATOM     83  S   UNL A   1      54.054  25.384  24.946  1.00  0.00     0.124 S 
ATOM     84  O   UNL A   1      54.072  23.927  24.985  1.00  0.00    -0.237 OA
ATOM     85  O   UNL A   1      54.109  25.991  23.618  1.00  0.00    -0.237 OA
ATOM     86  O   UNL A   1      54.857  26.056  25.964  1.00  0.00    -0.744 OA
ENDBRANCH  82  83
ENDBRANCH  50  75
BRANCH  62  87
ATOM     87  C   UNL A   1      47.005  32.447  28.453  1.00  0.00     0.058 A 
ATOM     88  C   UNL A   1      47.576  32.782  29.690  1.00  0.00     0.135 A 
ATOM     89  C   UNL A   1      47.056  33.403  27.426  1.00  0.00     0.135 A 
ATOM     90  F   UNL A   1      47.545  31.906  30.708  1.00  0.00    -0.206 F 
ATOM     91  C   UNL A   1      48.167  34.023  29.905  1.00  0.00     0.059 A 
ATOM     92  C   UNL A   1      47.663  34.641  27.611  1.00  0.00     0.059 A 
ATOM     93  F   UNL A   1      46.530  33.129  26.221  1.00  0.00    -0.206 F 
ATOM     94  C   UNL A   1      48.209  34.944  28.858  1.00  0.00     0.060 A 
BRANCH  94  95
ATOM     95  S   UNL A   1      49.020  36.533  29.136  1.00  0.00     0.124 S 
ATOM     96  O   UNL A   1      48.191  37.105  30.191  1.00  0.00    -0.237 OA
ATOM     97  O   UNL A   1      50.366  36.132  29.534  1.00  0.00    -0.237 OA
ATOM     98  O   UNL A   1      48.928  37.193  27.837  1.00  0.00    -0.744 OA
ENDBRANCH  94  95
ENDBRANCH  62  87
ENDBRANCH  36  37
ENDBRANCH  28  31
ENDBRANCH  26  27
ENDBRANCH  25  26
ENDBRANCH   1  25
TORSDOF 20
ENDMDL
