MODEL 1
REMARK VINA RESULT:     -10.8      0.000      0.000
REMARK SMILES CC(C)[C@@H](CNC(=O)NCC1C(C)(C)C1(C)C)C(=O)NCCCCCCNC(=O)c1ccc(-c2c3nc(c(-c4c(F)cc(S(=O)(=O)[O-])cc4F)c4ccc([nH]4)c(-c4c(F)cc(S(=O)(=O)[O-])cc4F)c4nc(c(-c5c(F)cc(S(=O)(=O)[O-])cc5F)c5ccc2[nH]5)C=C4)C=C3)cc1
REMARK SMILES IDX 23 1 22 2 21 3 20 4 18 5 19 6 4 8 2 9 1 10 3 11 5 12 6 13
REMARK SMILES IDX 7 14 8 16 9 17 10 19 11 20 12 21 15 22 13 23 14 24 16 25
REMARK SMILES IDX 17 26 24 27 25 28 26 29 27 30 28 31 29 33 30 34 31 35 95 36
REMARK SMILES IDX 32 37 94 38 33 39 34 40 35 41 88 42 36 43 93 44 87 45 89 46
REMARK SMILES IDX 37 47 92 48 86 49 85 50 38 52 72 53 51 54 71 55 52 56 55 57
REMARK SMILES IDX 70 58 90 59 53 60 54 61 69 63 91 64 56 65 39 66 40 67 49 68
REMARK SMILES IDX 41 69 42 70 48 71 50 72 43 73 44 74 45 75 46 76 47 77 73 78
REMARK SMILES IDX 74 79 83 80 75 81 76 82 82 83 84 84 77 85 78 86 79 87 80 88
REMARK SMILES IDX 81 89 57 90 58 91 67 92 59 93 60 94 66 95 68 96 61 97 62 98
REMARK SMILES IDX 63 99 64 100 65 101
REMARK H PARENT 20 7 6 15 9 18 27 32 89 51 55 62
REMARK Flexibility Score: inf
ROOT
ATOM      1  C   UNL A   1      38.505  23.748  26.545  1.00  0.00     0.002 C 
ENDROOT
BRANCH   1   2
ATOM      2  C   UNL A   1      37.489  23.130  25.582  1.00  0.00     0.021 C 
BRANCH   2   3
ATOM      3  C   UNL A   1      36.071  23.633  25.793  1.00  0.00     0.116 C 
BRANCH   3   4
ATOM      4  N   UNL A   1      35.357  22.897  26.815  1.00  0.00    -0.356 N 
ATOM      5  C   UNL A   1      34.304  22.045  26.711  1.00  0.00     0.225 C 
ATOM      6  O   UNL A   1      34.000  21.387  27.712  1.00  0.00    -0.275 OA
ATOM      7  H   UNL A   1      35.687  23.037  27.733  1.00  0.00     0.163 HD
BRANCH   5   8
ATOM      8  C   UNL A   1      33.498  21.880  25.422  1.00  0.00     0.100 C 
BRANCH   8   9
ATOM      9  C   UNL A   1      33.245  20.416  24.976  1.00  0.00    -0.003 C 
ATOM     10  C   UNL A   1      32.480  20.330  23.649  1.00  0.00     0.008 C 
ATOM     11  C   UNL A   1      34.577  19.665  24.832  1.00  0.00     0.008 C 
ENDBRANCH   8   9
BRANCH   8  12
ATOM     12  C   UNL A   1      32.305  22.845  25.372  1.00  0.00     0.131 C 
BRANCH  12  13
ATOM     13  N   UNL A   1      31.231  22.612  26.311  1.00  0.00    -0.337 N 
ATOM     14  C   UNL A   1      30.262  23.368  26.840  1.00  0.00     0.314 C 
ATOM     15  H   UNL A   1      31.207  21.683  26.637  1.00  0.00     0.165 HD
ATOM     16  O   UNL A   1      29.636  22.897  27.794  1.00  0.00    -0.249 OA
ATOM     17  N   UNL A   1      29.908  24.576  26.410  1.00  0.00    -0.338 N 
ATOM     18  H   UNL A   1      29.267  25.010  27.018  1.00  0.00     0.165 HD
BRANCH  17  19
ATOM     19  C   UNL A   1      30.223  25.409  25.281  1.00  0.00     0.122 C 
BRANCH  19  20
ATOM     20  C   UNL A   1      30.660  26.805  25.608  1.00  0.00     0.021 C 
ATOM     21  C   UNL A   1      32.034  27.233  26.140  1.00  0.00    -0.025 C 
ATOM     22  C   UNL A   1      31.522  27.778  24.786  1.00  0.00    -0.025 C 
ATOM     23  C   UNL A   1      32.021  28.113  27.374  1.00  0.00     0.012 C 
ATOM     24  C   UNL A   1      33.235  26.323  26.165  1.00  0.00     0.012 C 
ATOM     25  C   UNL A   1      32.219  27.391  23.498  1.00  0.00     0.012 C 
ATOM     26  C   UNL A   1      31.027  29.207  24.705  1.00  0.00     0.012 C 
ENDBRANCH  19  20
ENDBRANCH  17  19
ENDBRANCH  12  13
ENDBRANCH   8  12
ENDBRANCH   5   8
ENDBRANCH   3   4
ENDBRANCH   2   3
ENDBRANCH   1   2
BRANCH   1  27
ATOM     27  C   UNL A   1      39.741  22.887  26.839  1.00  0.00     0.002 C 
BRANCH  27  28
ATOM     28  C   UNL A   1      39.805  21.544  26.104  1.00  0.00     0.021 C 
BRANCH  28  29
ATOM     29  C   UNL A   1      40.242  20.363  26.963  1.00  0.00     0.116 C 
BRANCH  29  30
ATOM     30  N   UNL A   1      41.144  19.472  26.250  1.00  0.00    -0.352 N 
ATOM     31  C   UNL A   1      42.385  19.725  25.721  1.00  0.00     0.251 C 
ATOM     32  H   UNL A   1      40.817  18.551  26.132  1.00  0.00     0.163 HD
ATOM     33  O   UNL A   1      42.919  18.906  24.985  1.00  0.00    -0.269 OA
BRANCH  31  34
ATOM     34  C   UNL A   1      43.058  21.005  26.026  1.00  0.00     0.039 A 
ATOM     35  C   UNL A   1      43.333  21.887  24.979  1.00  0.00     0.014 A 
ATOM     36  C   UNL A   1      43.398  21.338  27.340  1.00  0.00     0.014 A 
ATOM     37  C   UNL A   1      43.881  23.140  25.260  1.00  0.00     0.010 A 
ATOM     38  C   UNL A   1      43.881  22.612  27.625  1.00  0.00     0.010 A 
ATOM     39  C   UNL A   1      44.114  23.529  26.590  1.00  0.00    -0.014 A 
BRANCH  39  40
ATOM     40  C   UNL A   1      44.546  24.910  26.921  1.00  0.00     0.031 A 
ATOM     41  C   UNL A   1      43.543  25.936  27.371  1.00  0.00     0.074 A 
ATOM     42  C   UNL A   1      45.836  25.257  26.737  1.00  0.00     0.049 A 
ATOM     43  N   UNL A   1      43.720  27.207  27.620  1.00  0.00    -0.248 NA
ATOM     44  C   UNL A   1      42.156  25.478  27.541  1.00  0.00     0.031 C 
ATOM     45  C   UNL A   1      46.891  24.357  26.263  1.00  0.00     0.029 A 
ATOM     46  N   UNL A   1      46.479  26.456  26.909  1.00  0.00    -0.354 N 
ATOM     47  C   UNL A   1      42.471  27.703  27.970  1.00  0.00     0.074 A 
ATOM     48  C   UNL A   1      41.534  26.607  27.853  1.00  0.00     0.031 C 
ATOM     49  C   UNL A   1      48.049  25.031  26.198  1.00  0.00     0.029 A 
ATOM     50  C   UNL A   1      47.813  26.421  26.575  1.00  0.00     0.049 A 
ATOM     51  H   UNL A   1      46.028  27.267  27.240  1.00  0.00     0.167 HD
ATOM     52  C   UNL A   1      42.141  28.956  28.367  1.00  0.00     0.037 A 
ATOM     53  C   UNL A   1      48.739  27.401  26.554  1.00  0.00     0.037 A 
ATOM     54  C   UNL A   1      43.086  30.037  28.488  1.00  0.00     0.049 A 
ATOM     55  C   UNL A   1      48.338  28.791  26.962  1.00  0.00     0.074 A 
ATOM     56  C   UNL A   1      42.864  31.324  28.943  1.00  0.00     0.029 A 
ATOM     57  N   UNL A   1      44.427  29.963  28.138  1.00  0.00    -0.354 N 
ATOM     58  N   UNL A   1      47.168  29.226  27.367  1.00  0.00    -0.248 NA
ATOM     59  C   UNL A   1      49.379  29.827  26.909  1.00  0.00     0.031 C 
ATOM     60  C   UNL A   1      44.054  32.047  28.812  1.00  0.00     0.029 A 
ATOM     61  C   UNL A   1      45.035  31.194  28.330  1.00  0.00     0.049 A 
ATOM     62  H   UNL A   1      44.880  29.155  27.804  1.00  0.00     0.167 HD
ATOM     63  C   UNL A   1      47.336  30.581  27.630  1.00  0.00     0.074 A 
ATOM     64  C   UNL A   1      48.724  30.890  27.359  1.00  0.00     0.031 C 
ATOM     65  C   UNL A   1      46.420  31.488  28.052  1.00  0.00     0.037 A 
BRANCH  52  66
ATOM     66  C   UNL A   1      40.699  29.232  28.698  1.00  0.00     0.058 A 
ATOM     67  C   UNL A   1      40.252  29.337  30.025  1.00  0.00     0.135 A 
ATOM     68  C   UNL A   1      39.759  29.442  27.675  1.00  0.00     0.135 A 
ATOM     69  F   UNL A   1      41.104  29.134  31.044  1.00  0.00    -0.206 F 
ATOM     70  C   UNL A   1      38.922  29.612  30.327  1.00  0.00     0.059 A 
ATOM     71  C   UNL A   1      38.430  29.749  27.954  1.00  0.00     0.059 A 
ATOM     72  F   UNL A   1      40.130  29.354  26.388  1.00  0.00    -0.206 F 
ATOM     73  C   UNL A   1      38.019  29.818  29.283  1.00  0.00     0.060 A 
BRANCH  73  74
ATOM     74  S   UNL A   1      36.299  30.183  29.694  1.00  0.00     0.124 S 
ATOM     75  O   UNL A   1      36.140  29.457  30.950  1.00  0.00    -0.237 OA
ATOM     76  O   UNL A   1      36.307  31.638  29.801  1.00  0.00    -0.237 OA
ATOM     77  O   UNL A   1      35.555  29.644  28.560  1.00  0.00    -0.744 OA
ENDBRANCH  73  74
ENDBRANCH  52  66
BRANCH  53  78
ATOM     78  C   UNL A   1      50.131  27.097  26.127  1.00  0.00     0.058 A 
ATOM     79  C   UNL A   1      51.122  26.781  27.066  1.00  0.00     0.135 A 
ATOM     80  C   UNL A   1      50.494  27.097  24.770  1.00  0.00     0.135 A 
ATOM     81  F   UNL A   1      50.827  26.775  28.376  1.00  0.00    -0.206 F 
ATOM     82  C   UNL A   1      52.426  26.491  26.681  1.00  0.00     0.059 A 
ATOM     83  C   UNL A   1      51.785  26.782  24.357  1.00  0.00     0.059 A 
ATOM     84  F   UNL A   1      49.580  27.380  23.829  1.00  0.00    -0.206 F 
ATOM     85  C   UNL A   1      52.747  26.489  25.323  1.00  0.00     0.060 A 
BRANCH  85  86
ATOM     86  S   UNL A   1      54.433  26.064  24.832  1.00  0.00     0.124 S 
ATOM     87  O   UNL A   1      54.388  24.607  24.863  1.00  0.00    -0.237 OA
ATOM     88  O   UNL A   1      54.528  26.671  23.508  1.00  0.00    -0.237 OA
ATOM     89  O   UNL A   1      55.253  26.691  25.863  1.00  0.00    -0.744 OA
ENDBRANCH  85  86
ENDBRANCH  53  78
BRANCH  65  90
ATOM     90  C   UNL A   1      46.886  32.903  28.259  1.00  0.00     0.058 A 
ATOM     91  C   UNL A   1      46.738  33.876  27.259  1.00  0.00     0.135 A 
ATOM     92  C   UNL A   1      47.417  33.308  29.494  1.00  0.00     0.135 A 
ATOM     93  F   UNL A   1      46.247  33.540  26.054  1.00  0.00    -0.206 F 
ATOM     94  C   UNL A   1      47.107  35.201  27.473  1.00  0.00     0.059 A 
ATOM     95  C   UNL A   1      47.765  34.632  29.741  1.00  0.00     0.059 A 
ATOM     96  F   UNL A   1      47.575  32.418  30.486  1.00  0.00    -0.206 F 
ATOM     97  C   UNL A   1      47.611  35.571  28.721  1.00  0.00     0.060 A 
BRANCH  97  98
ATOM     98  S   UNL A   1      48.024  37.305  29.003  1.00  0.00     0.124 S 
ATOM     99  O   UNL A   1      47.425  37.946  27.836  1.00  0.00    -0.237 OA
ATOM    100  O   UNL A   1      47.371  37.576  30.280  1.00  0.00    -0.237 OA
ATOM    101  O   UNL A   1      49.483  37.307  29.039  1.00  0.00    -0.744 OA
ENDBRANCH  97  98
ENDBRANCH  65  90
ENDBRANCH  39  40
ENDBRANCH  31  34
ENDBRANCH  29  30
ENDBRANCH  28  29
ENDBRANCH  27  28
ENDBRANCH   1  27
TORSDOF 21
ENDMDL
MODEL 2
REMARK VINA RESULT:     -10.7      6.269     10.709
REMARK SMILES CC(C)[C@@H](CNC(=O)NCC1C(C)(C)C1(C)C)C(=O)NCCCCCCNC(=O)c1ccc(-c2c3nc(c(-c4c(F)cc(S(=O)(=O)[O-])cc4F)c4ccc([nH]4)c(-c4c(F)cc(S(=O)(=O)[O-])cc4F)c4nc(c(-c5c(F)cc(S(=O)(=O)[O-])cc5F)c5ccc2[nH]5)C=C4)C=C3)cc1
REMARK SMILES IDX 23 1 22 2 21 3 20 4 18 5 19 6 4 8 2 9 1 10 3 11 5 12 6 13
REMARK SMILES IDX 7 14 8 16 9 17 10 19 11 20 12 21 15 22 13 23 14 24 16 25
REMARK SMILES IDX 17 26 24 27 25 28 26 29 27 30 28 31 29 33 30 34 31 35 95 36
REMARK SMILES IDX 32 37 94 38 33 39 34 40 35 41 88 42 36 43 93 44 87 45 89 46
REMARK SMILES IDX 37 47 92 48 86 49 85 50 38 52 72 53 51 54 71 55 52 56 55 57
REMARK SMILES IDX 70 58 90 59 53 60 54 61 69 63 91 64 56 65 39 66 40 67 49 68
REMARK SMILES IDX 41 69 42 70 48 71 50 72 43 73 44 74 45 75 46 76 47 77 73 78
REMARK SMILES IDX 74 79 83 80 75 81 76 82 82 83 84 84 77 85 78 86 79 87 80 88
REMARK SMILES IDX 81 89 57 90 58 91 67 92 59 93 60 94 66 95 68 96 61 97 62 98
REMARK SMILES IDX 63 99 64 100 65 101
REMARK H PARENT 20 7 6 15 9 18 27 32 89 51 55 62
REMARK Flexibility Score: inf
ROOT
ATOM      1  C   UNL A   1      38.291  22.339  25.932  1.00  0.00     0.002 C 
ENDROOT
BRANCH   1   2
ATOM      2  C   UNL A   1      37.277  21.338  25.374  1.00  0.00     0.021 C 
BRANCH   2   3
ATOM      3  C   UNL A   1      35.901  21.453  26.008  1.00  0.00     0.116 C 
BRANCH   3   4
ATOM      4  N   UNL A   1      34.929  20.558  25.415  1.00  0.00    -0.356 N 
ATOM      5  C   UNL A   1      33.837  20.828  24.653  1.00  0.00     0.225 C 
ATOM      6  O   UNL A   1      33.277  19.875  24.099  1.00  0.00    -0.275 OA
ATOM      7  H   UNL A   1      35.085  19.602  25.591  1.00  0.00     0.163 HD
BRANCH   5   8
ATOM      8  C   UNL A   1      33.288  22.242  24.466  1.00  0.00     0.100 C 
BRANCH   8   9
ATOM      9  C   UNL A   1      34.041  23.120  23.432  1.00  0.00    -0.003 C 
ATOM     10  C   UNL A   1      33.105  23.705  22.366  1.00  0.00     0.008 C 
ATOM     11  C   UNL A   1      34.768  24.272  24.141  1.00  0.00     0.008 C 
ENDBRANCH   8   9
BRANCH   8  12
ATOM     12  C   UNL A   1      31.753  22.251  24.408  1.00  0.00     0.131 C 
BRANCH  12  13
ATOM     13  N   UNL A   1      31.048  22.308  25.669  1.00  0.00    -0.337 N 
ATOM     14  C   UNL A   1      30.709  23.288  26.514  1.00  0.00     0.314 C 
ATOM     15  H   UNL A   1      30.748  21.422  25.976  1.00  0.00     0.165 HD
ATOM     16  O   UNL A   1      30.291  22.953  27.627  1.00  0.00    -0.249 OA
ATOM     17  N   UNL A   1      30.768  24.590  26.247  1.00  0.00    -0.338 N 
ATOM     18  H   UNL A   1      30.600  25.138  27.047  1.00  0.00     0.165 HD
BRANCH  17  19
ATOM     19  C   UNL A   1      31.015  25.399  25.085  1.00  0.00     0.122 C 
BRANCH  19  20
ATOM     20  C   UNL A   1      31.032  26.881  25.318  1.00  0.00     0.021 C 
ATOM     21  C   UNL A   1      32.180  27.698  25.924  1.00  0.00    -0.025 C 
ATOM     22  C   UNL A   1      31.691  27.994  24.488  1.00  0.00    -0.025 C 
ATOM     23  C   UNL A   1      31.804  28.620  27.066  1.00  0.00     0.012 C 
ATOM     24  C   UNL A   1      33.568  27.150  26.136  1.00  0.00     0.012 C 
ATOM     25  C   UNL A   1      32.599  27.726  23.304  1.00  0.00     0.012 C 
ATOM     26  C   UNL A   1      30.849  29.227  24.233  1.00  0.00     0.012 C 
ENDBRANCH  19  20
ENDBRANCH  17  19
ENDBRANCH  12  13
ENDBRANCH   8  12
ENDBRANCH   5   8
ENDBRANCH   3   4
ENDBRANCH   2   3
ENDBRANCH   1   2
BRANCH   1  27
ATOM     27  C   UNL A   1      39.709  21.791  26.140  1.00  0.00     0.002 C 
BRANCH  27  28
ATOM     28  C   UNL A   1      40.403  22.218  27.437  1.00  0.00     0.021 C 
BRANCH  28  29
ATOM     29  C   UNL A   1      41.781  22.844  27.251  1.00  0.00     0.116 C 
BRANCH  29  30
ATOM     30  N   UNL A   1      41.822  23.750  26.115  1.00  0.00    -0.352 N 
ATOM     31  C   UNL A   1      41.641  25.110  26.074  1.00  0.00     0.251 C 
ATOM     32  H   UNL A   1      42.009  23.325  25.246  1.00  0.00     0.163 HD
ATOM     33  O   UNL A   1      41.521  25.683  24.999  1.00  0.00    -0.269 OA
BRANCH  31  34
ATOM     34  C   UNL A   1      41.568  25.871  27.339  1.00  0.00     0.039 A 
ATOM     35  C   UNL A   1      42.686  26.601  27.751  1.00  0.00     0.014 A 
ATOM     36  C   UNL A   1      40.399  25.876  28.104  1.00  0.00     0.014 A 
ATOM     37  C   UNL A   1      42.603  27.400  28.892  1.00  0.00     0.010 A 
ATOM     38  C   UNL A   1      40.297  26.726  29.202  1.00  0.00     0.010 A 
ATOM     39  C   UNL A   1      41.394  27.505  29.598  1.00  0.00    -0.014 A 
BRANCH  39  40
ATOM     40  C   UNL A   1      41.238  28.469  30.716  1.00  0.00     0.031 A 
ATOM     41  C   UNL A   1      42.084  28.346  31.953  1.00  0.00     0.074 A 
ATOM     42  C   UNL A   1      40.274  29.409  30.644  1.00  0.00     0.049 A 
ATOM     43  N   UNL A   1      42.030  29.039  33.060  1.00  0.00    -0.248 NA
ATOM     44  C   UNL A   1      43.109  27.291  31.953  1.00  0.00     0.031 C 
ATOM     45  C   UNL A   1      39.362  29.596  29.511  1.00  0.00     0.029 A 
ATOM     46  N   UNL A   1      39.885  30.370  31.542  1.00  0.00    -0.354 N 
ATOM     47  C   UNL A   1      43.006  28.503  33.891  1.00  0.00     0.074 A 
ATOM     48  C   UNL A   1      43.604  27.395  33.179  1.00  0.00     0.031 C 
ATOM     49  C   UNL A   1      38.535  30.618  29.776  1.00  0.00     0.029 A 
ATOM     50  C   UNL A   1      38.819  31.127  31.114  1.00  0.00     0.049 A 
ATOM     51  H   UNL A   1      40.327  30.506  32.411  1.00  0.00     0.167 HD
ATOM     52  C   UNL A   1      43.377  28.911  35.129  1.00  0.00     0.037 A 
ATOM     53  C   UNL A   1      38.132  32.106  31.736  1.00  0.00     0.037 A 
ATOM     54  C   UNL A   1      42.780  30.023  35.823  1.00  0.00     0.049 A 
ATOM     55  C   UNL A   1      38.539  32.514  33.125  1.00  0.00     0.074 A 
ATOM     56  C   UNL A   1      43.127  30.556  37.051  1.00  0.00     0.029 A 
ATOM     57  N   UNL A   1      41.700  30.763  35.358  1.00  0.00    -0.354 N 
ATOM     58  N   UNL A   1      39.517  32.049  33.866  1.00  0.00    -0.248 NA
ATOM     59  C   UNL A   1      37.751  33.575  33.765  1.00  0.00     0.031 C 
ATOM     60  C   UNL A   1      42.222  31.577  37.358  1.00  0.00     0.029 A 
ATOM     61  C   UNL A   1      41.345  31.721  36.295  1.00  0.00     0.049 A 
ATOM     62  H   UNL A   1      41.254  30.627  34.492  1.00  0.00     0.167 HD
ATOM     63  C   UNL A   1      39.470  32.771  35.054  1.00  0.00     0.074 A 
ATOM     64  C   UNL A   1      38.382  33.717  34.923  1.00  0.00     0.031 C 
ATOM     65  C   UNL A   1      40.255  32.656  36.153  1.00  0.00     0.037 A 
BRANCH  52  66
ATOM     66  C   UNL A   1      44.480  28.152  35.818  1.00  0.00     0.058 A 
ATOM     67  C   UNL A   1      44.212  27.060  36.659  1.00  0.00     0.135 A 
ATOM     68  C   UNL A   1      45.825  28.490  35.596  1.00  0.00     0.135 A 
ATOM     69  F   UNL A   1      42.944  26.700  36.916  1.00  0.00    -0.206 F 
ATOM     70  C   UNL A   1      45.235  26.349  37.277  1.00  0.00     0.059 A 
ATOM     71  C   UNL A   1      46.866  27.773  36.180  1.00  0.00     0.059 A 
ATOM     72  F   UNL A   1      46.141  29.525  34.801  1.00  0.00    -0.206 F 
ATOM     73  C   UNL A   1      46.560  26.712  37.030  1.00  0.00     0.060 A 
BRANCH  73  74
ATOM     74  S   UNL A   1      47.874  25.772  37.834  1.00  0.00     0.124 S 
ATOM     75  O   UNL A   1      49.061  26.310  37.177  1.00  0.00    -0.237 OA
ATOM     76  O   UNL A   1      47.705  26.138  39.236  1.00  0.00    -0.237 OA
ATOM     77  O   UNL A   1      47.551  24.386  37.507  1.00  0.00    -0.744 OA
ENDBRANCH  73  74
ENDBRANCH  52  66
BRANCH  53  78
ATOM     78  C   UNL A   1      36.987  32.761  31.048  1.00  0.00     0.058 A 
ATOM     79  C   UNL A   1      35.703  32.200  31.088  1.00  0.00     0.135 A 
ATOM     80  C   UNL A   1      37.149  33.970  30.352  1.00  0.00     0.135 A 
ATOM     81  F   UNL A   1      35.498  31.041  31.733  1.00  0.00    -0.206 F 
ATOM     82  C   UNL A   1      34.623  32.803  30.453  1.00  0.00     0.059 A 
ATOM     83  C   UNL A   1      36.078  34.608  29.733  1.00  0.00     0.059 A 
ATOM     84  F   UNL A   1      38.355  34.557  30.293  1.00  0.00    -0.206 F 
ATOM     85  C   UNL A   1      34.820  34.011  29.781  1.00  0.00     0.060 A 
BRANCH  85  86
ATOM     86  S   UNL A   1      33.400  34.809  29.001  1.00  0.00     0.124 S 
ATOM     87  O   UNL A   1      32.944  33.767  28.087  1.00  0.00    -0.237 OA
ATOM     88  O   UNL A   1      32.535  35.078  30.144  1.00  0.00    -0.237 OA
ATOM     89  O   UNL A   1      33.982  35.989  28.370  1.00  0.00    -0.744 OA
ENDBRANCH  85  86
ENDBRANCH  53  78
BRANCH  65  90
ATOM     90  C   UNL A   1      39.976  33.580  37.307  1.00  0.00     0.058 A 
ATOM     91  C   UNL A   1      40.659  34.798  37.451  1.00  0.00     0.135 A 
ATOM     92  C   UNL A   1      38.964  33.282  38.234  1.00  0.00     0.135 A 
ATOM     93  F   UNL A   1      41.645  35.126  36.600  1.00  0.00    -0.206 F 
ATOM     94  C   UNL A   1      40.354  35.684  38.480  1.00  0.00     0.059 A 
ATOM     95  C   UNL A   1      38.622  34.167  39.251  1.00  0.00     0.059 A 
ATOM     96  F   UNL A   1      38.276  32.134  38.136  1.00  0.00    -0.206 F 
ATOM     97  C   UNL A   1      39.326  35.364  39.369  1.00  0.00     0.060 A 
BRANCH  97  98
ATOM     98  S   UNL A   1      38.901  36.554  40.657  1.00  0.00     0.124 S 
ATOM     99  O   UNL A   1      38.281  37.623  39.880  1.00  0.00    -0.237 OA
ATOM    100  O   UNL A   1      37.998  35.783  41.506  1.00  0.00    -0.237 OA
ATOM    101  O   UNL A   1      40.190  36.882  41.258  1.00  0.00    -0.744 OA
ENDBRANCH  97  98
ENDBRANCH  65  90
ENDBRANCH  39  40
ENDBRANCH  31  34
ENDBRANCH  29  30
ENDBRANCH  28  29
ENDBRANCH  27  28
ENDBRANCH   1  27
TORSDOF 21
ENDMDL
MODEL 3
REMARK VINA RESULT:     -10.7      6.422      8.825
REMARK SMILES CC(C)[C@@H](CNC(=O)NCC1C(C)(C)C1(C)C)C(=O)NCCCCCCNC(=O)c1ccc(-c2c3nc(c(-c4c(F)cc(S(=O)(=O)[O-])cc4F)c4ccc([nH]4)c(-c4c(F)cc(S(=O)(=O)[O-])cc4F)c4nc(c(-c5c(F)cc(S(=O)(=O)[O-])cc5F)c5ccc2[nH]5)C=C4)C=C3)cc1
REMARK SMILES IDX 23 1 22 2 21 3 20 4 18 5 19 6 4 8 2 9 1 10 3 11 5 12 6 13
REMARK SMILES IDX 7 14 8 16 9 17 10 19 11 20 12 21 15 22 13 23 14 24 16 25
REMARK SMILES IDX 17 26 24 27 25 28 26 29 27 30 28 31 29 33 30 34 31 35 95 36
REMARK SMILES IDX 32 37 94 38 33 39 34 40 35 41 88 42 36 43 93 44 87 45 89 46
REMARK SMILES IDX 37 47 92 48 86 49 85 50 38 52 72 53 51 54 71 55 52 56 55 57
REMARK SMILES IDX 70 58 90 59 53 60 54 61 69 63 91 64 56 65 39 66 40 67 49 68
REMARK SMILES IDX 41 69 42 70 48 71 50 72 43 73 44 74 45 75 46 76 47 77 73 78
REMARK SMILES IDX 74 79 83 80 75 81 76 82 82 83 84 84 77 85 78 86 79 87 80 88
REMARK SMILES IDX 81 89 57 90 58 91 67 92 59 93 60 94 66 95 68 96 61 97 62 98
REMARK SMILES IDX 63 99 64 100 65 101
REMARK H PARENT 20 7 6 15 9 18 27 32 89 51 55 62
REMARK Flexibility Score: inf
ROOT
ATOM      1  C   UNL A   1      38.342  20.786  25.550  1.00  0.00     0.002 C 
ENDROOT
BRANCH   1   2
ATOM      2  C   UNL A   1      36.978  20.930  24.872  1.00  0.00     0.021 C 
BRANCH   2   3
ATOM      3  C   UNL A   1      35.877  21.380  25.815  1.00  0.00     0.116 C 
BRANCH   3   4
ATOM      4  N   UNL A   1      34.660  20.606  25.673  1.00  0.00    -0.356 N 
ATOM      5  C   UNL A   1      33.478  20.928  25.087  1.00  0.00     0.225 C 
ATOM      6  O   UNL A   1      32.657  20.020  24.920  1.00  0.00    -0.275 OA
ATOM      7  H   UNL A   1      34.696  19.703  26.064  1.00  0.00     0.163 HD
BRANCH   5   8
ATOM      8  C   UNL A   1      33.137  22.350  24.639  1.00  0.00     0.100 C 
BRANCH   8   9
ATOM      9  C   UNL A   1      33.991  22.904  23.468  1.00  0.00    -0.003 C 
ATOM     10  C   UNL A   1      33.145  23.243  22.234  1.00  0.00     0.008 C 
ATOM     11  C   UNL A   1      34.749  24.164  23.912  1.00  0.00     0.008 C 
ENDBRANCH   8   9
BRANCH   8  12
ATOM     12  C   UNL A   1      31.619  22.573  24.567  1.00  0.00     0.131 C 
BRANCH  12  13
ATOM     13  N   UNL A   1      30.882  22.481  25.807  1.00  0.00    -0.337 N 
ATOM     14  C   UNL A   1      30.314  23.368  26.633  1.00  0.00     0.314 C 
ATOM     15  H   UNL A   1      30.772  21.552  26.115  1.00  0.00     0.165 HD
ATOM     16  O   UNL A   1      29.946  22.955  27.737  1.00  0.00    -0.249 OA
ATOM     17  N   UNL A   1      30.099  24.651  26.354  1.00  0.00    -0.338 N 
ATOM     18  H   UNL A   1      29.793  25.153  27.144  1.00  0.00     0.165 HD
BRANCH  17  19
ATOM     19  C   UNL A   1      30.200  25.490  25.191  1.00  0.00     0.122 C 
BRANCH  19  20
ATOM     20  C   UNL A   1      31.535  26.135  24.972  1.00  0.00     0.021 C 
ATOM     21  C   UNL A   1      31.792  27.528  24.381  1.00  0.00    -0.025 C 
ATOM     22  C   UNL A   1      32.259  27.196  25.817  1.00  0.00    -0.025 C 
ATOM     23  C   UNL A   1      32.794  27.589  23.245  1.00  0.00     0.012 C 
ATOM     24  C   UNL A   1      30.709  28.554  24.172  1.00  0.00     0.012 C 
ATOM     25  C   UNL A   1      31.624  27.893  27.003  1.00  0.00     0.012 C 
ATOM     26  C   UNL A   1      33.731  26.955  26.078  1.00  0.00     0.012 C 
ENDBRANCH  19  20
ENDBRANCH  17  19
ENDBRANCH  12  13
ENDBRANCH   8  12
ENDBRANCH   5   8
ENDBRANCH   3   4
ENDBRANCH   2   3
ENDBRANCH   1   2
BRANCH   1  27
ATOM     27  C   UNL A   1      38.935  22.082  26.118  1.00  0.00     0.002 C 
BRANCH  27  28
ATOM     28  C   UNL A   1      40.321  21.955  26.757  1.00  0.00     0.021 C 
BRANCH  28  29
ATOM     29  C   UNL A   1      40.909  23.261  27.279  1.00  0.00     0.116 C 
BRANCH  29  30
ATOM     30  N   UNL A   1      41.173  24.209  26.209  1.00  0.00    -0.352 N 
ATOM     31  C   UNL A   1      41.173  25.581  26.236  1.00  0.00     0.251 C 
ATOM     32  H   UNL A   1      41.384  23.807  25.335  1.00  0.00     0.163 HD
ATOM     33  O   UNL A   1      41.229  26.218  25.192  1.00  0.00    -0.269 OA
BRANCH  31  34
ATOM     34  C   UNL A   1      41.081  26.281  27.535  1.00  0.00     0.039 A 
ATOM     35  C   UNL A   1      42.091  27.180  27.888  1.00  0.00     0.014 A 
ATOM     36  C   UNL A   1      39.997  26.065  28.389  1.00  0.00     0.014 A 
ATOM     37  C   UNL A   1      41.973  27.920  29.066  1.00  0.00     0.010 A 
ATOM     38  C   UNL A   1      39.847  26.852  29.527  1.00  0.00     0.010 A 
ATOM     39  C   UNL A   1      40.827  27.796  29.868  1.00  0.00    -0.014 A 
BRANCH  39  40
ATOM     40  C   UNL A   1      40.608  28.685  31.036  1.00  0.00     0.031 A 
ATOM     41  C   UNL A   1      39.577  29.778  30.980  1.00  0.00     0.074 A 
ATOM     42  C   UNL A   1      41.399  28.554  32.120  1.00  0.00     0.049 A 
ATOM     43  N   UNL A   1      39.306  30.701  31.866  1.00  0.00    -0.248 NA
ATOM     44  C   UNL A   1      38.759  29.857  29.760  1.00  0.00     0.031 C 
ATOM     45  C   UNL A   1      42.464  27.557  32.270  1.00  0.00     0.029 A 
ATOM     46  N   UNL A   1      41.448  29.266  33.291  1.00  0.00    -0.354 N 
ATOM     47  C   UNL A   1      38.294  31.474  31.311  1.00  0.00     0.074 A 
ATOM     48  C   UNL A   1      38.032  30.942  29.991  1.00  0.00     0.031 C 
ATOM     49  C   UNL A   1      43.046  27.711  33.468  1.00  0.00     0.029 A 
ATOM     50  C   UNL A   1      42.435  28.847  34.152  1.00  0.00     0.049 A 
ATOM     51  H   UNL A   1      40.834  30.008  33.496  1.00  0.00     0.167 HD
ATOM     52  C   UNL A   1      37.635  32.522  31.861  1.00  0.00     0.037 A 
ATOM     53  C   UNL A   1      42.821  29.333  35.348  1.00  0.00     0.037 A 
ATOM     54  C   UNL A   1      37.898  33.036  33.181  1.00  0.00     0.049 A 
ATOM     55  C   UNL A   1      42.098  30.522  35.920  1.00  0.00     0.074 A 
ATOM     56  C   UNL A   1      37.243  34.051  33.854  1.00  0.00     0.029 A 
ATOM     57  N   UNL A   1      38.908  32.587  34.022  1.00  0.00    -0.354 N 
ATOM     58  N   UNL A   1      41.090  31.192  35.416  1.00  0.00    -0.248 NA
ATOM     59  C   UNL A   1      42.565  31.024  37.219  1.00  0.00     0.031 C 
ATOM     60  C   UNL A   1      37.892  34.258  35.075  1.00  0.00     0.029 A 
ATOM     61  C   UNL A   1      38.917  33.333  35.190  1.00  0.00     0.049 A 
ATOM     62  H   UNL A   1      39.526  31.848  33.818  1.00  0.00     0.167 HD
ATOM     63  C   UNL A   1      40.792  32.186  36.343  1.00  0.00     0.074 A 
ATOM     64  C   UNL A   1      41.713  32.015  37.447  1.00  0.00     0.031 C 
ATOM     65  C   UNL A   1      39.844  33.153  36.281  1.00  0.00     0.037 A 
BRANCH  52  66
ATOM     66  C   UNL A   1      36.563  33.188  31.040  1.00  0.00     0.058 A 
ATOM     67  C   UNL A   1      36.875  34.048  29.975  1.00  0.00     0.135 A 
ATOM     68  C   UNL A   1      35.206  32.925  31.289  1.00  0.00     0.135 A 
ATOM     69  F   UNL A   1      38.156  34.345  29.698  1.00  0.00    -0.206 F 
ATOM     70  C   UNL A   1      35.882  34.645  29.205  1.00  0.00     0.059 A 
ATOM     71  C   UNL A   1      34.197  33.487  30.512  1.00  0.00     0.059 A 
ATOM     72  F   UNL A   1      34.848  32.110  32.295  1.00  0.00    -0.206 F 
ATOM     73  C   UNL A   1      34.545  34.357  29.481  1.00  0.00     0.060 A 
BRANCH  73  74
ATOM     74  S   UNL A   1      33.271  35.134  28.465  1.00  0.00     0.124 S 
ATOM     75  O   UNL A   1      32.548  35.922  29.459  1.00  0.00    -0.237 OA
ATOM     76  O   UNL A   1      34.061  35.897  27.505  1.00  0.00    -0.237 OA
ATOM     77  O   UNL A   1      32.538  34.000  27.910  1.00  0.00    -0.744 OA
ENDBRANCH  73  74
ENDBRANCH  52  66
BRANCH  53  78
ATOM     78  C   UNL A   1      43.951  28.697  36.079  1.00  0.00     0.058 A 
ATOM     79  C   UNL A   1      45.259  29.185  35.953  1.00  0.00     0.135 A 
ATOM     80  C   UNL A   1      43.743  27.601  36.931  1.00  0.00     0.135 A 
ATOM     81  F   UNL A   1      45.511  30.226  35.144  1.00  0.00    -0.206 F 
ATOM     82  C   UNL A   1      46.323  28.603  36.632  1.00  0.00     0.059 A 
ATOM     83  C   UNL A   1      44.787  27.019  37.645  1.00  0.00     0.059 A 
ATOM     84  F   UNL A   1      42.508  27.103  37.098  1.00  0.00    -0.206 F 
ATOM     85  C   UNL A   1      46.076  27.523  37.481  1.00  0.00     0.060 A 
BRANCH  85  86
ATOM     86  S   UNL A   1      47.459  26.806  38.394  1.00  0.00     0.124 S 
ATOM     87  O   UNL A   1      48.211  27.997  38.769  1.00  0.00    -0.237 OA
ATOM     88  O   UNL A   1      46.779  26.112  39.483  1.00  0.00    -0.237 OA
ATOM     89  O   UNL A   1      48.100  25.939  37.410  1.00  0.00    -0.744 OA
ENDBRANCH  85  86
ENDBRANCH  53  78
BRANCH  65  90
ATOM     90  C   UNL A   1      39.745  34.104  37.443  1.00  0.00     0.058 A 
ATOM     91  C   UNL A   1      38.975  33.798  38.576  1.00  0.00     0.135 A 
ATOM     92  C   UNL A   1      40.486  35.297  37.456  1.00  0.00     0.135 A 
ATOM     93  F   UNL A   1      38.238  32.676  38.610  1.00  0.00    -0.206 F 
ATOM     94  C   UNL A   1      38.936  34.645  39.679  1.00  0.00     0.059 A 
ATOM     95  C   UNL A   1      40.486  36.144  38.560  1.00  0.00     0.059 A 
ATOM     96  F   UNL A   1      41.243  35.634  36.401  1.00  0.00    -0.206 F 
ATOM     97  C   UNL A   1      39.704  35.812  39.665  1.00  0.00     0.060 A 
BRANCH  97  98
ATOM     98  S   UNL A   1      39.692  36.867  41.129  1.00  0.00     0.124 S 
ATOM     99  O   UNL A   1      38.945  36.048  42.079  1.00  0.00    -0.237 OA
ATOM    100  O   UNL A   1      41.116  37.023  41.410  1.00  0.00    -0.237 OA
ATOM    101  O   UNL A   1      39.012  38.076  40.673  1.00  0.00    -0.744 OA
ENDBRANCH  97  98
ENDBRANCH  65  90
ENDBRANCH  39  40
ENDBRANCH  31  34
ENDBRANCH  29  30
ENDBRANCH  28  29
ENDBRANCH  27  28
ENDBRANCH   1  27
TORSDOF 21
ENDMDL
