MODEL 1
REMARK VINA RESULT:     -12.3      0.000      0.000
REMARK SMILES O=C(NCCCCCCNC(=O)c1cc(-c2ccccn2)nc2ccc(F)cc12)c1ccc(-c2c3nc(c(-c4c(F)cc(S(=O)(=O)[O-])cc4F)c4ccc([nH]4)c(-c4c(F)cc(S(=O)(=O)[O-])cc4F)c4nc(c(-c5c(F)cc(S(=O)(=O)[O-])cc5F)c5ccc2[nH]5)C=C4)C=C3)cc1
REMARK SMILES IDX 5 1 4 2 3 3 1 4 2 5 30 7 31 8 95 9 32 10 94 11 33 12 34 13
REMARK SMILES IDX 35 14 88 15 36 16 93 17 87 18 89 19 37 20 92 21 86 22 85 23
REMARK SMILES IDX 38 25 72 26 51 27 71 28 52 29 55 30 70 31 90 32 53 33 54 34
REMARK SMILES IDX 69 36 91 37 56 38 39 39 40 40 49 41 41 42 42 43 48 44 50 45
REMARK SMILES IDX 43 46 44 47 45 48 46 49 47 50 73 51 74 52 83 53 75 54 76 55
REMARK SMILES IDX 82 56 84 57 77 58 78 59 79 60 80 61 81 62 57 63 58 64 67 65
REMARK SMILES IDX 59 66 60 67 66 68 68 69 61 70 62 71 63 72 64 73 65 74 6 75
REMARK SMILES IDX 7 76 8 77 9 78 10 79 11 80 12 82 13 83 14 84 29 85 15 86
REMARK SMILES IDX 23 87 28 88 22 89 24 90 26 91 25 92 27 93 16 94 17 95 21 96
REMARK SMILES IDX 18 97 20 98 19 99
REMARK H PARENT 3 6 89 24 55 35 10 81
REMARK Flexibility Score: inf
ROOT
ATOM      1  C   UNL A   1      33.583  29.054  27.230  1.00  0.00     0.021 C 
ENDROOT
BRANCH   1   2
ATOM      2  C   UNL A   1      35.031  29.321  27.634  1.00  0.00     0.116 C 
BRANCH   2   3
ATOM      3  N   UNL A   1      35.131  30.248  28.747  1.00  0.00    -0.352 N 
ATOM      4  O   UNL A   1      36.029  31.214  30.565  1.00  0.00    -0.269 OA
ATOM      5  C   UNL A   1      36.199  30.527  29.561  1.00  0.00     0.251 C 
ATOM      6  H   UNL A   1      34.309  30.751  28.948  1.00  0.00     0.163 HD
BRANCH   5   7
ATOM      7  C   UNL A   1      37.549  30.003  29.246  1.00  0.00     0.039 A 
ATOM      8  C   UNL A   1      38.402  29.671  30.304  1.00  0.00     0.014 A 
ATOM      9  C   UNL A   1      38.005  29.907  27.928  1.00  0.00     0.014 A 
ATOM     10  C   UNL A   1      39.698  29.217  30.043  1.00  0.00     0.010 A 
ATOM     11  C   UNL A   1      39.283  29.412  27.666  1.00  0.00     0.010 A 
ATOM     12  C   UNL A   1      40.146  29.076  28.721  1.00  0.00    -0.014 A 
BRANCH  12  13
ATOM     13  C   UNL A   1      41.534  28.645  28.416  1.00  0.00     0.031 A 
ATOM     14  C   UNL A   1      42.648  29.658  28.452  1.00  0.00     0.074 A 
ATOM     15  C   UNL A   1      41.795  27.366  28.084  1.00  0.00     0.049 A 
ATOM     16  N   UNL A   1      43.896  29.530  28.084  1.00  0.00    -0.248 NA
ATOM     17  C   UNL A   1      42.307  30.998  28.962  1.00  0.00     0.031 C 
ATOM     18  C   UNL A   1      40.809  26.284  28.037  1.00  0.00     0.029 A 
ATOM     19  N   UNL A   1      42.971  26.759  27.719  1.00  0.00    -0.354 N 
ATOM     20  C   UNL A   1      44.488  30.768  28.311  1.00  0.00     0.074 A 
ATOM     21  C   UNL A   1      43.454  31.646  28.812  1.00  0.00     0.031 C 
ATOM     22  C   UNL A   1      41.426  25.144  27.681  1.00  0.00     0.029 A 
ATOM     23  C   UNL A   1      42.838  25.421  27.434  1.00  0.00     0.049 A 
ATOM     24  H   UNL A   1      43.829  27.238  27.668  1.00  0.00     0.167 HD
ATOM     25  C   UNL A   1      45.780  31.132  28.135  1.00  0.00     0.037 A 
ATOM     26  C   UNL A   1      43.749  24.525  27.008  1.00  0.00     0.037 A 
ATOM     27  C   UNL A   1      46.813  30.251  27.655  1.00  0.00     0.049 A 
ATOM     28  C   UNL A   1      45.169  24.971  26.775  1.00  0.00     0.074 A 
ATOM     29  C   UNL A   1      48.144  30.537  27.407  1.00  0.00     0.029 A 
ATOM     30  N   UNL A   1      46.635  28.906  27.375  1.00  0.00    -0.354 N 
ATOM     31  N   UNL A   1      45.698  26.159  26.943  1.00  0.00    -0.248 NA
ATOM     32  C   UNL A   1      46.115  23.953  26.294  1.00  0.00     0.031 C 
ATOM     33  C   UNL A   1      48.769  29.367  26.965  1.00  0.00     0.029 A 
ATOM     34  C   UNL A   1      47.834  28.345  26.971  1.00  0.00     0.049 A 
ATOM     35  H   UNL A   1      45.782  28.420  27.452  1.00  0.00     0.167 HD
ATOM     36  C   UNL A   1      47.046  26.021  26.625  1.00  0.00     0.074 A 
ATOM     37  C   UNL A   1      47.251  24.637  26.258  1.00  0.00     0.031 C 
ATOM     38  C   UNL A   1      48.026  26.957  26.639  1.00  0.00     0.037 A 
BRANCH  25  39
ATOM     39  C   UNL A   1      46.165  32.541  28.486  1.00  0.00     0.058 A 
ATOM     40  C   UNL A   1      46.100  33.569  27.534  1.00  0.00     0.135 A 
ATOM     41  C   UNL A   1      46.525  32.883  29.799  1.00  0.00     0.135 A 
ATOM     42  F   UNL A   1      45.783  33.292  26.260  1.00  0.00    -0.206 F 
ATOM     43  C   UNL A   1      46.378  34.889  27.871  1.00  0.00     0.059 A 
ATOM     44  C   UNL A   1      46.787  34.200  30.164  1.00  0.00     0.059 A 
ATOM     45  F   UNL A   1      46.608  31.935  30.746  1.00  0.00    -0.206 F 
ATOM     46  C   UNL A   1      46.713  35.197  29.190  1.00  0.00     0.060 A 
BRANCH  46  47
ATOM     47  S   UNL A   1      47.022  36.923  29.620  1.00  0.00     0.124 S 
ATOM     48  O   UNL A   1      47.000  37.559  28.306  1.00  0.00    -0.237 OA
ATOM     49  O   UNL A   1      45.895  37.233  30.494  1.00  0.00    -0.237 OA
ATOM     50  O   UNL A   1      48.326  36.883  30.274  1.00  0.00    -0.744 OA
ENDBRANCH  46  47
ENDBRANCH  25  39
BRANCH  26  51
ATOM     51  C   UNL A   1      43.364  23.106  26.780  1.00  0.00     0.058 A 
ATOM     52  C   UNL A   1      43.119  22.249  27.863  1.00  0.00     0.135 A 
ATOM     53  C   UNL A   1      43.270  22.571  25.487  1.00  0.00     0.135 A 
ATOM     54  F   UNL A   1      43.206  22.713  29.119  1.00  0.00    -0.206 F 
ATOM     55  C   UNL A   1      42.819  20.904  27.675  1.00  0.00     0.059 A 
ATOM     56  C   UNL A   1      42.948  21.234  25.273  1.00  0.00     0.059 A 
ATOM     57  F   UNL A   1      43.483  23.353  24.417  1.00  0.00    -0.206 F 
ATOM     58  C   UNL A   1      42.741  20.405  26.374  1.00  0.00     0.060 A 
BRANCH  58  59
ATOM     59  S   UNL A   1      42.336  18.661  26.136  1.00  0.00     0.124 S 
ATOM     60  O   UNL A   1      40.937  18.737  25.732  1.00  0.00    -0.237 OA
ATOM     61  O   UNL A   1      43.282  18.263  25.097  1.00  0.00    -0.237 OA
ATOM     62  O   UNL A   1      42.584  18.080  27.453  1.00  0.00    -0.744 OA
ENDBRANCH  58  59
ENDBRANCH  26  51
BRANCH  38  63
ATOM     63  C   UNL A   1      49.419  26.503  26.312  1.00  0.00     0.058 A 
ATOM     64  C   UNL A   1      49.980  26.690  25.040  1.00  0.00     0.135 A 
ATOM     65  C   UNL A   1      50.218  25.907  27.303  1.00  0.00     0.135 A 
ATOM     66  F   UNL A   1      49.255  27.252  24.059  1.00  0.00    -0.206 F 
ATOM     67  C   UNL A   1      51.276  26.278  24.752  1.00  0.00     0.059 A 
ATOM     68  C   UNL A   1      51.525  25.508  27.043  1.00  0.00     0.059 A 
ATOM     69  F   UNL A   1      49.730  25.716  28.539  1.00  0.00    -0.206 F 
ATOM     70  C   UNL A   1      52.040  25.685  25.760  1.00  0.00     0.060 A 
BRANCH  70  71
ATOM     71  S   UNL A   1      53.728  25.171  25.379  1.00  0.00     0.124 S 
ATOM     72  O   UNL A   1      54.484  25.846  26.426  1.00  0.00    -0.237 OA
ATOM     73  O   UNL A   1      53.646  23.718  25.491  1.00  0.00    -0.237 OA
ATOM     74  O   UNL A   1      53.940  25.676  24.025  1.00  0.00    -0.744 OA
ENDBRANCH  70  71
ENDBRANCH  38  63
ENDBRANCH  12  13
ENDBRANCH   5   7
ENDBRANCH   2   3
ENDBRANCH   1   2
BRANCH   1  75
ATOM     75  C   UNL A   1      33.384  28.472  25.827  1.00  0.00     0.002 C 
BRANCH  75  76
ATOM     76  C   UNL A   1      32.353  29.185  24.950  1.00  0.00     0.002 C 
BRANCH  76  77
ATOM     77  C   UNL A   1      32.623  29.151  23.442  1.00  0.00     0.021 C 
BRANCH  77  78
ATOM     78  C   UNL A   1      33.858  28.364  23.013  1.00  0.00     0.116 C 
BRANCH  78  79
ATOM     79  N   UNL A   1      33.571  27.399  21.961  1.00  0.00    -0.352 N 
ATOM     80  C   UNL A   1      33.427  26.037  22.050  1.00  0.00     0.252 C 
ATOM     81  H   UNL A   1      33.467  27.776  21.059  1.00  0.00     0.163 HD
ATOM     82  O   UNL A   1      33.234  25.363  21.041  1.00  0.00    -0.269 OA
BRANCH  80  83
ATOM     83  C   UNL A   1      33.477  25.383  23.372  1.00  0.00     0.051 A 
ATOM     84  C   UNL A   1      34.684  24.796  23.747  1.00  0.00     0.045 A 
ATOM     85  C   UNL A   1      32.359  25.354  24.231  1.00  0.00     0.016 A 
ATOM     86  C   UNL A   1      34.741  24.108  24.945  1.00  0.00     0.090 A 
ATOM     87  C   UNL A   1      32.529  24.660  25.446  1.00  0.00     0.072 A 
ATOM     88  C   UNL A   1      31.106  25.951  23.946  1.00  0.00     0.050 A 
ATOM     89  N   UNL A   1      33.679  24.052  25.788  1.00  0.00    -0.246 NA
ATOM     90  C   UNL A   1      31.459  24.590  26.332  1.00  0.00     0.032 A 
ATOM     91  C   UNL A   1      30.062  25.864  24.858  1.00  0.00     0.123 A 
ATOM     92  C   UNL A   1      30.227  25.187  26.052  1.00  0.00     0.041 A 
ATOM     93  F   UNL A   1      28.887  26.442  24.579  1.00  0.00    -0.207 F 
BRANCH  86  94
ATOM     94  C   UNL A   1      35.950  23.350  25.307  1.00  0.00     0.089 A 
ATOM     95  C   UNL A   1      37.058  23.972  25.886  1.00  0.00     0.030 A 
ATOM     96  N   UNL A   1      35.977  22.048  24.922  1.00  0.00    -0.255 NA
ATOM     97  C   UNL A   1      38.228  23.241  26.066  1.00  0.00     0.004 A 
ATOM     98  C   UNL A   1      37.124  21.360  25.117  1.00  0.00     0.112 A 
ATOM     99  C   UNL A   1      38.267  21.910  25.671  1.00  0.00     0.020 A 
ENDBRANCH  86  94
ENDBRANCH  80  83
ENDBRANCH  78  79
ENDBRANCH  77  78
ENDBRANCH  76  77
ENDBRANCH  75  76
ENDBRANCH   1  75
TORSDOF 17
ENDMDL
MODEL 2
REMARK VINA RESULT:     -12.2      2.046      8.961
REMARK SMILES O=C(NCCCCCCNC(=O)c1cc(-c2ccccn2)nc2ccc(F)cc12)c1ccc(-c2c3nc(c(-c4c(F)cc(S(=O)(=O)[O-])cc4F)c4ccc([nH]4)c(-c4c(F)cc(S(=O)(=O)[O-])cc4F)c4nc(c(-c5c(F)cc(S(=O)(=O)[O-])cc5F)c5ccc2[nH]5)C=C4)C=C3)cc1
REMARK SMILES IDX 5 1 4 2 3 3 1 4 2 5 30 7 31 8 95 9 32 10 94 11 33 12 34 13
REMARK SMILES IDX 35 14 88 15 36 16 93 17 87 18 89 19 37 20 92 21 86 22 85 23
REMARK SMILES IDX 38 25 72 26 51 27 71 28 52 29 55 30 70 31 90 32 53 33 54 34
REMARK SMILES IDX 69 36 91 37 56 38 39 39 40 40 49 41 41 42 42 43 48 44 50 45
REMARK SMILES IDX 43 46 44 47 45 48 46 49 47 50 73 51 74 52 83 53 75 54 76 55
REMARK SMILES IDX 82 56 84 57 77 58 78 59 79 60 80 61 81 62 57 63 58 64 67 65
REMARK SMILES IDX 59 66 60 67 66 68 68 69 61 70 62 71 63 72 64 73 65 74 6 75
REMARK SMILES IDX 7 76 8 77 9 78 10 79 11 80 12 82 13 83 14 84 29 85 15 86
REMARK SMILES IDX 23 87 28 88 22 89 24 90 26 91 25 92 27 93 16 94 17 95 21 96
REMARK SMILES IDX 18 97 20 98 19 99
REMARK H PARENT 3 6 89 24 55 35 10 81
REMARK Flexibility Score: inf
ROOT
ATOM      1  C   UNL A   1      36.129  32.941  28.553  1.00  0.00     0.021 C 
ENDROOT
BRANCH   1   2
ATOM      2  C   UNL A   1      36.742  32.936  29.952  1.00  0.00     0.116 C 
BRANCH   2   3
ATOM      3  N   UNL A   1      36.312  31.794  30.738  1.00  0.00    -0.352 N 
ATOM      4  O   UNL A   1      36.272  29.663  31.445  1.00  0.00    -0.269 OA
ATOM      5  C   UNL A   1      36.890  30.557  30.872  1.00  0.00     0.251 C 
ATOM      6  H   UNL A   1      35.482  31.927  31.250  1.00  0.00     0.163 HD
BRANCH   5   7
ATOM      7  C   UNL A   1      38.242  30.288  30.330  1.00  0.00     0.039 A 
ATOM      8  C   UNL A   1      38.374  30.013  28.965  1.00  0.00     0.014 A 
ATOM      9  C   UNL A   1      39.364  30.233  31.163  1.00  0.00     0.014 A 
ATOM     10  C   UNL A   1      39.629  29.711  28.429  1.00  0.00     0.010 A 
ATOM     11  C   UNL A   1      40.623  29.975  30.620  1.00  0.00     0.010 A 
ATOM     12  C   UNL A   1      40.766  29.698  29.252  1.00  0.00    -0.014 A 
BRANCH  12  13
ATOM     13  C   UNL A   1      42.102  29.330  28.719  1.00  0.00     0.031 A 
ATOM     14  C   UNL A   1      42.366  27.907  28.302  1.00  0.00     0.074 A 
ATOM     15  C   UNL A   1      43.080  30.252  28.632  1.00  0.00     0.049 A 
ATOM     16  N   UNL A   1      43.492  27.343  27.950  1.00  0.00    -0.248 NA
ATOM     17  C   UNL A   1      41.209  26.995  28.292  1.00  0.00     0.031 C 
ATOM     18  C   UNL A   1      42.944  31.668  28.979  1.00  0.00     0.029 A 
ATOM     19  N   UNL A   1      44.386  30.134  28.226  1.00  0.00    -0.354 N 
ATOM     20  C   UNL A   1      43.184  26.014  27.681  1.00  0.00     0.074 A 
ATOM     21  C   UNL A   1      41.772  25.845  27.949  1.00  0.00     0.031 C 
ATOM     22  C   UNL A   1      44.114  32.289  28.755  1.00  0.00     0.029 A 
ATOM     23  C   UNL A   1      45.094  31.311  28.291  1.00  0.00     0.049 A 
ATOM     24  H   UNL A   1      44.778  29.286  27.917  1.00  0.00     0.167 HD
ATOM     25  C   UNL A   1      43.999  25.030  27.233  1.00  0.00     0.037 A 
ATOM     26  C   UNL A   1      46.388  31.567  28.020  1.00  0.00     0.037 A 
ATOM     27  C   UNL A   1      45.399  25.205  26.948  1.00  0.00     0.049 A 
ATOM     28  C   UNL A   1      47.283  30.442  27.569  1.00  0.00     0.074 A 
ATOM     29  C   UNL A   1      46.318  24.260  26.527  1.00  0.00     0.029 A 
ATOM     30  N   UNL A   1      46.077  26.411  27.030  1.00  0.00    -0.354 N 
ATOM     31  N   UNL A   1      46.986  29.179  27.374  1.00  0.00    -0.248 NA
ATOM     32  C   UNL A   1      48.690  30.777  27.305  1.00  0.00     0.031 C 
ATOM     33  C   UNL A   1      47.555  24.892  26.366  1.00  0.00     0.029 A 
ATOM     34  C   UNL A   1      47.397  26.238  26.654  1.00  0.00     0.049 A 
ATOM     35  H   UNL A   1      45.678  27.266  27.313  1.00  0.00     0.167 HD
ATOM     36  C   UNL A   1      48.159  28.580  26.926  1.00  0.00     0.074 A 
ATOM     37  C   UNL A   1      49.168  29.616  26.878  1.00  0.00     0.031 C 
ATOM     38  C   UNL A   1      48.380  27.287  26.582  1.00  0.00     0.037 A 
BRANCH  25  39
ATOM     39  C   UNL A   1      43.397  23.674  26.998  1.00  0.00     0.058 A 
ATOM     40  C   UNL A   1      43.169  23.196  25.699  1.00  0.00     0.135 A 
ATOM     41  C   UNL A   1      43.120  22.814  28.073  1.00  0.00     0.135 A 
ATOM     42  F   UNL A   1      43.395  23.987  24.638  1.00  0.00    -0.206 F 
ATOM     43  C   UNL A   1      42.686  21.913  25.472  1.00  0.00     0.059 A 
ATOM     44  C   UNL A   1      42.657  21.518  27.868  1.00  0.00     0.059 A 
ATOM     45  F   UNL A   1      43.315  23.226  29.335  1.00  0.00    -0.206 F 
ATOM     46  C   UNL A   1      42.441  21.077  26.563  1.00  0.00     0.060 A 
BRANCH  46  47
ATOM     47  S   UNL A   1      41.861  19.396  26.246  1.00  0.00     0.124 S 
ATOM     48  O   UNL A   1      42.331  18.697  27.438  1.00  0.00    -0.237 OA
ATOM     49  O   UNL A   1      40.417  19.580  26.146  1.00  0.00    -0.237 OA
ATOM     50  O   UNL A   1      42.532  19.034  25.002  1.00  0.00    -0.744 OA
ENDBRANCH  46  47
ENDBRANCH  25  39
BRANCH  26  51
ATOM     51  C   UNL A   1      46.930  32.946  28.150  1.00  0.00     0.058 A 
ATOM     52  C   UNL A   1      46.850  33.849  27.080  1.00  0.00     0.135 A 
ATOM     53  C   UNL A   1      47.564  33.376  29.325  1.00  0.00     0.135 A 
ATOM     54  F   UNL A   1      46.260  33.480  25.933  1.00  0.00    -0.206 F 
ATOM     55  C   UNL A   1      47.405  35.123  27.158  1.00  0.00     0.059 A 
ATOM     56  C   UNL A   1      48.106  34.653  29.435  1.00  0.00     0.059 A 
ATOM     57  F   UNL A   1      47.655  32.554  30.382  1.00  0.00    -0.206 F 
ATOM     58  C   UNL A   1      48.036  35.514  28.340  1.00  0.00     0.060 A 
BRANCH  58  59
ATOM     59  S   UNL A   1      48.740  37.173  28.440  1.00  0.00     0.124 S 
ATOM     60  O   UNL A   1      50.136  36.920  28.100  1.00  0.00    -0.237 OA
ATOM     61  O   UNL A   1      47.960  37.900  27.443  1.00  0.00    -0.237 OA
ATOM     62  O   UNL A   1      48.487  37.560  29.825  1.00  0.00    -0.744 OA
ENDBRANCH  58  59
ENDBRANCH  26  51
BRANCH  38  63
ATOM     63  C   UNL A   1      49.743  26.934  26.061  1.00  0.00     0.058 A 
ATOM     64  C   UNL A   1      50.066  27.041  24.701  1.00  0.00     0.135 A 
ATOM     65  C   UNL A   1      50.752  26.522  26.947  1.00  0.00     0.135 A 
ATOM     66  F   UNL A   1      49.135  27.428  23.814  1.00  0.00    -0.206 F 
ATOM     67  C   UNL A   1      51.336  26.725  24.231  1.00  0.00     0.059 A 
ATOM     68  C   UNL A   1      52.035  26.222  26.502  1.00  0.00     0.059 A 
ATOM     69  F   UNL A   1      50.495  26.414  28.261  1.00  0.00    -0.206 F 
ATOM     70  C   UNL A   1      52.314  26.313  25.139  1.00  0.00     0.060 A 
BRANCH  70  71
ATOM     71  S   UNL A   1      53.964  25.922  24.519  1.00  0.00     0.124 S 
ATOM     72  O   UNL A   1      53.849  26.307  23.118  1.00  0.00    -0.237 OA
ATOM     73  O   UNL A   1      54.817  26.773  25.343  1.00  0.00    -0.237 OA
ATOM     74  O   UNL A   1      54.090  24.489  24.770  1.00  0.00    -0.744 OA
ENDBRANCH  70  71
ENDBRANCH  38  63
ENDBRANCH  12  13
ENDBRANCH   5   7
ENDBRANCH   2   3
ENDBRANCH   1   2
BRANCH   1  75
ATOM     75  C   UNL A   1      34.600  32.860  28.501  1.00  0.00     0.002 C 
BRANCH  75  76
ATOM     76  C   UNL A   1      34.020  31.589  27.879  1.00  0.00     0.002 C 
BRANCH  76  77
ATOM     77  C   UNL A   1      35.022  30.463  27.605  1.00  0.00     0.021 C 
BRANCH  77  78
ATOM     78  C   UNL A   1      34.449  29.225  26.921  1.00  0.00     0.116 C 
BRANCH  78  79
ATOM     79  N   UNL A   1      33.298  28.677  27.626  1.00  0.00    -0.352 N 
ATOM     80  C   UNL A   1      32.109  28.216  27.119  1.00  0.00     0.252 C 
ATOM     81  H   UNL A   1      33.386  28.630  28.605  1.00  0.00     0.163 HD
ATOM     82  O   UNL A   1      31.217  27.830  27.871  1.00  0.00    -0.269 OA
BRANCH  80  83
ATOM     83  C   UNL A   1      31.912  28.161  25.657  1.00  0.00     0.051 A 
ATOM     84  C   UNL A   1      31.091  29.132  25.088  1.00  0.00     0.045 A 
ATOM     85  C   UNL A   1      32.531  27.177  24.860  1.00  0.00     0.016 A 
ATOM     86  C   UNL A   1      30.824  29.060  23.733  1.00  0.00     0.090 A 
ATOM     87  C   UNL A   1      32.225  27.211  23.484  1.00  0.00     0.072 A 
ATOM     88  C   UNL A   1      33.405  26.174  25.348  1.00  0.00     0.050 A 
ATOM     89  N   UNL A   1      31.395  28.118  22.941  1.00  0.00    -0.246 NA
ATOM     90  C   UNL A   1      32.800  26.260  22.647  1.00  0.00     0.032 A 
ATOM     91  C   UNL A   1      33.964  25.245  24.481  1.00  0.00     0.123 A 
ATOM     92  C   UNL A   1      33.668  25.278  23.130  1.00  0.00     0.041 A 
ATOM     93  F   UNL A   1      34.795  24.309  24.955  1.00  0.00    -0.207 F 
BRANCH  86  94
ATOM     94  C   UNL A   1      29.845  29.975  23.122  1.00  0.00     0.089 A 
ATOM     95  C   UNL A   1      29.194  30.958  23.870  1.00  0.00     0.030 A 
ATOM     96  N   UNL A   1      29.513  29.719  21.829  1.00  0.00    -0.255 NA
ATOM     97  C   UNL A   1      28.169  31.691  23.280  1.00  0.00     0.004 A 
ATOM     98  C   UNL A   1      28.521  30.453  21.280  1.00  0.00     0.112 A 
ATOM     99  C   UNL A   1      27.820  31.433  21.961  1.00  0.00     0.020 A 
ENDBRANCH  86  94
ENDBRANCH  80  83
ENDBRANCH  78  79
ENDBRANCH  77  78
ENDBRANCH  76  77
ENDBRANCH  75  76
ENDBRANCH   1  75
TORSDOF 17
ENDMDL
MODEL 3
REMARK VINA RESULT:     -12.2      6.654     11.538
REMARK SMILES O=C(NCCCCCCNC(=O)c1cc(-c2ccccn2)nc2ccc(F)cc12)c1ccc(-c2c3nc(c(-c4c(F)cc(S(=O)(=O)[O-])cc4F)c4ccc([nH]4)c(-c4c(F)cc(S(=O)(=O)[O-])cc4F)c4nc(c(-c5c(F)cc(S(=O)(=O)[O-])cc5F)c5ccc2[nH]5)C=C4)C=C3)cc1
REMARK SMILES IDX 5 1 4 2 3 3 1 4 2 5 30 7 31 8 95 9 32 10 94 11 33 12 34 13
REMARK SMILES IDX 35 14 88 15 36 16 93 17 87 18 89 19 37 20 92 21 86 22 85 23
REMARK SMILES IDX 38 25 72 26 51 27 71 28 52 29 55 30 70 31 90 32 53 33 54 34
REMARK SMILES IDX 69 36 91 37 56 38 39 39 40 40 49 41 41 42 42 43 48 44 50 45
REMARK SMILES IDX 43 46 44 47 45 48 46 49 47 50 73 51 74 52 83 53 75 54 76 55
REMARK SMILES IDX 82 56 84 57 77 58 78 59 79 60 80 61 81 62 57 63 58 64 67 65
REMARK SMILES IDX 59 66 60 67 66 68 68 69 61 70 62 71 63 72 64 73 65 74 6 75
REMARK SMILES IDX 7 76 8 77 9 78 10 79 11 80 12 82 13 83 14 84 29 85 15 86
REMARK SMILES IDX 23 87 28 88 22 89 24 90 26 91 25 92 27 93 16 94 17 95 21 96
REMARK SMILES IDX 18 97 20 98 19 99
REMARK H PARENT 3 6 89 24 55 35 10 81
REMARK Flexibility Score: inf
ROOT
ATOM      1  C   UNL A   1      42.551  22.099  27.587  1.00  0.00     0.021 C 
ENDROOT
BRANCH   1   2
ATOM      2  C   UNL A   1      43.203  23.480  27.556  1.00  0.00     0.116 C 
BRANCH   2   3
ATOM      3  N   UNL A   1      42.916  24.197  26.327  1.00  0.00    -0.352 N 
ATOM      4  O   UNL A   1      41.975  25.751  25.007  1.00  0.00    -0.269 OA
ATOM      5  C   UNL A   1      42.281  25.399  26.143  1.00  0.00     0.251 C 
ATOM      6  H   UNL A   1      43.222  23.754  25.503  1.00  0.00     0.163 HD
BRANCH   5   7
ATOM      7  C   UNL A   1      41.956  26.269  27.297  1.00  0.00     0.039 A 
ATOM      8  C   UNL A   1      42.763  27.385  27.543  1.00  0.00     0.014 A 
ATOM      9  C   UNL A   1      40.914  25.956  28.176  1.00  0.00     0.014 A 
ATOM     10  C   UNL A   1      42.511  28.202  28.650  1.00  0.00     0.010 A 
ATOM     11  C   UNL A   1      40.635  26.797  29.255  1.00  0.00     0.010 A 
ATOM     12  C   UNL A   1      41.439  27.919  29.510  1.00  0.00    -0.014 A 
BRANCH  12  13
ATOM     13  C   UNL A   1      41.181  28.738  30.720  1.00  0.00     0.031 A 
ATOM     14  C   UNL A   1      40.091  29.777  30.691  1.00  0.00     0.074 A 
ATOM     15  C   UNL A   1      41.930  28.576  31.828  1.00  0.00     0.049 A 
ATOM     16  N   UNL A   1      39.795  30.691  31.579  1.00  0.00    -0.248 NA
ATOM     17  C   UNL A   1      39.225  29.795  29.499  1.00  0.00     0.031 C 
ATOM     18  C   UNL A   1      42.999  27.588  31.992  1.00  0.00     0.029 A 
ATOM     19  N   UNL A   1      41.909  29.242  33.027  1.00  0.00    -0.354 N 
ATOM     20  C   UNL A   1      38.717  31.395  31.054  1.00  0.00     0.074 A 
ATOM     21  C   UNL A   1      38.435  30.828  29.753  1.00  0.00     0.031 C 
ATOM     22  C   UNL A   1      43.518  27.703  33.226  1.00  0.00     0.029 A 
ATOM     23  C   UNL A   1      42.851  28.798  33.925  1.00  0.00     0.049 A 
ATOM     24  H   UNL A   1      41.277  29.970  33.227  1.00  0.00     0.167 HD
ATOM     25  C   UNL A   1      38.014  32.408  31.614  1.00  0.00     0.037 A 
ATOM     26  C   UNL A   1      43.151  29.234  35.164  1.00  0.00     0.037 A 
ATOM     27  C   UNL A   1      38.283  32.957  32.917  1.00  0.00     0.049 A 
ATOM     28  C   UNL A   1      42.383  30.395  35.742  1.00  0.00     0.074 A 
ATOM     29  C   UNL A   1      37.653  34.011  33.556  1.00  0.00     0.029 A 
ATOM     30  N   UNL A   1      39.248  32.481  33.790  1.00  0.00    -0.354 N 
ATOM     31  N   UNL A   1      41.403  31.083  35.208  1.00  0.00    -0.248 NA
ATOM     32  C   UNL A   1      42.766  30.838  37.091  1.00  0.00     0.031 C 
ATOM     33  C   UNL A   1      38.244  34.179  34.812  1.00  0.00     0.029 A 
ATOM     34  C   UNL A   1      39.220  33.208  34.968  1.00  0.00     0.049 A 
ATOM     35  H   UNL A   1      39.863  31.735  33.602  1.00  0.00     0.167 HD
ATOM     36  C   UNL A   1      41.027  32.015  36.171  1.00  0.00     0.074 A 
ATOM     37  C   UNL A   1      41.882  31.800  37.319  1.00  0.00     0.031 C 
ATOM     38  C   UNL A   1      40.058  32.960  36.111  1.00  0.00     0.037 A 
BRANCH  25  39
ATOM     39  C   UNL A   1      36.865  32.980  30.833  1.00  0.00     0.058 A 
ATOM     40  C   UNL A   1      35.542  32.603  31.107  1.00  0.00     0.135 A 
ATOM     41  C   UNL A   1      37.080  33.969  29.859  1.00  0.00     0.135 A 
ATOM     42  F   UNL A   1      35.285  31.646  32.013  1.00  0.00    -0.206 F 
ATOM     43  C   UNL A   1      34.469  33.186  30.443  1.00  0.00     0.059 A 
ATOM     44  C   UNL A   1      36.019  34.581  29.197  1.00  0.00     0.059 A 
ATOM     45  F   UNL A   1      38.327  34.359  29.555  1.00  0.00    -0.206 F 
ATOM     46  C   UNL A   1      34.716  34.181  29.495  1.00  0.00     0.060 A 
BRANCH  46  47
ATOM     47  S   UNL A   1      33.308  34.961  28.679  1.00  0.00     0.124 S 
ATOM     48  O   UNL A   1      32.562  35.483  29.819  1.00  0.00    -0.237 OA
ATOM     49  O   UNL A   1      33.953  35.960  27.832  1.00  0.00    -0.237 OA
ATOM     50  O   UNL A   1      32.672  33.857  27.967  1.00  0.00    -0.744 OA
ENDBRANCH  46  47
ENDBRANCH  25  39
BRANCH  26  51
ATOM     51  C   UNL A   1      44.217  28.571  35.961  1.00  0.00     0.058 A 
ATOM     52  C   UNL A   1      45.556  28.970  35.835  1.00  0.00     0.135 A 
ATOM     53  C   UNL A   1      43.928  27.512  36.833  1.00  0.00     0.135 A 
ATOM     54  F   UNL A   1      45.882  29.973  35.006  1.00  0.00    -0.206 F 
ATOM     55  C   UNL A   1      46.577  28.324  36.523  1.00  0.00     0.059 A 
ATOM     56  C   UNL A   1      44.930  26.864  37.551  1.00  0.00     0.059 A 
ATOM     57  F   UNL A   1      42.661  27.101  36.999  1.00  0.00    -0.206 F 
ATOM     58  C   UNL A   1      46.253  27.267  37.377  1.00  0.00     0.060 A 
BRANCH  58  59
ATOM     59  S   UNL A   1      47.581  26.443  38.280  1.00  0.00     0.124 S 
ATOM     60  O   UNL A   1      48.291  27.577  38.859  1.00  0.00    -0.237 OA
ATOM     61  O   UNL A   1      46.842  25.603  39.219  1.00  0.00    -0.237 OA
ATOM     62  O   UNL A   1      48.295  25.717  37.233  1.00  0.00    -0.744 OA
ENDBRANCH  58  59
ENDBRANCH  26  51
BRANCH  38  63
ATOM     63  C   UNL A   1      39.825  33.789  37.342  1.00  0.00     0.058 A 
ATOM     64  C   UNL A   1      40.558  34.956  37.598  1.00  0.00     0.135 A 
ATOM     65  C   UNL A   1      38.822  33.426  38.257  1.00  0.00     0.135 A 
ATOM     66  F   UNL A   1      41.529  35.342  36.755  1.00  0.00    -0.206 F 
ATOM     67  C   UNL A   1      40.324  35.724  38.734  1.00  0.00     0.059 A 
ATOM     68  C   UNL A   1      38.556  34.191  39.388  1.00  0.00     0.059 A 
ATOM     69  F   UNL A   1      38.086  32.322  38.050  1.00  0.00    -0.206 F 
ATOM     70  C   UNL A   1      39.322  35.332  39.624  1.00  0.00     0.060 A 
BRANCH  70  71
ATOM     71  S   UNL A   1      39.017  36.346  41.086  1.00  0.00     0.124 S 
ATOM     72  O   UNL A   1      40.333  36.363  41.712  1.00  0.00    -0.237 OA
ATOM     73  O   UNL A   1      38.575  37.610  40.504  1.00  0.00    -0.237 OA
ATOM     74  O   UNL A   1      37.987  35.602  41.806  1.00  0.00    -0.744 OA
ENDBRANCH  70  71
ENDBRANCH  38  63
ENDBRANCH  12  13
ENDBRANCH   5   7
ENDBRANCH   2   3
ENDBRANCH   1   2
BRANCH   1  75
ATOM     75  C   UNL A   1      41.071  22.076  27.982  1.00  0.00     0.002 C 
BRANCH  75  76
ATOM     76  C   UNL A   1      40.075  21.935  26.829  1.00  0.00     0.002 C 
BRANCH  76  77
ATOM     77  C   UNL A   1      39.308  23.206  26.451  1.00  0.00     0.021 C 
BRANCH  77  78
ATOM     78  C   UNL A   1      37.849  22.999  26.052  1.00  0.00     0.116 C 
BRANCH  78  79
ATOM     79  N   UNL A   1      37.619  23.219  24.631  1.00  0.00    -0.352 N 
ATOM     80  C   UNL A   1      36.511  22.924  23.876  1.00  0.00     0.252 C 
ATOM     81  H   UNL A   1      38.363  23.639  24.143  1.00  0.00     0.163 HD
ATOM     82  O   UNL A   1      36.507  23.135  22.666  1.00  0.00    -0.269 OA
BRANCH  80  83
ATOM     83  C   UNL A   1      35.308  22.374  24.531  1.00  0.00     0.051 A 
ATOM     84  C   UNL A   1      35.181  20.988  24.568  1.00  0.00     0.045 A 
ATOM     85  C   UNL A   1      34.326  23.208  25.104  1.00  0.00     0.016 A 
ATOM     86  C   UNL A   1      34.029  20.443  25.104  1.00  0.00     0.090 A 
ATOM     87  C   UNL A   1      33.206  22.555  25.659  1.00  0.00     0.072 A 
ATOM     88  C   UNL A   1      34.389  24.623  25.140  1.00  0.00     0.050 A 
ATOM     89  N   UNL A   1      33.060  21.219  25.653  1.00  0.00    -0.246 NA
ATOM     90  C   UNL A   1      32.199  23.326  26.233  1.00  0.00     0.032 A 
ATOM     91  C   UNL A   1      33.367  25.358  25.726  1.00  0.00     0.123 A 
ATOM     92  C   UNL A   1      32.269  24.721  26.274  1.00  0.00     0.041 A 
ATOM     93  F   UNL A   1      33.445  26.694  25.762  1.00  0.00    -0.207 F 
BRANCH  86  94
ATOM     94  C   UNL A   1      33.790  18.993  25.028  1.00  0.00     0.089 A 
ATOM     95  C   UNL A   1      34.643  18.145  24.319  1.00  0.00     0.030 A 
ATOM     96  N   UNL A   1      32.624  18.549  25.568  1.00  0.00    -0.255 NA
ATOM     97  C   UNL A   1      34.288  16.811  24.150  1.00  0.00     0.004 A 
ATOM     98  C   UNL A   1      32.310  17.246  25.397  1.00  0.00     0.112 A 
ATOM     99  C   UNL A   1      33.096  16.350  24.695  1.00  0.00     0.020 A 
ENDBRANCH  86  94
ENDBRANCH  80  83
ENDBRANCH  78  79
ENDBRANCH  77  78
ENDBRANCH  76  77
ENDBRANCH  75  76
ENDBRANCH   1  75
TORSDOF 17
ENDMDL
