MODEL 1
REMARK VINA RESULT:     -12.2      0.000      0.000
REMARK SMILES O=C(Nc1cccc(C(=O)NCCCCCCNC(=O)c2ccc(-c3c4nc(c(-c5c(F)cc(S(=O)(=O)[O-])cc5F)c5ccc([nH]5)c(-c5c(F)cc(S(=O)(=O)[O-])cc5F)c5nc(c(-c6c(F)cc(S(=O)(=O)[O-])cc6F)c6ccc3[nH]6)C=C5)C=C4)cc2)c1)Nc1cc(Cl)c(Cl)cc1Cl
REMARK SMILES IDX 15 1 14 2 13 3 12 4 11 5 9 6 10 7 8 9 4 10 5 11 87 12 6 13
REMARK SMILES IDX 7 14 3 15 1 16 2 17 88 18 89 21 90 22 96 23 91 24 95 25
REMARK SMILES IDX 97 26 92 27 93 28 94 29 16 30 17 31 18 32 19 33 20 35 21 36
REMARK SMILES IDX 22 37 86 38 23 39 85 40 24 41 25 42 26 43 79 44 27 45 84 46
REMARK SMILES IDX 78 47 80 48 28 49 83 50 77 51 76 52 29 54 63 55 42 56 62 57
REMARK SMILES IDX 43 58 46 59 61 60 81 61 44 62 45 63 60 65 82 66 47 67 30 68
REMARK SMILES IDX 31 69 40 70 32 71 33 72 39 73 41 74 34 75 35 76 36 77 37 78
REMARK SMILES IDX 38 79 64 80 65 81 74 82 66 83 67 84 73 85 75 86 68 87 69 88
REMARK SMILES IDX 70 89 71 90 72 91 48 92 49 93 58 94 50 95 51 96 57 97 59 98
REMARK SMILES IDX 52 99 53 100 54 101 55 102 56 103
REMARK H PARENT 11 8 3 19 88 20 18 34 80 53 46 64
REMARK Flexibility Score: inf
ROOT
ATOM      1  C   UNL A   1      34.295  31.323  28.094  1.00  0.00     0.002 C 
ENDROOT
BRANCH   1   2
ATOM      2  C   UNL A   1      33.987  30.105  27.213  1.00  0.00     0.002 C 
BRANCH   2   3
ATOM      3  C   UNL A   1      32.514  29.674  27.211  1.00  0.00     0.021 C 
BRANCH   3   4
ATOM      4  C   UNL A   1      31.704  30.358  26.108  1.00  0.00     0.116 C 
BRANCH   4   5
ATOM      5  N   UNL A   1      32.204  29.974  24.803  1.00  0.00    -0.352 N 
ATOM      6  C   UNL A   1      31.954  28.931  23.952  1.00  0.00     0.251 C 
ATOM      7  O   UNL A   1      32.614  28.902  22.911  1.00  0.00    -0.269 OA
ATOM      8  H   UNL A   1      32.873  30.603  24.449  1.00  0.00     0.163 HD
BRANCH   6   9
ATOM      9  C   UNL A   1      30.912  27.880  24.169  1.00  0.00     0.041 A 
ATOM     10  C   UNL A   1      29.899  25.989  25.323  1.00  0.00     0.043 A 
ATOM     11  C   UNL A   1      28.790  26.049  24.482  1.00  0.00     0.026 A 
ATOM     12  C   UNL A   1      30.986  26.843  25.100  1.00  0.00     0.040 A 
ATOM     13  C   UNL A   1      28.722  27.034  23.499  1.00  0.00     0.003 A 
ATOM     14  C   UNL A   1      29.763  27.956  23.363  1.00  0.00     0.014 A 
BRANCH  10  15
ATOM     15  N   UNL A   1      29.894  25.057  26.375  1.00  0.00    -0.308 N 
ATOM     16  O   UNL A   1      30.213  23.076  27.382  1.00  0.00    -0.248 OA
ATOM     17  C   UNL A   1      30.509  23.827  26.460  1.00  0.00     0.323 C 
ATOM     18  N   UNL A   1      31.552  23.633  25.585  1.00  0.00    -0.306 N 
ATOM     19  H   UNL A   1      29.375  25.322  27.168  1.00  0.00     0.171 HD
ATOM     20  H   UNL A   1      31.806  24.399  25.022  1.00  0.00     0.171 HD
BRANCH  18  21
ATOM     21  C   UNL A   1      32.298  22.444  25.412  1.00  0.00     0.063 A 
ATOM     22  C   UNL A   1      31.952  21.665  24.296  1.00  0.00     0.049 A 
ATOM     23  C   UNL A   1      33.301  21.970  26.277  1.00  0.00     0.066 A 
ATOM     24  C   UNL A   1      32.638  20.482  24.000  1.00  0.00     0.061 A 
ATOM     25  C   UNL A   1      33.997  20.792  25.970  1.00  0.00     0.044 A 
ATOM     26  Cl  UNL A   1      33.585  22.638  27.847  1.00  0.00    -0.082 Cl
ATOM     27  Cl  UNL A   1      32.135  19.598  22.603  1.00  0.00    -0.083 Cl
ATOM     28  C   UNL A   1      33.674  20.051  24.831  1.00  0.00     0.061 A 
ATOM     29  Cl  UNL A   1      34.545  18.591  24.540  1.00  0.00    -0.083 Cl
ENDBRANCH  18  21
ENDBRANCH  10  15
ENDBRANCH   6   9
ENDBRANCH   4   5
ENDBRANCH   3   4
ENDBRANCH   2   3
ENDBRANCH   1   2
BRANCH   1  30
ATOM     30  C   UNL A   1      34.048  32.678  27.426  1.00  0.00     0.021 C 
BRANCH  30  31
ATOM     31  C   UNL A   1      32.712  33.316  27.793  1.00  0.00     0.116 C 
BRANCH  31  32
ATOM     32  N   UNL A   1      32.863  34.737  28.068  1.00  0.00    -0.352 N 
ATOM     33  C   UNL A   1      33.637  35.362  29.013  1.00  0.00     0.251 C 
ATOM     34  H   UNL A   1      32.333  35.337  27.494  1.00  0.00     0.163 HD
ATOM     35  O   UNL A   1      33.440  36.541  29.284  1.00  0.00    -0.269 OA
BRANCH  33  36
ATOM     36  C   UNL A   1      34.703  34.604  29.699  1.00  0.00     0.039 A 
ATOM     37  C   UNL A   1      35.993  34.608  29.163  1.00  0.00     0.014 A 
ATOM     38  C   UNL A   1      34.422  33.872  30.857  1.00  0.00     0.014 A 
ATOM     39  C   UNL A   1      37.013  33.915  29.817  1.00  0.00     0.010 A 
ATOM     40  C   UNL A   1      35.453  33.243  31.545  1.00  0.00     0.010 A 
ATOM     41  C   UNL A   1      36.757  33.249  31.028  1.00  0.00    -0.014 A 
BRANCH  41  42
ATOM     42  C   UNL A   1      37.840  32.552  31.767  1.00  0.00     0.031 A 
ATOM     43  C   UNL A   1      38.274  33.051  33.118  1.00  0.00     0.074 A 
ATOM     44  C   UNL A   1      38.472  31.512  31.188  1.00  0.00     0.049 A 
ATOM     45  N   UNL A   1      39.239  32.617  33.886  1.00  0.00    -0.248 NA
ATOM     46  C   UNL A   1      37.544  34.206  33.668  1.00  0.00     0.031 C 
ATOM     47  C   UNL A   1      38.172  30.972  29.859  1.00  0.00     0.029 A 
ATOM     48  N   UNL A   1      39.506  30.731  31.635  1.00  0.00    -0.354 N 
ATOM     49  C   UNL A   1      39.247  33.454  34.996  1.00  0.00     0.074 A 
ATOM     50  C   UNL A   1      38.220  34.450  34.782  1.00  0.00     0.031 C 
ATOM     51  C   UNL A   1      38.991  29.939  29.608  1.00  0.00     0.029 A 
ATOM     52  C   UNL A   1      39.898  29.766  30.737  1.00  0.00     0.049 A 
ATOM     53  H   UNL A   1      39.928  30.849  32.517  1.00  0.00     0.167 HD
ATOM     54  C   UNL A   1      40.026  33.385  36.102  1.00  0.00     0.037 A 
ATOM     55  C   UNL A   1      40.885  28.852  30.812  1.00  0.00     0.037 A 
ATOM     56  C   UNL A   1      41.025  32.370  36.318  1.00  0.00     0.049 A 
ATOM     57  C   UNL A   1      41.733  28.793  32.055  1.00  0.00     0.074 A 
ATOM     58  C   UNL A   1      41.815  32.167  37.435  1.00  0.00     0.029 A 
ATOM     59  N   UNL A   1      41.376  31.394  35.398  1.00  0.00    -0.354 N 
ATOM     60  N   UNL A   1      41.672  29.541  33.132  1.00  0.00    -0.248 NA
ATOM     61  C   UNL A   1      42.777  27.760  32.099  1.00  0.00     0.031 C 
ATOM     62  C   UNL A   1      42.678  31.099  37.172  1.00  0.00     0.029 A 
ATOM     63  C   UNL A   1      42.388  30.601  35.911  1.00  0.00     0.049 A 
ATOM     64  H   UNL A   1      40.964  31.280  34.510  1.00  0.00     0.167 HD
ATOM     65  C   UNL A   1      42.649  29.052  33.991  1.00  0.00     0.074 A 
ATOM     66  C   UNL A   1      43.277  27.935  33.315  1.00  0.00     0.031 C 
ATOM     67  C   UNL A   1      42.996  29.486  35.228  1.00  0.00     0.037 A 
BRANCH  54  68
ATOM     68  C   UNL A   1      39.834  34.432  37.165  1.00  0.00     0.058 A 
ATOM     69  C   UNL A   1      39.009  34.211  38.281  1.00  0.00     0.135 A 
ATOM     70  C   UNL A   1      40.520  35.655  37.094  1.00  0.00     0.135 A 
ATOM     71  F   UNL A   1      38.318  33.066  38.395  1.00  0.00    -0.206 F 
ATOM     72  C   UNL A   1      38.854  35.173  39.274  1.00  0.00     0.059 A 
ATOM     73  C   UNL A   1      40.401  36.621  38.089  1.00  0.00     0.059 A 
ATOM     74  F   UNL A   1      41.321  35.921  36.049  1.00  0.00    -0.206 F 
ATOM     75  C   UNL A   1      39.555  36.375  39.170  1.00  0.00     0.060 A 
BRANCH  75  76
ATOM     76  S   UNL A   1      39.355  37.606  40.476  1.00  0.00     0.124 S 
ATOM     77  O   UNL A   1      40.653  38.273  40.447  1.00  0.00    -0.237 OA
ATOM     78  O   UNL A   1      38.227  38.395  39.990  1.00  0.00    -0.237 OA
ATOM     79  O   UNL A   1      39.089  36.803  41.665  1.00  0.00    -0.744 OA
ENDBRANCH  75  76
ENDBRANCH  54  68
BRANCH  55  80
ATOM     80  C   UNL A   1      41.119  27.911  29.683  1.00  0.00     0.058 A 
ATOM     81  C   UNL A   1      40.236  26.851  29.432  1.00  0.00     0.135 A 
ATOM     82  C   UNL A   1      42.227  28.053  28.833  1.00  0.00     0.135 A 
ATOM     83  F   UNL A   1      39.164  26.671  30.218  1.00  0.00    -0.206 F 
ATOM     84  C   UNL A   1      40.456  25.948  28.397  1.00  0.00     0.059 A 
ATOM     85  C   UNL A   1      42.453  27.179  27.773  1.00  0.00     0.059 A 
ATOM     86  F   UNL A   1      43.091  29.064  29.016  1.00  0.00    -0.206 F 
ATOM     87  C   UNL A   1      41.569  26.120  27.573  1.00  0.00     0.060 A 
BRANCH  87  88
ATOM     88  S   UNL A   1      41.832  24.957  26.216  1.00  0.00     0.124 S 
ATOM     89  O   UNL A   1      43.233  24.600  26.404  1.00  0.00    -0.237 OA
ATOM     90  O   UNL A   1      40.859  23.912  26.516  1.00  0.00    -0.237 OA
ATOM     91  O   UNL A   1      41.538  25.756  25.029  1.00  0.00    -0.744 OA
ENDBRANCH  87  88
ENDBRANCH  55  80
BRANCH  67  92
ATOM     92  C   UNL A   1      44.077  28.731  35.950  1.00  0.00     0.058 A 
ATOM     93  C   UNL A   1      45.426  29.112  35.870  1.00  0.00     0.135 A 
ATOM     94  C   UNL A   1      43.752  27.642  36.777  1.00  0.00     0.135 A 
ATOM     95  F   UNL A   1      45.792  30.139  35.089  1.00  0.00    -0.206 F 
ATOM     96  C   UNL A   1      46.416  28.426  36.565  1.00  0.00     0.059 A 
ATOM     97  C   UNL A   1      44.722  26.961  37.505  1.00  0.00     0.059 A 
ATOM     98  F   UNL A   1      42.475  27.244  36.899  1.00  0.00    -0.206 F 
ATOM     99  C   UNL A   1      46.054  27.353  37.383  1.00  0.00     0.060 A 
BRANCH  99 100
ATOM    100  S   UNL A   1      47.344  26.494  38.307  1.00  0.00     0.124 S 
ATOM    101  O   UNL A   1      46.653  26.179  39.553  1.00  0.00    -0.237 OA
ATOM    102  O   UNL A   1      47.642  25.356  37.443  1.00  0.00    -0.237 OA
ATOM    103  O   UNL A   1      48.407  27.487  38.413  1.00  0.00    -0.744 OA
ENDBRANCH  99 100
ENDBRANCH  67  92
ENDBRANCH  41  42
ENDBRANCH  33  36
ENDBRANCH  31  32
ENDBRANCH  30  31
ENDBRANCH   1  30
TORSDOF 18
ENDMDL
MODEL 2
REMARK VINA RESULT:     -12.0      5.825     10.688
REMARK SMILES O=C(Nc1cccc(C(=O)NCCCCCCNC(=O)c2ccc(-c3c4nc(c(-c5c(F)cc(S(=O)(=O)[O-])cc5F)c5ccc([nH]5)c(-c5c(F)cc(S(=O)(=O)[O-])cc5F)c5nc(c(-c6c(F)cc(S(=O)(=O)[O-])cc6F)c6ccc3[nH]6)C=C5)C=C4)cc2)c1)Nc1cc(Cl)c(Cl)cc1Cl
REMARK SMILES IDX 15 1 14 2 13 3 12 4 11 5 9 6 10 7 8 9 4 10 5 11 87 12 6 13
REMARK SMILES IDX 7 14 3 15 1 16 2 17 88 18 89 21 90 22 96 23 91 24 95 25
REMARK SMILES IDX 97 26 92 27 93 28 94 29 16 30 17 31 18 32 19 33 20 35 21 36
REMARK SMILES IDX 22 37 86 38 23 39 85 40 24 41 25 42 26 43 79 44 27 45 84 46
REMARK SMILES IDX 78 47 80 48 28 49 83 50 77 51 76 52 29 54 63 55 42 56 62 57
REMARK SMILES IDX 43 58 46 59 61 60 81 61 44 62 45 63 60 65 82 66 47 67 30 68
REMARK SMILES IDX 31 69 40 70 32 71 33 72 39 73 41 74 34 75 35 76 36 77 37 78
REMARK SMILES IDX 38 79 64 80 65 81 74 82 66 83 67 84 73 85 75 86 68 87 69 88
REMARK SMILES IDX 70 89 71 90 72 91 48 92 49 93 58 94 50 95 51 96 57 97 59 98
REMARK SMILES IDX 52 99 53 100 54 101 55 102 56 103
REMARK H PARENT 11 8 3 19 88 20 18 34 80 53 46 64
REMARK Flexibility Score: inf
ROOT
ATOM      1  C   UNL A   1      35.749  30.051  27.314  1.00  0.00     0.002 C 
ENDROOT
BRANCH   1   2
ATOM      2  C   UNL A   1      34.771  28.925  26.955  1.00  0.00     0.002 C 
BRANCH   2   3
ATOM      3  C   UNL A   1      33.302  29.231  27.276  1.00  0.00     0.021 C 
BRANCH   3   4
ATOM      4  C   UNL A   1      32.670  30.199  26.273  1.00  0.00     0.116 C 
BRANCH   4   5
ATOM      5  N   UNL A   1      33.079  29.865  24.923  1.00  0.00    -0.352 N 
ATOM      6  C   UNL A   1      32.702  28.908  24.020  1.00  0.00     0.251 C 
ATOM      7  O   UNL A   1      33.313  28.896  22.948  1.00  0.00    -0.269 OA
ATOM      8  H   UNL A   1      33.785  30.458  24.580  1.00  0.00     0.163 HD
BRANCH   6   9
ATOM      9  C   UNL A   1      31.583  27.937  24.217  1.00  0.00     0.041 A 
ATOM     10  C   UNL A   1      30.429  26.103  25.332  1.00  0.00     0.043 A 
ATOM     11  C   UNL A   1      29.325  26.270  24.500  1.00  0.00     0.026 A 
ATOM     12  C   UNL A   1      31.579  26.875  25.122  1.00  0.00     0.040 A 
ATOM     13  C   UNL A   1      29.330  27.281  23.541  1.00  0.00     0.003 A 
ATOM     14  C   UNL A   1      30.439  28.122  23.421  1.00  0.00     0.014 A 
BRANCH  10  15
ATOM     15  N   UNL A   1      30.356  25.149  26.361  1.00  0.00    -0.308 N 
ATOM     16  O   UNL A   1      30.559  23.132  27.327  1.00  0.00    -0.248 OA
ATOM     17  C   UNL A   1      30.911  23.890  26.430  1.00  0.00     0.323 C 
ATOM     18  N   UNL A   1      31.965  23.667  25.575  1.00  0.00    -0.306 N 
ATOM     19  H   UNL A   1      29.831  25.420  27.148  1.00  0.00     0.171 HD
ATOM     20  H   UNL A   1      32.268  24.433  25.037  1.00  0.00     0.171 HD
BRANCH  18  21
ATOM     21  C   UNL A   1      32.658  22.448  25.391  1.00  0.00     0.063 A 
ATOM     22  C   UNL A   1      32.157  21.608  24.384  1.00  0.00     0.049 A 
ATOM     23  C   UNL A   1      33.755  22.004  26.152  1.00  0.00     0.066 A 
ATOM     24  C   UNL A   1      32.775  20.389  24.085  1.00  0.00     0.061 A 
ATOM     25  C   UNL A   1      34.382  20.789  25.841  1.00  0.00     0.044 A 
ATOM     26  Cl  UNL A   1      34.252  22.765  27.624  1.00  0.00    -0.082 Cl
ATOM     27  Cl  UNL A   1      32.079  19.430  22.828  1.00  0.00    -0.083 Cl
ATOM     28  C   UNL A   1      33.901  19.985  24.806  1.00  0.00     0.061 A 
ATOM     29  Cl  UNL A   1      34.698  18.484  24.508  1.00  0.00    -0.083 Cl
ENDBRANCH  18  21
ENDBRANCH  10  15
ENDBRANCH   6   9
ENDBRANCH   4   5
ENDBRANCH   3   4
ENDBRANCH   2   3
ENDBRANCH   1   2
BRANCH   1  30
ATOM     30  C   UNL A   1      35.559  30.647  28.711  1.00  0.00     0.021 C 
BRANCH  30  31
ATOM     31  C   UNL A   1      36.052  29.748  29.841  1.00  0.00     0.116 C 
BRANCH  31  32
ATOM     32  N   UNL A   1      36.249  30.504  31.069  1.00  0.00    -0.352 N 
ATOM     33  C   UNL A   1      37.401  30.713  31.784  1.00  0.00     0.251 C 
ATOM     34  H   UNL A   1      35.440  30.925  31.440  1.00  0.00     0.163 HD
ATOM     35  O   UNL A   1      37.339  31.143  32.932  1.00  0.00    -0.269 OA
BRANCH  33  36
ATOM     36  C   UNL A   1      38.709  30.416  31.166  1.00  0.00     0.039 A 
ATOM     37  C   UNL A   1      39.655  29.691  31.893  1.00  0.00     0.014 A 
ATOM     38  C   UNL A   1      39.006  30.873  29.879  1.00  0.00     0.014 A 
ATOM     39  C   UNL A   1      40.885  29.383  31.309  1.00  0.00     0.010 A 
ATOM     40  C   UNL A   1      40.202  30.504  29.273  1.00  0.00     0.010 A 
ATOM     41  C   UNL A   1      41.158  29.764  29.985  1.00  0.00    -0.014 A 
BRANCH  41  42
ATOM     42  C   UNL A   1      42.438  29.400  29.327  1.00  0.00     0.031 A 
ATOM     43  C   UNL A   1      42.628  28.022  28.756  1.00  0.00     0.074 A 
ATOM     44  C   UNL A   1      43.448  30.293  29.307  1.00  0.00     0.049 A 
ATOM     45  N   UNL A   1      43.691  27.497  28.203  1.00  0.00    -0.248 NA
ATOM     46  C   UNL A   1      41.481  27.102  28.839  1.00  0.00     0.031 C 
ATOM     47  C   UNL A   1      43.397  31.642  29.877  1.00  0.00     0.029 A 
ATOM     48  N   UNL A   1      44.719  30.196  28.801  1.00  0.00    -0.354 N 
ATOM     49  C   UNL A   1      43.350  26.186  27.892  1.00  0.00     0.074 A 
ATOM     50  C   UNL A   1      41.996  25.980  28.358  1.00  0.00     0.031 C 
ATOM     51  C   UNL A   1      44.576  32.251  29.671  1.00  0.00     0.029 A 
ATOM     52  C   UNL A   1      45.478  31.326  28.993  1.00  0.00     0.049 A 
ATOM     53  H   UNL A   1      45.056  29.392  28.342  1.00  0.00     0.167 HD
ATOM     54  C   UNL A   1      44.091  25.247  27.257  1.00  0.00     0.037 A 
ATOM     55  C   UNL A   1      46.759  31.584  28.669  1.00  0.00     0.037 A 
ATOM     56  C   UNL A   1      45.428  25.474  26.769  1.00  0.00     0.049 A 
ATOM     57  C   UNL A   1      47.560  30.526  27.957  1.00  0.00     0.074 A 
ATOM     58  C   UNL A   1      46.236  24.614  26.047  1.00  0.00     0.029 A 
ATOM     59  N   UNL A   1      46.153  26.640  26.959  1.00  0.00    -0.354 N 
ATOM     60  N   UNL A   1      47.194  29.318  27.597  1.00  0.00    -0.248 NA
ATOM     61  C   UNL A   1      48.944  30.866  27.599  1.00  0.00     0.031 C 
ATOM     62  C   UNL A   1      47.469  25.242  25.843  1.00  0.00     0.029 A 
ATOM     63  C   UNL A   1      47.410  26.514  26.390  1.00  0.00     0.049 A 
ATOM     64  H   UNL A   1      45.824  27.441  27.428  1.00  0.00     0.167 HD
ATOM     65  C   UNL A   1      48.291  28.765  26.946  1.00  0.00     0.074 A 
ATOM     66  C   UNL A   1      49.329  29.775  26.950  1.00  0.00     0.031 C 
ATOM     67  C   UNL A   1      48.429  27.534  26.394  1.00  0.00     0.037 A 
BRANCH  54  68
ATOM     68  C   UNL A   1      43.479  23.888  27.049  1.00  0.00     0.058 A 
ATOM     69  C   UNL A   1      43.474  22.916  28.062  1.00  0.00     0.135 A 
ATOM     70  C   UNL A   1      42.847  23.570  25.837  1.00  0.00     0.135 A 
ATOM     71  F   UNL A   1      44.076  23.160  29.238  1.00  0.00    -0.206 F 
ATOM     72  C   UNL A   1      42.885  21.669  27.873  1.00  0.00     0.059 A 
ATOM     73  C   UNL A   1      42.227  22.339  25.634  1.00  0.00     0.059 A 
ATOM     74  F   UNL A   1      42.823  24.460  24.832  1.00  0.00    -0.206 F 
ATOM     75  C   UNL A   1      42.263  21.390  26.656  1.00  0.00     0.060 A 
BRANCH  75  76
ATOM     76  S   UNL A   1      41.490  19.775  26.433  1.00  0.00     0.124 S 
ATOM     77  O   UNL A   1      40.110  20.151  26.142  1.00  0.00    -0.237 OA
ATOM     78  O   UNL A   1      42.244  19.220  25.313  1.00  0.00    -0.237 OA
ATOM     79  O   UNL A   1      41.702  19.114  27.717  1.00  0.00    -0.744 OA
ENDBRANCH  75  76
ENDBRANCH  54  68
BRANCH  55  80
ATOM     80  C   UNL A   1      47.363  32.904  29.000  1.00  0.00     0.058 A 
ATOM     81  C   UNL A   1      48.054  33.101  30.204  1.00  0.00     0.135 A 
ATOM     82  C   UNL A   1      47.263  33.992  28.119  1.00  0.00     0.135 A 
ATOM     83  F   UNL A   1      48.174  32.092  31.081  1.00  0.00    -0.206 F 
ATOM     84  C   UNL A   1      48.600  34.335  30.538  1.00  0.00     0.059 A 
ATOM     85  C   UNL A   1      47.826  35.230  28.418  1.00  0.00     0.059 A 
ATOM     86  F   UNL A   1      46.631  33.851  26.943  1.00  0.00    -0.206 F 
ATOM     87  C   UNL A   1      48.479  35.395  29.638  1.00  0.00     0.060 A 
BRANCH  87  88
ATOM     88  S   UNL A   1      49.214  36.988  30.070  1.00  0.00     0.124 S 
ATOM     89  O   UNL A   1      48.924  37.066  31.497  1.00  0.00    -0.237 OA
ATOM     90  O   UNL A   1      50.615  36.786  29.712  1.00  0.00    -0.237 OA
ATOM     91  O   UNL A   1      48.488  37.932  29.225  1.00  0.00    -0.744 OA
ENDBRANCH  87  88
ENDBRANCH  55  80
BRANCH  67  92
ATOM     92  C   UNL A   1      49.733  27.221  25.714  1.00  0.00     0.058 A 
ATOM     93  C   UNL A   1      49.914  27.417  24.336  1.00  0.00     0.135 A 
ATOM     94  C   UNL A   1      50.833  26.769  26.462  1.00  0.00     0.135 A 
ATOM     95  F   UNL A   1      48.894  27.840  23.574  1.00  0.00    -0.206 F 
ATOM     96  C   UNL A   1      51.133  27.153  23.720  1.00  0.00     0.059 A 
ATOM     97  C   UNL A   1      52.069  26.529  25.873  1.00  0.00     0.059 A 
ATOM     98  F   UNL A   1      50.716  26.576  27.786  1.00  0.00    -0.206 F 
ATOM     99  C   UNL A   1      52.205  26.712  24.497  1.00  0.00     0.060 A 
BRANCH  99 100
ATOM    100  S   UNL A   1      53.792  26.407  23.692  1.00  0.00     0.124 S 
ATOM    101  O   UNL A   1      54.330  25.319  24.502  1.00  0.00    -0.237 OA
ATOM    102  O   UNL A   1      53.389  26.048  22.335  1.00  0.00    -0.237 OA
ATOM    103  O   UNL A   1      54.487  27.684  23.814  1.00  0.00    -0.744 OA
ENDBRANCH  99 100
ENDBRANCH  67  92
ENDBRANCH  41  42
ENDBRANCH  33  36
ENDBRANCH  31  32
ENDBRANCH  30  31
ENDBRANCH   1  30
TORSDOF 18
ENDMDL
MODEL 3
REMARK VINA RESULT:     -12.0      5.793      8.250
REMARK SMILES O=C(Nc1cccc(C(=O)NCCCCCCNC(=O)c2ccc(-c3c4nc(c(-c5c(F)cc(S(=O)(=O)[O-])cc5F)c5ccc([nH]5)c(-c5c(F)cc(S(=O)(=O)[O-])cc5F)c5nc(c(-c6c(F)cc(S(=O)(=O)[O-])cc6F)c6ccc3[nH]6)C=C5)C=C4)cc2)c1)Nc1cc(Cl)c(Cl)cc1Cl
REMARK SMILES IDX 15 1 14 2 13 3 12 4 11 5 9 6 10 7 8 9 4 10 5 11 87 12 6 13
REMARK SMILES IDX 7 14 3 15 1 16 2 17 88 18 89 21 90 22 96 23 91 24 95 25
REMARK SMILES IDX 97 26 92 27 93 28 94 29 16 30 17 31 18 32 19 33 20 35 21 36
REMARK SMILES IDX 22 37 86 38 23 39 85 40 24 41 25 42 26 43 79 44 27 45 84 46
REMARK SMILES IDX 78 47 80 48 28 49 83 50 77 51 76 52 29 54 63 55 42 56 62 57
REMARK SMILES IDX 43 58 46 59 61 60 81 61 44 62 45 63 60 65 82 66 47 67 30 68
REMARK SMILES IDX 31 69 40 70 32 71 33 72 39 73 41 74 34 75 35 76 36 77 37 78
REMARK SMILES IDX 38 79 64 80 65 81 74 82 66 83 67 84 73 85 75 86 68 87 69 88
REMARK SMILES IDX 70 89 71 90 72 91 48 92 49 93 58 94 50 95 51 96 57 97 59 98
REMARK SMILES IDX 52 99 53 100 54 101 55 102 56 103
REMARK H PARENT 11 8 3 19 88 20 18 34 80 53 46 64
REMARK Flexibility Score: inf
ROOT
ATOM      1  C   UNL A   1      35.334  29.815  27.288  1.00  0.00     0.002 C 
ENDROOT
BRANCH   1   2
ATOM      2  C   UNL A   1      34.054  29.361  26.574  1.00  0.00     0.002 C 
BRANCH   2   3
ATOM      3  C   UNL A   1      32.752  29.794  27.260  1.00  0.00     0.021 C 
BRANCH   3   4
ATOM      4  C   UNL A   1      31.726  30.355  26.274  1.00  0.00     0.116 C 
BRANCH   4   5
ATOM      5  N   UNL A   1      32.115  30.047  24.912  1.00  0.00    -0.352 N 
ATOM      6  C   UNL A   1      31.981  28.950  24.104  1.00  0.00     0.251 C 
ATOM      7  O   UNL A   1      32.484  29.031  22.981  1.00  0.00    -0.269 OA
ATOM      8  H   UNL A   1      32.579  30.794  24.469  1.00  0.00     0.163 HD
BRANCH   6   9
ATOM      9  C   UNL A   1      31.229  27.709  24.464  1.00  0.00     0.041 A 
ATOM     10  C   UNL A   1      30.804  25.687  25.755  1.00  0.00     0.043 A 
ATOM     11  C   UNL A   1      29.612  25.478  25.067  1.00  0.00     0.026 A 
ATOM     12  C   UNL A   1      31.643  26.746  25.385  1.00  0.00     0.040 A 
ATOM     13  C   UNL A   1      29.207  26.389  24.094  1.00  0.00     0.003 A 
ATOM     14  C   UNL A   1      29.998  27.508  23.815  1.00  0.00     0.014 A 
BRANCH  10  15
ATOM     15  N   UNL A   1      31.134  24.814  26.806  1.00  0.00    -0.308 N 
ATOM     16  O   UNL A   1      32.008  22.989  27.778  1.00  0.00    -0.248 OA
ATOM     17  C   UNL A   1      32.015  23.755  26.822  1.00  0.00     0.323 C 
ATOM     18  N   UNL A   1      32.962  23.766  25.825  1.00  0.00    -0.306 N 
ATOM     19  H   UNL A   1      30.668  24.986  27.656  1.00  0.00     0.171 HD
ATOM     20  H   UNL A   1      32.968  24.550  25.229  1.00  0.00     0.171 HD
BRANCH  18  21
ATOM     21  C   UNL A   1      33.929  22.767  25.568  1.00  0.00     0.063 A 
ATOM     22  C   UNL A   1      35.264  23.139  25.792  1.00  0.00     0.049 A 
ATOM     23  C   UNL A   1      33.665  21.476  25.074  1.00  0.00     0.066 A 
ATOM     24  C   UNL A   1      36.310  22.229  25.603  1.00  0.00     0.061 A 
ATOM     25  C   UNL A   1      34.713  20.561  24.900  1.00  0.00     0.044 A 
ATOM     26  Cl  UNL A   1      32.128  21.007  24.436  1.00  0.00    -0.082 Cl
ATOM     27  Cl  UNL A   1      37.916  22.787  25.907  1.00  0.00    -0.083 Cl
ATOM     28  C   UNL A   1      36.032  20.930  25.171  1.00  0.00     0.061 A 
ATOM     29  Cl  UNL A   1      37.274  19.764  24.894  1.00  0.00    -0.083 Cl
ENDBRANCH  18  21
ENDBRANCH  10  15
ENDBRANCH   6   9
ENDBRANCH   4   5
ENDBRANCH   3   4
ENDBRANCH   2   3
ENDBRANCH   1   2
BRANCH   1  30
ATOM     30  C   UNL A   1      35.166  30.110  28.782  1.00  0.00     0.021 C 
BRANCH  30  31
ATOM     31  C   UNL A   1      35.854  31.391  29.241  1.00  0.00     0.116 C 
BRANCH  31  32
ATOM     32  N   UNL A   1      35.958  31.442  30.692  1.00  0.00    -0.352 N 
ATOM     33  C   UNL A   1      36.913  30.900  31.514  1.00  0.00     0.251 C 
ATOM     34  H   UNL A   1      35.239  31.936  31.150  1.00  0.00     0.163 HD
ATOM     35  O   UNL A   1      36.703  30.806  32.719  1.00  0.00    -0.269 OA
BRANCH  33  36
ATOM     36  C   UNL A   1      38.189  30.429  30.939  1.00  0.00     0.039 A 
ATOM     37  C   UNL A   1      38.558  30.859  29.662  1.00  0.00     0.014 A 
ATOM     38  C   UNL A   1      39.007  29.546  31.650  1.00  0.00     0.014 A 
ATOM     39  C   UNL A   1      39.774  30.439  29.118  1.00  0.00     0.010 A 
ATOM     40  C   UNL A   1      40.249  29.187  31.137  1.00  0.00     0.010 A 
ATOM     41  C   UNL A   1      40.641  29.622  29.863  1.00  0.00    -0.014 A 
BRANCH  41  42
ATOM     42  C   UNL A   1      41.961  29.209  29.324  1.00  0.00     0.031 A 
ATOM     43  C   UNL A   1      43.073  30.214  29.198  1.00  0.00     0.074 A 
ATOM     44  C   UNL A   1      42.131  27.945  28.888  1.00  0.00     0.049 A 
ATOM     45  N   UNL A   1      44.270  30.062  28.695  1.00  0.00    -0.248 NA
ATOM     46  C   UNL A   1      42.796  31.579  29.679  1.00  0.00     0.031 C 
ATOM     47  C   UNL A   1      41.108  26.897  28.912  1.00  0.00     0.029 A 
ATOM     48  N   UNL A   1      43.221  27.330  28.328  1.00  0.00    -0.354 N 
ATOM     49  C   UNL A   1      44.880  31.308  28.778  1.00  0.00     0.074 A 
ATOM     50  C   UNL A   1      43.905  32.218  29.339  1.00  0.00     0.031 C 
ATOM     51  C   UNL A   1      41.625  25.766  28.407  1.00  0.00     0.029 A 
ATOM     52  C   UNL A   1      43.000  26.016  27.988  1.00  0.00     0.049 A 
ATOM     53  H   UNL A   1      44.082  27.786  28.183  1.00  0.00     0.167 HD
ATOM     54  C   UNL A   1      46.143  31.656  28.437  1.00  0.00     0.037 A 
ATOM     55  C   UNL A   1      43.811  25.118  27.396  1.00  0.00     0.037 A 
ATOM     56  C   UNL A   1      47.115  30.734  27.908  1.00  0.00     0.049 A 
ATOM     57  C   UNL A   1      45.213  25.529  27.032  1.00  0.00     0.074 A 
ATOM     58  C   UNL A   1      48.443  30.968  27.601  1.00  0.00     0.029 A 
ATOM     59  N   UNL A   1      46.863  29.405  27.602  1.00  0.00    -0.354 N 
ATOM     60  N   UNL A   1      45.800  26.691  27.194  1.00  0.00    -0.248 NA
ATOM     61  C   UNL A   1      46.067  24.505  26.414  1.00  0.00     0.031 C 
ATOM     62  C   UNL A   1      48.981  29.795  27.063  1.00  0.00     0.029 A 
ATOM     63  C   UNL A   1      48.003  28.813  27.085  1.00  0.00     0.049 A 
ATOM     64  H   UNL A   1      46.000  28.949  27.734  1.00  0.00     0.167 HD
ATOM     65  C   UNL A   1      47.099  26.531  26.725  1.00  0.00     0.074 A 
ATOM     66  C   UNL A   1      47.216  25.156  26.286  1.00  0.00     0.031 C 
ATOM     67  C   UNL A   1      48.105  27.438  26.662  1.00  0.00     0.037 A 
BRANCH  54  68
ATOM     68  C   UNL A   1      46.553  33.092  28.623  1.00  0.00     0.058 A 
ATOM     69  C   UNL A   1      46.405  34.043  27.601  1.00  0.00     0.135 A 
ATOM     70  C   UNL A   1      47.057  33.534  29.857  1.00  0.00     0.135 A 
ATOM     71  F   UNL A   1      45.942  33.675  26.396  1.00  0.00    -0.206 F 
ATOM     72  C   UNL A   1      46.764  35.375  27.787  1.00  0.00     0.059 A 
ATOM     73  C   UNL A   1      47.396  34.867  30.076  1.00  0.00     0.059 A 
ATOM     74  F   UNL A   1      47.221  32.668  30.871  1.00  0.00    -0.206 F 
ATOM     75  C   UNL A   1      47.257  35.778  29.029  1.00  0.00     0.060 A 
BRANCH  75  76
ATOM     76  S   UNL A   1      47.702  37.512  29.259  1.00  0.00     0.124 S 
ATOM     77  O   UNL A   1      48.314  37.828  27.971  1.00  0.00    -0.237 OA
ATOM     78  O   UNL A   1      46.406  38.135  29.514  1.00  0.00    -0.237 OA
ATOM     79  O   UNL A   1      48.615  37.483  30.396  1.00  0.00    -0.744 OA
ENDBRANCH  75  76
ENDBRANCH  54  68
BRANCH  55  80
ATOM     80  C   UNL A   1      43.324  23.739  27.121  1.00  0.00     0.058 A 
ATOM     81  C   UNL A   1      43.227  22.789  28.147  1.00  0.00     0.135 A 
ATOM     82  C   UNL A   1      42.944  23.345  25.827  1.00  0.00     0.135 A 
ATOM     83  F   UNL A   1      43.581  23.116  29.399  1.00  0.00    -0.206 F 
ATOM     84  C   UNL A   1      42.799  21.489  27.899  1.00  0.00     0.059 A 
ATOM     85  C   UNL A   1      42.486  22.058  25.560  1.00  0.00     0.059 A 
ATOM     86  F   UNL A   1      42.997  24.222  24.813  1.00  0.00    -0.206 F 
ATOM     87  C   UNL A   1      42.431  21.132  26.601  1.00  0.00     0.060 A 
BRANCH  87  88
ATOM     88  S   UNL A   1      41.852  19.449  26.295  1.00  0.00     0.124 S 
ATOM     89  O   UNL A   1      42.539  19.126  25.049  1.00  0.00    -0.237 OA
ATOM     90  O   UNL A   1      42.318  18.744  27.484  1.00  0.00    -0.237 OA
ATOM     91  O   UNL A   1      40.404  19.606  26.194  1.00  0.00    -0.744 OA
ENDBRANCH  87  88
ENDBRANCH  55  80
BRANCH  67  92
ATOM     92  C   UNL A   1      49.433  26.967  26.137  1.00  0.00     0.058 A 
ATOM     93  C   UNL A   1      49.776  27.085  24.781  1.00  0.00     0.135 A 
ATOM     94  C   UNL A   1      50.396  26.439  27.013  1.00  0.00     0.135 A 
ATOM     95  F   UNL A   1      48.890  27.575  23.900  1.00  0.00    -0.206 F 
ATOM     96  C   UNL A   1      51.017  26.674  24.308  1.00  0.00     0.059 A 
ATOM     97  C   UNL A   1      51.655  26.051  26.568  1.00  0.00     0.059 A 
ATOM     98  F   UNL A   1      50.123  26.316  28.322  1.00  0.00    -0.206 F 
ATOM     99  C   UNL A   1      51.952  26.160  25.210  1.00  0.00     0.060 A 
BRANCH  99 100
ATOM    100  S   UNL A   1      53.572  25.663  24.590  1.00  0.00     0.124 S 
ATOM    101  O   UNL A   1      53.500  26.094  23.198  1.00  0.00    -0.237 OA
ATOM    102  O   UNL A   1      54.480  26.426  25.442  1.00  0.00    -0.237 OA
ATOM    103  O   UNL A   1      53.590  24.220  24.800  1.00  0.00    -0.744 OA
ENDBRANCH  99 100
ENDBRANCH  67  92
ENDBRANCH  41  42
ENDBRANCH  33  36
ENDBRANCH  31  32
ENDBRANCH  30  31
ENDBRANCH   1  30
TORSDOF 18
ENDMDL
