MODEL 1
REMARK VINA RESULT:     -13.4      0.000      0.000
REMARK SMILES Cc1ccc(C)c([C@H]2[NH2+][C@@H](C(=O)NCCCCCCNC(=O)c3ccc(-c4c5nc(c(-c6c(F)cc(S(=O)(=O)[O-])cc6F)c6ccc([nH]6)c(-c6c(F)cc(S(=O)(=O)[O-])cc6F)c6nc(c(-c7c(F)cc(S(=O)(=O)[O-])cc7F)c7ccc4[nH]7)C=C6)C=C5)cc3)Cc3c2[nH]c2ccccc32)c1
REMARK SMILES IDX 17 1 16 2 15 3 14 4 13 5 11 6 12 7 10 9 8 10 9 11 91 12
REMARK SMILES IDX 90 15 92 16 89 17 98 18 93 19 97 21 94 22 96 23 95 24 7 25
REMARK SMILES IDX 1 26 2 27 3 28 99 29 4 30 5 31 6 32 18 33 19 34 20 35 21 36
REMARK SMILES IDX 22 38 23 39 24 40 88 41 25 42 87 43 26 44 27 45 28 46 81 47
REMARK SMILES IDX 29 48 86 49 80 50 82 51 30 52 85 53 79 54 78 55 31 57 65 58
REMARK SMILES IDX 44 59 64 60 45 61 48 62 63 63 83 64 46 65 47 66 62 68 84 69
REMARK SMILES IDX 49 70 32 71 33 72 42 73 34 74 35 75 41 76 43 77 36 78 37 79
REMARK SMILES IDX 38 80 39 81 40 82 66 83 67 84 76 85 68 86 69 87 75 88 77 89
REMARK SMILES IDX 70 90 71 91 72 92 73 93 74 94 50 95 51 96 60 97 52 98 53 99
REMARK SMILES IDX 59 100 61 101 54 102 55 103 56 104 57 105 58 106
REMARK H PARENT 13 8 9 13 9 14 92 20 20 37 82 56 48 67
REMARK Flexibility Score: inf
ROOT
ATOM      1  C   UNL A   1      41.148  19.965  27.610  1.00  0.00     0.002 C 
ENDROOT
BRANCH   1   2
ATOM      2  C   UNL A   1      40.889  21.482  27.576  1.00  0.00     0.002 C 
BRANCH   2   3
ATOM      3  C   UNL A   1      40.335  22.038  26.272  1.00  0.00     0.021 C 
BRANCH   3   4
ATOM      4  C   UNL A   1      38.869  21.689  26.069  1.00  0.00     0.116 C 
BRANCH   4   5
ATOM      5  N   UNL A   1      38.013  22.846  26.261  1.00  0.00    -0.351 N 
ATOM      6  C   UNL A   1      36.802  23.237  25.792  1.00  0.00     0.278 C 
ATOM      7  O   UNL A   1      36.419  24.351  26.186  1.00  0.00    -0.268 OA
ATOM      8  H   UNL A   1      38.405  23.504  26.880  1.00  0.00     0.163 HD
BRANCH   6   9
ATOM      9  C   UNL A   1      35.831  22.378  24.945  1.00  0.00     0.277 C 
ATOM     10  C   UNL A   1      33.457  22.604  24.080  1.00  0.00     0.262 C 
ATOM     11  N   UNL A   1      34.581  23.162  24.864  1.00  0.00    -0.325 N 
ATOM     12  C   UNL A   1      33.486  21.088  24.112  1.00  0.00     0.083 A 
ATOM     13  H   UNL A   1      34.247  23.299  25.818  1.00  0.00     0.347 HD
ATOM     14  H   UNL A   1      34.845  24.010  24.361  1.00  0.00     0.347 HD
ATOM     15  C   UNL A   1      34.488  20.333  24.682  1.00  0.00    -0.006 A 
ATOM     16  N   UNL A   1      32.635  20.194  23.504  1.00  0.00    -0.353 N 
ATOM     17  C   UNL A   1      35.553  20.978  25.459  1.00  0.00     0.114 C 
ATOM     18  C   UNL A   1      34.259  18.967  24.449  1.00  0.00     0.003 A 
ATOM     19  C   UNL A   1      33.067  18.891  23.729  1.00  0.00     0.046 A 
ATOM     20  H   UNL A   1      31.835  20.440  22.986  1.00  0.00     0.166 HD
ATOM     21  C   UNL A   1      34.957  17.793  24.791  1.00  0.00     0.010 A 
ATOM     22  C   UNL A   1      32.531  17.653  23.349  1.00  0.00     0.026 A 
ATOM     23  C   UNL A   1      34.438  16.558  24.410  1.00  0.00     0.001 A 
ATOM     24  C   UNL A   1      33.239  16.492  23.705  1.00  0.00     0.002 A 
BRANCH  10  25
ATOM     25  C   UNL A   1      32.216  23.312  24.656  1.00  0.00     0.019 A 
ATOM     26  C   UNL A   1      29.590  22.712  27.387  1.00  0.00     0.044 C 
ATOM     27  C   UNL A   1      30.419  23.384  26.336  1.00  0.00    -0.051 A 
ATOM     28  C   UNL A   1      30.260  24.753  26.111  1.00  0.00     0.004 A 
ATOM     29  C   UNL A   1      31.401  22.680  25.619  1.00  0.00     0.014 A 
ATOM     30  C   UNL A   1      31.039  25.400  25.159  1.00  0.00     0.004 A 
ATOM     31  C   UNL A   1      32.000  24.700  24.409  1.00  0.00    -0.042 A 
ATOM     32  C   UNL A   1      32.857  25.527  23.481  1.00  0.00     0.045 C 
ENDBRANCH  10  25
ENDBRANCH   6   9
ENDBRANCH   4   5
ENDBRANCH   3   4
ENDBRANCH   2   3
ENDBRANCH   1   2
BRANCH   1  33
ATOM     33  C   UNL A   1      42.467  19.374  27.070  1.00  0.00     0.021 C 
BRANCH  33  34
ATOM     34  C   UNL A   1      42.691  19.260  25.558  1.00  0.00     0.116 C 
BRANCH  34  35
ATOM     35  N   UNL A   1      44.077  19.510  25.147  1.00  0.00    -0.352 N 
ATOM     36  C   UNL A   1      44.799  20.676  24.922  1.00  0.00     0.251 C 
ATOM     37  H   UNL A   1      44.599  18.689  25.003  1.00  0.00     0.163 HD
ATOM     38  O   UNL A   1      45.829  20.624  24.269  1.00  0.00    -0.269 OA
BRANCH  36  39
ATOM     39  C   UNL A   1      44.343  21.969  25.484  1.00  0.00     0.039 A 
ATOM     40  C   UNL A   1      43.487  22.851  24.818  1.00  0.00     0.014 A 
ATOM     41  C   UNL A   1      44.839  22.334  26.720  1.00  0.00     0.014 A 
ATOM     42  C   UNL A   1      43.194  24.082  25.417  1.00  0.00     0.010 A 
ATOM     43  C   UNL A   1      44.332  23.373  27.426  1.00  0.00     0.010 A 
ATOM     44  C   UNL A   1      43.660  24.336  26.716  1.00  0.00    -0.014 A 
BRANCH  44  45
ATOM     45  C   UNL A   1      43.459  25.578  27.433  1.00  0.00     0.031 A 
ATOM     46  C   UNL A   1      44.432  26.625  27.081  1.00  0.00     0.074 A 
ATOM     47  C   UNL A   1      42.309  25.878  28.078  1.00  0.00     0.049 A 
ATOM     48  N   UNL A   1      45.424  27.040  27.791  1.00  0.00    -0.248 NA
ATOM     49  C   UNL A   1      44.412  27.146  25.705  1.00  0.00     0.031 C 
ATOM     50  C   UNL A   1      41.053  25.116  28.144  1.00  0.00     0.029 A 
ATOM     51  N   UNL A   1      41.988  27.027  28.726  1.00  0.00    -0.354 N 
ATOM     52  C   UNL A   1      46.001  28.059  27.047  1.00  0.00     0.074 A 
ATOM     53  C   UNL A   1      45.512  27.901  25.702  1.00  0.00     0.031 C 
ATOM     54  C   UNL A   1      40.063  25.914  28.604  1.00  0.00     0.029 A 
ATOM     55  C   UNL A   1      40.637  27.185  29.008  1.00  0.00     0.049 A 
ATOM     56  H   UNL A   1      42.662  27.698  28.977  1.00  0.00     0.167 HD
ATOM     57  C   UNL A   1      46.609  29.113  27.655  1.00  0.00     0.037 A 
ATOM     58  C   UNL A   1      40.047  28.310  29.487  1.00  0.00     0.037 A 
ATOM     59  C   UNL A   1      46.812  28.859  29.064  1.00  0.00     0.049 A 
ATOM     60  C   UNL A   1      41.129  29.134  30.100  1.00  0.00     0.074 A 
ATOM     61  C   UNL A   1      47.430  27.849  29.780  1.00  0.00     0.029 A 
ATOM     62  N   UNL A   1      45.972  29.483  29.958  1.00  0.00    -0.354 N 
ATOM     63  N   UNL A   1      41.815  28.775  31.155  1.00  0.00    -0.248 NA
ATOM     64  C   UNL A   1      41.768  30.137  29.261  1.00  0.00     0.031 C 
ATOM     65  C   UNL A   1      46.567  27.602  30.888  1.00  0.00     0.029 A 
ATOM     66  C   UNL A   1      45.518  28.522  30.829  1.00  0.00     0.049 A 
ATOM     67  H   UNL A   1      45.740  30.440  29.973  1.00  0.00     0.167 HD
ATOM     68  C   UNL A   1      43.120  29.174  30.890  1.00  0.00     0.074 A 
ATOM     69  C   UNL A   1      43.010  30.084  29.751  1.00  0.00     0.031 C 
ATOM     70  C   UNL A   1      44.193  28.516  31.421  1.00  0.00     0.037 A 
BRANCH  57  71
ATOM     71  C   UNL A   1      46.690  30.496  27.062  1.00  0.00     0.058 A 
ATOM     72  C   UNL A   1      47.931  31.160  27.044  1.00  0.00     0.135 A 
ATOM     73  C   UNL A   1      45.567  31.290  26.735  1.00  0.00     0.135 A 
ATOM     74  F   UNL A   1      49.061  30.504  27.355  1.00  0.00    -0.206 F 
ATOM     75  C   UNL A   1      48.042  32.524  26.781  1.00  0.00     0.059 A 
ATOM     76  C   UNL A   1      45.662  32.635  26.406  1.00  0.00     0.059 A 
ATOM     77  F   UNL A   1      44.312  30.831  26.820  1.00  0.00    -0.206 F 
ATOM     78  C   UNL A   1      46.897  33.254  26.476  1.00  0.00     0.060 A 
BRANCH  78  79
ATOM     79  S   UNL A   1      47.018  35.034  26.244  1.00  0.00     0.124 S 
ATOM     80  O   UNL A   1      47.441  35.467  27.570  1.00  0.00    -0.237 OA
ATOM     81  O   UNL A   1      48.019  35.135  25.187  1.00  0.00    -0.237 OA
ATOM     82  O   UNL A   1      45.663  35.414  25.855  1.00  0.00    -0.744 OA
ENDBRANCH  78  79
ENDBRANCH  57  71
BRANCH  58  83
ATOM     83  C   UNL A   1      38.704  28.859  29.141  1.00  0.00     0.058 A 
ATOM     84  C   UNL A   1      37.730  29.084  30.130  1.00  0.00     0.135 A 
ATOM     85  C   UNL A   1      38.442  29.429  27.877  1.00  0.00     0.135 A 
ATOM     86  F   UNL A   1      37.903  28.599  31.370  1.00  0.00    -0.206 F 
ATOM     87  C   UNL A   1      36.592  29.867  29.896  1.00  0.00     0.059 A 
ATOM     88  C   UNL A   1      37.310  30.201  27.617  1.00  0.00     0.059 A 
ATOM     89  F   UNL A   1      39.327  29.332  26.873  1.00  0.00    -0.206 F 
ATOM     90  C   UNL A   1      36.400  30.438  28.639  1.00  0.00     0.060 A 
BRANCH  90  91
ATOM     91  S   UNL A   1      35.027  31.588  28.380  1.00  0.00     0.124 S 
ATOM     92  O   UNL A   1      34.679  31.957  29.747  1.00  0.00    -0.237 OA
ATOM     93  O   UNL A   1      35.649  32.634  27.575  1.00  0.00    -0.237 OA
ATOM     94  O   UNL A   1      34.034  30.778  27.681  1.00  0.00    -0.744 OA
ENDBRANCH  90  91
ENDBRANCH  58  83
BRANCH  70  95
ATOM     95  C   UNL A   1      43.965  27.529  32.542  1.00  0.00     0.058 A 
ATOM     96  C   UNL A   1      43.865  26.135  32.374  1.00  0.00     0.135 A 
ATOM     97  C   UNL A   1      44.025  28.003  33.863  1.00  0.00     0.135 A 
ATOM     98  F   UNL A   1      43.906  25.582  31.154  1.00  0.00    -0.206 F 
ATOM     99  C   UNL A   1      43.792  25.261  33.462  1.00  0.00     0.059 A 
ATOM    100  C   UNL A   1      43.988  27.148  34.963  1.00  0.00     0.059 A 
ATOM    101  F   UNL A   1      44.181  29.316  34.098  1.00  0.00    -0.206 F 
ATOM    102  C   UNL A   1      43.859  25.778  34.754  1.00  0.00     0.060 A 
BRANCH 102 103
ATOM    103  S   UNL A   1      43.854  24.640  36.158  1.00  0.00     0.124 S 
ATOM    104  O   UNL A   1      45.002  25.102  36.931  1.00  0.00    -0.237 OA
ATOM    105  O   UNL A   1      42.545  24.882  36.759  1.00  0.00    -0.237 OA
ATOM    106  O   UNL A   1      44.009  23.328  35.536  1.00  0.00    -0.744 OA
ENDBRANCH 102 103
ENDBRANCH  70  95
ENDBRANCH  44  45
ENDBRANCH  36  39
ENDBRANCH  34  35
ENDBRANCH  33  34
ENDBRANCH   1  33
TORSDOF 17
ENDMDL
MODEL 2
REMARK VINA RESULT:     -12.9      2.838      5.477
REMARK SMILES Cc1ccc(C)c([C@H]2[NH2+][C@@H](C(=O)NCCCCCCNC(=O)c3ccc(-c4c5nc(c(-c6c(F)cc(S(=O)(=O)[O-])cc6F)c6ccc([nH]6)c(-c6c(F)cc(S(=O)(=O)[O-])cc6F)c6nc(c(-c7c(F)cc(S(=O)(=O)[O-])cc7F)c7ccc4[nH]7)C=C6)C=C5)cc3)Cc3c2[nH]c2ccccc32)c1
REMARK SMILES IDX 17 1 16 2 15 3 14 4 13 5 11 6 12 7 10 9 8 10 9 11 91 12
REMARK SMILES IDX 90 15 92 16 89 17 98 18 93 19 97 21 94 22 96 23 95 24 7 25
REMARK SMILES IDX 1 26 2 27 3 28 99 29 4 30 5 31 6 32 18 33 19 34 20 35 21 36
REMARK SMILES IDX 22 38 23 39 24 40 88 41 25 42 87 43 26 44 27 45 28 46 81 47
REMARK SMILES IDX 29 48 86 49 80 50 82 51 30 52 85 53 79 54 78 55 31 57 65 58
REMARK SMILES IDX 44 59 64 60 45 61 48 62 63 63 83 64 46 65 47 66 62 68 84 69
REMARK SMILES IDX 49 70 32 71 33 72 42 73 34 74 35 75 41 76 43 77 36 78 37 79
REMARK SMILES IDX 38 80 39 81 40 82 66 83 67 84 76 85 68 86 69 87 75 88 77 89
REMARK SMILES IDX 70 90 71 91 72 92 73 93 74 94 50 95 51 96 60 97 52 98 53 99
REMARK SMILES IDX 59 100 61 101 54 102 55 103 56 104 57 105 58 106
REMARK H PARENT 13 8 9 13 9 14 92 20 20 37 82 56 48 67
REMARK Flexibility Score: inf
ROOT
ATOM      1  C   UNL A   1      35.945  21.737  24.421  1.00  0.00     0.002 C 
ENDROOT
BRANCH   1   2
ATOM      2  C   UNL A   1      34.989  22.585  23.563  1.00  0.00     0.002 C 
BRANCH   2   3
ATOM      3  C   UNL A   1      33.961  23.411  24.323  1.00  0.00     0.021 C 
BRANCH   3   4
ATOM      4  C   UNL A   1      34.090  23.253  25.830  1.00  0.00     0.116 C 
BRANCH   4   5
ATOM      5  N   UNL A   1      32.832  23.516  26.504  1.00  0.00    -0.351 N 
ATOM      6  C   UNL A   1      31.928  24.528  26.497  1.00  0.00     0.278 C 
ATOM      7  O   UNL A   1      30.965  24.379  27.267  1.00  0.00    -0.268 OA
ATOM      8  H   UNL A   1      32.570  22.785  27.109  1.00  0.00     0.163 HD
BRANCH   6   9
ATOM      9  C   UNL A   1      31.929  25.745  25.540  1.00  0.00     0.277 C 
ATOM     10  C   UNL A   1      33.203  27.931  25.354  1.00  0.00     0.262 C 
ATOM     11  N   UNL A   1      32.947  26.670  26.083  1.00  0.00    -0.325 N 
ATOM     12  C   UNL A   1      31.946  28.402  24.646  1.00  0.00     0.083 A 
ATOM     13  H   UNL A   1      32.656  26.919  27.028  1.00  0.00     0.347 HD
ATOM     14  H   UNL A   1      33.825  26.153  26.010  1.00  0.00     0.347 HD
ATOM     15  C   UNL A   1      30.767  27.691  24.583  1.00  0.00    -0.006 A 
ATOM     16  N   UNL A   1      31.763  29.513  23.855  1.00  0.00    -0.353 N 
ATOM     17  C   UNL A   1      30.602  26.457  25.359  1.00  0.00     0.114 C 
ATOM     18  C   UNL A   1      29.839  28.361  23.769  1.00  0.00     0.003 A 
ATOM     19  C   UNL A   1      30.471  29.527  23.340  1.00  0.00     0.046 A 
ATOM     20  H   UNL A   1      32.447  30.199  23.679  1.00  0.00     0.166 HD
ATOM     21  C   UNL A   1      28.520  28.081  23.366  1.00  0.00     0.010 A 
ATOM     22  C   UNL A   1      29.806  30.449  22.519  1.00  0.00     0.026 A 
ATOM     23  C   UNL A   1      27.853  28.985  22.543  1.00  0.00     0.001 A 
ATOM     24  C   UNL A   1      28.487  30.154  22.132  1.00  0.00     0.002 A 
BRANCH  10  25
ATOM     25  C   UNL A   1      33.817  28.858  26.420  1.00  0.00     0.019 A 
ATOM     26  C   UNL A   1      37.300  29.828  27.704  1.00  0.00     0.044 C 
ATOM     27  C   UNL A   1      35.820  29.833  27.466  1.00  0.00    -0.051 A 
ATOM     28  C   UNL A   1      35.050  30.882  27.970  1.00  0.00     0.004 A 
ATOM     29  C   UNL A   1      35.203  28.840  26.686  1.00  0.00     0.014 A 
ATOM     30  C   UNL A   1      33.680  30.919  27.736  1.00  0.00     0.004 A 
ATOM     31  C   UNL A   1      33.044  29.913  26.989  1.00  0.00    -0.042 A 
ATOM     32  C   UNL A   1      31.573  30.113  26.713  1.00  0.00     0.045 C 
ENDBRANCH  10  25
ENDBRANCH   6   9
ENDBRANCH   4   5
ENDBRANCH   3   4
ENDBRANCH   2   3
ENDBRANCH   1   2
BRANCH   1  33
ATOM     33  C   UNL A   1      37.445  22.085  24.514  1.00  0.00     0.021 C 
BRANCH  33  34
ATOM     34  C   UNL A   1      38.105  22.256  25.886  1.00  0.00     0.116 C 
BRANCH  34  35
ATOM     35  N   UNL A   1      39.530  21.907  25.902  1.00  0.00    -0.352 N 
ATOM     36  C   UNL A   1      40.681  22.648  26.140  1.00  0.00     0.251 C 
ATOM     37  H   UNL A   1      39.705  20.958  25.708  1.00  0.00     0.163 HD
ATOM     38  O   UNL A   1      41.760  22.210  25.771  1.00  0.00    -0.269 OA
BRANCH  36  39
ATOM     39  C   UNL A   1      40.613  23.944  26.854  1.00  0.00     0.039 A 
ATOM     40  C   UNL A   1      39.621  24.905  26.633  1.00  0.00     0.014 A 
ATOM     41  C   UNL A   1      41.622  24.228  27.753  1.00  0.00     0.014 A 
ATOM     42  C   UNL A   1      39.710  26.128  27.307  1.00  0.00     0.010 A 
ATOM     43  C   UNL A   1      41.550  25.270  28.616  1.00  0.00     0.010 A 
ATOM     44  C   UNL A   1      40.711  26.301  28.276  1.00  0.00    -0.014 A 
BRANCH  44  45
ATOM     45  C   UNL A   1      40.934  27.524  29.017  1.00  0.00     0.031 A 
ATOM     46  C   UNL A   1      41.981  28.381  28.438  1.00  0.00     0.074 A 
ATOM     47  C   UNL A   1      40.053  28.009  29.922  1.00  0.00     0.049 A 
ATOM     48  N   UNL A   1      43.175  28.567  28.884  1.00  0.00    -0.248 NA
ATOM     49  C   UNL A   1      41.736  28.958  27.106  1.00  0.00     0.031 C 
ATOM     50  C   UNL A   1      38.724  27.498  30.292  1.00  0.00     0.029 A 
ATOM     51  N   UNL A   1      40.127  29.167  30.626  1.00  0.00    -0.354 N 
ATOM     52  C   UNL A   1      43.746  29.490  28.021  1.00  0.00     0.074 A 
ATOM     53  C   UNL A   1      42.929  29.489  26.835  1.00  0.00     0.031 C 
ATOM     54  C   UNL A   1      38.049  28.449  30.977  1.00  0.00     0.029 A 
ATOM     55  C   UNL A   1      38.941  29.567  31.227  1.00  0.00     0.049 A 
ATOM     56  H   UNL A   1      40.960  29.685  30.704  1.00  0.00     0.167 HD
ATOM     57  C   UNL A   1      44.676  30.380  28.461  1.00  0.00     0.037 A 
ATOM     58  C   UNL A   1      38.715  30.761  31.832  1.00  0.00     0.037 A 
ATOM     59  C   UNL A   1      45.155  30.028  29.778  1.00  0.00     0.049 A 
ATOM     60  C   UNL A   1      40.051  31.335  32.163  1.00  0.00     0.074 A 
ATOM     61  C   UNL A   1      45.716  28.888  30.325  1.00  0.00     0.029 A 
ATOM     62  N   UNL A   1      44.692  30.760  30.849  1.00  0.00    -0.354 N 
ATOM     63  N   UNL A   1      40.885  30.804  33.020  1.00  0.00    -0.248 NA
ATOM     64  C   UNL A   1      40.656  32.234  31.191  1.00  0.00     0.031 C 
ATOM     65  C   UNL A   1      45.111  28.759  31.610  1.00  0.00     0.029 A 
ATOM     66  C   UNL A   1      44.280  29.864  31.805  1.00  0.00     0.049 A 
ATOM     67  H   UNL A   1      44.663  31.741  30.916  1.00  0.00     0.167 HD
ATOM     68  C   UNL A   1      42.141  30.959  32.445  1.00  0.00     0.074 A 
ATOM     69  C   UNL A   1      41.944  31.923  31.364  1.00  0.00     0.031 C 
ATOM     70  C   UNL A   1      43.160  30.084  32.701  1.00  0.00     0.037 A 
BRANCH  57  71
ATOM     71  C   UNL A   1      44.884  31.747  27.862  1.00  0.00     0.058 A 
ATOM     72  C   UNL A   1      46.096  32.028  27.204  1.00  0.00     0.135 A 
ATOM     73  C   UNL A   1      44.052  32.862  28.116  1.00  0.00     0.135 A 
ATOM     74  F   UNL A   1      46.968  31.045  26.929  1.00  0.00    -0.206 F 
ATOM     75  C   UNL A   1      46.481  33.327  26.877  1.00  0.00     0.059 A 
ATOM     76  C   UNL A   1      44.387  34.156  27.740  1.00  0.00     0.059 A 
ATOM     77  F   UNL A   1      42.925  32.771  28.832  1.00  0.00    -0.206 F 
ATOM     78  C   UNL A   1      45.623  34.385  27.163  1.00  0.00     0.060 A 
BRANCH  78  79
ATOM     79  S   UNL A   1      46.160  36.072  26.844  1.00  0.00     0.124 S 
ATOM     80  O   UNL A   1      46.828  35.921  25.556  1.00  0.00    -0.237 OA
ATOM     81  O   UNL A   1      44.894  36.796  26.829  1.00  0.00    -0.237 OA
ATOM     82  O   UNL A   1      47.031  36.366  27.978  1.00  0.00    -0.744 OA
ENDBRANCH  78  79
ENDBRANCH  57  71
BRANCH  58  83
ATOM     83  C   UNL A   1      37.462  31.571  31.820  1.00  0.00     0.058 A 
ATOM     84  C   UNL A   1      36.744  31.823  33.004  1.00  0.00     0.135 A 
ATOM     85  C   UNL A   1      37.091  32.343  30.699  1.00  0.00     0.135 A 
ATOM     86  F   UNL A   1      37.042  31.153  34.128  1.00  0.00    -0.206 F 
ATOM     87  C   UNL A   1      35.755  32.812  33.084  1.00  0.00     0.059 A 
ATOM     88  C   UNL A   1      36.101  33.324  30.752  1.00  0.00     0.059 A 
ATOM     89  F   UNL A   1      37.745  32.234  29.533  1.00  0.00    -0.206 F 
ATOM     90  C   UNL A   1      35.453  33.572  31.955  1.00  0.00     0.060 A 
BRANCH  90  91
ATOM     91  S   UNL A   1      34.303  34.962  32.094  1.00  0.00     0.124 S 
ATOM     92  O   UNL A   1      34.075  35.306  30.696  1.00  0.00    -0.237 OA
ATOM     93  O   UNL A   1      33.176  34.360  32.796  1.00  0.00    -0.237 OA
ATOM     94  O   UNL A   1      35.056  35.949  32.863  1.00  0.00    -0.744 OA
ENDBRANCH  90  91
ENDBRANCH  58  83
BRANCH  70  95
ATOM     95  C   UNL A   1      43.016  29.109  33.846  1.00  0.00     0.058 A 
ATOM     96  C   UNL A   1      43.245  29.422  35.199  1.00  0.00     0.135 A 
ATOM     97  C   UNL A   1      42.453  27.851  33.576  1.00  0.00     0.135 A 
ATOM     98  F   UNL A   1      43.682  30.636  35.562  1.00  0.00    -0.206 F 
ATOM     99  C   UNL A   1      42.962  28.519  36.226  1.00  0.00     0.059 A 
ATOM    100  C   UNL A   1      42.132  26.946  34.586  1.00  0.00     0.059 A 
ATOM    101  F   UNL A   1      42.151  27.508  32.313  1.00  0.00    -0.206 F 
ATOM    102  C   UNL A   1      42.401  27.283  35.910  1.00  0.00     0.060 A 
BRANCH 102 103
ATOM    103  S   UNL A   1      41.954  26.152  37.246  1.00  0.00     0.124 S 
ATOM    104  O   UNL A   1      42.038  24.852  36.588  1.00  0.00    -0.237 OA
ATOM    105  O   UNL A   1      42.981  26.422  38.249  1.00  0.00    -0.237 OA
ATOM    106  O   UNL A   1      40.607  26.576  37.618  1.00  0.00    -0.744 OA
ENDBRANCH 102 103
ENDBRANCH  70  95
ENDBRANCH  44  45
ENDBRANCH  36  39
ENDBRANCH  34  35
ENDBRANCH  33  34
ENDBRANCH   1  33
TORSDOF 17
ENDMDL
MODEL 3
REMARK VINA RESULT:     -12.4      1.581      3.460
REMARK SMILES Cc1ccc(C)c([C@H]2[NH2+][C@@H](C(=O)NCCCCCCNC(=O)c3ccc(-c4c5nc(c(-c6c(F)cc(S(=O)(=O)[O-])cc6F)c6ccc([nH]6)c(-c6c(F)cc(S(=O)(=O)[O-])cc6F)c6nc(c(-c7c(F)cc(S(=O)(=O)[O-])cc7F)c7ccc4[nH]7)C=C6)C=C5)cc3)Cc3c2[nH]c2ccccc32)c1
REMARK SMILES IDX 17 1 16 2 15 3 14 4 13 5 11 6 12 7 10 9 8 10 9 11 91 12
REMARK SMILES IDX 90 15 92 16 89 17 98 18 93 19 97 21 94 22 96 23 95 24 7 25
REMARK SMILES IDX 1 26 2 27 3 28 99 29 4 30 5 31 6 32 18 33 19 34 20 35 21 36
REMARK SMILES IDX 22 38 23 39 24 40 88 41 25 42 87 43 26 44 27 45 28 46 81 47
REMARK SMILES IDX 29 48 86 49 80 50 82 51 30 52 85 53 79 54 78 55 31 57 65 58
REMARK SMILES IDX 44 59 64 60 45 61 48 62 63 63 83 64 46 65 47 66 62 68 84 69
REMARK SMILES IDX 49 70 32 71 33 72 42 73 34 74 35 75 41 76 43 77 36 78 37 79
REMARK SMILES IDX 38 80 39 81 40 82 66 83 67 84 76 85 68 86 69 87 75 88 77 89
REMARK SMILES IDX 70 90 71 91 72 92 73 93 74 94 50 95 51 96 60 97 52 98 53 99
REMARK SMILES IDX 59 100 61 101 54 102 55 103 56 104 57 105 58 106
REMARK H PARENT 13 8 9 13 9 14 92 20 20 37 82 56 48 67
REMARK Flexibility Score: inf
ROOT
ATOM      1  C   UNL A   1      41.085  20.935  27.664  1.00  0.00     0.002 C 
ENDROOT
BRANCH   1   2
ATOM      2  C   UNL A   1      41.125  22.456  27.898  1.00  0.00     0.002 C 
BRANCH   2   3
ATOM      3  C   UNL A   1      40.570  23.321  26.775  1.00  0.00     0.021 C 
BRANCH   3   4
ATOM      4  C   UNL A   1      39.052  23.263  26.695  1.00  0.00     0.116 C 
BRANCH   4   5
ATOM      5  N   UNL A   1      38.606  22.276  25.729  1.00  0.00    -0.351 N 
ATOM      6  C   UNL A   1      37.407  21.752  25.370  1.00  0.00     0.278 C 
ATOM      7  O   UNL A   1      37.457  20.875  24.492  1.00  0.00    -0.268 OA
ATOM      8  H   UNL A   1      39.350  21.896  25.209  1.00  0.00     0.163 HD
BRANCH   6   9
ATOM      9  C   UNL A   1      36.018  22.239  25.852  1.00  0.00     0.277 C 
ATOM     10  C   UNL A   1      33.637  21.368  25.768  1.00  0.00     0.262 C 
ATOM     11  N   UNL A   1      35.064  21.195  25.420  1.00  0.00    -0.325 N 
ATOM     12  C   UNL A   1      33.280  22.841  25.841  1.00  0.00     0.083 A 
ATOM     13  H   UNL A   1      35.123  21.134  24.403  1.00  0.00     0.347 HD
ATOM     14  H   UNL A   1      35.351  20.361  25.932  1.00  0.00     0.347 HD
ATOM     15  C   UNL A   1      34.184  23.874  25.726  1.00  0.00    -0.006 A 
ATOM     16  N   UNL A   1      32.072  23.424  26.146  1.00  0.00    -0.353 N 
ATOM     17  C   UNL A   1      35.579  23.604  25.357  1.00  0.00     0.114 C 
ATOM     18  C   UNL A   1      33.543  25.106  25.941  1.00  0.00     0.003 A 
ATOM     19  C   UNL A   1      32.201  24.808  26.176  1.00  0.00     0.046 A 
ATOM     20  H   UNL A   1      31.236  22.933  26.319  1.00  0.00     0.166 HD
ATOM     21  C   UNL A   1      33.986  26.442  25.952  1.00  0.00     0.010 A 
ATOM     22  C   UNL A   1      31.266  25.827  26.406  1.00  0.00     0.026 A 
ATOM     23  C   UNL A   1      33.067  27.461  26.190  1.00  0.00     0.001 A 
ATOM     24  C   UNL A   1      31.725  27.155  26.407  1.00  0.00     0.002 A 
BRANCH  10  25
ATOM     25  C   UNL A   1      32.896  20.499  24.735  1.00  0.00     0.019 A 
ATOM     26  C   UNL A   1      31.835  20.710  21.053  1.00  0.00     0.044 C 
ATOM     27  C   UNL A   1      32.128  20.168  22.420  1.00  0.00    -0.051 A 
ATOM     28  C   UNL A   1      32.019  18.795  22.648  1.00  0.00     0.004 A 
ATOM     29  C   UNL A   1      32.577  21.005  23.456  1.00  0.00     0.014 A 
ATOM     30  C   UNL A   1      32.313  18.270  23.902  1.00  0.00     0.004 A 
ATOM     31  C   UNL A   1      32.728  19.100  24.958  1.00  0.00    -0.042 A 
ATOM     32  C   UNL A   1      33.119  18.407  26.240  1.00  0.00     0.045 C 
ENDBRANCH  10  25
ENDBRANCH   6   9
ENDBRANCH   4   5
ENDBRANCH   3   4
ENDBRANCH   2   3
ENDBRANCH   1   2
BRANCH   1  33
ATOM     33  C   UNL A   1      42.316  20.187  27.109  1.00  0.00     0.021 C 
BRANCH  33  34
ATOM     34  C   UNL A   1      42.922  20.605  25.766  1.00  0.00     0.116 C 
BRANCH  34  35
ATOM     35  N   UNL A   1      44.376  20.800  25.811  1.00  0.00    -0.352 N 
ATOM     36  C   UNL A   1      45.173  21.932  25.932  1.00  0.00     0.251 C 
ATOM     37  H   UNL A   1      44.888  19.963  25.744  1.00  0.00     0.163 HD
ATOM     38  O   UNL A   1      46.349  21.871  25.612  1.00  0.00    -0.269 OA
BRANCH  36  39
ATOM     39  C   UNL A   1      44.615  23.197  26.466  1.00  0.00     0.039 A 
ATOM     40  C   UNL A   1      43.912  24.126  25.694  1.00  0.00     0.014 A 
ATOM     41  C   UNL A   1      44.853  23.485  27.795  1.00  0.00     0.014 A 
ATOM     42  C   UNL A   1      43.506  25.325  26.292  1.00  0.00     0.010 A 
ATOM     43  C   UNL A   1      44.216  24.489  28.444  1.00  0.00     0.010 A 
ATOM     44  C   UNL A   1      43.702  25.499  27.670  1.00  0.00    -0.014 A 
BRANCH  44  45
ATOM     45  C   UNL A   1      43.362  26.701  28.403  1.00  0.00     0.031 A 
ATOM     46  C   UNL A   1      44.313  27.805  28.196  1.00  0.00     0.074 A 
ATOM     47  C   UNL A   1      42.136  26.922  28.929  1.00  0.00     0.049 A 
ATOM     48  N   UNL A   1      45.201  28.238  29.023  1.00  0.00    -0.248 NA
ATOM     49  C   UNL A   1      44.415  28.379  26.844  1.00  0.00     0.031 C 
ATOM     50  C   UNL A   1      40.920  26.100  28.831  1.00  0.00     0.029 A 
ATOM     51  N   UNL A   1      41.689  28.028  29.577  1.00  0.00    -0.354 N 
ATOM     52  C   UNL A   1      45.802  29.311  28.383  1.00  0.00     0.074 A 
ATOM     53  C   UNL A   1      45.469  29.184  26.987  1.00  0.00     0.031 C 
ATOM     54  C   UNL A   1      39.847  26.832  29.207  1.00  0.00     0.029 A 
ATOM     55  C   UNL A   1      40.310  28.112  29.715  1.00  0.00     0.049 A 
ATOM     56  H   UNL A   1      42.298  28.719  29.923  1.00  0.00     0.167 HD
ATOM     57  C   UNL A   1      46.287  30.367  29.089  1.00  0.00     0.037 A 
ATOM     58  C   UNL A   1      39.616  29.188  30.165  1.00  0.00     0.037 A 
ATOM     59  C   UNL A   1      46.350  30.068  30.502  1.00  0.00     0.049 A 
ATOM     60  C   UNL A   1      40.582  30.037  30.921  1.00  0.00     0.074 A 
ATOM     61  C   UNL A   1      46.938  29.061  31.247  1.00  0.00     0.029 A 
ATOM     62  N   UNL A   1      45.388  30.616  31.320  1.00  0.00    -0.354 N 
ATOM     63  N   UNL A   1      41.168  29.669  32.031  1.00  0.00    -0.248 NA
ATOM     64  C   UNL A   1      41.257  31.101  30.191  1.00  0.00     0.031 C 
ATOM     65  C   UNL A   1      45.975  28.730  32.245  1.00  0.00     0.029 A 
ATOM     66  C   UNL A   1      44.893  29.601  32.103  1.00  0.00     0.049 A 
ATOM     67  H   UNL A   1      45.109  31.560  31.342  1.00  0.00     0.167 HD
ATOM     68  C   UNL A   1      42.472  30.138  31.923  1.00  0.00     0.074 A 
ATOM     69  C   UNL A   1      42.440  31.086  30.811  1.00  0.00     0.031 C 
ATOM     70  C   UNL A   1      43.515  29.510  32.546  1.00  0.00     0.037 A 
BRANCH  57  71
ATOM     71  C   UNL A   1      46.362  31.775  28.556  1.00  0.00     0.058 A 
ATOM     72  C   UNL A   1      45.180  32.406  28.125  1.00  0.00     0.135 A 
ATOM     73  C   UNL A   1      47.566  32.437  28.223  1.00  0.00     0.135 A 
ATOM     74  F   UNL A   1      43.981  31.854  28.373  1.00  0.00    -0.206 F 
ATOM     75  C   UNL A   1      45.195  33.576  27.368  1.00  0.00     0.059 A 
ATOM     76  C   UNL A   1      47.601  33.637  27.527  1.00  0.00     0.059 A 
ATOM     77  F   UNL A   1      48.771  31.905  28.463  1.00  0.00    -0.206 F 
ATOM     78  C   UNL A   1      46.414  34.176  27.064  1.00  0.00     0.060 A 
BRANCH  78  79
ATOM     79  S   UNL A   1      46.446  35.623  25.996  1.00  0.00     0.124 S 
ATOM     80  O   UNL A   1      45.217  36.300  26.394  1.00  0.00    -0.237 OA
ATOM     81  O   UNL A   1      47.692  36.268  26.396  1.00  0.00    -0.237 OA
ATOM     82  O   UNL A   1      46.446  35.048  24.654  1.00  0.00    -0.744 OA
ENDBRANCH  78  79
ENDBRANCH  57  71
BRANCH  58  83
ATOM     83  C   UNL A   1      38.292  29.687  29.693  1.00  0.00     0.058 A 
ATOM     84  C   UNL A   1      37.302  30.104  30.602  1.00  0.00     0.135 A 
ATOM     85  C   UNL A   1      38.067  30.023  28.341  1.00  0.00     0.135 A 
ATOM     86  F   UNL A   1      37.440  29.849  31.912  1.00  0.00    -0.206 F 
ATOM     87  C   UNL A   1      36.186  30.850  30.203  1.00  0.00     0.059 A 
ATOM     88  C   UNL A   1      36.957  30.754  27.919  1.00  0.00     0.059 A 
ATOM     89  F   UNL A   1      38.971  29.731  27.393  1.00  0.00    -0.206 F 
ATOM     90  C   UNL A   1      36.032  31.187  28.859  1.00  0.00     0.060 A 
BRANCH  90  91
ATOM     91  S   UNL A   1      34.688  32.294  28.363  1.00  0.00     0.124 S 
ATOM     92  O   UNL A   1      35.404  33.324  27.620  1.00  0.00    -0.237 OA
ATOM     93  O   UNL A   1      33.838  31.411  27.572  1.00  0.00    -0.237 OA
ATOM     94  O   UNL A   1      34.117  32.726  29.636  1.00  0.00    -0.744 OA
ENDBRANCH  90  91
ENDBRANCH  58  83
BRANCH  70  95
ATOM     95  C   UNL A   1      43.217  28.470  33.601  1.00  0.00     0.058 A 
ATOM     96  C   UNL A   1      42.851  28.758  34.929  1.00  0.00     0.135 A 
ATOM     97  C   UNL A   1      43.130  27.127  33.198  1.00  0.00     0.135 A 
ATOM     98  F   UNL A   1      42.801  30.021  35.373  1.00  0.00    -0.206 F 
ATOM     99  C   UNL A   1      42.453  27.758  35.820  1.00  0.00     0.059 A 
ATOM    100  C   UNL A   1      42.705  26.118  34.060  1.00  0.00     0.059 A 
ATOM    101  F   UNL A   1      43.407  26.787  31.928  1.00  0.00    -0.206 F 
ATOM    102  C   UNL A   1      42.379  26.440  35.375  1.00  0.00     0.060 A 
BRANCH 102 103
ATOM    103  S   UNL A   1      41.781  25.162  36.503  1.00  0.00     0.124 S 
ATOM    104  O   UNL A   1      42.928  24.969  37.384  1.00  0.00    -0.237 OA
ATOM    105  O   UNL A   1      40.614  25.794  37.111  1.00  0.00    -0.237 OA
ATOM    106  O   UNL A   1      41.479  24.039  35.619  1.00  0.00    -0.744 OA
ENDBRANCH 102 103
ENDBRANCH  70  95
ENDBRANCH  44  45
ENDBRANCH  36  39
ENDBRANCH  34  35
ENDBRANCH  33  34
ENDBRANCH   1  33
TORSDOF 17
ENDMDL
