MODEL 1
REMARK VINA RESULT:     -11.4      0.000      0.000
REMARK SMILES O=C(NCCCCCCNC(=O)c1cc(-c2cc3ccccc3s2)ccn1)c1ccc(-c2c3nc(c(-c4c(F)cc(S(=O)(=O)[O-])cc4F)c4ccc([nH]4)c(-c4c(F)cc(S(=O)(=O)[O-])cc4F)c4nc(c(-c5c(F)cc(S(=O)(=O)[O-])cc5F)c5ccc2[nH]5)C=C4)C=C3)cc1
REMARK SMILES IDX 5 1 4 2 3 3 1 4 2 5 28 7 29 8 93 9 30 10 92 11 31 12 32 13
REMARK SMILES IDX 33 14 86 15 34 16 91 17 85 18 87 19 35 20 90 21 84 22 83 23
REMARK SMILES IDX 36 25 70 26 49 27 69 28 50 29 53 30 68 31 88 32 51 33 52 34
REMARK SMILES IDX 67 36 89 37 54 38 37 39 38 40 47 41 39 42 40 43 46 44 48 45
REMARK SMILES IDX 41 46 42 47 43 48 44 49 45 50 71 51 72 52 81 53 73 54 74 55
REMARK SMILES IDX 80 56 82 57 75 58 76 59 77 60 78 61 79 62 55 63 56 64 65 65
REMARK SMILES IDX 57 66 58 67 64 68 66 69 59 70 60 71 61 72 62 73 63 74 6 75
REMARK SMILES IDX 7 76 8 77 9 78 10 79 11 80 12 82 13 83 14 84 27 85 15 86
REMARK SMILES IDX 26 87 25 88 16 89 17 90 24 91 18 92 23 93 19 94 22 95 20 96
REMARK SMILES IDX 21 97
REMARK H PARENT 3 6 87 24 53 35 10 81
REMARK Flexibility Score: inf
ROOT
ATOM      1  C   UNL A   1      32.846  26.894  26.236  1.00  0.00     0.021 C 
ENDROOT
BRANCH   1   2
ATOM      2  C   UNL A   1      34.000  27.885  26.145  1.00  0.00     0.116 C 
BRANCH   2   3
ATOM      3  N   UNL A   1      33.597  29.253  26.426  1.00  0.00    -0.352 N 
ATOM      4  O   UNL A   1      33.628  31.250  27.470  1.00  0.00    -0.269 OA
ATOM      5  C   UNL A   1      34.190  30.179  27.250  1.00  0.00     0.251 C 
ATOM      6  H   UNL A   1      32.784  29.558  25.960  1.00  0.00     0.163 HD
BRANCH   5   7
ATOM      7  C   UNL A   1      35.490  29.877  27.892  1.00  0.00     0.039 A 
ATOM      8  C   UNL A   1      35.547  29.384  29.199  1.00  0.00     0.014 A 
ATOM      9  C   UNL A   1      36.670  30.082  27.171  1.00  0.00     0.014 A 
ATOM     10  C   UNL A   1      36.778  29.225  29.825  1.00  0.00     0.010 A 
ATOM     11  C   UNL A   1      37.909  29.847  27.778  1.00  0.00     0.010 A 
ATOM     12  C   UNL A   1      37.974  29.445  29.120  1.00  0.00    -0.014 A 
BRANCH  12  13
ATOM     13  C   UNL A   1      39.271  29.183  29.795  1.00  0.00     0.031 A 
ATOM     14  C   UNL A   1      39.676  29.941  31.031  1.00  0.00     0.074 A 
ATOM     15  C   UNL A   1      40.071  28.216  29.303  1.00  0.00     0.049 A 
ATOM     16  N   UNL A   1      40.756  29.808  31.760  1.00  0.00    -0.248 NA
ATOM     17  C   UNL A   1      38.756  30.984  31.510  1.00  0.00     0.031 C 
ATOM     18  C   UNL A   1      39.793  27.429  28.098  1.00  0.00     0.029 A 
ATOM     19  N   UNL A   1      41.264  27.716  29.757  1.00  0.00    -0.354 N 
ATOM     20  C   UNL A   1      40.652  30.749  32.778  1.00  0.00     0.074 A 
ATOM     21  C   UNL A   1      39.415  31.469  32.555  1.00  0.00     0.031 C 
ATOM     22  C   UNL A   1      40.765  26.519  27.933  1.00  0.00     0.029 A 
ATOM     23  C   UNL A   1      41.758  26.690  28.987  1.00  0.00     0.049 A 
ATOM     24  H   UNL A   1      41.723  28.060  30.558  1.00  0.00     0.167 HD
ATOM     25  C   UNL A   1      41.501  30.981  33.808  1.00  0.00     0.037 A 
ATOM     26  C   UNL A   1      42.890  25.973  29.105  1.00  0.00     0.037 A 
ATOM     27  C   UNL A   1      42.729  30.258  34.025  1.00  0.00     0.049 A 
ATOM     28  C   UNL A   1      43.818  26.256  30.251  1.00  0.00     0.074 A 
ATOM     29  C   UNL A   1      43.657  30.420  35.041  1.00  0.00     0.029 A 
ATOM     30  N   UNL A   1      43.200  29.234  33.216  1.00  0.00    -0.354 N 
ATOM     31  N   UNL A   1      43.692  27.141  31.211  1.00  0.00    -0.248 NA
ATOM     32  C   UNL A   1      45.040  25.447  30.332  1.00  0.00     0.031 C 
ATOM     33  C   UNL A   1      44.702  29.513  34.830  1.00  0.00     0.029 A 
ATOM     34  C   UNL A   1      44.407  28.760  33.705  1.00  0.00     0.049 A 
ATOM     35  H   UNL A   1      42.744  28.893  32.413  1.00  0.00     0.167 HD
ATOM     36  C   UNL A   1      44.815  26.990  32.015  1.00  0.00     0.074 A 
ATOM     37  C   UNL A   1      45.595  25.911  31.442  1.00  0.00     0.031 C 
ATOM     38  C   UNL A   1      45.171  27.686  33.123  1.00  0.00     0.037 A 
BRANCH  25  39
ATOM     39  C   UNL A   1      41.135  32.065  34.785  1.00  0.00     0.058 A 
ATOM     40  C   UNL A   1      40.348  31.795  35.916  1.00  0.00     0.135 A 
ATOM     41  C   UNL A   1      41.616  33.374  34.620  1.00  0.00     0.135 A 
ATOM     42  F   UNL A   1      39.850  30.565  36.114  1.00  0.00    -0.206 F 
ATOM     43  C   UNL A   1      40.034  32.788  36.838  1.00  0.00     0.059 A 
ATOM     44  C   UNL A   1      41.333  34.379  35.543  1.00  0.00     0.059 A 
ATOM     45  F   UNL A   1      42.375  33.686  33.559  1.00  0.00    -0.206 F 
ATOM     46  C   UNL A   1      40.531  34.078  36.642  1.00  0.00     0.060 A 
BRANCH  46  47
ATOM     47  S   UNL A   1      40.123  35.353  37.855  1.00  0.00     0.124 S 
ATOM     48  O   UNL A   1      41.313  35.341  38.700  1.00  0.00    -0.237 OA
ATOM     49  O   UNL A   1      39.953  36.538  37.021  1.00  0.00    -0.237 OA
ATOM     50  O   UNL A   1      38.904  34.849  38.479  1.00  0.00    -0.744 OA
ENDBRANCH  46  47
ENDBRANCH  25  39
BRANCH  26  51
ATOM     51  C   UNL A   1      43.208  24.923  28.103  1.00  0.00     0.058 A 
ATOM     52  C   UNL A   1      43.831  25.243  26.889  1.00  0.00     0.135 A 
ATOM     53  C   UNL A   1      42.907  23.574  28.352  1.00  0.00     0.135 A 
ATOM     54  F   UNL A   1      44.136  26.518  26.607  1.00  0.00    -0.206 F 
ATOM     55  C   UNL A   1      44.132  24.265  25.947  1.00  0.00     0.059 A 
ATOM     56  C   UNL A   1      43.222  22.576  27.438  1.00  0.00     0.059 A 
ATOM     57  F   UNL A   1      42.328  23.217  29.509  1.00  0.00    -0.206 F 
ATOM     58  C   UNL A   1      43.822  22.933  26.231  1.00  0.00     0.060 A 
BRANCH  58  59
ATOM     59  S   UNL A   1      44.251  21.661  25.025  1.00  0.00     0.124 S 
ATOM     60  O   UNL A   1      43.217  20.664  25.270  1.00  0.00    -0.237 OA
ATOM     61  O   UNL A   1      44.154  22.385  23.761  1.00  0.00    -0.237 OA
ATOM     62  O   UNL A   1      45.605  21.278  25.413  1.00  0.00    -0.744 OA
ENDBRANCH  58  59
ENDBRANCH  26  51
BRANCH  38  63
ATOM     63  C   UNL A   1      46.452  27.283  33.794  1.00  0.00     0.058 A 
ATOM     64  C   UNL A   1      47.677  27.876  33.451  1.00  0.00     0.135 A 
ATOM     65  C   UNL A   1      46.453  26.308  34.803  1.00  0.00     0.135 A 
ATOM     66  F   UNL A   1      47.731  28.807  32.486  1.00  0.00    -0.206 F 
ATOM     67  C   UNL A   1      48.866  27.494  34.065  1.00  0.00     0.059 A 
ATOM     68  C   UNL A   1      47.625  25.927  35.448  1.00  0.00     0.059 A 
ATOM     69  F   UNL A   1      45.305  25.717  35.173  1.00  0.00    -0.206 F 
ATOM     70  C   UNL A   1      48.829  26.516  35.061  1.00  0.00     0.060 A 
BRANCH  70  71
ATOM     71  S   UNL A   1      50.373  26.036  35.863  1.00  0.00     0.124 S 
ATOM     72  O   UNL A   1      50.708  24.811  35.144  1.00  0.00    -0.237 OA
ATOM     73  O   UNL A   1      51.236  27.183  35.599  1.00  0.00    -0.237 OA
ATOM     74  O   UNL A   1      49.987  25.859  37.260  1.00  0.00    -0.744 OA
ENDBRANCH  70  71
ENDBRANCH  38  63
ENDBRANCH  12  13
ENDBRANCH   5   7
ENDBRANCH   2   3
ENDBRANCH   1   2
BRANCH   1  75
ATOM     75  C   UNL A   1      31.457  27.470  25.960  1.00  0.00     0.002 C 
BRANCH  75  76
ATOM     76  C   UNL A   1      30.653  26.780  24.855  1.00  0.00     0.002 C 
BRANCH  76  77
ATOM     77  C   UNL A   1      30.694  27.445  23.476  1.00  0.00     0.021 C 
BRANCH  77  78
ATOM     78  C   UNL A   1      32.087  27.714  22.913  1.00  0.00     0.116 C 
BRANCH  78  79
ATOM     79  N   UNL A   1      32.306  27.073  21.627  1.00  0.00    -0.351 N 
ATOM     80  C   UNL A   1      32.697  25.777  21.361  1.00  0.00     0.269 C 
ATOM     81  H   UNL A   1      32.154  27.642  20.838  1.00  0.00     0.163 HD
ATOM     82  O   UNL A   1      32.903  25.429  20.200  1.00  0.00    -0.268 OA
BRANCH  80  83
ATOM     83  C   UNL A   1      32.848  24.812  22.486  1.00  0.00     0.128 A 
ATOM     84  C   UNL A   1      34.078  24.680  23.112  1.00  0.00     0.043 A 
ATOM     85  N   UNL A   1      31.759  24.060  22.790  1.00  0.00    -0.251 NA
ATOM     86  C   UNL A   1      34.234  23.668  24.060  1.00  0.00    -0.004 A 
ATOM     87  C   UNL A   1      31.925  23.120  23.742  1.00  0.00     0.112 A 
ATOM     88  C   UNL A   1      33.131  22.876  24.384  1.00  0.00     0.030 A 
BRANCH  86  89
ATOM     89  C   UNL A   1      35.555  23.375  24.613  1.00  0.00     0.036 A 
ATOM     90  C   UNL A   1      36.357  24.195  25.377  1.00  0.00     0.029 A 
ATOM     91  S   UNL A   1      36.273  21.843  24.381  1.00  0.00    -0.135 S 
ATOM     92  C   UNL A   1      37.542  23.543  25.853  1.00  0.00    -0.007 A 
ATOM     93  C   UNL A   1      37.620  22.231  25.381  1.00  0.00     0.035 A 
ATOM     94  C   UNL A   1      38.571  24.012  26.703  1.00  0.00     0.009 A 
ATOM     95  C   UNL A   1      38.691  21.385  25.731  1.00  0.00     0.019 A 
ATOM     96  C   UNL A   1      39.629  23.173  27.062  1.00  0.00     0.001 A 
ATOM     97  C   UNL A   1      39.687  21.873  26.579  1.00  0.00     0.001 A 
ENDBRANCH  86  89
ENDBRANCH  80  83
ENDBRANCH  78  79
ENDBRANCH  77  78
ENDBRANCH  76  77
ENDBRANCH  75  76
ENDBRANCH   1  75
TORSDOF 17
ENDMDL
MODEL 2
REMARK VINA RESULT:     -11.4      3.186      9.468
REMARK SMILES O=C(NCCCCCCNC(=O)c1cc(-c2cc3ccccc3s2)ccn1)c1ccc(-c2c3nc(c(-c4c(F)cc(S(=O)(=O)[O-])cc4F)c4ccc([nH]4)c(-c4c(F)cc(S(=O)(=O)[O-])cc4F)c4nc(c(-c5c(F)cc(S(=O)(=O)[O-])cc5F)c5ccc2[nH]5)C=C4)C=C3)cc1
REMARK SMILES IDX 5 1 4 2 3 3 1 4 2 5 28 7 29 8 93 9 30 10 92 11 31 12 32 13
REMARK SMILES IDX 33 14 86 15 34 16 91 17 85 18 87 19 35 20 90 21 84 22 83 23
REMARK SMILES IDX 36 25 70 26 49 27 69 28 50 29 53 30 68 31 88 32 51 33 52 34
REMARK SMILES IDX 67 36 89 37 54 38 37 39 38 40 47 41 39 42 40 43 46 44 48 45
REMARK SMILES IDX 41 46 42 47 43 48 44 49 45 50 71 51 72 52 81 53 73 54 74 55
REMARK SMILES IDX 80 56 82 57 75 58 76 59 77 60 78 61 79 62 55 63 56 64 65 65
REMARK SMILES IDX 57 66 58 67 64 68 66 69 59 70 60 71 61 72 62 73 63 74 6 75
REMARK SMILES IDX 7 76 8 77 9 78 10 79 11 80 12 82 13 83 14 84 27 85 15 86
REMARK SMILES IDX 26 87 25 88 16 89 17 90 24 91 18 92 23 93 19 94 22 95 20 96
REMARK SMILES IDX 21 97
REMARK H PARENT 3 6 87 24 53 35 10 81
REMARK Flexibility Score: inf
ROOT
ATOM      1  C   UNL A   1      38.926  22.804  26.546  1.00  0.00     0.021 C 
ENDROOT
BRANCH   1   2
ATOM      2  C   UNL A   1      40.168  23.495  27.096  1.00  0.00     0.116 C 
BRANCH   2   3
ATOM      3  N   UNL A   1      40.942  24.172  26.069  1.00  0.00    -0.352 N 
ATOM      4  O   UNL A   1      41.891  25.915  25.000  1.00  0.00    -0.269 OA
ATOM      5  C   UNL A   1      41.357  25.482  26.019  1.00  0.00     0.251 C 
ATOM      6  H   UNL A   1      41.204  23.614  25.301  1.00  0.00     0.163 HD
BRANCH   5   7
ATOM      7  C   UNL A   1      41.138  26.374  27.180  1.00  0.00     0.039 A 
ATOM      8  C   UNL A   1      41.917  27.520  27.361  1.00  0.00     0.014 A 
ATOM      9  C   UNL A   1      40.128  26.064  28.097  1.00  0.00     0.014 A 
ATOM     10  C   UNL A   1      41.778  28.275  28.521  1.00  0.00     0.010 A 
ATOM     11  C   UNL A   1      39.939  26.870  29.225  1.00  0.00     0.010 A 
ATOM     12  C   UNL A   1      40.781  27.966  29.462  1.00  0.00    -0.014 A 
BRANCH  12  13
ATOM     13  C   UNL A   1      40.606  28.844  30.647  1.00  0.00     0.031 A 
ATOM     14  C   UNL A   1      41.500  28.719  31.851  1.00  0.00     0.074 A 
ATOM     15  C   UNL A   1      39.651  29.794  30.610  1.00  0.00     0.049 A 
ATOM     16  N   UNL A   1      41.503  29.431  32.951  1.00  0.00    -0.248 NA
ATOM     17  C   UNL A   1      42.519  27.659  31.825  1.00  0.00     0.031 C 
ATOM     18  C   UNL A   1      38.710  29.996  29.505  1.00  0.00     0.029 A 
ATOM     19  N   UNL A   1      39.321  30.776  31.509  1.00  0.00    -0.354 N 
ATOM     20  C   UNL A   1      42.514  28.906  33.747  1.00  0.00     0.074 A 
ATOM     21  C   UNL A   1      43.084  27.793  33.018  1.00  0.00     0.031 C 
ATOM     22  C   UNL A   1      37.940  31.062  29.771  1.00  0.00     0.029 A 
ATOM     23  C   UNL A   1      38.295  31.585  31.085  1.00  0.00     0.049 A 
ATOM     24  H   UNL A   1      39.776  30.889  32.375  1.00  0.00     0.167 HD
ATOM     25  C   UNL A   1      42.934  29.322  34.967  1.00  0.00     0.037 A 
ATOM     26  C   UNL A   1      37.694  32.628  31.689  1.00  0.00     0.037 A 
ATOM     27  C   UNL A   1      42.363  30.433  35.686  1.00  0.00     0.049 A 
ATOM     28  C   UNL A   1      38.174  33.062  33.044  1.00  0.00     0.074 A 
ATOM     29  C   UNL A   1      42.721  30.931  36.928  1.00  0.00     0.029 A 
ATOM     30  N   UNL A   1      41.317  31.221  35.229  1.00  0.00    -0.354 N 
ATOM     31  N   UNL A   1      39.142  32.560  33.772  1.00  0.00    -0.248 NA
ATOM     32  C   UNL A   1      37.483  34.201  33.659  1.00  0.00     0.031 C 
ATOM     33  C   UNL A   1      41.873  32.002  37.233  1.00  0.00     0.029 A 
ATOM     34  C   UNL A   1      41.012  32.196  36.165  1.00  0.00     0.049 A 
ATOM     35  H   UNL A   1      40.858  31.105  34.365  1.00  0.00     0.167 HD
ATOM     36  C   UNL A   1      39.182  33.327  34.930  1.00  0.00     0.074 A 
ATOM     37  C   UNL A   1      38.157  34.343  34.791  1.00  0.00     0.031 C 
ATOM     38  C   UNL A   1      39.988  33.199  36.012  1.00  0.00     0.037 A 
BRANCH  25  39
ATOM     39  C   UNL A   1      44.070  28.571  35.607  1.00  0.00     0.058 A 
ATOM     40  C   UNL A   1      43.837  27.489  36.471  1.00  0.00     0.135 A 
ATOM     41  C   UNL A   1      45.404  28.901  35.317  1.00  0.00     0.135 A 
ATOM     42  F   UNL A   1      42.581  27.141  36.794  1.00  0.00    -0.206 F 
ATOM     43  C   UNL A   1      44.884  26.773  37.040  1.00  0.00     0.059 A 
ATOM     44  C   UNL A   1      46.468  28.183  35.858  1.00  0.00     0.059 A 
ATOM     45  F   UNL A   1      45.683  29.924  34.496  1.00  0.00    -0.206 F 
ATOM     46  C   UNL A   1      46.198  27.129  36.728  1.00  0.00     0.060 A 
BRANCH  46  47
ATOM     47  S   UNL A   1      47.547  26.182  37.468  1.00  0.00     0.124 S 
ATOM     48  O   UNL A   1      47.817  26.958  38.675  1.00  0.00    -0.237 OA
ATOM     49  O   UNL A   1      46.934  24.875  37.681  1.00  0.00    -0.237 OA
ATOM     50  O   UNL A   1      48.590  26.224  36.448  1.00  0.00    -0.744 OA
ENDBRANCH  46  47
ENDBRANCH  25  39
BRANCH  26  51
ATOM     51  C   UNL A   1      36.568  33.324  31.015  1.00  0.00     0.058 A 
ATOM     52  C   UNL A   1      35.250  33.183  31.471  1.00  0.00     0.135 A 
ATOM     53  C   UNL A   1      36.794  34.159  29.910  1.00  0.00     0.135 A 
ATOM     54  F   UNL A   1      34.985  32.393  32.523  1.00  0.00    -0.206 F 
ATOM     55  C   UNL A   1      34.191  33.832  30.845  1.00  0.00     0.059 A 
ATOM     56  C   UNL A   1      35.757  34.839  29.284  1.00  0.00     0.059 A 
ATOM     57  F   UNL A   1      38.042  34.341  29.449  1.00  0.00    -0.206 F 
ATOM     58  C   UNL A   1      34.455  34.658  29.750  1.00  0.00     0.060 A 
BRANCH  58  59
ATOM     59  S   UNL A   1      33.085  35.533  28.967  1.00  0.00     0.124 S 
ATOM     60  O   UNL A   1      33.789  36.557  28.205  1.00  0.00    -0.237 OA
ATOM     61  O   UNL A   1      32.449  34.477  28.184  1.00  0.00    -0.237 OA
ATOM     62  O   UNL A   1      32.304  36.013  30.102  1.00  0.00    -0.744 OA
ENDBRANCH  58  59
ENDBRANCH  26  51
BRANCH  38  63
ATOM     63  C   UNL A   1      39.803  34.195  37.119  1.00  0.00     0.058 A 
ATOM     64  C   UNL A   1      38.988  33.917  38.227  1.00  0.00     0.135 A 
ATOM     65  C   UNL A   1      40.461  35.434  37.081  1.00  0.00     0.135 A 
ATOM     66  F   UNL A   1      38.331  32.749  38.307  1.00  0.00    -0.206 F 
ATOM     67  C   UNL A   1      38.808  34.846  39.247  1.00  0.00     0.059 A 
ATOM     68  C   UNL A   1      40.314  36.369  38.100  1.00  0.00     0.059 A 
ATOM     69  F   UNL A   1      41.257  35.745  36.046  1.00  0.00    -0.206 F 
ATOM     70  C   UNL A   1      39.472  36.071  39.172  1.00  0.00     0.060 A 
BRANCH  70  71
ATOM     71  S   UNL A   1      39.244  37.266  40.506  1.00  0.00     0.124 S 
ATOM     72  O   UNL A   1      38.759  36.411  41.584  1.00  0.00    -0.237 OA
ATOM     73  O   UNL A   1      40.590  37.805  40.681  1.00  0.00    -0.237 OA
ATOM     74  O   UNL A   1      38.267  38.202  39.958  1.00  0.00    -0.744 OA
ENDBRANCH  70  71
ENDBRANCH  38  63
ENDBRANCH  12  13
ENDBRANCH   5   7
ENDBRANCH   2   3
ENDBRANCH   1   2
BRANCH   1  75
ATOM     75  C   UNL A   1      37.816  23.735  26.054  1.00  0.00     0.002 C 
BRANCH  75  76
ATOM     76  C   UNL A   1      36.909  23.172  24.956  1.00  0.00     0.002 C 
BRANCH  76  77
ATOM     77  C   UNL A   1      35.505  23.778  24.865  1.00  0.00     0.021 C 
BRANCH  77  78
ATOM     78  C   UNL A   1      34.441  22.887  24.232  1.00  0.00     0.116 C 
BRANCH  78  79
ATOM     79  N   UNL A   1      34.265  23.143  22.812  1.00  0.00    -0.351 N 
ATOM     80  C   UNL A   1      33.345  23.959  22.187  1.00  0.00     0.269 C 
ATOM     81  H   UNL A   1      34.889  22.670  22.215  1.00  0.00     0.163 HD
ATOM     82  O   UNL A   1      33.299  23.997  20.960  1.00  0.00    -0.268 OA
BRANCH  80  83
ATOM     83  C   UNL A   1      32.430  24.798  23.012  1.00  0.00     0.128 A 
ATOM     84  C   UNL A   1      32.936  25.903  23.682  1.00  0.00     0.043 A 
ATOM     85  N   UNL A   1      31.143  24.379  23.107  1.00  0.00    -0.251 NA
ATOM     86  C   UNL A   1      32.096  26.584  24.563  1.00  0.00    -0.004 A 
ATOM     87  C   UNL A   1      30.342  25.083  23.932  1.00  0.00     0.112 A 
ATOM     88  C   UNL A   1      30.770  26.166  24.685  1.00  0.00     0.030 A 
BRANCH  86  89
ATOM     89  C   UNL A   1      32.632  27.637  25.423  1.00  0.00     0.036 A 
ATOM     90  C   UNL A   1      33.830  27.651  26.105  1.00  0.00     0.029 A 
ATOM     91  S   UNL A   1      31.771  29.095  25.650  1.00  0.00    -0.135 S 
ATOM     92  C   UNL A   1      34.094  28.899  26.760  1.00  0.00    -0.007 A 
ATOM     93  C   UNL A   1      33.036  29.794  26.584  1.00  0.00     0.035 A 
ATOM     94  C   UNL A   1      35.222  29.329  27.497  1.00  0.00     0.009 A 
ATOM     95  C   UNL A   1      33.075  31.095  27.125  1.00  0.00     0.019 A 
ATOM     96  C   UNL A   1      35.270  30.623  28.025  1.00  0.00     0.001 A 
ATOM     97  C   UNL A   1      34.207  31.495  27.840  1.00  0.00     0.001 A 
ENDBRANCH  86  89
ENDBRANCH  80  83
ENDBRANCH  78  79
ENDBRANCH  77  78
ENDBRANCH  76  77
ENDBRANCH  75  76
ENDBRANCH   1  75
TORSDOF 17
ENDMDL
MODEL 3
REMARK VINA RESULT:     -11.3      5.394      8.154
REMARK SMILES O=C(NCCCCCCNC(=O)c1cc(-c2cc3ccccc3s2)ccn1)c1ccc(-c2c3nc(c(-c4c(F)cc(S(=O)(=O)[O-])cc4F)c4ccc([nH]4)c(-c4c(F)cc(S(=O)(=O)[O-])cc4F)c4nc(c(-c5c(F)cc(S(=O)(=O)[O-])cc5F)c5ccc2[nH]5)C=C4)C=C3)cc1
REMARK SMILES IDX 5 1 4 2 3 3 1 4 2 5 28 7 29 8 93 9 30 10 92 11 31 12 32 13
REMARK SMILES IDX 33 14 86 15 34 16 91 17 85 18 87 19 35 20 90 21 84 22 83 23
REMARK SMILES IDX 36 25 70 26 49 27 69 28 50 29 53 30 68 31 88 32 51 33 52 34
REMARK SMILES IDX 67 36 89 37 54 38 37 39 38 40 47 41 39 42 40 43 46 44 48 45
REMARK SMILES IDX 41 46 42 47 43 48 44 49 45 50 71 51 72 52 81 53 73 54 74 55
REMARK SMILES IDX 80 56 82 57 75 58 76 59 77 60 78 61 79 62 55 63 56 64 65 65
REMARK SMILES IDX 57 66 58 67 64 68 66 69 59 70 60 71 61 72 62 73 63 74 6 75
REMARK SMILES IDX 7 76 8 77 9 78 10 79 11 80 12 82 13 83 14 84 27 85 15 86
REMARK SMILES IDX 26 87 25 88 16 89 17 90 24 91 18 92 23 93 19 94 22 95 20 96
REMARK SMILES IDX 21 97
REMARK H PARENT 3 6 87 24 53 35 10 81
REMARK Flexibility Score: inf
ROOT
ATOM      1  C   UNL A   1      37.381  34.212  32.983  1.00  0.00     0.021 C 
ENDROOT
BRANCH   1   2
ATOM      2  C   UNL A   1      37.699  33.150  31.937  1.00  0.00     0.116 C 
BRANCH   2   3
ATOM      3  N   UNL A   1      36.753  32.047  31.943  1.00  0.00    -0.352 N 
ATOM      4  O   UNL A   1      35.916  30.031  31.380  1.00  0.00    -0.269 OA
ATOM      5  C   UNL A   1      36.880  30.793  31.394  1.00  0.00     0.251 C 
ATOM      6  H   UNL A   1      35.900  32.224  32.404  1.00  0.00     0.163 HD
BRANCH   5   7
ATOM      7  C   UNL A   1      38.168  30.371  30.797  1.00  0.00     0.039 A 
ATOM      8  C   UNL A   1      39.219  29.924  31.602  1.00  0.00     0.014 A 
ATOM      9  C   UNL A   1      38.322  30.415  29.408  1.00  0.00     0.014 A 
ATOM     10  C   UNL A   1      40.459  29.652  31.034  1.00  0.00     0.010 A 
ATOM     11  C   UNL A   1      39.548  30.066  28.831  1.00  0.00     0.010 A 
ATOM     12  C   UNL A   1      40.636  29.709  29.641  1.00  0.00    -0.014 A 
BRANCH  12  13
ATOM     13  C   UNL A   1      41.950  29.330  29.062  1.00  0.00     0.031 A 
ATOM     14  C   UNL A   1      43.086  30.314  28.990  1.00  0.00     0.074 A 
ATOM     15  C   UNL A   1      42.125  28.063  28.636  1.00  0.00     0.049 A 
ATOM     16  N   UNL A   1      44.306  30.131  28.547  1.00  0.00    -0.248 NA
ATOM     17  C   UNL A   1      42.823  31.679  29.469  1.00  0.00     0.031 C 
ATOM     18  C   UNL A   1      41.090  27.026  28.637  1.00  0.00     0.029 A 
ATOM     19  N   UNL A   1      43.232  27.424  28.139  1.00  0.00    -0.354 N 
ATOM     20  C   UNL A   1      44.953  31.353  28.689  1.00  0.00     0.074 A 
ATOM     21  C   UNL A   1      43.982  32.280  29.230  1.00  0.00     0.031 C 
ATOM     22  C   UNL A   1      41.621  25.872  28.205  1.00  0.00     0.029 A 
ATOM     23  C   UNL A   1      43.017  26.099  27.848  1.00  0.00     0.049 A 
ATOM     24  H   UNL A   1      44.099  27.873  28.004  1.00  0.00     0.167 HD
ATOM     25  C   UNL A   1      46.241  31.668  28.405  1.00  0.00     0.037 A 
ATOM     26  C   UNL A   1      43.844  25.168  27.338  1.00  0.00     0.037 A 
ATOM     27  C   UNL A   1      47.204  30.738  27.870  1.00  0.00     0.049 A 
ATOM     28  C   UNL A   1      45.264  25.545  27.025  1.00  0.00     0.074 A 
ATOM     29  C   UNL A   1      48.533  30.961  27.549  1.00  0.00     0.029 A 
ATOM     30  N   UNL A   1      46.943  29.407  27.577  1.00  0.00    -0.354 N 
ATOM     31  N   UNL A   1      45.859  26.703  27.181  1.00  0.00    -0.248 NA
ATOM     32  C   UNL A   1      46.123  24.494  26.467  1.00  0.00     0.031 C 
ATOM     33  C   UNL A   1      49.068  29.774  27.037  1.00  0.00     0.029 A 
ATOM     34  C   UNL A   1      48.083  28.800  27.074  1.00  0.00     0.049 A 
ATOM     35  H   UNL A   1      46.077  28.959  27.707  1.00  0.00     0.167 HD
ATOM     36  C   UNL A   1      47.166  26.518  26.748  1.00  0.00     0.074 A 
ATOM     37  C   UNL A   1      47.280  25.129  26.349  1.00  0.00     0.031 C 
ATOM     38  C   UNL A   1      48.179  27.417  26.680  1.00  0.00     0.037 A 
BRANCH  25  39
ATOM     39  C   UNL A   1      46.690  33.079  28.668  1.00  0.00     0.058 A 
ATOM     40  C   UNL A   1      47.258  33.449  29.898  1.00  0.00     0.135 A 
ATOM     41  C   UNL A   1      46.600  34.060  27.668  1.00  0.00     0.135 A 
ATOM     42  F   UNL A   1      47.354  32.555  30.894  1.00  0.00    -0.206 F 
ATOM     43  C   UNL A   1      47.703  34.746  30.133  1.00  0.00     0.059 A 
ATOM     44  C   UNL A   1      47.060  35.359  27.873  1.00  0.00     0.059 A 
ATOM     45  F   UNL A   1      46.068  33.760  26.473  1.00  0.00    -0.206 F 
ATOM     46  C   UNL A   1      47.599  35.695  29.114  1.00  0.00     0.060 A 
BRANCH  46  47
ATOM     47  S   UNL A   1      48.191  37.371  29.433  1.00  0.00     0.124 S 
ATOM     48  O   UNL A   1      49.246  37.501  28.431  1.00  0.00    -0.237 OA
ATOM     49  O   UNL A   1      46.997  38.176  29.201  1.00  0.00    -0.237 OA
ATOM     50  O   UNL A   1      48.646  37.312  30.819  1.00  0.00    -0.744 OA
ENDBRANCH  46  47
ENDBRANCH  25  39
BRANCH  26  51
ATOM     51  C   UNL A   1      43.343  23.792  27.086  1.00  0.00     0.058 A 
ATOM     52  C   UNL A   1      43.008  23.367  25.793  1.00  0.00     0.135 A 
ATOM     53  C   UNL A   1      43.209  22.870  28.136  1.00  0.00     0.135 A 
ATOM     54  F   UNL A   1      43.118  24.213  24.758  1.00  0.00    -0.206 F 
ATOM     55  C   UNL A   1      42.538  22.080  25.551  1.00  0.00     0.059 A 
ATOM     56  C   UNL A   1      42.768  21.571  27.915  1.00  0.00     0.059 A 
ATOM     57  F   UNL A   1      43.537  23.225  29.389  1.00  0.00    -0.206 F 
ATOM     58  C   UNL A   1      42.421  21.189  26.620  1.00  0.00     0.060 A 
BRANCH  58  59
ATOM     59  S   UNL A   1      41.853  19.507  26.295  1.00  0.00     0.124 S 
ATOM     60  O   UNL A   1      42.209  18.834  27.539  1.00  0.00    -0.237 OA
ATOM     61  O   UNL A   1      40.425  19.701  26.059  1.00  0.00    -0.237 OA
ATOM     62  O   UNL A   1      42.624  19.116  25.120  1.00  0.00    -0.744 OA
ENDBRANCH  58  59
ENDBRANCH  26  51
BRANCH  38  63
ATOM     63  C   UNL A   1      49.500  26.915  26.174  1.00  0.00     0.058 A 
ATOM     64  C   UNL A   1      50.438  26.324  27.033  1.00  0.00     0.135 A 
ATOM     65  C   UNL A   1      49.823  27.008  24.811  1.00  0.00     0.135 A 
ATOM     66  F   UNL A   1      50.180  26.219  28.347  1.00  0.00    -0.206 F 
ATOM     67  C   UNL A   1      51.667  25.869  26.565  1.00  0.00     0.059 A 
ATOM     68  C   UNL A   1      51.035  26.539  24.316  1.00  0.00     0.059 A 
ATOM     69  F   UNL A   1      48.955  27.558  23.946  1.00  0.00    -0.206 F 
ATOM     70  C   UNL A   1      51.957  25.985  25.204  1.00  0.00     0.060 A 
BRANCH  70  71
ATOM     71  S   UNL A   1      53.548  25.380  24.602  1.00  0.00     0.124 S 
ATOM     72  O   UNL A   1      53.447  23.954  24.891  1.00  0.00    -0.237 OA
ATOM     73  O   UNL A   1      53.509  25.745  23.189  1.00  0.00    -0.237 OA
ATOM     74  O   UNL A   1      54.516  26.117  25.407  1.00  0.00    -0.744 OA
ENDBRANCH  70  71
ENDBRANCH  38  63
ENDBRANCH  12  13
ENDBRANCH   5   7
ENDBRANCH   2   3
ENDBRANCH   1   2
BRANCH   1  75
ATOM     75  C   UNL A   1      36.462  33.765  34.120  1.00  0.00     0.002 C 
BRANCH  75  76
ATOM     76  C   UNL A   1      35.174  34.574  34.297  1.00  0.00     0.002 C 
BRANCH  76  77
ATOM     77  C   UNL A   1      34.660  35.303  33.052  1.00  0.00     0.021 C 
BRANCH  77  78
ATOM     78  C   UNL A   1      33.859  34.453  32.071  1.00  0.00     0.116 C 
BRANCH  78  79
ATOM     79  N   UNL A   1      33.107  35.252  31.117  1.00  0.00    -0.351 N 
ATOM     80  C   UNL A   1      33.191  35.263  29.740  1.00  0.00     0.269 C 
ATOM     81  H   UNL A   1      32.446  35.868  31.508  1.00  0.00     0.163 HD
ATOM     82  O   UNL A   1      32.519  36.065  29.096  1.00  0.00    -0.268 OA
BRANCH  80  83
ATOM     83  C   UNL A   1      34.084  34.288  29.053  1.00  0.00     0.128 A 
ATOM     84  C   UNL A   1      33.534  33.172  28.441  1.00  0.00     0.043 A 
ATOM     85  N   UNL A   1      35.418  34.531  29.128  1.00  0.00    -0.251 NA
ATOM     86  C   UNL A   1      34.398  32.201  27.935  1.00  0.00    -0.004 A 
ATOM     87  C   UNL A   1      36.229  33.597  28.591  1.00  0.00     0.112 A 
ATOM     88  C   UNL A   1      35.774  32.423  28.008  1.00  0.00     0.030 A 
BRANCH  86  89
ATOM     89  C   UNL A   1      33.869  30.930  27.445  1.00  0.00     0.036 A 
ATOM     90  C   UNL A   1      32.659  30.694  26.827  1.00  0.00     0.029 A 
ATOM     91  S   UNL A   1      34.796  29.500  27.562  1.00  0.00    -0.135 S 
ATOM     92  C   UNL A   1      32.513  29.344  26.366  1.00  0.00    -0.007 A 
ATOM     93  C   UNL A   1      33.628  28.573  26.702  1.00  0.00     0.035 A 
ATOM     94  C   UNL A   1      31.465  28.728  25.641  1.00  0.00     0.009 A 
ATOM     95  C   UNL A   1      33.720  27.215  26.338  1.00  0.00     0.019 A 
ATOM     96  C   UNL A   1      31.558  27.385  25.268  1.00  0.00     0.001 A 
ATOM     97  C   UNL A   1      32.674  26.637  25.615  1.00  0.00     0.001 A 
ENDBRANCH  86  89
ENDBRANCH  80  83
ENDBRANCH  78  79
ENDBRANCH  77  78
ENDBRANCH  76  77
ENDBRANCH  75  76
ENDBRANCH   1  75
TORSDOF 17
ENDMDL
