MODEL 1
REMARK VINA RESULT:     -11.2      0.000      0.000
REMARK SMILES Cc1oc(C)c(S(=O)(=O)Nn2c(C)ccc2C)c1C(=O)NCCCCCCNC(=O)c1ccc(-c2c3nc(c(-c4c(F)cc(S(=O)(=O)[O-])cc4F)c4ccc([nH]4)c(-c4c(F)cc(S(=O)(=O)[O-])cc4F)c4nc(c(-c5c(F)cc(S(=O)(=O)[O-])cc5F)c5ccc2[nH]5)C=C4)C=C3)cc1
REMARK SMILES IDX 24 1 23 2 22 3 21 4 19 5 20 6 18 8 1 9 2 10 3 11 4 12 6 13
REMARK SMILES IDX 5 14 7 15 8 16 9 17 10 18 11 20 12 21 16 22 13 23 14 24
REMARK SMILES IDX 15 25 17 26 25 27 26 28 27 29 28 30 29 31 30 33 31 34 32 35
REMARK SMILES IDX 96 36 33 37 95 38 34 39 35 40 36 41 89 42 37 43 94 44 88 45
REMARK SMILES IDX 90 46 38 47 93 48 87 49 86 50 39 52 73 53 52 54 72 55 53 56
REMARK SMILES IDX 56 57 71 58 91 59 54 60 55 61 70 63 92 64 57 65 40 66 41 67
REMARK SMILES IDX 50 68 42 69 43 70 49 71 51 72 44 73 45 74 46 75 47 76 48 77
REMARK SMILES IDX 74 78 75 79 84 80 76 81 77 82 83 83 85 84 78 85 79 86 80 87
REMARK SMILES IDX 81 88 82 89 58 90 59 91 68 92 60 93 61 94 67 95 69 96 62 97
REMARK SMILES IDX 63 98 64 99 65 100 66 101
REMARK H PARENT 21 7 10 19 28 32 90 51 56 62
REMARK Flexibility Score: inf
ROOT
ATOM      1  C   UNL A   1      33.639  27.078  24.617  1.00  0.00     0.002 C 
ENDROOT
BRANCH   1   2
ATOM      2  C   UNL A   1      33.109  26.784  23.217  1.00  0.00     0.021 C 
BRANCH   2   3
ATOM      3  C   UNL A   1      33.331  25.401  22.619  1.00  0.00     0.116 C 
BRANCH   3   4
ATOM      4  N   UNL A   1      32.167  24.553  22.462  1.00  0.00    -0.352 N 
ATOM      5  C   UNL A   1      31.424  23.885  23.417  1.00  0.00     0.256 C 
ATOM      6  O   UNL A   1      30.370  23.353  23.078  1.00  0.00    -0.269 OA
ATOM      7  H   UNL A   1      31.857  24.435  21.536  1.00  0.00     0.163 HD
BRANCH   5   8
ATOM      8  C   UNL A   1      31.881  23.770  24.791  1.00  0.00     0.101 A 
ATOM      9  C   UNL A   1      30.463  25.586  26.130  1.00  0.00     0.088 C 
ATOM     10  C   UNL A   1      31.424  24.485  25.896  1.00  0.00     0.115 A 
ATOM     11  O   UNL A   1      31.989  24.019  27.038  1.00  0.00    -0.464 OA
ATOM     12  C   UNL A   1      32.784  22.974  26.708  1.00  0.00     0.122 A 
ATOM     13  C   UNL A   1      32.789  22.796  25.336  1.00  0.00     0.143 A 
ATOM     14  C   UNL A   1      33.406  22.272  27.853  1.00  0.00     0.089 C 
BRANCH  13  15
ATOM     15  S   UNL A   1      33.735  21.557  24.611  1.00  0.00     0.279 S 
ATOM     16  O   UNL A   1      33.765  20.512  25.578  1.00  0.00    -0.200 OA
ATOM     17  O   UNL A   1      33.026  21.350  23.339  1.00  0.00    -0.200 OA
BRANCH  15  18
ATOM     18  N   UNL A   1      35.278  21.867  24.137  1.00  0.00    -0.216 N 
ATOM     19  H   UNL A   1      35.454  21.766  23.172  1.00  0.00     0.202 HD
BRANCH  18  20
ATOM     20  N   UNL A   1      36.365  22.251  24.907  1.00  0.00    -0.256 N 
ATOM     21  C   UNL A   1      36.644  23.448  25.522  1.00  0.00     0.038 A 
ATOM     22  C   UNL A   1      37.359  21.333  25.190  1.00  0.00     0.038 A 
ATOM     23  C   UNL A   1      35.759  24.640  25.608  1.00  0.00     0.067 C 
ATOM     24  C   UNL A   1      37.897  23.314  26.102  1.00  0.00     0.025 A 
ATOM     25  C   UNL A   1      38.350  22.001  25.880  1.00  0.00     0.025 A 
ATOM     26  C   UNL A   1      37.373  19.920  24.715  1.00  0.00     0.067 C 
ENDBRANCH  18  20
ENDBRANCH  15  18
ENDBRANCH  13  15
ENDBRANCH   5   8
ENDBRANCH   3   4
ENDBRANCH   2   3
ENDBRANCH   1   2
BRANCH   1  27
ATOM     27  C   UNL A   1      33.733  28.532  25.091  1.00  0.00     0.002 C 
BRANCH  27  28
ATOM     28  C   UNL A   1      34.448  28.892  26.413  1.00  0.00     0.021 C 
BRANCH  28  29
ATOM     29  C   UNL A   1      33.621  29.358  27.634  1.00  0.00     0.116 C 
BRANCH  29  30
ATOM     30  N   UNL A   1      33.670  30.787  27.868  1.00  0.00    -0.352 N 
ATOM     31  C   UNL A   1      34.680  31.595  28.370  1.00  0.00     0.251 C 
ATOM     32  H   UNL A   1      32.845  31.268  27.631  1.00  0.00     0.163 HD
ATOM     33  O   UNL A   1      34.448  32.805  28.389  1.00  0.00    -0.269 OA
BRANCH  31  34
ATOM     34  C   UNL A   1      35.960  31.081  28.996  1.00  0.00     0.039 A 
ATOM     35  C   UNL A   1      37.091  31.018  28.188  1.00  0.00     0.014 A 
ATOM     36  C   UNL A   1      36.036  30.355  30.199  1.00  0.00     0.014 A 
ATOM     37  C   UNL A   1      38.267  30.308  28.597  1.00  0.00     0.010 A 
ATOM     38  C   UNL A   1      37.215  29.569  30.581  1.00  0.00     0.010 A 
ATOM     39  C   UNL A   1      38.384  29.503  29.787  1.00  0.00    -0.014 A 
BRANCH  39  40
ATOM     40  C   UNL A   1      39.422  28.250  29.690  1.00  0.00     0.031 A 
ATOM     41  C   UNL A   1      40.062  28.302  31.040  1.00  0.00     0.074 A 
ATOM     42  C   UNL A   1      39.942  27.273  28.827  1.00  0.00     0.049 A 
ATOM     43  N   UNL A   1      40.601  29.411  31.470  1.00  0.00    -0.248 NA
ATOM     44  C   UNL A   1      39.773  27.324  32.092  1.00  0.00     0.031 C 
ATOM     45  C   UNL A   1      39.673  27.098  27.388  1.00  0.00     0.029 A 
ATOM     46  N   UNL A   1      40.858  26.173  29.019  1.00  0.00    -0.354 N 
ATOM     47  C   UNL A   1      41.073  29.130  32.723  1.00  0.00     0.074 A 
ATOM     48  C   UNL A   1      40.285  27.978  33.142  1.00  0.00     0.031 C 
ATOM     49  C   UNL A   1      40.241  25.958  26.889  1.00  0.00     0.029 A 
ATOM     50  C   UNL A   1      41.023  25.248  27.906  1.00  0.00     0.049 A 
ATOM     51  H   UNL A   1      41.347  26.052  29.865  1.00  0.00     0.167 HD
ATOM     52  C   UNL A   1      42.410  29.341  32.899  1.00  0.00     0.037 A 
ATOM     53  C   UNL A   1      41.779  24.071  27.761  1.00  0.00     0.037 A 
ATOM     54  C   UNL A   1      43.167  28.117  32.918  1.00  0.00     0.049 A 
ATOM     55  C   UNL A   1      42.880  24.184  28.727  1.00  0.00     0.074 A 
ATOM     56  C   UNL A   1      42.948  26.863  33.454  1.00  0.00     0.029 A 
ATOM     57  N   UNL A   1      44.111  27.957  31.926  1.00  0.00    -0.354 N 
ATOM     58  N   UNL A   1      43.901  24.951  28.508  1.00  0.00    -0.248 NA
ATOM     59  C   UNL A   1      42.962  23.354  29.924  1.00  0.00     0.031 C 
ATOM     60  C   UNL A   1      43.320  25.969  32.426  1.00  0.00     0.029 A 
ATOM     61  C   UNL A   1      44.080  26.654  31.485  1.00  0.00     0.049 A 
ATOM     62  H   UNL A   1      44.711  28.660  31.588  1.00  0.00     0.167 HD
ATOM     63  C   UNL A   1      44.457  25.086  29.737  1.00  0.00     0.074 A 
ATOM     64  C   UNL A   1      44.045  23.906  30.476  1.00  0.00     0.031 C 
ATOM     65  C   UNL A   1      44.612  26.359  30.176  1.00  0.00     0.037 A 
BRANCH  52  66
ATOM     66  C   UNL A   1      42.935  30.613  32.284  1.00  0.00     0.058 A 
ATOM     67  C   UNL A   1      43.298  31.677  33.113  1.00  0.00     0.135 A 
ATOM     68  C   UNL A   1      43.046  30.809  30.887  1.00  0.00     0.135 A 
ATOM     69  F   UNL A   1      43.263  31.534  34.448  1.00  0.00    -0.206 F 
ATOM     70  C   UNL A   1      43.715  32.896  32.584  1.00  0.00     0.059 A 
ATOM     71  C   UNL A   1      43.414  32.030  30.337  1.00  0.00     0.059 A 
ATOM     72  F   UNL A   1      42.824  29.793  30.037  1.00  0.00    -0.206 F 
ATOM     73  C   UNL A   1      43.748  33.070  31.198  1.00  0.00     0.060 A 
BRANCH  73  74
ATOM     74  S   UNL A   1      44.214  34.685  30.543  1.00  0.00     0.124 S 
ATOM     75  O   UNL A   1      43.459  34.743  29.292  1.00  0.00    -0.237 OA
ATOM     76  O   UNL A   1      43.743  35.577  31.595  1.00  0.00    -0.237 OA
ATOM     77  O   UNL A   1      45.660  34.586  30.375  1.00  0.00    -0.744 OA
ENDBRANCH  73  74
ENDBRANCH  52  66
BRANCH  53  78
ATOM     78  C   UNL A   1      42.049  22.786  26.879  1.00  0.00     0.058 A 
ATOM     79  C   UNL A   1      43.004  22.806  25.793  1.00  0.00     0.135 A 
ATOM     80  C   UNL A   1      41.751  21.478  27.296  1.00  0.00     0.135 A 
ATOM     81  F   UNL A   1      43.388  23.958  25.225  1.00  0.00    -0.206 F 
ATOM     82  C   UNL A   1      43.683  21.680  25.282  1.00  0.00     0.059 A 
ATOM     83  C   UNL A   1      42.400  20.318  26.767  1.00  0.00     0.059 A 
ATOM     84  F   UNL A   1      40.881  21.285  28.298  1.00  0.00    -0.206 F 
ATOM     85  C   UNL A   1      43.401  20.430  25.798  1.00  0.00     0.060 A 
BRANCH  85  86
ATOM     86  S   UNL A   1      44.440  19.019  25.283  1.00  0.00     0.124 S 
ATOM     87  O   UNL A   1      45.793  19.507  25.528  1.00  0.00    -0.237 OA
ATOM     88  O   UNL A   1      43.986  17.952  26.172  1.00  0.00    -0.237 OA
ATOM     89  O   UNL A   1      44.088  18.834  23.878  1.00  0.00    -0.744 OA
ENDBRANCH  85  86
ENDBRANCH  53  78
BRANCH  65  90
ATOM     90  C   UNL A   1      45.142  27.382  29.177  1.00  0.00     0.058 A 
ATOM     91  C   UNL A   1      44.409  28.057  28.169  1.00  0.00     0.135 A 
ATOM     92  C   UNL A   1      46.524  27.639  29.197  1.00  0.00     0.135 A 
ATOM     93  F   UNL A   1      43.071  28.013  28.108  1.00  0.00    -0.206 F 
ATOM     94  C   UNL A   1      45.030  28.830  27.184  1.00  0.00     0.059 A 
ATOM     95  C   UNL A   1      47.155  28.459  28.262  1.00  0.00     0.059 A 
ATOM     96  F   UNL A   1      47.291  27.081  30.149  1.00  0.00    -0.206 F 
ATOM     97  C   UNL A   1      46.408  29.011  27.227  1.00  0.00     0.060 A 
BRANCH  97  98
ATOM     98  S   UNL A   1      47.209  29.964  25.919  1.00  0.00     0.124 S 
ATOM     99  O   UNL A   1      46.711  31.312  26.184  1.00  0.00    -0.237 OA
ATOM    100  O   UNL A   1      48.627  29.758  26.192  1.00  0.00    -0.237 OA
ATOM    101  O   UNL A   1      46.702  29.352  24.695  1.00  0.00    -0.744 OA
ENDBRANCH  97  98
ENDBRANCH  65  90
ENDBRANCH  39  40
ENDBRANCH  31  34
ENDBRANCH  29  30
ENDBRANCH  28  29
ENDBRANCH  27  28
ENDBRANCH   1  27
TORSDOF 19
ENDMDL
MODEL 2
REMARK VINA RESULT:     -11.0      1.569      2.209
REMARK SMILES Cc1oc(C)c(S(=O)(=O)Nn2c(C)ccc2C)c1C(=O)NCCCCCCNC(=O)c1ccc(-c2c3nc(c(-c4c(F)cc(S(=O)(=O)[O-])cc4F)c4ccc([nH]4)c(-c4c(F)cc(S(=O)(=O)[O-])cc4F)c4nc(c(-c5c(F)cc(S(=O)(=O)[O-])cc5F)c5ccc2[nH]5)C=C4)C=C3)cc1
REMARK SMILES IDX 24 1 23 2 22 3 21 4 19 5 20 6 18 8 1 9 2 10 3 11 4 12 6 13
REMARK SMILES IDX 5 14 7 15 8 16 9 17 10 18 11 20 12 21 16 22 13 23 14 24
REMARK SMILES IDX 15 25 17 26 25 27 26 28 27 29 28 30 29 31 30 33 31 34 32 35
REMARK SMILES IDX 96 36 33 37 95 38 34 39 35 40 36 41 89 42 37 43 94 44 88 45
REMARK SMILES IDX 90 46 38 47 93 48 87 49 86 50 39 52 73 53 52 54 72 55 53 56
REMARK SMILES IDX 56 57 71 58 91 59 54 60 55 61 70 63 92 64 57 65 40 66 41 67
REMARK SMILES IDX 50 68 42 69 43 70 49 71 51 72 44 73 45 74 46 75 47 76 48 77
REMARK SMILES IDX 74 78 75 79 84 80 76 81 77 82 83 83 85 84 78 85 79 86 80 87
REMARK SMILES IDX 81 88 82 89 58 90 59 91 68 92 60 93 61 94 67 95 69 96 62 97
REMARK SMILES IDX 63 98 64 99 65 100 66 101
REMARK H PARENT 21 7 10 19 28 32 90 51 56 62
REMARK Flexibility Score: inf
ROOT
ATOM      1  C   UNL A   1      32.517  28.571  24.955  1.00  0.00     0.002 C 
ENDROOT
BRANCH   1   2
ATOM      2  C   UNL A   1      32.951  28.847  23.518  1.00  0.00     0.021 C 
BRANCH   2   3
ATOM      3  C   UNL A   1      33.756  27.789  22.775  1.00  0.00     0.116 C 
BRANCH   3   4
ATOM      4  N   UNL A   1      33.104  27.120  21.666  1.00  0.00    -0.352 N 
ATOM      5  C   UNL A   1      32.035  26.245  21.665  1.00  0.00     0.256 C 
ATOM      6  O   UNL A   1      31.535  25.925  20.589  1.00  0.00    -0.269 OA
ATOM      7  H   UNL A   1      33.479  27.320  20.779  1.00  0.00     0.163 HD
BRANCH   5   8
ATOM      8  C   UNL A   1      31.520  25.674  22.898  1.00  0.00     0.101 A 
ATOM      9  C   UNL A   1      29.357  27.124  23.463  1.00  0.00     0.088 C 
ATOM     10  C   UNL A   1      30.377  26.060  23.595  1.00  0.00     0.115 A 
ATOM     11  O   UNL A   1      30.138  25.216  24.630  1.00  0.00    -0.464 OA
ATOM     12  C   UNL A   1      31.085  24.250  24.603  1.00  0.00     0.122 A 
ATOM     13  C   UNL A   1      31.987  24.498  23.583  1.00  0.00     0.143 A 
ATOM     14  C   UNL A   1      30.917  23.177  25.607  1.00  0.00     0.089 C 
BRANCH  13  15
ATOM     15  S   UNL A   1      33.327  23.454  23.317  1.00  0.00     0.279 S 
ATOM     16  O   UNL A   1      32.775  22.318  22.660  1.00  0.00    -0.200 OA
ATOM     17  O   UNL A   1      34.249  24.338  22.588  1.00  0.00    -0.200 OA
BRANCH  15  18
ATOM     18  N   UNL A   1      34.230  22.931  24.586  1.00  0.00    -0.216 N 
ATOM     19  H   UNL A   1      34.199  23.498  25.392  1.00  0.00     0.202 HD
BRANCH  18  20
ATOM     20  N   UNL A   1      35.030  21.802  24.679  1.00  0.00    -0.256 N 
ATOM     21  C   UNL A   1      34.701  20.494  24.939  1.00  0.00     0.038 A 
ATOM     22  C   UNL A   1      36.389  21.908  24.444  1.00  0.00     0.038 A 
ATOM     23  C   UNL A   1      33.334  19.925  25.082  1.00  0.00     0.067 C 
ATOM     24  C   UNL A   1      35.893  19.786  24.988  1.00  0.00     0.025 A 
ATOM     25  C   UNL A   1      36.947  20.672  24.697  1.00  0.00     0.025 A 
ATOM     26  C   UNL A   1      37.097  23.175  24.100  1.00  0.00     0.067 C 
ENDBRANCH  18  20
ENDBRANCH  15  18
ENDBRANCH  13  15
ENDBRANCH   5   8
ENDBRANCH   3   4
ENDBRANCH   2   3
ENDBRANCH   1   2
BRANCH   1  27
ATOM     27  C   UNL A   1      33.479  28.896  26.102  1.00  0.00     0.002 C 
BRANCH  27  28
ATOM     28  C   UNL A   1      33.320  30.190  26.931  1.00  0.00     0.021 C 
BRANCH  28  29
ATOM     29  C   UNL A   1      34.520  30.743  27.734  1.00  0.00     0.116 C 
BRANCH  29  30
ATOM     30  N   UNL A   1      34.163  31.759  28.704  1.00  0.00    -0.352 N 
ATOM     31  C   UNL A   1      34.853  32.261  29.796  1.00  0.00     0.251 C 
ATOM     32  H   UNL A   1      33.276  32.163  28.563  1.00  0.00     0.163 HD
ATOM     33  O   UNL A   1      34.311  33.185  30.404  1.00  0.00    -0.269 OA
BRANCH  31  34
ATOM     34  C   UNL A   1      36.135  31.670  30.347  1.00  0.00     0.039 A 
ATOM     35  C   UNL A   1      37.304  31.883  29.623  1.00  0.00     0.014 A 
ATOM     36  C   UNL A   1      36.204  30.658  31.323  1.00  0.00     0.014 A 
ATOM     37  C   UNL A   1      38.506  31.155  29.907  1.00  0.00     0.010 A 
ATOM     38  C   UNL A   1      37.416  29.864  31.560  1.00  0.00     0.010 A 
ATOM     39  C   UNL A   1      38.622  30.073  30.852  1.00  0.00    -0.014 A 
BRANCH  39  40
ATOM     40  C   UNL A   1      39.748  28.948  30.498  1.00  0.00     0.031 A 
ATOM     41  C   UNL A   1      40.601  28.999  31.725  1.00  0.00     0.074 A 
ATOM     42  C   UNL A   1      40.207  28.080  29.496  1.00  0.00     0.049 A 
ATOM     43  N   UNL A   1      41.092  30.136  32.138  1.00  0.00    -0.248 NA
ATOM     44  C   UNL A   1      40.593  27.942  32.740  1.00  0.00     0.031 C 
ATOM     45  C   UNL A   1      39.715  27.952  28.112  1.00  0.00     0.029 A 
ATOM     46  N   UNL A   1      41.246  27.078  29.457  1.00  0.00    -0.354 N 
ATOM     47  C   UNL A   1      41.797  29.843  33.273  1.00  0.00     0.074 A 
ATOM     48  C   UNL A   1      41.210  28.592  33.735  1.00  0.00     0.031 C 
ATOM     49  C   UNL A   1      40.299  26.909  27.447  1.00  0.00     0.029 A 
ATOM     50  C   UNL A   1      41.309  26.236  28.270  1.00  0.00     0.049 A 
ATOM     51  H   UNL A   1      41.883  26.967  30.201  1.00  0.00     0.167 HD
ATOM     52  C   UNL A   1      43.117  30.190  33.241  1.00  0.00     0.037 A 
ATOM     53  C   UNL A   1      42.143  25.158  27.921  1.00  0.00     0.037 A 
ATOM     54  C   UNL A   1      43.983  29.056  33.050  1.00  0.00     0.049 A 
ATOM     55  C   UNL A   1      43.376  25.340  28.698  1.00  0.00     0.074 A 
ATOM     56  C   UNL A   1      43.984  27.760  33.526  1.00  0.00     0.029 A 
ATOM     57  N   UNL A   1      44.755  29.053  31.907  1.00  0.00    -0.354 N 
ATOM     58  N   UNL A   1      44.263  26.225  28.368  1.00  0.00    -0.248 NA
ATOM     59  C   UNL A   1      43.742  24.463  29.805  1.00  0.00     0.031 C 
ATOM     60  C   UNL A   1      44.262  26.967  32.391  1.00  0.00     0.029 A 
ATOM     61  C   UNL A   1      44.778  27.779  31.387  1.00  0.00     0.049 A 
ATOM     62  H   UNL A   1      45.216  29.834  31.525  1.00  0.00     0.167 HD
ATOM     63  C   UNL A   1      45.005  26.355  29.496  1.00  0.00     0.074 A 
ATOM     64  C   UNL A   1      44.844  25.100  30.208  1.00  0.00     0.031 C 
ATOM     65  C   UNL A   1      45.105  27.613  29.992  1.00  0.00     0.037 A 
BRANCH  52  66
ATOM     66  C   UNL A   1      43.400  31.542  32.639  1.00  0.00     0.058 A 
ATOM     67  C   UNL A   1      43.873  32.571  33.455  1.00  0.00     0.135 A 
ATOM     68  C   UNL A   1      43.174  31.845  31.275  1.00  0.00     0.135 A 
ATOM     69  F   UNL A   1      44.155  32.332  34.747  1.00  0.00    -0.206 F 
ATOM     70  C   UNL A   1      44.075  33.856  32.956  1.00  0.00     0.059 A 
ATOM     71  C   UNL A   1      43.323  33.128  30.766  1.00  0.00     0.059 A 
ATOM     72  F   UNL A   1      42.831  30.876  30.410  1.00  0.00    -0.206 F 
ATOM     73  C   UNL A   1      43.776  34.129  31.619  1.00  0.00     0.060 A 
BRANCH  73  74
ATOM     74  S   UNL A   1      43.971  35.821  31.021  1.00  0.00     0.124 S 
ATOM     75  O   UNL A   1      42.864  35.945  30.074  1.00  0.00    -0.237 OA
ATOM     76  O   UNL A   1      43.824  36.587  32.252  1.00  0.00    -0.237 OA
ATOM     77  O   UNL A   1      45.295  35.821  30.409  1.00  0.00    -0.744 OA
ENDBRANCH  73  74
ENDBRANCH  52  66
BRANCH  53  78
ATOM     78  C   UNL A   1      42.384  23.958  26.918  1.00  0.00     0.058 A 
ATOM     79  C   UNL A   1      43.312  24.075  25.816  1.00  0.00     0.135 A 
ATOM     80  C   UNL A   1      42.089  22.619  27.222  1.00  0.00     0.135 A 
ATOM     81  F   UNL A   1      43.687  25.272  25.345  1.00  0.00    -0.206 F 
ATOM     82  C   UNL A   1      43.972  22.998  25.187  1.00  0.00     0.059 A 
ATOM     83  C   UNL A   1      42.719  21.510  26.573  1.00  0.00     0.059 A 
ATOM     84  F   UNL A   1      41.244  22.337  28.224  1.00  0.00    -0.206 F 
ATOM     85  C   UNL A   1      43.696  21.707  25.594  1.00  0.00     0.060 A 
BRANCH  85  86
ATOM     86  S   UNL A   1      44.715  20.346  24.926  1.00  0.00     0.124 S 
ATOM     87  O   UNL A   1      44.459  20.423  23.492  1.00  0.00    -0.237 OA
ATOM     88  O   UNL A   1      46.062  20.725  25.346  1.00  0.00    -0.237 OA
ATOM     89  O   UNL A   1      44.177  19.162  25.592  1.00  0.00    -0.744 OA
ENDBRANCH  85  86
ENDBRANCH  53  78
BRANCH  65  90
ATOM     90  C   UNL A   1      45.354  28.738  28.993  1.00  0.00     0.058 A 
ATOM     91  C   UNL A   1      46.605  29.261  28.583  1.00  0.00     0.135 A 
ATOM     92  C   UNL A   1      44.224  29.390  28.469  1.00  0.00     0.135 A 
ATOM     93  F   UNL A   1      47.765  28.665  28.895  1.00  0.00    -0.206 F 
ATOM     94  C   UNL A   1      46.715  30.419  27.808  1.00  0.00     0.059 A 
ATOM     95  C   UNL A   1      44.311  30.509  27.641  1.00  0.00     0.059 A 
ATOM     96  F   UNL A   1      42.996  28.932  28.764  1.00  0.00    -0.206 F 
ATOM     97  C   UNL A   1      45.560  31.048  27.356  1.00  0.00     0.060 A 
BRANCH  97  98
ATOM     98  S   UNL A   1      45.709  32.575  26.404  1.00  0.00     0.124 S 
ATOM     99  O   UNL A   1      45.264  33.575  27.371  1.00  0.00    -0.237 OA
ATOM    100  O   UNL A   1      47.130  32.613  26.076  1.00  0.00    -0.237 OA
ATOM    101  O   UNL A   1      44.803  32.364  25.280  1.00  0.00    -0.744 OA
ENDBRANCH  97  98
ENDBRANCH  65  90
ENDBRANCH  39  40
ENDBRANCH  31  34
ENDBRANCH  29  30
ENDBRANCH  28  29
ENDBRANCH  27  28
ENDBRANCH   1  27
TORSDOF 19
ENDMDL
MODEL 3
REMARK VINA RESULT:     -10.4      3.770      8.903
REMARK SMILES Cc1oc(C)c(S(=O)(=O)Nn2c(C)ccc2C)c1C(=O)NCCCCCCNC(=O)c1ccc(-c2c3nc(c(-c4c(F)cc(S(=O)(=O)[O-])cc4F)c4ccc([nH]4)c(-c4c(F)cc(S(=O)(=O)[O-])cc4F)c4nc(c(-c5c(F)cc(S(=O)(=O)[O-])cc5F)c5ccc2[nH]5)C=C4)C=C3)cc1
REMARK SMILES IDX 24 1 23 2 22 3 21 4 19 5 20 6 18 8 1 9 2 10 3 11 4 12 6 13
REMARK SMILES IDX 5 14 7 15 8 16 9 17 10 18 11 20 12 21 16 22 13 23 14 24
REMARK SMILES IDX 15 25 17 26 25 27 26 28 27 29 28 30 29 31 30 33 31 34 32 35
REMARK SMILES IDX 96 36 33 37 95 38 34 39 35 40 36 41 89 42 37 43 94 44 88 45
REMARK SMILES IDX 90 46 38 47 93 48 87 49 86 50 39 52 73 53 52 54 72 55 53 56
REMARK SMILES IDX 56 57 71 58 91 59 54 60 55 61 70 63 92 64 57 65 40 66 41 67
REMARK SMILES IDX 50 68 42 69 43 70 49 71 51 72 44 73 45 74 46 75 47 76 48 77
REMARK SMILES IDX 74 78 75 79 84 80 76 81 77 82 83 83 85 84 78 85 79 86 80 87
REMARK SMILES IDX 81 88 82 89 58 90 59 91 68 92 60 93 61 94 67 95 69 96 62 97
REMARK SMILES IDX 63 98 64 99 65 100 66 101
REMARK H PARENT 21 7 10 19 28 32 90 51 56 62
REMARK Flexibility Score: inf
ROOT
ATOM      1  C   UNL A   1      38.908  22.559  26.443  1.00  0.00     0.002 C 
ENDROOT
BRANCH   1   2
ATOM      2  C   UNL A   1      38.205  23.893  26.206  1.00  0.00     0.021 C 
BRANCH   2   3
ATOM      3  C   UNL A   1      36.698  23.904  25.986  1.00  0.00     0.116 C 
BRANCH   3   4
ATOM      4  N   UNL A   1      36.229  23.829  24.617  1.00  0.00    -0.352 N 
ATOM      5  C   UNL A   1      34.963  24.031  24.103  1.00  0.00     0.256 C 
ATOM      6  O   UNL A   1      34.821  24.080  22.883  1.00  0.00    -0.269 OA
ATOM      7  H   UNL A   1      36.917  23.601  23.951  1.00  0.00     0.163 HD
BRANCH   5   8
ATOM      8  C   UNL A   1      33.802  24.147  24.968  1.00  0.00     0.101 A 
ATOM      9  C   UNL A   1      33.102  26.714  24.822  1.00  0.00     0.088 C 
ATOM     10  C   UNL A   1      33.040  25.287  25.212  1.00  0.00     0.115 A 
ATOM     11  O   UNL A   1      31.956  24.989  25.971  1.00  0.00    -0.464 OA
ATOM     12  C   UNL A   1      31.967  23.655  26.199  1.00  0.00     0.122 A 
ATOM     13  C   UNL A   1      33.098  23.087  25.640  1.00  0.00     0.143 A 
ATOM     14  C   UNL A   1      30.792  23.133  26.931  1.00  0.00     0.089 C 
BRANCH  13  15
ATOM     15  S   UNL A   1      33.405  21.402  25.791  1.00  0.00     0.279 S 
ATOM     16  O   UNL A   1      34.613  21.188  25.068  1.00  0.00    -0.200 OA
ATOM     17  O   UNL A   1      33.392  21.229  27.251  1.00  0.00    -0.200 OA
BRANCH  15  18
ATOM     18  N   UNL A   1      32.291  20.311  25.272  1.00  0.00    -0.216 N 
ATOM     19  H   UNL A   1      31.440  20.303  25.769  1.00  0.00     0.202 HD
BRANCH  18  20
ATOM     20  N   UNL A   1      32.385  19.398  24.232  1.00  0.00    -0.256 N 
ATOM     21  C   UNL A   1      32.220  19.569  22.879  1.00  0.00     0.038 A 
ATOM     22  C   UNL A   1      32.739  18.089  24.502  1.00  0.00     0.038 A 
ATOM     23  C   UNL A   1      31.999  20.850  22.157  1.00  0.00     0.067 C 
ATOM     24  C   UNL A   1      32.354  18.315  22.300  1.00  0.00     0.025 A 
ATOM     25  C   UNL A   1      32.661  17.390  23.316  1.00  0.00     0.025 A 
ATOM     26  C   UNL A   1      33.029  17.549  25.861  1.00  0.00     0.067 C 
ENDBRANCH  18  20
ENDBRANCH  15  18
ENDBRANCH  13  15
ENDBRANCH   5   8
ENDBRANCH   3   4
ENDBRANCH   2   3
ENDBRANCH   1   2
BRANCH   1  27
ATOM     27  C   UNL A   1      40.430  22.537  26.623  1.00  0.00     0.002 C 
BRANCH  27  28
ATOM     28  C   UNL A   1      41.072  21.909  27.880  1.00  0.00     0.021 C 
BRANCH  28  29
ATOM     29  C   UNL A   1      42.552  22.207  28.219  1.00  0.00     0.116 C 
BRANCH  29  30
ATOM     30  N   UNL A   1      43.470  21.944  27.130  1.00  0.00    -0.352 N 
ATOM     31  C   UNL A   1      44.169  22.806  26.299  1.00  0.00     0.251 C 
ATOM     32  H   UNL A   1      43.625  20.989  26.948  1.00  0.00     0.163 HD
ATOM     33  O   UNL A   1      44.940  22.279  25.494  1.00  0.00    -0.269 OA
BRANCH  31  34
ATOM     34  C   UNL A   1      43.949  24.304  26.235  1.00  0.00     0.039 A 
ATOM     35  C   UNL A   1      44.532  25.082  27.230  1.00  0.00     0.014 A 
ATOM     36  C   UNL A   1      42.952  24.942  25.474  1.00  0.00     0.014 A 
ATOM     37  C   UNL A   1      44.171  26.458  27.414  1.00  0.00     0.010 A 
ATOM     38  C   UNL A   1      42.535  26.329  25.714  1.00  0.00     0.010 A 
ATOM     39  C   UNL A   1      43.122  27.147  26.706  1.00  0.00    -0.014 A 
BRANCH  39  40
ATOM     40  C   UNL A   1      42.394  28.352  27.528  1.00  0.00     0.031 A 
ATOM     41  C   UNL A   1      43.504  29.350  27.619  1.00  0.00     0.074 A 
ATOM     42  C   UNL A   1      41.215  28.718  28.196  1.00  0.00     0.049 A 
ATOM     43  N   UNL A   1      44.666  28.999  28.101  1.00  0.00    -0.248 NA
ATOM     44  C   UNL A   1      43.527  30.584  26.829  1.00  0.00     0.031 C 
ATOM     45  C   UNL A   1      40.029  27.886  28.462  1.00  0.00     0.029 A 
ATOM     46  N   UNL A   1      40.773  29.945  28.817  1.00  0.00    -0.354 N 
ATOM     47  C   UNL A   1      45.449  30.119  28.030  1.00  0.00     0.074 A 
ATOM     48  C   UNL A   1      44.812  30.924  26.996  1.00  0.00     0.031 C 
ATOM     49  C   UNL A   1      39.004  28.604  29.017  1.00  0.00     0.029 A 
ATOM     50  C   UNL A   1      39.386  29.998  29.260  1.00  0.00     0.049 A 
ATOM     51  H   UNL A   1      41.381  30.711  28.935  1.00  0.00     0.167 HD
ATOM     52  C   UNL A   1      45.968  30.540  29.220  1.00  0.00     0.037 A 
ATOM     53  C   UNL A   1      38.623  31.022  29.850  1.00  0.00     0.037 A 
ATOM     54  C   UNL A   1      45.288  31.696  29.743  1.00  0.00     0.049 A 
ATOM     55  C   UNL A   1      39.589  31.905  30.516  1.00  0.00     0.074 A 
ATOM     56  C   UNL A   1      44.771  32.843  29.174  1.00  0.00     0.029 A 
ATOM     57  N   UNL A   1      44.655  31.544  30.959  1.00  0.00    -0.354 N 
ATOM     58  N   UNL A   1      40.149  31.579  31.638  1.00  0.00    -0.248 NA
ATOM     59  C   UNL A   1      39.885  33.250  30.033  1.00  0.00     0.031 C 
ATOM     60  C   UNL A   1      43.505  32.998  29.779  1.00  0.00     0.029 A 
ATOM     61  C   UNL A   1      43.449  32.206  30.920  1.00  0.00     0.049 A 
ATOM     62  H   UNL A   1      45.008  31.045  31.730  1.00  0.00     0.167 HD
ATOM     63  C   UNL A   1      41.215  32.415  31.707  1.00  0.00     0.074 A 
ATOM     64  C   UNL A   1      40.855  33.563  30.895  1.00  0.00     0.031 C 
ATOM     65  C   UNL A   1      42.422  31.817  31.856  1.00  0.00     0.037 A 
BRANCH  52  66
ATOM     66  C   UNL A   1      46.499  29.439  30.102  1.00  0.00     0.058 A 
ATOM     67  C   UNL A   1      47.877  29.301  30.271  1.00  0.00     0.135 A 
ATOM     68  C   UNL A   1      45.665  28.496  30.749  1.00  0.00     0.135 A 
ATOM     69  F   UNL A   1      48.717  30.194  29.723  1.00  0.00    -0.206 F 
ATOM     70  C   UNL A   1      48.414  28.252  31.015  1.00  0.00     0.059 A 
ATOM     71  C   UNL A   1      46.178  27.416  31.456  1.00  0.00     0.059 A 
ATOM     72  F   UNL A   1      44.330  28.637  30.724  1.00  0.00    -0.206 F 
ATOM     73  C   UNL A   1      47.559  27.304  31.583  1.00  0.00     0.060 A 
BRANCH  73  74
ATOM     74  S   UNL A   1      48.285  25.912  32.472  1.00  0.00     0.124 S 
ATOM     75  O   UNL A   1      49.055  25.242  31.425  1.00  0.00    -0.237 OA
ATOM     76  O   UNL A   1      49.079  26.593  33.487  1.00  0.00    -0.237 OA
ATOM     77  O   UNL A   1      47.127  25.163  32.948  1.00  0.00    -0.744 OA
ENDBRANCH  73  74
ENDBRANCH  52  66
BRANCH  53  78
ATOM     78  C   UNL A   1      37.174  31.510  30.255  1.00  0.00     0.058 A 
ATOM     79  C   UNL A   1      36.609  31.197  31.548  1.00  0.00     0.135 A 
ATOM     80  C   UNL A   1      36.512  32.583  29.635  1.00  0.00     0.135 A 
ATOM     81  F   UNL A   1      37.073  30.176  32.283  1.00  0.00    -0.206 F 
ATOM     82  C   UNL A   1      35.606  31.943  32.204  1.00  0.00     0.059 A 
ATOM     83  C   UNL A   1      35.469  33.332  30.266  1.00  0.00     0.059 A 
ATOM     84  F   UNL A   1      36.916  33.001  28.427  1.00  0.00    -0.206 F 
ATOM     85  C   UNL A   1      35.057  33.040  31.569  1.00  0.00     0.060 A 
BRANCH  85  86
ATOM     86  S   UNL A   1      33.926  34.119  32.514  1.00  0.00     0.124 S 
ATOM     87  O   UNL A   1      33.217  34.842  31.464  1.00  0.00    -0.237 OA
ATOM     88  O   UNL A   1      33.125  33.155  33.265  1.00  0.00    -0.237 OA
ATOM     89  O   UNL A   1      34.830  34.927  33.327  1.00  0.00    -0.744 OA
ENDBRANCH  85  86
ENDBRANCH  53  78
BRANCH  65  90
ATOM     90  C   UNL A   1      42.513  30.667  32.854  1.00  0.00     0.058 A 
ATOM     91  C   UNL A   1      42.057  29.337  32.673  1.00  0.00     0.135 A 
ATOM     92  C   UNL A   1      43.037  30.961  34.124  1.00  0.00     0.135 A 
ATOM     93  F   UNL A   1      41.653  28.875  31.481  1.00  0.00    -0.206 F 
ATOM     94  C   UNL A   1      42.016  28.412  33.721  1.00  0.00     0.059 A 
ATOM     95  C   UNL A   1      43.065  30.032  35.165  1.00  0.00     0.059 A 
ATOM     96  F   UNL A   1      43.539  32.182  34.370  1.00  0.00    -0.206 F 
ATOM     97  C   UNL A   1      42.506  28.775  34.970  1.00  0.00     0.060 A 
BRANCH  97  98
ATOM     98  S   UNL A   1      42.397  27.594  36.331  1.00  0.00     0.124 S 
ATOM     99  O   UNL A   1      42.738  26.339  35.666  1.00  0.00    -0.237 OA
ATOM    100  O   UNL A   1      43.394  28.093  37.272  1.00  0.00    -0.237 OA
ATOM    101  O   UNL A   1      41.007  27.700  36.763  1.00  0.00    -0.744 OA
ENDBRANCH  97  98
ENDBRANCH  65  90
ENDBRANCH  39  40
ENDBRANCH  31  34
ENDBRANCH  29  30
ENDBRANCH  28  29
ENDBRANCH  27  28
ENDBRANCH   1  27
TORSDOF 19
ENDMDL
