MODEL 1
REMARK VINA RESULT:     -13.2      0.000      0.000
REMARK SMILES COc1cc2ccccc2cc1C(=O)Nc1cc(C(=O)NCCCCCCNC(=O)c2ccc(-c3c4nc(c(-c5c(F)cc(S(=O)(=O)[O-])cc5F)c5ccc([nH]5)c(-c5c(F)cc(S(=O)(=O)[O-])cc5F)c5nc(c(-c6c(F)cc(S(=O)(=O)[O-])cc6F)c6ccc3[nH]6)C=C5)C=C4)cc2)ccc1C
REMARK SMILES IDX 24 1 23 2 22 3 21 4 19 5 20 6 18 8 16 9 17 10 99 11 98 12
REMARK SMILES IDX 100 13 97 14 15 15 13 16 14 17 12 19 3 20 4 21 5 22 11 23
REMARK SMILES IDX 6 24 10 25 7 26 9 27 8 28 2 29 1 30 25 31 26 32 27 33 28 34
REMARK SMILES IDX 29 35 30 37 31 38 32 39 96 40 33 41 95 42 34 43 35 44 36 45
REMARK SMILES IDX 89 46 37 47 94 48 88 49 90 50 38 51 93 52 87 53 86 54 39 56
REMARK SMILES IDX 73 57 52 58 72 59 53 60 56 61 71 62 91 63 54 64 55 65 70 67
REMARK SMILES IDX 92 68 57 69 40 70 41 71 50 72 42 73 43 74 49 75 51 76 44 77
REMARK SMILES IDX 45 78 46 79 47 80 48 81 74 82 75 83 84 84 76 85 77 86 83 87
REMARK SMILES IDX 85 88 78 89 79 90 80 91 81 92 82 93 58 94 59 95 68 96 60 97
REMARK SMILES IDX 61 98 67 99 69 100 62 101 63 102 64 103 65 104 66 105
REMARK H PARENT 21 7 15 18 28 36 90 55 56 66
REMARK Flexibility Score: inf
ROOT
ATOM      1  C   UNL A   1      33.348  27.436  25.805  1.00  0.00     0.002 C 
ENDROOT
BRANCH   1   2
ATOM      2  C   UNL A   1      34.027  27.149  24.457  1.00  0.00     0.021 C 
BRANCH   2   3
ATOM      3  C   UNL A   1      34.291  25.663  24.207  1.00  0.00     0.116 C 
BRANCH   3   4
ATOM      4  N   UNL A   1      35.506  25.223  24.866  1.00  0.00    -0.352 N 
ATOM      5  C   UNL A   1      35.906  24.053  25.457  1.00  0.00     0.251 C 
ATOM      6  O   UNL A   1      37.064  24.030  25.886  1.00  0.00    -0.269 OA
ATOM      7  H   UNL A   1      36.198  25.923  24.895  1.00  0.00     0.163 HD
BRANCH   5   8
ATOM      8  C   UNL A   1      35.083  22.808  25.569  1.00  0.00     0.041 A 
ATOM      9  C   UNL A   1      33.068  21.529  26.056  1.00  0.00     0.045 A 
ATOM     10  C   UNL A   1      33.827  22.706  26.166  1.00  0.00     0.040 A 
ATOM     11  C   UNL A   1      33.646  20.352  25.550  1.00  0.00    -0.027 A 
ATOM     12  C   UNL A   1      34.932  20.435  25.002  1.00  0.00     0.006 A 
ATOM     13  C   UNL A   1      32.902  19.054  25.401  1.00  0.00     0.046 C 
ATOM     14  C   UNL A   1      35.623  21.650  24.986  1.00  0.00     0.014 A 
BRANCH   9  15
ATOM     15  N   UNL A   1      31.702  21.531  26.381  1.00  0.00    -0.322 N 
ATOM     16  C   UNL A   1      30.685  22.376  25.987  1.00  0.00     0.259 C 
ATOM     17  O   UNL A   1      29.574  22.213  26.501  1.00  0.00    -0.269 OA
ATOM     18  H   UNL A   1      31.423  20.810  26.991  1.00  0.00     0.170 HD
BRANCH  16  19
ATOM     19  C   UNL A   1      30.806  23.414  24.919  1.00  0.00     0.082 A 
ATOM     20  C   UNL A   1      31.313  23.219  23.627  1.00  0.00     0.132 A 
ATOM     21  C   UNL A   1      31.456  24.300  22.747  1.00  0.00     0.056 A 
ATOM     22  C   UNL A   1      30.968  25.569  23.078  1.00  0.00    -0.015 A 
ATOM     23  C   UNL A   1      30.276  24.680  25.233  1.00  0.00     0.026 A 
ATOM     24  C   UNL A   1      31.086  26.651  22.193  1.00  0.00     0.009 A 
ATOM     25  C   UNL A   1      30.328  25.752  24.323  1.00  0.00    -0.017 A 
ATOM     26  C   UNL A   1      30.534  27.892  22.511  1.00  0.00     0.001 A 
ATOM     27  C   UNL A   1      29.764  27.004  24.620  1.00  0.00     0.009 A 
ATOM     28  C   UNL A   1      29.859  28.063  23.716  1.00  0.00     0.001 A 
BRANCH  20  29
ATOM     29  O   UNL A   1      31.752  22.021  23.135  1.00  0.00    -0.496 OA
ATOM     30  C   UNL A   1      32.808  22.198  22.197  1.00  0.00     0.278 C 
ENDBRANCH  20  29
ENDBRANCH  16  19
ENDBRANCH   9  15
ENDBRANCH   5   8
ENDBRANCH   3   4
ENDBRANCH   2   3
ENDBRANCH   1   2
BRANCH   1  31
ATOM     31  C   UNL A   1      32.606  28.782  25.919  1.00  0.00     0.002 C 
BRANCH  31  32
ATOM     32  C   UNL A   1      33.078  29.715  27.037  1.00  0.00     0.021 C 
BRANCH  32  33
ATOM     33  C   UNL A   1      34.544  29.525  27.400  1.00  0.00     0.116 C 
BRANCH  33  34
ATOM     34  N   UNL A   1      35.280  30.773  27.504  1.00  0.00    -0.352 N 
ATOM     35  C   UNL A   1      36.465  30.972  28.196  1.00  0.00     0.251 C 
ATOM     36  H   UNL A   1      34.900  31.552  27.038  1.00  0.00     0.163 HD
ATOM     37  O   UNL A   1      36.817  32.050  28.621  1.00  0.00    -0.269 OA
BRANCH  35  38
ATOM     38  C   UNL A   1      37.381  29.809  28.234  1.00  0.00     0.039 A 
ATOM     39  C   UNL A   1      37.468  29.113  29.447  1.00  0.00     0.014 A 
ATOM     40  C   UNL A   1      38.305  29.605  27.213  1.00  0.00     0.014 A 
ATOM     41  C   UNL A   1      38.583  28.318  29.700  1.00  0.00     0.010 A 
ATOM     42  C   UNL A   1      39.443  28.870  27.493  1.00  0.00     0.010 A 
ATOM     43  C   UNL A   1      39.603  28.268  28.752  1.00  0.00    -0.014 A 
BRANCH  43  44
ATOM     44  C   UNL A   1      40.909  27.671  29.008  1.00  0.00     0.031 A 
ATOM     45  C   UNL A   1      41.155  26.253  28.654  1.00  0.00     0.074 A 
ATOM     46  C   UNL A   1      41.914  28.428  29.500  1.00  0.00     0.049 A 
ATOM     47  N   UNL A   1      42.182  25.574  29.043  1.00  0.00    -0.248 NA
ATOM     48  C   UNL A   1      40.195  25.450  27.899  1.00  0.00     0.031 C 
ATOM     49  C   UNL A   1      43.341  28.122  29.479  1.00  0.00     0.029 A 
ATOM     50  N   UNL A   1      41.810  29.542  30.336  1.00  0.00    -0.354 N 
ATOM     51  C   UNL A   1      42.174  24.379  28.363  1.00  0.00     0.074 A 
ATOM     52  C   UNL A   1      40.857  24.295  27.790  1.00  0.00     0.031 C 
ATOM     53  C   UNL A   1      43.958  28.846  30.424  1.00  0.00     0.029 A 
ATOM     54  C   UNL A   1      42.928  29.519  31.194  1.00  0.00     0.049 A 
ATOM     55  H   UNL A   1      41.093  30.216  30.326  1.00  0.00     0.167 HD
ATOM     56  C   UNL A   1      43.340  23.680  28.252  1.00  0.00     0.037 A 
ATOM     57  C   UNL A   1      42.779  29.402  32.548  1.00  0.00     0.037 A 
ATOM     58  C   UNL A   1      44.315  24.150  29.241  1.00  0.00     0.049 A 
ATOM     59  C   UNL A   1      43.408  28.157  33.137  1.00  0.00     0.074 A 
ATOM     60  C   UNL A   1      45.463  24.918  29.165  1.00  0.00     0.029 A 
ATOM     61  N   UNL A   1      44.007  24.040  30.596  1.00  0.00    -0.354 N 
ATOM     62  N   UNL A   1      43.809  27.134  32.432  1.00  0.00    -0.248 NA
ATOM     63  C   UNL A   1      43.616  27.957  34.569  1.00  0.00     0.031 C 
ATOM     64  C   UNL A   1      45.774  25.367  30.479  1.00  0.00     0.029 A 
ATOM     65  C   UNL A   1      44.845  24.831  31.358  1.00  0.00     0.049 A 
ATOM     66  H   UNL A   1      43.289  23.474  30.963  1.00  0.00     0.167 HD
ATOM     67  C   UNL A   1      44.263  26.146  33.269  1.00  0.00     0.074 A 
ATOM     68  C   UNL A   1      44.157  26.727  34.594  1.00  0.00     0.031 C 
ATOM     69  C   UNL A   1      44.669  24.927  32.803  1.00  0.00     0.037 A 
BRANCH  56  70
ATOM     70  C   UNL A   1      43.685  22.728  27.110  1.00  0.00     0.058 A 
ATOM     71  C   UNL A   1      42.998  21.497  26.975  1.00  0.00     0.135 A 
ATOM     72  C   UNL A   1      44.764  22.880  26.209  1.00  0.00     0.135 A 
ATOM     73  F   UNL A   1      41.951  21.197  27.757  1.00  0.00    -0.206 F 
ATOM     74  C   UNL A   1      43.376  20.501  26.061  1.00  0.00     0.059 A 
ATOM     75  C   UNL A   1      45.132  21.920  25.264  1.00  0.00     0.059 A 
ATOM     76  F   UNL A   1      45.576  23.940  26.225  1.00  0.00    -0.206 F 
ATOM     77  C   UNL A   1      44.453  20.718  25.213  1.00  0.00     0.060 A 
BRANCH  77  78
ATOM     78  S   UNL A   1      44.986  19.427  24.074  1.00  0.00     0.124 S 
ATOM     79  O   UNL A   1      44.521  19.947  22.792  1.00  0.00    -0.237 OA
ATOM     80  O   UNL A   1      46.430  19.410  24.270  1.00  0.00    -0.237 OA
ATOM     81  O   UNL A   1      44.282  18.239  24.552  1.00  0.00    -0.744 OA
ENDBRANCH  77  78
ENDBRANCH  56  70
BRANCH  57  82
ATOM     82  C   UNL A   1      41.564  30.093  33.059  1.00  0.00     0.058 A 
ATOM     83  C   UNL A   1      41.622  31.495  33.183  1.00  0.00     0.135 A 
ATOM     84  C   UNL A   1      40.297  29.503  32.962  1.00  0.00     0.135 A 
ATOM     85  F   UNL A   1      42.811  32.108  33.308  1.00  0.00    -0.206 F 
ATOM     86  C   UNL A   1      40.492  32.290  33.029  1.00  0.00     0.059 A 
ATOM     87  C   UNL A   1      39.147  30.283  32.818  1.00  0.00     0.059 A 
ATOM     88  F   UNL A   1      40.177  28.171  32.853  1.00  0.00    -0.206 F 
ATOM     89  C   UNL A   1      39.271  31.673  32.769  1.00  0.00     0.060 A 
BRANCH  89  90
ATOM     90  S   UNL A   1      37.898  32.711  32.205  1.00  0.00     0.124 S 
ATOM     91  O   UNL A   1      36.909  31.717  31.801  1.00  0.00    -0.237 OA
ATOM     92  O   UNL A   1      37.574  33.467  33.414  1.00  0.00    -0.237 OA
ATOM     93  O   UNL A   1      38.489  33.488  31.123  1.00  0.00    -0.744 OA
ENDBRANCH  89  90
ENDBRANCH  57  82
BRANCH  69  94
ATOM     94  C   UNL A   1      45.003  23.731  33.666  1.00  0.00     0.058 A 
ATOM     95  C   UNL A   1      44.088  22.715  33.994  1.00  0.00     0.135 A 
ATOM     96  C   UNL A   1      46.335  23.509  34.091  1.00  0.00     0.135 A 
ATOM     97  F   UNL A   1      42.823  22.748  33.553  1.00  0.00    -0.206 F 
ATOM     98  C   UNL A   1      44.447  21.596  34.753  1.00  0.00     0.059 A 
ATOM     99  C   UNL A   1      46.727  22.377  34.801  1.00  0.00     0.059 A 
ATOM    100  F   UNL A   1      47.308  24.392  33.819  1.00  0.00    -0.206 F 
ATOM    101  C   UNL A   1      45.769  21.436  35.154  1.00  0.00     0.060 A 
BRANCH 101 102
ATOM    102  S   UNL A   1      46.262  19.972  36.085  1.00  0.00     0.124 S 
ATOM    103  O   UNL A   1      45.654  20.235  37.386  1.00  0.00    -0.237 OA
ATOM    104  O   UNL A   1      45.665  18.881  35.321  1.00  0.00    -0.237 OA
ATOM    105  O   UNL A   1      47.720  20.030  36.044  1.00  0.00    -0.744 OA
ENDBRANCH 101 102
ENDBRANCH  69  94
ENDBRANCH  43  44
ENDBRANCH  35  38
ENDBRANCH  33  34
ENDBRANCH  32  33
ENDBRANCH  31  32
ENDBRANCH   1  31
TORSDOF 19
ENDMDL
MODEL 2
REMARK VINA RESULT:     -12.3      1.553      2.226
REMARK SMILES COc1cc2ccccc2cc1C(=O)Nc1cc(C(=O)NCCCCCCNC(=O)c2ccc(-c3c4nc(c(-c5c(F)cc(S(=O)(=O)[O-])cc5F)c5ccc([nH]5)c(-c5c(F)cc(S(=O)(=O)[O-])cc5F)c5nc(c(-c6c(F)cc(S(=O)(=O)[O-])cc6F)c6ccc3[nH]6)C=C5)C=C4)cc2)ccc1C
REMARK SMILES IDX 24 1 23 2 22 3 21 4 19 5 20 6 18 8 16 9 17 10 99 11 98 12
REMARK SMILES IDX 100 13 97 14 15 15 13 16 14 17 12 19 3 20 4 21 5 22 11 23
REMARK SMILES IDX 6 24 10 25 7 26 9 27 8 28 2 29 1 30 25 31 26 32 27 33 28 34
REMARK SMILES IDX 29 35 30 37 31 38 32 39 96 40 33 41 95 42 34 43 35 44 36 45
REMARK SMILES IDX 89 46 37 47 94 48 88 49 90 50 38 51 93 52 87 53 86 54 39 56
REMARK SMILES IDX 73 57 52 58 72 59 53 60 56 61 71 62 91 63 54 64 55 65 70 67
REMARK SMILES IDX 92 68 57 69 40 70 41 71 50 72 42 73 43 74 49 75 51 76 44 77
REMARK SMILES IDX 45 78 46 79 47 80 48 81 74 82 75 83 84 84 76 85 77 86 83 87
REMARK SMILES IDX 85 88 78 89 79 90 80 91 81 92 82 93 58 94 59 95 68 96 60 97
REMARK SMILES IDX 61 98 67 99 69 100 62 101 63 102 64 103 65 104 66 105
REMARK H PARENT 21 7 15 18 28 36 90 55 56 66
REMARK Flexibility Score: inf
ROOT
ATOM      1  C   UNL A   1      32.673  27.188  26.163  1.00  0.00     0.002 C 
ENDROOT
BRANCH   1   2
ATOM      2  C   UNL A   1      34.057  27.070  25.504  1.00  0.00     0.021 C 
BRANCH   2   3
ATOM      3  C   UNL A   1      34.351  25.680  24.939  1.00  0.00     0.116 C 
BRANCH   3   4
ATOM      4  N   UNL A   1      35.629  25.178  25.408  1.00  0.00    -0.352 N 
ATOM      5  C   UNL A   1      36.105  23.940  25.751  1.00  0.00     0.251 C 
ATOM      6  O   UNL A   1      37.296  23.885  26.070  1.00  0.00    -0.269 OA
ATOM      7  H   UNL A   1      36.307  25.887  25.499  1.00  0.00     0.163 HD
BRANCH   5   8
ATOM      8  C   UNL A   1      35.321  22.665  25.714  1.00  0.00     0.041 A 
ATOM      9  C   UNL A   1      33.321  21.295  25.949  1.00  0.00     0.045 A 
ATOM     10  C   UNL A   1      34.025  22.485  26.196  1.00  0.00     0.040 A 
ATOM     11  C   UNL A   1      33.981  20.172  25.419  1.00  0.00    -0.027 A 
ATOM     12  C   UNL A   1      35.303  20.330  24.988  1.00  0.00     0.006 A 
ATOM     13  C   UNL A   1      33.299  18.864  25.127  1.00  0.00     0.046 C 
ATOM     14  C   UNL A   1      35.949  21.565  25.107  1.00  0.00     0.014 A 
BRANCH   9  15
ATOM     15  N   UNL A   1      31.934  21.232  26.157  1.00  0.00    -0.322 N 
ATOM     16  C   UNL A   1      30.919  22.053  25.709  1.00  0.00     0.259 C 
ATOM     17  O   UNL A   1      29.777  21.829  26.122  1.00  0.00    -0.269 OA
ATOM     18  H   UNL A   1      31.635  20.478  26.716  1.00  0.00     0.170 HD
BRANCH  16  19
ATOM     19  C   UNL A   1      31.086  23.136  24.693  1.00  0.00     0.082 A 
ATOM     20  C   UNL A   1      31.832  23.054  23.509  1.00  0.00     0.132 A 
ATOM     21  C   UNL A   1      31.982  24.175  22.682  1.00  0.00     0.056 A 
ATOM     22  C   UNL A   1      31.279  25.358  22.938  1.00  0.00    -0.015 A 
ATOM     23  C   UNL A   1      30.346  24.311  24.924  1.00  0.00     0.026 A 
ATOM     24  C   UNL A   1      31.406  26.478  22.101  1.00  0.00     0.009 A 
ATOM     25  C   UNL A   1      30.413  25.413  24.051  1.00  0.00    -0.017 A 
ATOM     26  C   UNL A   1      30.646  27.625  22.331  1.00  0.00     0.001 A 
ATOM     27  C   UNL A   1      29.645  26.570  24.259  1.00  0.00     0.009 A 
ATOM     28  C   UNL A   1      29.755  27.664  23.400  1.00  0.00     0.001 A 
BRANCH  20  29
ATOM     29  O   UNL A   1      32.506  21.941  23.089  1.00  0.00    -0.496 OA
ATOM     30  C   UNL A   1      31.783  21.243  22.081  1.00  0.00     0.278 C 
ENDBRANCH  20  29
ENDBRANCH  16  19
ENDBRANCH   9  15
ENDBRANCH   5   8
ENDBRANCH   3   4
ENDBRANCH   2   3
ENDBRANCH   1   2
BRANCH   1  31
ATOM     31  C   UNL A   1      31.933  28.523  25.952  1.00  0.00     0.002 C 
BRANCH  31  32
ATOM     32  C   UNL A   1      32.749  29.791  26.215  1.00  0.00     0.021 C 
BRANCH  32  33
ATOM     33  C   UNL A   1      33.341  29.845  27.618  1.00  0.00     0.116 C 
BRANCH  33  34
ATOM     34  N   UNL A   1      33.871  31.151  27.971  1.00  0.00    -0.352 N 
ATOM     35  C   UNL A   1      34.960  31.399  28.793  1.00  0.00     0.251 C 
ATOM     36  H   UNL A   1      33.413  31.934  27.589  1.00  0.00     0.163 HD
ATOM     37  O   UNL A   1      35.114  32.434  29.401  1.00  0.00    -0.269 OA
BRANCH  35  38
ATOM     38  C   UNL A   1      36.035  30.382  28.747  1.00  0.00     0.039 A 
ATOM     39  C   UNL A   1      36.331  29.721  29.947  1.00  0.00     0.014 A 
ATOM     40  C   UNL A   1      36.883  30.300  27.647  1.00  0.00     0.014 A 
ATOM     41  C   UNL A   1      37.567  29.099  30.097  1.00  0.00     0.010 A 
ATOM     42  C   UNL A   1      38.136  29.742  27.822  1.00  0.00     0.010 A 
ATOM     43  C   UNL A   1      38.495  29.186  29.061  1.00  0.00    -0.014 A 
BRANCH  43  44
ATOM     44  C   UNL A   1      39.891  28.787  29.197  1.00  0.00     0.031 A 
ATOM     45  C   UNL A   1      40.296  27.395  28.891  1.00  0.00     0.074 A 
ATOM     46  C   UNL A   1      40.826  29.703  29.533  1.00  0.00     0.049 A 
ATOM     47  N   UNL A   1      41.443  26.887  29.195  1.00  0.00    -0.248 NA
ATOM     48  C   UNL A   1      39.385  26.423  28.292  1.00  0.00     0.031 C 
ATOM     49  C   UNL A   1      42.272  29.591  29.365  1.00  0.00     0.029 A 
ATOM     50  N   UNL A   1      40.655  30.846  30.317  1.00  0.00    -0.354 N 
ATOM     51  C   UNL A   1      41.532  25.659  28.583  1.00  0.00     0.074 A 
ATOM     52  C   UNL A   1      40.187  25.361  28.168  1.00  0.00     0.031 C 
ATOM     53  C   UNL A   1      42.877  30.453  30.196  1.00  0.00     0.029 A 
ATOM     54  C   UNL A   1      41.850  31.031  31.042  1.00  0.00     0.049 A 
ATOM     55  H   UNL A   1      39.854  31.416  30.354  1.00  0.00     0.167 HD
ATOM     56  C   UNL A   1      42.766  25.118  28.376  1.00  0.00     0.037 A 
ATOM     57  C   UNL A   1      41.862  30.985  32.408  1.00  0.00     0.037 A 
ATOM     58  C   UNL A   1      43.764  25.779  29.223  1.00  0.00     0.049 A 
ATOM     59  C   UNL A   1      42.718  29.878  32.986  1.00  0.00     0.074 A 
ATOM     60  C   UNL A   1      44.779  26.687  28.977  1.00  0.00     0.029 A 
ATOM     61  N   UNL A   1      43.619  25.718  30.608  1.00  0.00    -0.354 N 
ATOM     62  N   UNL A   1      43.183  28.873  32.293  1.00  0.00    -0.248 NA
ATOM     63  C   UNL A   1      43.102  29.804  34.393  1.00  0.00     0.031 C 
ATOM     64  C   UNL A   1      45.160  27.261  30.223  1.00  0.00     0.029 A 
ATOM     65  C   UNL A   1      44.414  26.664  31.227  1.00  0.00     0.049 A 
ATOM     66  H   UNL A   1      43.031  25.087  31.082  1.00  0.00     0.167 HD
ATOM     67  C   UNL A   1      43.856  28.013  33.122  1.00  0.00     0.074 A 
ATOM     68  C   UNL A   1      43.810  28.661  34.420  1.00  0.00     0.031 C 
ATOM     69  C   UNL A   1      44.379  26.831  32.676  1.00  0.00     0.037 A 
BRANCH  56  70
ATOM     70  C   UNL A   1      43.119  24.146  27.253  1.00  0.00     0.058 A 
ATOM     71  C   UNL A   1      42.893  22.758  27.411  1.00  0.00     0.135 A 
ATOM     72  C   UNL A   1      43.813  24.478  26.065  1.00  0.00     0.135 A 
ATOM     73  F   UNL A   1      42.250  22.278  28.486  1.00  0.00    -0.206 F 
ATOM     74  C   UNL A   1      43.349  21.794  26.499  1.00  0.00     0.059 A 
ATOM     75  C   UNL A   1      44.239  23.540  25.123  1.00  0.00     0.059 A 
ATOM     76  F   UNL A   1      44.181  25.727  25.767  1.00  0.00    -0.206 F 
ATOM     77  C   UNL A   1      44.031  22.194  25.359  1.00  0.00     0.060 A 
BRANCH  77  78
ATOM     78  S   UNL A   1      44.672  20.965  24.207  1.00  0.00     0.124 S 
ATOM     79  O   UNL A   1      43.786  19.831  24.453  1.00  0.00    -0.237 OA
ATOM     80  O   UNL A   1      44.515  21.629  22.918  1.00  0.00    -0.237 OA
ATOM     81  O   UNL A   1      46.054  20.778  24.642  1.00  0.00    -0.744 OA
ENDBRANCH  77  78
ENDBRANCH  56  70
BRANCH  57  82
ATOM     82  C   UNL A   1      40.622  31.540  33.018  1.00  0.00     0.058 A 
ATOM     83  C   UNL A   1      39.609  30.625  33.368  1.00  0.00     0.135 A 
ATOM     84  C   UNL A   1      40.622  32.785  33.662  1.00  0.00     0.135 A 
ATOM     85  F   UNL A   1      39.548  29.429  32.760  1.00  0.00    -0.206 F 
ATOM     86  C   UNL A   1      38.752  30.858  34.438  1.00  0.00     0.059 A 
ATOM     87  C   UNL A   1      39.762  33.044  34.731  1.00  0.00     0.059 A 
ATOM     88  F   UNL A   1      41.556  33.701  33.363  1.00  0.00    -0.206 F 
ATOM     89  C   UNL A   1      38.892  32.040  35.161  1.00  0.00     0.060 A 
BRANCH  89  90
ATOM     90  S   UNL A   1      38.040  32.166  36.753  1.00  0.00     0.124 S 
ATOM     91  O   UNL A   1      36.867  32.965  36.412  1.00  0.00    -0.237 OA
ATOM     92  O   UNL A   1      37.776  30.763  37.068  1.00  0.00    -0.237 OA
ATOM     93  O   UNL A   1      39.022  32.824  37.607  1.00  0.00    -0.744 OA
ENDBRANCH  89  90
ENDBRANCH  57  82
BRANCH  69  94
ATOM     94  C   UNL A   1      44.967  25.751  33.556  1.00  0.00     0.058 A 
ATOM     95  C   UNL A   1      46.344  25.501  33.687  1.00  0.00     0.135 A 
ATOM     96  C   UNL A   1      44.130  25.000  34.417  1.00  0.00     0.135 A 
ATOM     97  F   UNL A   1      47.249  26.226  33.013  1.00  0.00    -0.206 F 
ATOM     98  C   UNL A   1      46.854  24.527  34.550  1.00  0.00     0.059 A 
ATOM     99  C   UNL A   1      44.619  24.062  35.324  1.00  0.00     0.059 A 
ATOM    100  F   UNL A   1      42.798  25.162  34.408  1.00  0.00    -0.206 F 
ATOM    101  C   UNL A   1      45.983  23.810  35.364  1.00  0.00     0.060 A 
BRANCH 101 102
ATOM    102  S   UNL A   1      46.628  22.589  36.525  1.00  0.00     0.124 S 
ATOM    103  O   UNL A   1      45.494  22.420  37.430  1.00  0.00    -0.237 OA
ATOM    104  O   UNL A   1      46.922  21.444  35.668  1.00  0.00    -0.237 OA
ATOM    105  O   UNL A   1      47.796  23.255  37.090  1.00  0.00    -0.744 OA
ENDBRANCH 101 102
ENDBRANCH  69  94
ENDBRANCH  43  44
ENDBRANCH  35  38
ENDBRANCH  33  34
ENDBRANCH  32  33
ENDBRANCH  31  32
ENDBRANCH   1  31
TORSDOF 19
ENDMDL
MODEL 3
REMARK VINA RESULT:     -12.0      1.567      2.770
REMARK SMILES COc1cc2ccccc2cc1C(=O)Nc1cc(C(=O)NCCCCCCNC(=O)c2ccc(-c3c4nc(c(-c5c(F)cc(S(=O)(=O)[O-])cc5F)c5ccc([nH]5)c(-c5c(F)cc(S(=O)(=O)[O-])cc5F)c5nc(c(-c6c(F)cc(S(=O)(=O)[O-])cc6F)c6ccc3[nH]6)C=C5)C=C4)cc2)ccc1C
REMARK SMILES IDX 24 1 23 2 22 3 21 4 19 5 20 6 18 8 16 9 17 10 99 11 98 12
REMARK SMILES IDX 100 13 97 14 15 15 13 16 14 17 12 19 3 20 4 21 5 22 11 23
REMARK SMILES IDX 6 24 10 25 7 26 9 27 8 28 2 29 1 30 25 31 26 32 27 33 28 34
REMARK SMILES IDX 29 35 30 37 31 38 32 39 96 40 33 41 95 42 34 43 35 44 36 45
REMARK SMILES IDX 89 46 37 47 94 48 88 49 90 50 38 51 93 52 87 53 86 54 39 56
REMARK SMILES IDX 73 57 52 58 72 59 53 60 56 61 71 62 91 63 54 64 55 65 70 67
REMARK SMILES IDX 92 68 57 69 40 70 41 71 50 72 42 73 43 74 49 75 51 76 44 77
REMARK SMILES IDX 45 78 46 79 47 80 48 81 74 82 75 83 84 84 76 85 77 86 83 87
REMARK SMILES IDX 85 88 78 89 79 90 80 91 81 92 82 93 58 94 59 95 68 96 60 97
REMARK SMILES IDX 61 98 67 99 69 100 62 101 63 102 64 103 65 104 66 105
REMARK H PARENT 21 7 15 18 28 36 90 55 56 66
REMARK Flexibility Score: inf
ROOT
ATOM      1  C   UNL A   1      32.070  27.298  26.574  1.00  0.00     0.002 C 
ENDROOT
BRANCH   1   2
ATOM      2  C   UNL A   1      30.614  26.811  26.645  1.00  0.00     0.021 C 
BRANCH   2   3
ATOM      3  C   UNL A   1      30.370  25.495  25.906  1.00  0.00     0.116 C 
BRANCH   3   4
ATOM      4  N   UNL A   1      29.805  24.491  26.785  1.00  0.00    -0.352 N 
ATOM      5  C   UNL A   1      30.054  23.162  27.009  1.00  0.00     0.251 C 
ATOM      6  O   UNL A   1      29.383  22.625  27.896  1.00  0.00    -0.269 OA
ATOM      7  H   UNL A   1      29.079  24.844  27.350  1.00  0.00     0.163 HD
BRANCH   5   8
ATOM      8  C   UNL A   1      31.096  22.342  26.313  1.00  0.00     0.041 A 
ATOM      9  C   UNL A   1      32.304  21.486  24.379  1.00  0.00     0.045 A 
ATOM     10  C   UNL A   1      31.184  22.123  24.940  1.00  0.00     0.040 A 
ATOM     11  C   UNL A   1      33.247  20.846  25.204  1.00  0.00    -0.027 A 
ATOM     12  C   UNL A   1      33.129  21.013  26.588  1.00  0.00     0.006 A 
ATOM     13  C   UNL A   1      34.470  20.144  24.682  1.00  0.00     0.046 C 
ATOM     14  C   UNL A   1      32.088  21.774  27.129  1.00  0.00     0.014 A 
BRANCH   9  15
ATOM     15  N   UNL A   1      32.537  21.542  22.996  1.00  0.00    -0.322 N 
ATOM     16  C   UNL A   1      32.873  22.605  22.183  1.00  0.00     0.259 C 
ATOM     17  O   UNL A   1      32.926  22.400  20.967  1.00  0.00    -0.269 OA
ATOM     18  H   UNL A   1      32.444  20.680  22.528  1.00  0.00     0.170 HD
BRANCH  16  19
ATOM     19  C   UNL A   1      33.265  23.961  22.673  1.00  0.00     0.082 A 
ATOM     20  C   UNL A   1      34.341  24.257  23.522  1.00  0.00     0.132 A 
ATOM     21  C   UNL A   1      34.548  25.564  23.980  1.00  0.00     0.056 A 
ATOM     22  C   UNL A   1      33.778  26.629  23.495  1.00  0.00    -0.015 A 
ATOM     23  C   UNL A   1      32.521  25.038  22.153  1.00  0.00     0.026 A 
ATOM     24  C   UNL A   1      33.995  27.945  23.933  1.00  0.00     0.009 A 
ATOM     25  C   UNL A   1      32.779  26.368  22.533  1.00  0.00    -0.017 A 
ATOM     26  C   UNL A   1      33.266  29.002  23.389  1.00  0.00     0.001 A 
ATOM     27  C   UNL A   1      32.065  27.446  21.985  1.00  0.00     0.009 A 
ATOM     28  C   UNL A   1      32.314  28.754  22.404  1.00  0.00     0.001 A 
BRANCH  20  29
ATOM     29  O   UNL A   1      35.223  23.335  24.011  1.00  0.00    -0.496 OA
ATOM     30  C   UNL A   1      36.568  23.787  23.896  1.00  0.00     0.278 C 
ENDBRANCH  20  29
ENDBRANCH  16  19
ENDBRANCH   9  15
ENDBRANCH   5   8
ENDBRANCH   3   4
ENDBRANCH   2   3
ENDBRANCH   1   2
BRANCH   1  31
ATOM     31  C   UNL A   1      32.486  28.348  27.622  1.00  0.00     0.002 C 
BRANCH  31  32
ATOM     32  C   UNL A   1      32.619  29.786  27.114  1.00  0.00     0.021 C 
BRANCH  32  33
ATOM     33  C   UNL A   1      34.056  30.187  26.812  1.00  0.00     0.116 C 
BRANCH  33  34
ATOM     34  N   UNL A   1      34.520  31.313  27.604  1.00  0.00    -0.352 N 
ATOM     35  C   UNL A   1      35.392  31.255  28.681  1.00  0.00     0.251 C 
ATOM     36  H   UNL A   1      34.183  32.202  27.351  1.00  0.00     0.163 HD
ATOM     37  O   UNL A   1      35.424  32.088  29.559  1.00  0.00    -0.269 OA
BRANCH  35  38
ATOM     38  C   UNL A   1      36.423  30.195  28.606  1.00  0.00     0.039 A 
ATOM     39  C   UNL A   1      36.584  29.389  29.740  1.00  0.00     0.014 A 
ATOM     40  C   UNL A   1      37.362  30.195  27.578  1.00  0.00     0.014 A 
ATOM     41  C   UNL A   1      37.775  28.691  29.919  1.00  0.00     0.010 A 
ATOM     42  C   UNL A   1      38.570  29.556  27.791  1.00  0.00     0.010 A 
ATOM     43  C   UNL A   1      38.794  28.846  28.981  1.00  0.00    -0.014 A 
BRANCH  43  44
ATOM     44  C   UNL A   1      40.155  28.363  29.186  1.00  0.00     0.031 A 
ATOM     45  C   UNL A   1      40.494  26.955  28.871  1.00  0.00     0.074 A 
ATOM     46  C   UNL A   1      41.121  29.215  29.593  1.00  0.00     0.049 A 
ATOM     47  N   UNL A   1      41.592  26.375  29.227  1.00  0.00    -0.248 NA
ATOM     48  C   UNL A   1      39.564  26.050  28.201  1.00  0.00     0.031 C 
ATOM     49  C   UNL A   1      42.565  29.020  29.503  1.00  0.00     0.029 A 
ATOM     50  N   UNL A   1      40.973  30.351  30.392  1.00  0.00    -0.354 N 
ATOM     51  C   UNL A   1      41.643  25.155  28.593  1.00  0.00     0.074 A 
ATOM     52  C   UNL A   1      40.309  24.945  28.099  1.00  0.00     0.031 C 
ATOM     53  C   UNL A   1      43.171  29.829  30.385  1.00  0.00     0.029 A 
ATOM     54  C   UNL A   1      42.132  30.451  31.186  1.00  0.00     0.049 A 
ATOM     55  H   UNL A   1      40.204  30.967  30.397  1.00  0.00     0.167 HD
ATOM     56  C   UNL A   1      42.854  24.546  28.443  1.00  0.00     0.037 A 
ATOM     57  C   UNL A   1      42.065  30.378  32.549  1.00  0.00     0.037 A 
ATOM     58  C   UNL A   1      43.839  25.131  29.359  1.00  0.00     0.049 A 
ATOM     59  C   UNL A   1      42.821  29.212  33.148  1.00  0.00     0.074 A 
ATOM     60  C   UNL A   1      44.917  25.982  29.190  1.00  0.00     0.029 A 
ATOM     61  N   UNL A   1      43.612  25.052  30.732  1.00  0.00    -0.354 N 
ATOM     62  N   UNL A   1      43.265  28.195  32.461  1.00  0.00    -0.248 NA
ATOM     63  C   UNL A   1      43.119  29.088  34.573  1.00  0.00     0.031 C 
ATOM     64  C   UNL A   1      45.259  26.507  30.468  1.00  0.00     0.029 A 
ATOM     65  C   UNL A   1      44.424  25.937  31.416  1.00  0.00     0.049 A 
ATOM     66  H   UNL A   1      42.963  24.448  31.158  1.00  0.00     0.167 HD
ATOM     67  C   UNL A   1      43.839  27.281  33.306  1.00  0.00     0.074 A 
ATOM     68  C   UNL A   1      43.758  27.905  34.614  1.00  0.00     0.031 C 
ATOM     69  C   UNL A   1      44.317  26.078  32.864  1.00  0.00     0.037 A 
BRANCH  56  70
ATOM     70  C   UNL A   1      43.213  23.576  27.320  1.00  0.00     0.058 A 
ATOM     71  C   UNL A   1      42.733  22.245  27.345  1.00  0.00     0.135 A 
ATOM     72  C   UNL A   1      44.133  23.831  26.276  1.00  0.00     0.135 A 
ATOM     73  F   UNL A   1      41.855  21.841  28.274  1.00  0.00    -0.206 F 
ATOM     74  C   UNL A   1      43.160  21.256  26.445  1.00  0.00     0.059 A 
ATOM     75  C   UNL A   1      44.540  22.874  25.345  1.00  0.00     0.059 A 
ATOM     76  F   UNL A   1      44.750  25.006  26.126  1.00  0.00    -0.206 F 
ATOM     77  C   UNL A   1      44.073  21.578  25.451  1.00  0.00     0.060 A 
BRANCH  77  78
ATOM     78  S   UNL A   1      44.674  20.306  24.324  1.00  0.00     0.124 S 
ATOM     79  O   UNL A   1      45.986  20.002  24.886  1.00  0.00    -0.237 OA
ATOM     80  O   UNL A   1      43.665  19.262  24.461  1.00  0.00    -0.237 OA
ATOM     81  O   UNL A   1      44.695  20.981  23.029  1.00  0.00    -0.744 OA
ENDBRANCH  77  78
ENDBRANCH  56  70
BRANCH  57  82
ATOM     82  C   UNL A   1      40.827  30.994  33.102  1.00  0.00     0.058 A 
ATOM     83  C   UNL A   1      39.766  30.128  33.430  1.00  0.00     0.135 A 
ATOM     84  C   UNL A   1      40.853  32.250  33.722  1.00  0.00     0.135 A 
ATOM     85  F   UNL A   1      39.678  28.923  32.842  1.00  0.00    -0.206 F 
ATOM     86  C   UNL A   1      38.880  30.416  34.462  1.00  0.00     0.059 A 
ATOM     87  C   UNL A   1      39.966  32.565  34.753  1.00  0.00     0.059 A 
ATOM     88  F   UNL A   1      41.834  33.123  33.442  1.00  0.00    -0.206 F 
ATOM     89  C   UNL A   1      39.040  31.606  35.168  1.00  0.00     0.060 A 
BRANCH  89  90
ATOM     90  S   UNL A   1      38.136  31.797  36.725  1.00  0.00     0.124 S 
ATOM     91  O   UNL A   1      37.098  32.757  36.361  1.00  0.00    -0.237 OA
ATOM     92  O   UNL A   1      37.672  30.433  36.976  1.00  0.00    -0.237 OA
ATOM     93  O   UNL A   1      39.154  32.289  37.645  1.00  0.00    -0.744 OA
ENDBRANCH  89  90
ENDBRANCH  57  82
BRANCH  69  94
ATOM     94  C   UNL A   1      44.790  24.948  33.751  1.00  0.00     0.058 A 
ATOM     95  C   UNL A   1      43.934  24.119  34.496  1.00  0.00     0.135 A 
ATOM     96  C   UNL A   1      46.158  24.583  33.769  1.00  0.00     0.135 A 
ATOM     97  F   UNL A   1      42.605  24.287  34.470  1.00  0.00    -0.206 F 
ATOM     98  C   UNL A   1      44.405  23.050  35.265  1.00  0.00     0.059 A 
ATOM     99  C   UNL A   1      46.642  23.490  34.484  1.00  0.00     0.059 A 
ATOM    100  F   UNL A   1      47.073  25.279  33.078  1.00  0.00    -0.206 F 
ATOM    101  C   UNL A   1      45.762  22.744  35.255  1.00  0.00     0.060 A 
BRANCH 101 102
ATOM    102  S   UNL A   1      46.379  21.335  36.197  1.00  0.00     0.124 S 
ATOM    103  O   UNL A   1      47.792  21.675  36.339  1.00  0.00    -0.237 OA
ATOM    104  O   UNL A   1      45.593  21.391  37.426  1.00  0.00    -0.237 OA
ATOM    105  O   UNL A   1      46.085  20.202  35.325  1.00  0.00    -0.744 OA
ENDBRANCH 101 102
ENDBRANCH  69  94
ENDBRANCH  43  44
ENDBRANCH  35  38
ENDBRANCH  33  34
ENDBRANCH  32  33
ENDBRANCH  31  32
ENDBRANCH   1  31
TORSDOF 19
ENDMDL
