MODEL 1
REMARK VINA RESULT:     -11.8      0.000      0.000
REMARK SMILES O=C(NCCCCCCNC(=O)c1cc(Br)ccc1OC(=O)c1ccc(F)cc1)c1ccc(-c2c3nc(c(-c4c(F)cc(S(=O)(=O)[O-])cc4F)c4ccc([nH]4)c(-c4c(F)cc(S(=O)(=O)[O-])cc4F)c4nc(c(-c5c(F)cc(S(=O)(=O)[O-])cc5F)c5ccc2[nH]5)C=C4)C=C3)cc1
REMARK SMILES IDX 6 1 5 2 4 3 3 4 1 5 2 6 30 8 31 9 95 10 32 11 94 12 33 13
REMARK SMILES IDX 34 14 35 15 88 16 36 17 93 18 87 19 89 20 37 21 92 22 86 23
REMARK SMILES IDX 85 24 38 26 72 27 51 28 71 29 52 30 55 31 70 32 90 33 53 34
REMARK SMILES IDX 54 35 69 37 91 38 56 39 39 40 40 41 49 42 41 43 42 44 48 45
REMARK SMILES IDX 50 46 43 47 44 48 45 49 46 50 47 51 73 52 74 53 83 54 75 55
REMARK SMILES IDX 76 56 82 57 84 58 77 59 78 60 79 61 80 62 81 63 57 64 58 65
REMARK SMILES IDX 67 66 59 67 60 68 66 69 68 70 61 71 62 72 63 73 64 74 65 75
REMARK SMILES IDX 7 76 8 77 9 78 10 79 11 80 12 82 13 83 14 84 19 85 15 86
REMARK SMILES IDX 18 87 16 88 17 89 20 90 21 91 22 92 23 93 24 94 29 95 25 96
REMARK SMILES IDX 28 97 26 98 27 99
REMARK H PARENT 3 7 89 25 55 36 10 81
REMARK Flexibility Score: inf
ROOT
ATOM      1  C   UNL A   1      37.005  20.602  24.992  1.00  0.00     0.002 C 
ENDROOT
BRANCH   1   2
ATOM      2  C   UNL A   1      38.256  19.722  24.986  1.00  0.00     0.021 C 
BRANCH   2   3
ATOM      3  C   UNL A   1      39.362  20.145  25.945  1.00  0.00     0.116 C 
BRANCH   3   4
ATOM      4  N   UNL A   1      40.446  19.179  26.010  1.00  0.00    -0.352 N 
ATOM      5  O   UNL A   1      42.573  18.447  26.032  1.00  0.00    -0.269 OA
ATOM      6  C   UNL A   1      41.796  19.389  26.159  1.00  0.00     0.251 C 
ATOM      7  H   UNL A   1      40.172  18.236  25.938  1.00  0.00     0.163 HD
BRANCH   6   8
ATOM      8  C   UNL A   1      42.318  20.745  26.444  1.00  0.00     0.039 A 
ATOM      9  C   UNL A   1      42.490  21.192  27.757  1.00  0.00     0.014 A 
ATOM     10  C   UNL A   1      42.672  21.574  25.375  1.00  0.00     0.014 A 
ATOM     11  C   UNL A   1      42.896  22.502  27.998  1.00  0.00     0.010 A 
ATOM     12  C   UNL A   1      43.147  22.867  25.618  1.00  0.00     0.010 A 
ATOM     13  C   UNL A   1      43.238  23.351  26.932  1.00  0.00    -0.014 A 
BRANCH  13  14
ATOM     14  C   UNL A   1      43.747  24.717  27.218  1.00  0.00     0.031 A 
ATOM     15  C   UNL A   1      45.194  25.067  27.012  1.00  0.00     0.074 A 
ATOM     16  C   UNL A   1      42.878  25.657  27.638  1.00  0.00     0.049 A 
ATOM     17  N   UNL A   1      45.793  26.217  27.188  1.00  0.00    -0.248 NA
ATOM     18  C   UNL A   1      46.085  23.990  26.556  1.00  0.00     0.031 C 
ATOM     19  C   UNL A   1      41.451  25.432  27.877  1.00  0.00     0.029 A 
ATOM     20  N   UNL A   1      43.056  26.987  27.914  1.00  0.00    -0.354 N 
ATOM     21  C   UNL A   1      47.130  26.005  26.873  1.00  0.00     0.074 A 
ATOM     22  C   UNL A   1      47.260  24.606  26.521  1.00  0.00     0.031 C 
ATOM     23  C   UNL A   1      40.873  26.595  28.209  1.00  0.00     0.029 A 
ATOM     24  C   UNL A   1      41.895  27.637  28.261  1.00  0.00     0.049 A 
ATOM     25  H   UNL A   1      43.931  27.436  27.868  1.00  0.00     0.167 HD
ATOM     26  C   UNL A   1      48.150  26.897  26.870  1.00  0.00     0.037 A 
ATOM     27  C   UNL A   1      41.673  28.923  28.590  1.00  0.00     0.037 A 
ATOM     28  C   UNL A   1      48.013  28.288  27.214  1.00  0.00     0.049 A 
ATOM     29  C   UNL A   1      42.823  29.885  28.604  1.00  0.00     0.074 A 
ATOM     30  C   UNL A   1      48.987  29.272  27.225  1.00  0.00     0.029 A 
ATOM     31  N   UNL A   1      46.829  28.897  27.607  1.00  0.00    -0.354 N 
ATOM     32  N   UNL A   1      44.079  29.666  28.301  1.00  0.00    -0.248 NA
ATOM     33  C   UNL A   1      42.531  31.265  29.015  1.00  0.00     0.031 C 
ATOM     34  C   UNL A   1      48.399  30.467  27.657  1.00  0.00     0.029 A 
ATOM     35  C   UNL A   1      47.051  30.237  27.879  1.00  0.00     0.049 A 
ATOM     36  H   UNL A   1      45.959  28.442  27.682  1.00  0.00     0.167 HD
ATOM     37  C   UNL A   1      44.730  30.880  28.480  1.00  0.00     0.074 A 
ATOM     38  C   UNL A   1      43.724  31.835  28.903  1.00  0.00     0.031 C 
ATOM     39  C   UNL A   1      46.042  31.173  28.311  1.00  0.00     0.037 A 
BRANCH  26  40
ATOM     40  C   UNL A   1      49.514  26.391  26.491  1.00  0.00     0.058 A 
ATOM     41  C   UNL A   1      49.973  26.492  25.168  1.00  0.00     0.135 A 
ATOM     42  C   UNL A   1      50.356  25.773  27.429  1.00  0.00     0.135 A 
ATOM     43  F   UNL A   1      49.210  27.078  24.232  1.00  0.00    -0.206 F 
ATOM     44  C   UNL A   1      51.216  25.997  24.788  1.00  0.00     0.059 A 
ATOM     45  C   UNL A   1      51.612  25.288  27.076  1.00  0.00     0.059 A 
ATOM     46  F   UNL A   1      49.974  25.669  28.713  1.00  0.00    -0.206 F 
ATOM     47  C   UNL A   1      52.030  25.396  25.749  1.00  0.00     0.060 A 
BRANCH  47  48
ATOM     48  S   UNL A   1      53.669  24.816  25.260  1.00  0.00     0.124 S 
ATOM     49  O   UNL A   1      53.926  25.615  24.067  1.00  0.00    -0.237 OA
ATOM     50  O   UNL A   1      54.476  25.141  26.432  1.00  0.00    -0.237 OA
ATOM     51  O   UNL A   1      53.464  23.388  25.031  1.00  0.00    -0.744 OA
ENDBRANCH  47  48
ENDBRANCH  26  40
BRANCH  27  52
ATOM     52  C   UNL A   1      40.290  29.357  28.907  1.00  0.00     0.058 A 
ATOM     53  C   UNL A   1      39.353  29.597  27.890  1.00  0.00     0.135 A 
ATOM     54  C   UNL A   1      39.908  29.629  30.229  1.00  0.00     0.135 A 
ATOM     55  F   UNL A   1      39.676  29.360  26.609  1.00  0.00    -0.206 F 
ATOM     56  C   UNL A   1      38.102  30.136  28.167  1.00  0.00     0.059 A 
ATOM     57  C   UNL A   1      38.654  30.148  30.533  1.00  0.00     0.059 A 
ATOM     58  F   UNL A   1      40.769  29.402  31.234  1.00  0.00    -0.206 F 
ATOM     59  C   UNL A   1      37.768  30.422  29.491  1.00  0.00     0.060 A 
BRANCH  59  60
ATOM     60  S   UNL A   1      36.163  31.178  29.827  1.00  0.00     0.124 S 
ATOM     61  O   UNL A   1      35.909  30.721  31.189  1.00  0.00    -0.237 OA
ATOM     62  O   UNL A   1      36.453  32.600  29.676  1.00  0.00    -0.237 OA
ATOM     63  O   UNL A   1      35.299  30.604  28.800  1.00  0.00    -0.744 OA
ENDBRANCH  59  60
ENDBRANCH  27  52
BRANCH  39  64
ATOM     64  C   UNL A   1      46.475  32.585  28.584  1.00  0.00     0.058 A 
ATOM     65  C   UNL A   1      46.885  32.970  29.869  1.00  0.00     0.135 A 
ATOM     66  C   UNL A   1      46.420  33.570  27.587  1.00  0.00     0.135 A 
ATOM     67  F   UNL A   1      46.955  32.064  30.858  1.00  0.00    -0.206 F 
ATOM     68  C   UNL A   1      47.212  34.290  30.162  1.00  0.00     0.059 A 
ATOM     69  C   UNL A   1      46.760  34.894  27.851  1.00  0.00     0.059 A 
ATOM     70  F   UNL A   1      46.047  33.247  26.339  1.00  0.00    -0.206 F 
ATOM     71  C   UNL A   1      47.139  35.246  29.147  1.00  0.00     0.060 A 
BRANCH  71  72
ATOM     72  S   UNL A   1      47.576  36.953  29.539  1.00  0.00     0.124 S 
ATOM     73  O   UNL A   1      46.586  37.698  28.768  1.00  0.00    -0.237 OA
ATOM     74  O   UNL A   1      47.413  36.993  30.989  1.00  0.00    -0.237 OA
ATOM     75  O   UNL A   1      48.953  37.066  29.069  1.00  0.00    -0.744 OA
ENDBRANCH  71  72
ENDBRANCH  39  64
ENDBRANCH  13  14
ENDBRANCH   6   8
ENDBRANCH   3   4
ENDBRANCH   2   3
ENDBRANCH   1   2
BRANCH   1  76
ATOM     76  C   UNL A   1      37.107  21.922  24.223  1.00  0.00     0.002 C 
BRANCH  76  77
ATOM     77  C   UNL A   1      36.975  23.201  25.053  1.00  0.00     0.021 C 
BRANCH  77  78
ATOM     78  C   UNL A   1      35.712  24.024  24.814  1.00  0.00     0.116 C 
BRANCH  78  79
ATOM     79  N   UNL A   1      35.185  23.882  23.465  1.00  0.00    -0.352 N 
ATOM     80  C   UNL A   1      33.929  23.499  23.064  1.00  0.00     0.255 C 
ATOM     81  H   UNL A   1      35.817  24.089  22.740  1.00  0.00     0.163 HD
ATOM     82  O   UNL A   1      33.680  23.310  21.877  1.00  0.00    -0.269 OA
BRANCH  80  83
ATOM     83  C   UNL A   1      32.869  23.310  24.074  1.00  0.00     0.083 A 
ATOM     84  C   UNL A   1      32.017  24.379  24.382  1.00  0.00     0.033 A 
ATOM     85  C   UNL A   1      32.676  22.071  24.695  1.00  0.00     0.144 A 
ATOM     86  C   UNL A   1      31.028  24.213  25.351  1.00  0.00     0.019 A 
ATOM     87  C   UNL A   1      31.673  21.906  25.653  1.00  0.00     0.049 A 
ATOM     88  Br  UNL A   1      29.903  25.666  25.793  1.00  0.00    -0.051 Br
ATOM     89  C   UNL A   1      30.860  22.988  25.995  1.00  0.00     0.019 A 
BRANCH  85  90
ATOM     90  O   UNL A   1      33.375  20.914  24.325  1.00  0.00    -0.422 OA
BRANCH  90  91
ATOM     91  C   UNL A   1      32.708  20.029  23.502  1.00  0.00     0.343 C 
ATOM     92  O   UNL A   1      32.039  20.304  22.512  1.00  0.00    -0.246 OA
BRANCH  91  93
ATOM     93  C   UNL A   1      32.940  18.640  23.982  1.00  0.00     0.060 A 
ATOM     94  C   UNL A   1      33.523  17.657  23.164  1.00  0.00     0.019 A 
ATOM     95  C   UNL A   1      32.526  18.302  25.279  1.00  0.00     0.019 A 
ATOM     96  C   UNL A   1      33.682  16.352  23.640  1.00  0.00     0.040 A 
ATOM     97  C   UNL A   1      32.691  16.997  25.752  1.00  0.00     0.040 A 
ATOM     98  C   UNL A   1      33.264  16.034  24.928  1.00  0.00     0.123 A 
ATOM     99  F   UNL A   1      33.410  14.781  25.377  1.00  0.00    -0.207 F 
ENDBRANCH  91  93
ENDBRANCH  90  91
ENDBRANCH  85  90
ENDBRANCH  80  83
ENDBRANCH  78  79
ENDBRANCH  77  78
ENDBRANCH  76  77
ENDBRANCH   1  76
TORSDOF 19
ENDMDL
MODEL 2
REMARK VINA RESULT:     -11.8      6.425      8.516
REMARK SMILES O=C(NCCCCCCNC(=O)c1cc(Br)ccc1OC(=O)c1ccc(F)cc1)c1ccc(-c2c3nc(c(-c4c(F)cc(S(=O)(=O)[O-])cc4F)c4ccc([nH]4)c(-c4c(F)cc(S(=O)(=O)[O-])cc4F)c4nc(c(-c5c(F)cc(S(=O)(=O)[O-])cc5F)c5ccc2[nH]5)C=C4)C=C3)cc1
REMARK SMILES IDX 6 1 5 2 4 3 3 4 1 5 2 6 30 8 31 9 95 10 32 11 94 12 33 13
REMARK SMILES IDX 34 14 35 15 88 16 36 17 93 18 87 19 89 20 37 21 92 22 86 23
REMARK SMILES IDX 85 24 38 26 72 27 51 28 71 29 52 30 55 31 70 32 90 33 53 34
REMARK SMILES IDX 54 35 69 37 91 38 56 39 39 40 40 41 49 42 41 43 42 44 48 45
REMARK SMILES IDX 50 46 43 47 44 48 45 49 46 50 47 51 73 52 74 53 83 54 75 55
REMARK SMILES IDX 76 56 82 57 84 58 77 59 78 60 79 61 80 62 81 63 57 64 58 65
REMARK SMILES IDX 67 66 59 67 60 68 66 69 68 70 61 71 62 72 63 73 64 74 65 75
REMARK SMILES IDX 7 76 8 77 9 78 10 79 11 80 12 82 13 83 14 84 19 85 15 86
REMARK SMILES IDX 18 87 16 88 17 89 20 90 21 91 22 92 23 93 24 94 29 95 25 96
REMARK SMILES IDX 28 97 26 98 27 99
REMARK H PARENT 3 7 89 25 55 36 10 81
REMARK Flexibility Score: inf
ROOT
ATOM      1  C   UNL A   1      35.931  23.930  25.717  1.00  0.00     0.002 C 
ENDROOT
BRANCH   1   2
ATOM      2  C   UNL A   1      37.399  23.591  25.455  1.00  0.00     0.021 C 
BRANCH   2   3
ATOM      3  C   UNL A   1      38.386  24.082  26.506  1.00  0.00     0.116 C 
BRANCH   3   4
ATOM      4  N   UNL A   1      39.766  23.999  26.061  1.00  0.00    -0.352 N 
ATOM      5  O   UNL A   1      41.915  24.629  25.836  1.00  0.00    -0.269 OA
ATOM      6  C   UNL A   1      40.855  24.744  26.446  1.00  0.00     0.251 C 
ATOM      7  H   UNL A   1      39.948  23.307  25.385  1.00  0.00     0.163 HD
BRANCH   6   8
ATOM      8  C   UNL A   1      40.751  25.699  27.573  1.00  0.00     0.039 A 
ATOM      9  C   UNL A   1      39.754  25.567  28.543  1.00  0.00     0.014 A 
ATOM     10  C   UNL A   1      41.691  26.730  27.676  1.00  0.00     0.014 A 
ATOM     11  C   UNL A   1      39.622  26.530  29.540  1.00  0.00     0.010 A 
ATOM     12  C   UNL A   1      41.600  27.659  28.719  1.00  0.00     0.010 A 
ATOM     13  C   UNL A   1      40.549  27.581  29.645  1.00  0.00    -0.014 A 
BRANCH  13  14
ATOM     14  C   UNL A   1      40.434  28.549  30.766  1.00  0.00     0.031 A 
ATOM     15  C   UNL A   1      41.376  28.499  31.936  1.00  0.00     0.074 A 
ATOM     16  C   UNL A   1      39.485  29.503  30.704  1.00  0.00     0.049 A 
ATOM     17  N   UNL A   1      41.431  29.285  32.981  1.00  0.00    -0.248 NA
ATOM     18  C   UNL A   1      42.385  27.429  31.939  1.00  0.00     0.031 C 
ATOM     19  C   UNL A   1      38.512  29.647  29.619  1.00  0.00     0.029 A 
ATOM     20  N   UNL A   1      39.196  30.541  31.551  1.00  0.00    -0.354 N 
ATOM     21  C   UNL A   1      42.468  28.805  33.770  1.00  0.00     0.074 A 
ATOM     22  C   UNL A   1      43.001  27.639  33.095  1.00  0.00     0.031 C 
ATOM     23  C   UNL A   1      37.771  30.743  29.838  1.00  0.00     0.029 A 
ATOM     24  C   UNL A   1      38.177  31.348  31.103  1.00  0.00     0.049 A 
ATOM     25  H   UNL A   1      39.673  30.695  32.398  1.00  0.00     0.167 HD
ATOM     26  C   UNL A   1      42.938  29.296  34.942  1.00  0.00     0.037 A 
ATOM     27  C   UNL A   1      37.625  32.449  31.647  1.00  0.00     0.037 A 
ATOM     28  C   UNL A   1      42.408  30.460  35.605  1.00  0.00     0.049 A 
ATOM     29  C   UNL A   1      38.145  32.958  32.958  1.00  0.00     0.074 A 
ATOM     30  C   UNL A   1      42.828  31.042  36.789  1.00  0.00     0.029 A 
ATOM     31  N   UNL A   1      41.344  31.221  35.142  1.00  0.00    -0.354 N 
ATOM     32  N   UNL A   1      39.129  32.491  33.687  1.00  0.00    -0.248 NA
ATOM     33  C   UNL A   1      37.475  34.135  33.527  1.00  0.00     0.031 C 
ATOM     34  C   UNL A   1      41.997  32.134  37.059  1.00  0.00     0.029 A 
ATOM     35  C   UNL A   1      41.082  32.256  36.025  1.00  0.00     0.049 A 
ATOM     36  H   UNL A   1      40.847  31.050  34.310  1.00  0.00     0.167 HD
ATOM     37  C   UNL A   1      39.201  33.317  34.802  1.00  0.00     0.074 A 
ATOM     38  C   UNL A   1      38.170  34.325  34.642  1.00  0.00     0.031 C 
ATOM     39  C   UNL A   1      40.044  33.245  35.860  1.00  0.00     0.037 A 
BRANCH  26  40
ATOM     40  C   UNL A   1      44.080  28.567  35.594  1.00  0.00     0.058 A 
ATOM     41  C   UNL A   1      45.408  28.867  35.253  1.00  0.00     0.135 A 
ATOM     42  C   UNL A   1      43.861  27.545  36.531  1.00  0.00     0.135 A 
ATOM     43  F   UNL A   1      45.675  29.838  34.365  1.00  0.00    -0.206 F 
ATOM     44  C   UNL A   1      46.478  28.179  35.815  1.00  0.00     0.059 A 
ATOM     45  C   UNL A   1      44.917  26.857  37.122  1.00  0.00     0.059 A 
ATOM     46  F   UNL A   1      42.610  27.233  36.908  1.00  0.00    -0.206 F 
ATOM     47  C   UNL A   1      46.223  27.175  36.750  1.00  0.00     0.060 A 
BRANCH  47  48
ATOM     48  S   UNL A   1      47.621  26.334  37.524  1.00  0.00     0.124 S 
ATOM     49  O   UNL A   1      48.676  26.535  36.537  1.00  0.00    -0.237 OA
ATOM     50  O   UNL A   1      47.771  27.069  38.777  1.00  0.00    -0.237 OA
ATOM     51  O   UNL A   1      47.147  24.960  37.670  1.00  0.00    -0.744 OA
ENDBRANCH  47  48
ENDBRANCH  26  40
BRANCH  27  52
ATOM     52  C   UNL A   1      36.532  33.140  30.920  1.00  0.00     0.058 A 
ATOM     53  C   UNL A   1      36.806  34.014  29.856  1.00  0.00     0.135 A 
ATOM     54  C   UNL A   1      35.199  33.012  31.338  1.00  0.00     0.135 A 
ATOM     55  F   UNL A   1      38.067  34.176  29.428  1.00  0.00    -0.206 F 
ATOM     56  C   UNL A   1      35.804  34.771  29.262  1.00  0.00     0.059 A 
ATOM     57  C   UNL A   1      34.176  33.743  30.745  1.00  0.00     0.059 A 
ATOM     58  F   UNL A   1      34.891  32.179  32.344  1.00  0.00    -0.206 F 
ATOM     59  C   UNL A   1      34.494  34.639  29.724  1.00  0.00     0.060 A 
BRANCH  59  60
ATOM     60  S   UNL A   1      33.215  35.675  28.982  1.00  0.00     0.124 S 
ATOM     61  O   UNL A   1      32.608  36.278  30.164  1.00  0.00    -0.237 OA
ATOM     62  O   UNL A   1      33.995  36.574  28.138  1.00  0.00    -0.237 OA
ATOM     63  O   UNL A   1      32.378  34.716  28.267  1.00  0.00    -0.744 OA
ENDBRANCH  59  60
ENDBRANCH  27  52
BRANCH  39  64
ATOM     64  C   UNL A   1      39.892  34.280  36.936  1.00  0.00     0.058 A 
ATOM     65  C   UNL A   1      39.211  33.980  38.125  1.00  0.00     0.135 A 
ATOM     66  C   UNL A   1      40.365  35.590  36.760  1.00  0.00     0.135 A 
ATOM     67  F   UNL A   1      38.739  32.741  38.341  1.00  0.00    -0.206 F 
ATOM     68  C   UNL A   1      38.988  34.948  39.099  1.00  0.00     0.059 A 
ATOM     69  C   UNL A   1      40.171  36.570  37.729  1.00  0.00     0.059 A 
ATOM     70  F   UNL A   1      41.035  35.921  35.645  1.00  0.00    -0.206 F 
ATOM     71  C   UNL A   1      39.467  36.242  38.888  1.00  0.00     0.060 A 
BRANCH  71  72
ATOM     72  S   UNL A   1      39.180  37.486  40.165  1.00  0.00     0.124 S 
ATOM     73  O   UNL A   1      38.644  36.677  41.254  1.00  0.00    -0.237 OA
ATOM     74  O   UNL A   1      40.518  38.031  40.377  1.00  0.00    -0.237 OA
ATOM     75  O   UNL A   1      38.232  38.402  39.537  1.00  0.00    -0.744 OA
ENDBRANCH  71  72
ENDBRANCH  39  64
ENDBRANCH  13  14
ENDBRANCH   6   8
ENDBRANCH   3   4
ENDBRANCH   2   3
ENDBRANCH   1   2
BRANCH   1  76
ATOM     76  C   UNL A   1      35.052  22.776  26.205  1.00  0.00     0.002 C 
BRANCH  76  77
ATOM     77  C   UNL A   1      33.651  23.153  26.696  1.00  0.00     0.021 C 
BRANCH  77  78
ATOM     78  C   UNL A   1      33.174  24.557  26.335  1.00  0.00     0.116 C 
BRANCH  78  79
ATOM     79  N   UNL A   1      31.745  24.745  26.537  1.00  0.00    -0.352 N 
ATOM     80  C   UNL A   1      31.003  25.897  26.448  1.00  0.00     0.255 C 
ATOM     81  H   UNL A   1      31.241  23.932  26.769  1.00  0.00     0.163 HD
ATOM     82  O   UNL A   1      29.819  25.906  26.770  1.00  0.00    -0.269 OA
BRANCH  80  83
ATOM     83  C   UNL A   1      31.641  27.136  25.962  1.00  0.00     0.083 A 
ATOM     84  C   UNL A   1      32.637  27.744  26.737  1.00  0.00     0.033 A 
ATOM     85  C   UNL A   1      31.298  27.686  24.722  1.00  0.00     0.144 A 
ATOM     86  C   UNL A   1      33.228  28.927  26.294  1.00  0.00     0.019 A 
ATOM     87  C   UNL A   1      31.905  28.863  24.275  1.00  0.00     0.049 A 
ATOM     88  Br  UNL A   1      34.545  29.767  27.357  1.00  0.00    -0.051 Br
ATOM     89  C   UNL A   1      32.860  29.494  25.074  1.00  0.00     0.019 A 
BRANCH  85  90
ATOM     90  O   UNL A   1      30.435  27.053  23.817  1.00  0.00    -0.422 OA
BRANCH  90  91
ATOM     91  C   UNL A   1      30.988  26.651  22.619  1.00  0.00     0.343 C 
ATOM     92  O   UNL A   1      31.026  27.290  21.573  1.00  0.00    -0.246 OA
BRANCH  91  93
ATOM     93  C   UNL A   1      31.579  25.295  22.780  1.00  0.00     0.060 A 
ATOM     94  C   UNL A   1      30.808  24.186  23.169  1.00  0.00     0.019 A 
ATOM     95  C   UNL A   1      32.958  25.137  22.571  1.00  0.00     0.019 A 
ATOM     96  C   UNL A   1      31.413  22.940  23.351  1.00  0.00     0.040 A 
ATOM     97  C   UNL A   1      33.557  23.887  22.750  1.00  0.00     0.040 A 
ATOM     98  C   UNL A   1      32.780  22.802  23.142  1.00  0.00     0.123 A 
ATOM     99  F   UNL A   1      33.357  21.607  23.325  1.00  0.00    -0.207 F 
ENDBRANCH  91  93
ENDBRANCH  90  91
ENDBRANCH  85  90
ENDBRANCH  80  83
ENDBRANCH  78  79
ENDBRANCH  77  78
ENDBRANCH  76  77
ENDBRANCH   1  76
TORSDOF 19
ENDMDL
MODEL 3
REMARK VINA RESULT:     -11.6      5.865      8.045
REMARK SMILES O=C(NCCCCCCNC(=O)c1cc(Br)ccc1OC(=O)c1ccc(F)cc1)c1ccc(-c2c3nc(c(-c4c(F)cc(S(=O)(=O)[O-])cc4F)c4ccc([nH]4)c(-c4c(F)cc(S(=O)(=O)[O-])cc4F)c4nc(c(-c5c(F)cc(S(=O)(=O)[O-])cc5F)c5ccc2[nH]5)C=C4)C=C3)cc1
REMARK SMILES IDX 6 1 5 2 4 3 3 4 1 5 2 6 30 8 31 9 95 10 32 11 94 12 33 13
REMARK SMILES IDX 34 14 35 15 88 16 36 17 93 18 87 19 89 20 37 21 92 22 86 23
REMARK SMILES IDX 85 24 38 26 72 27 51 28 71 29 52 30 55 31 70 32 90 33 53 34
REMARK SMILES IDX 54 35 69 37 91 38 56 39 39 40 40 41 49 42 41 43 42 44 48 45
REMARK SMILES IDX 50 46 43 47 44 48 45 49 46 50 47 51 73 52 74 53 83 54 75 55
REMARK SMILES IDX 76 56 82 57 84 58 77 59 78 60 79 61 80 62 81 63 57 64 58 65
REMARK SMILES IDX 67 66 59 67 60 68 66 69 68 70 61 71 62 72 63 73 64 74 65 75
REMARK SMILES IDX 7 76 8 77 9 78 10 79 11 80 12 82 13 83 14 84 19 85 15 86
REMARK SMILES IDX 18 87 16 88 17 89 20 90 21 91 22 92 23 93 24 94 29 95 25 96
REMARK SMILES IDX 28 97 26 98 27 99
REMARK H PARENT 3 7 89 25 55 36 10 81
REMARK Flexibility Score: inf
ROOT
ATOM      1  C   UNL A   1      38.829  22.278  26.367  1.00  0.00     0.002 C 
ENDROOT
BRANCH   1   2
ATOM      2  C   UNL A   1      40.337  22.023  26.375  1.00  0.00     0.021 C 
BRANCH   2   3
ATOM      3  C   UNL A   1      41.192  23.155  26.931  1.00  0.00     0.116 C 
BRANCH   3   4
ATOM      4  N   UNL A   1      41.832  23.938  25.888  1.00  0.00    -0.352 N 
ATOM      5  O   UNL A   1      42.480  25.790  24.787  1.00  0.00    -0.269 OA
ATOM      6  C   UNL A   1      42.065  25.291  25.829  1.00  0.00     0.251 C 
ATOM      7  H   UNL A   1      42.144  23.423  25.110  1.00  0.00     0.163 HD
BRANCH   6   8
ATOM      8  C   UNL A   1      41.795  26.151  27.005  1.00  0.00     0.039 A 
ATOM      9  C   UNL A   1      42.504  27.337  27.211  1.00  0.00     0.014 A 
ATOM     10  C   UNL A   1      40.788  25.777  27.901  1.00  0.00     0.014 A 
ATOM     11  C   UNL A   1      42.294  28.079  28.370  1.00  0.00     0.010 A 
ATOM     12  C   UNL A   1      40.529  26.561  29.030  1.00  0.00     0.010 A 
ATOM     13  C   UNL A   1      41.298  27.705  29.288  1.00  0.00    -0.014 A 
BRANCH  13  14
ATOM     14  C   UNL A   1      41.038  28.560  30.475  1.00  0.00     0.031 A 
ATOM     15  C   UNL A   1      41.915  28.486  31.693  1.00  0.00     0.074 A 
ATOM     16  C   UNL A   1      40.016  29.435  30.431  1.00  0.00     0.049 A 
ATOM     17  N   UNL A   1      41.843  29.181  32.800  1.00  0.00    -0.248 NA
ATOM     18  C   UNL A   1      43.010  27.505  31.672  1.00  0.00     0.031 C 
ATOM     19  C   UNL A   1      39.095  29.594  29.303  1.00  0.00     0.029 A 
ATOM     20  N   UNL A   1      39.592  30.370  31.340  1.00  0.00    -0.354 N 
ATOM     21  C   UNL A   1      42.872  28.719  33.611  1.00  0.00     0.074 A 
ATOM     22  C   UNL A   1      43.540  27.663  32.877  1.00  0.00     0.031 C 
ATOM     23  C   UNL A   1      38.252  30.603  29.564  1.00  0.00     0.029 A 
ATOM     24  C   UNL A   1      38.534  31.127  30.896  1.00  0.00     0.049 A 
ATOM     25  H   UNL A   1      40.006  30.489  32.225  1.00  0.00     0.167 HD
ATOM     26  C   UNL A   1      43.232  29.143  34.846  1.00  0.00     0.037 A 
ATOM     27  C   UNL A   1      37.859  32.128  31.493  1.00  0.00     0.037 A 
ATOM     28  C   UNL A   1      42.568  30.199  35.567  1.00  0.00     0.049 A 
ATOM     29  C   UNL A   1      38.259  32.563  32.871  1.00  0.00     0.074 A 
ATOM     30  C   UNL A   1      42.870  30.708  36.819  1.00  0.00     0.029 A 
ATOM     31  N   UNL A   1      41.469  30.909  35.103  1.00  0.00    -0.354 N 
ATOM     32  N   UNL A   1      39.238  32.116  33.620  1.00  0.00    -0.248 NA
ATOM     33  C   UNL A   1      37.459  33.627  33.491  1.00  0.00     0.031 C 
ATOM     34  C   UNL A   1      41.934  31.703  37.125  1.00  0.00     0.029 A 
ATOM     35  C   UNL A   1      41.070  31.839  36.049  1.00  0.00     0.049 A 
ATOM     36  H   UNL A   1      41.036  30.770  34.230  1.00  0.00     0.167 HD
ATOM     37  C   UNL A   1      39.176  32.845  34.800  1.00  0.00     0.074 A 
ATOM     38  C   UNL A   1      38.073  33.776  34.659  1.00  0.00     0.031 C 
ATOM     39  C   UNL A   1      39.962  32.751  35.900  1.00  0.00     0.037 A 
BRANCH  26  40
ATOM     40  C   UNL A   1      44.394  28.456  35.507  1.00  0.00     0.058 A 
ATOM     41  C   UNL A   1      45.704  28.924  35.317  1.00  0.00     0.135 A 
ATOM     42  C   UNL A   1      44.218  27.311  36.299  1.00  0.00     0.135 A 
ATOM     43  F   UNL A   1      45.930  30.019  34.573  1.00  0.00    -0.206 F 
ATOM     44  C   UNL A   1      46.798  28.282  35.888  1.00  0.00     0.059 A 
ATOM     45  C   UNL A   1      45.296  26.663  36.897  1.00  0.00     0.059 A 
ATOM     46  F   UNL A   1      42.983  26.833  36.529  1.00  0.00    -0.206 F 
ATOM     47  C   UNL A   1      46.584  27.151  36.677  1.00  0.00     0.060 A 
BRANCH  47  48
ATOM     48  S   UNL A   1      48.004  26.363  37.468  1.00  0.00     0.124 S 
ATOM     49  O   UNL A   1      47.919  25.002  36.951  1.00  0.00    -0.237 OA
ATOM     50  O   UNL A   1      49.119  27.165  36.973  1.00  0.00    -0.237 OA
ATOM     51  O   UNL A   1      47.721  26.515  38.893  1.00  0.00    -0.744 OA
ENDBRANCH  47  48
ENDBRANCH  26  40
BRANCH  27  52
ATOM     52  C   UNL A   1      36.753  32.789  30.757  1.00  0.00     0.058 A 
ATOM     53  C   UNL A   1      37.009  33.771  29.788  1.00  0.00     0.135 A 
ATOM     54  C   UNL A   1      35.415  32.517  31.079  1.00  0.00     0.135 A 
ATOM     55  F   UNL A   1      38.274  34.073  29.455  1.00  0.00    -0.206 F 
ATOM     56  C   UNL A   1      35.980  34.493  29.196  1.00  0.00     0.059 A 
ATOM     57  C   UNL A   1      34.367  33.210  30.484  1.00  0.00     0.059 A 
ATOM     58  F   UNL A   1      35.124  31.576  31.991  1.00  0.00    -0.206 F 
ATOM     59  C   UNL A   1      34.662  34.216  29.562  1.00  0.00     0.060 A 
BRANCH  59  60
ATOM     60  S   UNL A   1      33.342  35.204  28.828  1.00  0.00     0.124 S 
ATOM     61  O   UNL A   1      32.702  34.227  27.953  1.00  0.00    -0.237 OA
ATOM     62  O   UNL A   1      32.572  35.610  29.999  1.00  0.00    -0.237 OA
ATOM     63  O   UNL A   1      34.061  36.278  28.151  1.00  0.00    -0.744 OA
ENDBRANCH  59  60
ENDBRANCH  27  52
BRANCH  39  64
ATOM     64  C   UNL A   1      39.662  33.673  37.045  1.00  0.00     0.058 A 
ATOM     65  C   UNL A   1      40.307  34.915  37.150  1.00  0.00     0.135 A 
ATOM     66  C   UNL A   1      38.783  33.298  38.072  1.00  0.00     0.135 A 
ATOM     67  F   UNL A   1      41.157  35.319  36.193  1.00  0.00    -0.206 F 
ATOM     68  C   UNL A   1      40.104  35.748  38.245  1.00  0.00     0.059 A 
ATOM     69  C   UNL A   1      38.549  34.124  39.168  1.00  0.00     0.059 A 
ATOM     70  F   UNL A   1      38.131  32.127  38.009  1.00  0.00    -0.206 F 
ATOM     71  C   UNL A   1      39.227  35.341  39.252  1.00  0.00     0.060 A 
BRANCH  71  72
ATOM     72  S   UNL A   1      38.965  36.437  40.662  1.00  0.00     0.124 S 
ATOM     73  O   UNL A   1      40.292  36.467  41.268  1.00  0.00    -0.237 OA
ATOM     74  O   UNL A   1      38.532  37.675  40.020  1.00  0.00    -0.237 OA
ATOM     75  O   UNL A   1      37.936  35.750  41.437  1.00  0.00    -0.744 OA
ENDBRANCH  71  72
ENDBRANCH  39  64
ENDBRANCH  13  14
ENDBRANCH   6   8
ENDBRANCH   3   4
ENDBRANCH   2   3
ENDBRANCH   1   2
BRANCH   1  76
ATOM     76  C   UNL A   1      38.040  21.612  25.236  1.00  0.00     0.002 C 
BRANCH  76  77
ATOM     77  C   UNL A   1      36.979  22.477  24.550  1.00  0.00     0.021 C 
BRANCH  77  78
ATOM     78  C   UNL A   1      36.295  23.518  25.432  1.00  0.00     0.116 C 
BRANCH  78  79
ATOM     79  N   UNL A   1      35.497  22.928  26.497  1.00  0.00    -0.352 N 
ATOM     80  C   UNL A   1      34.169  23.119  26.789  1.00  0.00     0.255 C 
ATOM     81  H   UNL A   1      35.977  22.307  27.090  1.00  0.00     0.163 HD
ATOM     82  O   UNL A   1      33.675  22.636  27.803  1.00  0.00    -0.269 OA
BRANCH  80  83
ATOM     83  C   UNL A   1      33.330  23.916  25.873  1.00  0.00     0.083 A 
ATOM     84  C   UNL A   1      33.083  25.263  26.166  1.00  0.00     0.033 A 
ATOM     85  C   UNL A   1      32.817  23.359  24.696  1.00  0.00     0.144 A 
ATOM     86  C   UNL A   1      32.274  26.015  25.315  1.00  0.00     0.019 A 
ATOM     87  C   UNL A   1      32.021  24.122  23.838  1.00  0.00     0.049 A 
ATOM     88  Br  UNL A   1      31.910  27.823  25.730  1.00  0.00    -0.051 Br
ATOM     89  C   UNL A   1      31.733  25.449  24.161  1.00  0.00     0.019 A 
BRANCH  85  90
ATOM     90  O   UNL A   1      33.152  22.073  24.249  1.00  0.00    -0.422 OA
BRANCH  90  91
ATOM     91  C   UNL A   1      32.385  21.035  24.734  1.00  0.00     0.343 C 
ATOM     92  O   UNL A   1      31.406  21.121  25.469  1.00  0.00    -0.246 OA
BRANCH  91  93
ATOM     93  C   UNL A   1      32.909  19.746  24.206  1.00  0.00     0.060 A 
ATOM     94  C   UNL A   1      32.247  19.030  23.194  1.00  0.00     0.019 A 
ATOM     95  C   UNL A   1      34.082  19.219  24.768  1.00  0.00     0.019 A 
ATOM     96  C   UNL A   1      32.750  17.802  22.758  1.00  0.00     0.040 A 
ATOM     97  C   UNL A   1      34.584  17.993  24.326  1.00  0.00     0.040 A 
ATOM     98  C   UNL A   1      33.912  17.294  23.329  1.00  0.00     0.123 A 
ATOM     99  F   UNL A   1      34.387  16.113  22.914  1.00  0.00    -0.207 F 
ENDBRANCH  91  93
ENDBRANCH  90  91
ENDBRANCH  85  90
ENDBRANCH  80  83
ENDBRANCH  78  79
ENDBRANCH  77  78
ENDBRANCH  76  77
ENDBRANCH   1  76
TORSDOF 19
ENDMDL
