MODEL 1
REMARK VINA RESULT:     -12.9      0.000      0.000
REMARK SMILES CCCC1CN(c2cc(C(=O)NCCCCCCNC(=O)c3ccc(-c4c5nc(c(-c6c(F)cc(S(=O)(=O)[O-])cc6F)c6ccc([nH]6)c(-c6c(F)cc(S(=O)(=O)[O-])cc6F)c6nc(c(-c7c(F)cc(S(=O)(=O)[O-])cc7F)c7ccc4[nH]7)C=C6)C=C5)cc3)ccc2C)C1
REMARK SMILES IDX 15 1 14 2 13 3 12 4 10 5 11 6 9 8 7 9 8 10 90 11 89 12 91 13
REMARK SMILES IDX 88 14 6 15 4 16 5 17 92 18 3 19 2 20 1 21 16 22 17 23 18 24
REMARK SMILES IDX 19 25 20 26 21 28 22 29 23 30 87 31 24 32 86 33 25 34 26 35
REMARK SMILES IDX 27 36 80 37 28 38 85 39 79 40 81 41 29 42 84 43 78 44 77 45
REMARK SMILES IDX 30 47 64 48 43 49 63 50 44 51 47 52 62 53 82 54 45 55 46 56
REMARK SMILES IDX 61 58 83 59 48 60 31 61 32 62 41 63 33 64 34 65 40 66 42 67
REMARK SMILES IDX 35 68 36 69 37 70 38 71 39 72 65 73 66 74 75 75 67 76 68 77
REMARK SMILES IDX 74 78 76 79 69 80 70 81 71 82 72 83 73 84 49 85 50 86 59 87
REMARK SMILES IDX 51 88 52 89 58 90 60 91 53 92 54 93 55 94 56 95 57 96
REMARK H PARENT 12 7 19 27 81 46 47 57
REMARK Flexibility Score: inf
ROOT
ATOM      1  C   UNL A   1      31.446  27.922  25.631  1.00  0.00     0.002 C 
ENDROOT
BRANCH   1   2
ATOM      2  C   UNL A   1      31.104  28.139  24.155  1.00  0.00     0.021 C 
BRANCH   2   3
ATOM      3  C   UNL A   1      30.730  26.923  23.310  1.00  0.00     0.116 C 
BRANCH   3   4
ATOM      4  N   UNL A   1      31.618  26.651  22.196  1.00  0.00    -0.352 N 
ATOM      5  C   UNL A   1      32.710  25.820  22.093  1.00  0.00     0.251 C 
ATOM      6  O   UNL A   1      33.285  25.743  21.006  1.00  0.00    -0.269 OA
ATOM      7  H   UNL A   1      31.403  27.146  21.373  1.00  0.00     0.163 HD
BRANCH   5   8
ATOM      8  C   UNL A   1      33.257  25.046  23.245  1.00  0.00     0.041 A 
ATOM      9  C   UNL A   1      33.485  23.020  24.600  1.00  0.00     0.040 A 
ATOM     10  C   UNL A   1      33.047  23.677  23.435  1.00  0.00     0.040 A 
ATOM     11  C   UNL A   1      34.284  23.731  25.520  1.00  0.00    -0.028 A 
ATOM     12  C   UNL A   1      34.567  25.086  25.285  1.00  0.00     0.006 A 
ATOM     13  C   UNL A   1      34.915  23.089  26.728  1.00  0.00     0.046 C 
ATOM     14  C   UNL A   1      34.043  25.741  24.170  1.00  0.00     0.014 A 
BRANCH   9  15
ATOM     15  N   UNL A   1      33.079  21.691  24.871  1.00  0.00    -0.371 N 
ATOM     16  C   UNL A   1      33.072  19.790  24.025  1.00  0.00     0.028 C 
ATOM     17  C   UNL A   1      32.107  20.983  24.070  1.00  0.00     0.122 C 
ATOM     18  C   UNL A   1      33.868  20.521  25.112  1.00  0.00     0.122 C 
BRANCH  16  19
ATOM     19  C   UNL A   1      32.513  18.427  24.423  1.00  0.00     0.007 C 
BRANCH  19  20
ATOM     20  C   UNL A   1      33.287  17.285  23.763  1.00  0.00    -0.003 C 
ATOM     21  C   UNL A   1      34.778  17.339  24.074  1.00  0.00     0.004 C 
ENDBRANCH  19  20
ENDBRANCH  16  19
ENDBRANCH   9  15
ENDBRANCH   5   8
ENDBRANCH   3   4
ENDBRANCH   2   3
ENDBRANCH   1   2
BRANCH   1  22
ATOM     22  C   UNL A   1      31.707  29.150  26.512  1.00  0.00     0.002 C 
BRANCH  22  23
ATOM     23  C   UNL A   1      32.842  30.088  26.105  1.00  0.00     0.021 C 
BRANCH  23  24
ATOM     24  C   UNL A   1      34.174  29.836  26.807  1.00  0.00     0.116 C 
BRANCH  24  25
ATOM     25  N   UNL A   1      34.815  31.051  27.297  1.00  0.00    -0.352 N 
ATOM     26  C   UNL A   1      36.070  31.178  27.880  1.00  0.00     0.251 C 
ATOM     27  H   UNL A   1      34.297  31.882  27.202  1.00  0.00     0.163 HD
ATOM     28  O   UNL A   1      36.469  32.235  28.325  1.00  0.00    -0.269 OA
BRANCH  26  29
ATOM     29  C   UNL A   1      36.930  29.973  27.892  1.00  0.00     0.039 A 
ATOM     30  C   UNL A   1      36.959  29.192  29.052  1.00  0.00     0.014 A 
ATOM     31  C   UNL A   1      37.869  29.796  26.882  1.00  0.00     0.014 A 
ATOM     32  C   UNL A   1      38.056  28.363  29.288  1.00  0.00     0.010 A 
ATOM     33  C   UNL A   1      38.998  29.051  27.162  1.00  0.00     0.010 A 
ATOM     34  C   UNL A   1      39.117  28.369  28.384  1.00  0.00    -0.014 A 
BRANCH  34  35
ATOM     35  C   UNL A   1      40.431  27.791  28.659  1.00  0.00     0.031 A 
ATOM     36  C   UNL A   1      40.724  26.376  28.315  1.00  0.00     0.074 A 
ATOM     37  C   UNL A   1      41.438  28.574  29.106  1.00  0.00     0.049 A 
ATOM     38  N   UNL A   1      41.745  25.713  28.749  1.00  0.00    -0.248 NA
ATOM     39  C   UNL A   1      39.850  25.572  27.469  1.00  0.00     0.031 C 
ATOM     40  C   UNL A   1      42.868  28.292  29.023  1.00  0.00     0.029 A 
ATOM     41  N   UNL A   1      41.367  29.715  29.898  1.00  0.00    -0.354 N 
ATOM     42  C   UNL A   1      41.827  24.538  28.035  1.00  0.00     0.074 A 
ATOM     43  C   UNL A   1      40.591  24.476  27.289  1.00  0.00     0.031 C 
ATOM     44  C   UNL A   1      43.524  29.072  29.895  1.00  0.00     0.029 A 
ATOM     45  C   UNL A   1      42.529  29.774  30.683  1.00  0.00     0.049 A 
ATOM     46  H   UNL A   1      40.630  30.369  29.907  1.00  0.00     0.167 HD
ATOM     47  C   UNL A   1      42.988  23.819  28.059  1.00  0.00     0.037 A 
ATOM     48  C   UNL A   1      42.478  29.751  32.049  1.00  0.00     0.037 A 
ATOM     49  C   UNL A   1      43.953  24.398  28.993  1.00  0.00     0.049 A 
ATOM     50  C   UNL A   1      43.176  28.569  32.684  1.00  0.00     0.074 A 
ATOM     51  C   UNL A   1      45.051  25.227  28.822  1.00  0.00     0.029 A 
ATOM     52  N   UNL A   1      43.688  24.377  30.357  1.00  0.00    -0.354 N 
ATOM     53  N   UNL A   1      43.547  27.503  32.032  1.00  0.00    -0.248 NA
ATOM     54  C   UNL A   1      43.494  28.483  34.107  1.00  0.00     0.031 C 
ATOM     55  C   UNL A   1      45.429  25.730  30.091  1.00  0.00     0.029 A 
ATOM     56  C   UNL A   1      44.563  25.204  31.034  1.00  0.00     0.049 A 
ATOM     57  H   UNL A   1      42.977  23.845  30.782  1.00  0.00     0.167 HD
ATOM     58  C   UNL A   1      44.088  26.589  32.902  1.00  0.00     0.074 A 
ATOM     59  C   UNL A   1      44.068  27.269  34.183  1.00  0.00     0.031 C 
ATOM     60  C   UNL A   1      44.486  25.349  32.482  1.00  0.00     0.037 A 
BRANCH  47  61
ATOM     61  C   UNL A   1      43.352  22.766  27.025  1.00  0.00     0.058 A 
ATOM     62  C   UNL A   1      42.722  21.500  27.025  1.00  0.00     0.135 A 
ATOM     63  C   UNL A   1      44.358  22.913  26.051  1.00  0.00     0.135 A 
ATOM     64  F   UNL A   1      41.670  21.237  27.812  1.00  0.00    -0.206 F 
ATOM     65  C   UNL A   1      43.143  20.436  26.225  1.00  0.00     0.059 A 
ATOM     66  C   UNL A   1      44.838  21.848  25.279  1.00  0.00     0.059 A 
ATOM     67  F   UNL A   1      44.883  24.112  25.769  1.00  0.00    -0.206 F 
ATOM     68  C   UNL A   1      44.233  20.604  25.386  1.00  0.00     0.060 A 
BRANCH  68  69
ATOM     69  S   UNL A   1      44.835  19.190  24.445  1.00  0.00     0.124 S 
ATOM     70  O   UNL A   1      46.257  19.179  24.780  1.00  0.00    -0.237 OA
ATOM     71  O   UNL A   1      44.044  18.097  24.998  1.00  0.00    -0.237 OA
ATOM     72  O   UNL A   1      44.531  19.547  23.062  1.00  0.00    -0.744 OA
ENDBRANCH  68  69
ENDBRANCH  47  61
BRANCH  48  73
ATOM     73  C   UNL A   1      41.288  30.453  32.599  1.00  0.00     0.058 A 
ATOM     74  C   UNL A   1      40.150  29.670  32.866  1.00  0.00     0.135 A 
ATOM     75  C   UNL A   1      41.418  31.672  33.280  1.00  0.00     0.135 A 
ATOM     76  F   UNL A   1      39.971  28.505  32.222  1.00  0.00    -0.206 F 
ATOM     77  C   UNL A   1      39.279  29.984  33.901  1.00  0.00     0.059 A 
ATOM     78  C   UNL A   1      40.550  32.012  34.318  1.00  0.00     0.059 A 
ATOM     79  F   UNL A   1      42.480  32.461  33.058  1.00  0.00    -0.206 F 
ATOM     80  C   UNL A   1      39.536  31.117  34.669  1.00  0.00     0.060 A 
BRANCH  80  81
ATOM     81  S   UNL A   1      38.669  31.272  36.248  1.00  0.00     0.124 S 
ATOM     82  O   UNL A   1      39.624  32.026  37.051  1.00  0.00    -0.237 OA
ATOM     83  O   UNL A   1      37.466  31.998  35.842  1.00  0.00    -0.237 OA
ATOM     84  O   UNL A   1      38.459  29.886  36.651  1.00  0.00    -0.744 OA
ENDBRANCH  80  81
ENDBRANCH  48  73
BRANCH  60  85
ATOM     85  C   UNL A   1      44.919  24.181  33.350  1.00  0.00     0.058 A 
ATOM     86  C   UNL A   1      44.130  23.049  33.618  1.00  0.00     0.135 A 
ATOM     87  C   UNL A   1      46.248  24.116  33.846  1.00  0.00     0.135 A 
ATOM     88  F   UNL A   1      42.896  22.920  33.114  1.00  0.00    -0.206 F 
ATOM     89  C   UNL A   1      44.594  21.969  34.375  1.00  0.00     0.059 A 
ATOM     90  C   UNL A   1      46.749  23.024  34.552  1.00  0.00     0.059 A 
ATOM     91  F   UNL A   1      47.122  25.113  33.646  1.00  0.00    -0.206 F 
ATOM     92  C   UNL A   1      45.906  21.963  34.838  1.00  0.00     0.060 A 
BRANCH  92  93
ATOM     93  S   UNL A   1      46.539  20.543  35.749  1.00  0.00     0.124 S 
ATOM     94  O   UNL A   1      47.973  20.819  35.761  1.00  0.00    -0.237 OA
ATOM     95  O   UNL A   1      45.866  20.656  37.040  1.00  0.00    -0.237 OA
ATOM     96  O   UNL A   1      46.118  19.410  34.932  1.00  0.00    -0.744 OA
ENDBRANCH  92  93
ENDBRANCH  60  85
ENDBRANCH  34  35
ENDBRANCH  26  29
ENDBRANCH  24  25
ENDBRANCH  23  24
ENDBRANCH  22  23
ENDBRANCH   1  22
TORSDOF 19
ENDMDL
MODEL 2
REMARK VINA RESULT:     -12.9      1.436      2.350
REMARK SMILES CCCC1CN(c2cc(C(=O)NCCCCCCNC(=O)c3ccc(-c4c5nc(c(-c6c(F)cc(S(=O)(=O)[O-])cc6F)c6ccc([nH]6)c(-c6c(F)cc(S(=O)(=O)[O-])cc6F)c6nc(c(-c7c(F)cc(S(=O)(=O)[O-])cc7F)c7ccc4[nH]7)C=C6)C=C5)cc3)ccc2C)C1
REMARK SMILES IDX 15 1 14 2 13 3 12 4 10 5 11 6 9 8 7 9 8 10 90 11 89 12 91 13
REMARK SMILES IDX 88 14 6 15 4 16 5 17 92 18 3 19 2 20 1 21 16 22 17 23 18 24
REMARK SMILES IDX 19 25 20 26 21 28 22 29 23 30 87 31 24 32 86 33 25 34 26 35
REMARK SMILES IDX 27 36 80 37 28 38 85 39 79 40 81 41 29 42 84 43 78 44 77 45
REMARK SMILES IDX 30 47 64 48 43 49 63 50 44 51 47 52 62 53 82 54 45 55 46 56
REMARK SMILES IDX 61 58 83 59 48 60 31 61 32 62 41 63 33 64 34 65 40 66 42 67
REMARK SMILES IDX 35 68 36 69 37 70 38 71 39 72 65 73 66 74 75 75 67 76 68 77
REMARK SMILES IDX 74 78 76 79 69 80 70 81 71 82 72 83 73 84 49 85 50 86 59 87
REMARK SMILES IDX 51 88 52 89 58 90 60 91 53 92 54 93 55 94 56 95 57 96
REMARK H PARENT 12 7 19 27 81 46 47 57
REMARK Flexibility Score: inf
ROOT
ATOM      1  C   UNL A   1      33.732  28.119  25.141  1.00  0.00     0.002 C 
ENDROOT
BRANCH   1   2
ATOM      2  C   UNL A   1      34.073  28.391  23.674  1.00  0.00     0.021 C 
BRANCH   2   3
ATOM      3  C   UNL A   1      32.932  28.434  22.660  1.00  0.00     0.116 C 
BRANCH   3   4
ATOM      4  N   UNL A   1      33.073  27.528  21.536  1.00  0.00    -0.352 N 
ATOM      5  C   UNL A   1      32.901  26.165  21.448  1.00  0.00     0.251 C 
ATOM      6  O   UNL A   1      33.053  25.626  20.351  1.00  0.00    -0.269 OA
ATOM      7  H   UNL A   1      33.336  27.960  20.693  1.00  0.00     0.163 HD
BRANCH   5   8
ATOM      8  C   UNL A   1      32.586  25.305  22.626  1.00  0.00     0.041 A 
ATOM      9  C   UNL A   1      33.195  23.752  24.419  1.00  0.00     0.040 A 
ATOM     10  C   UNL A   1      33.553  24.646  23.392  1.00  0.00     0.040 A 
ATOM     11  C   UNL A   1      31.835  23.640  24.777  1.00  0.00    -0.028 A 
ATOM     12  C   UNL A   1      30.871  24.370  24.062  1.00  0.00     0.006 A 
ATOM     13  C   UNL A   1      31.359  22.818  25.946  1.00  0.00     0.046 C 
ATOM     14  C   UNL A   1      31.241  25.177  22.987  1.00  0.00     0.014 A 
BRANCH   9  15
ATOM     15  N   UNL A   1      34.175  22.938  25.036  1.00  0.00    -0.371 N 
ATOM     16  C   UNL A   1      36.098  22.199  24.735  1.00  0.00     0.028 C 
ATOM     17  C   UNL A   1      34.670  21.715  24.446  1.00  0.00     0.122 C 
ATOM     18  C   UNL A   1      35.446  23.290  25.592  1.00  0.00     0.122 C 
BRANCH  16  19
ATOM     19  C   UNL A   1      37.020  21.241  25.482  1.00  0.00     0.007 C 
BRANCH  19  20
ATOM     20  C   UNL A   1      38.303  21.936  25.943  1.00  0.00    -0.003 C 
ATOM     21  C   UNL A   1      39.539  21.070  25.733  1.00  0.00     0.004 C 
ENDBRANCH  19  20
ENDBRANCH  16  19
ENDBRANCH   9  15
ENDBRANCH   5   8
ENDBRANCH   3   4
ENDBRANCH   2   3
ENDBRANCH   1   2
BRANCH   1  22
ATOM     22  C   UNL A   1      32.604  28.926  25.795  1.00  0.00     0.002 C 
BRANCH  22  23
ATOM     23  C   UNL A   1      32.996  30.028  26.778  1.00  0.00     0.021 C 
BRANCH  23  24
ATOM     24  C   UNL A   1      34.300  29.788  27.533  1.00  0.00     0.116 C 
BRANCH  24  25
ATOM     25  N   UNL A   1      34.990  31.016  27.911  1.00  0.00    -0.352 N 
ATOM     26  C   UNL A   1      36.291  31.154  28.378  1.00  0.00     0.251 C 
ATOM     27  H   UNL A   1      34.472  31.848  27.823  1.00  0.00     0.163 HD
ATOM     28  O   UNL A   1      36.735  32.226  28.740  1.00  0.00    -0.269 OA
BRANCH  26  29
ATOM     29  C   UNL A   1      37.140  29.941  28.371  1.00  0.00     0.039 A 
ATOM     30  C   UNL A   1      37.206  29.173  29.537  1.00  0.00     0.014 A 
ATOM     31  C   UNL A   1      38.039  29.744  27.328  1.00  0.00     0.014 A 
ATOM     32  C   UNL A   1      38.303  28.335  29.741  1.00  0.00     0.010 A 
ATOM     33  C   UNL A   1      39.170  28.991  27.573  1.00  0.00     0.010 A 
ATOM     34  C   UNL A   1      39.329  28.321  28.797  1.00  0.00    -0.014 A 
BRANCH  34  35
ATOM     35  C   UNL A   1      40.648  27.734  29.029  1.00  0.00     0.031 A 
ATOM     36  C   UNL A   1      40.942  26.341  28.605  1.00  0.00     0.074 A 
ATOM     37  C   UNL A   1      41.656  28.495  29.509  1.00  0.00     0.049 A 
ATOM     38  N   UNL A   1      41.969  25.659  28.992  1.00  0.00    -0.248 NA
ATOM     39  C   UNL A   1      40.063  25.582  27.723  1.00  0.00     0.031 C 
ATOM     40  C   UNL A   1      43.087  28.223  29.399  1.00  0.00     0.029 A 
ATOM     41  N   UNL A   1      41.589  29.591  30.364  1.00  0.00    -0.354 N 
ATOM     42  C   UNL A   1      42.049  24.526  28.214  1.00  0.00     0.074 A 
ATOM     43  C   UNL A   1      40.806  24.500  27.477  1.00  0.00     0.031 C 
ATOM     44  C   UNL A   1      43.748  28.956  30.307  1.00  0.00     0.029 A 
ATOM     45  C   UNL A   1      42.758  29.610  31.141  1.00  0.00     0.049 A 
ATOM     46  H   UNL A   1      40.850  30.240  30.415  1.00  0.00     0.167 HD
ATOM     47  C   UNL A   1      43.212  23.810  28.189  1.00  0.00     0.037 A 
ATOM     48  C   UNL A   1      42.718  29.512  32.504  1.00  0.00     0.037 A 
ATOM     49  C   UNL A   1      44.183  24.341  29.145  1.00  0.00     0.049 A 
ATOM     50  C   UNL A   1      43.426  28.299  33.067  1.00  0.00     0.074 A 
ATOM     51  C   UNL A   1      45.278  25.182  29.010  1.00  0.00     0.029 A 
ATOM     52  N   UNL A   1      43.931  24.243  30.508  1.00  0.00    -0.354 N 
ATOM     53  N   UNL A   1      43.795  27.271  32.353  1.00  0.00    -0.248 NA
ATOM     54  C   UNL A   1      43.757  28.136  34.480  1.00  0.00     0.031 C 
ATOM     55  C   UNL A   1      45.664  25.615  30.302  1.00  0.00     0.029 A 
ATOM     56  C   UNL A   1      44.809  25.036  31.221  1.00  0.00     0.049 A 
ATOM     57  H   UNL A   1      43.225  23.686  30.909  1.00  0.00     0.167 HD
ATOM     58  C   UNL A   1      44.346  26.314  33.167  1.00  0.00     0.074 A 
ATOM     59  C   UNL A   1      44.336  26.922  34.484  1.00  0.00     0.031 C 
ATOM     60  C   UNL A   1      44.744  25.100  32.676  1.00  0.00     0.037 A 
BRANCH  47  61
ATOM     61  C   UNL A   1      43.570  22.817  27.095  1.00  0.00     0.058 A 
ATOM     62  C   UNL A   1      42.924  21.562  27.014  1.00  0.00     0.135 A 
ATOM     63  C   UNL A   1      44.584  23.010  26.138  1.00  0.00     0.135 A 
ATOM     64  F   UNL A   1      41.864  21.264  27.778  1.00  0.00    -0.206 F 
ATOM     65  C   UNL A   1      43.338  20.543  26.154  1.00  0.00     0.059 A 
ATOM     66  C   UNL A   1      45.056  21.988  25.306  1.00  0.00     0.059 A 
ATOM     67  F   UNL A   1      45.126  24.217  25.932  1.00  0.00    -0.206 F 
ATOM     68  C   UNL A   1      44.436  20.747  25.333  1.00  0.00     0.060 A 
BRANCH  68  69
ATOM     69  S   UNL A   1      45.027  19.385  24.312  1.00  0.00     0.124 S 
ATOM     70  O   UNL A   1      46.474  19.473  24.489  1.00  0.00    -0.237 OA
ATOM     71  O   UNL A   1      44.380  18.235  24.933  1.00  0.00    -0.237 OA
ATOM     72  O   UNL A   1      44.548  19.728  22.976  1.00  0.00    -0.744 OA
ENDBRANCH  68  69
ENDBRANCH  47  61
BRANCH  48  73
ATOM     73  C   UNL A   1      41.532  30.179  33.102  1.00  0.00     0.058 A 
ATOM     74  C   UNL A   1      41.566  31.583  33.194  1.00  0.00     0.135 A 
ATOM     75  C   UNL A   1      40.278  29.553  33.108  1.00  0.00     0.135 A 
ATOM     76  F   UNL A   1      42.746  32.225  33.214  1.00  0.00    -0.206 F 
ATOM     77  C   UNL A   1      40.410  32.345  33.100  1.00  0.00     0.059 A 
ATOM     78  C   UNL A   1      39.101  30.299  33.024  1.00  0.00     0.059 A 
ATOM     79  F   UNL A   1      40.187  28.217  33.030  1.00  0.00    -0.206 F 
ATOM     80  C   UNL A   1      39.191  31.691  32.937  1.00  0.00     0.060 A 
BRANCH  80  81
ATOM     81  S   UNL A   1      37.778  32.679  32.390  1.00  0.00     0.124 S 
ATOM     82  O   UNL A   1      36.815  31.653  32.008  1.00  0.00    -0.237 OA
ATOM     83  O   UNL A   1      37.464  33.424  33.608  1.00  0.00    -0.237 OA
ATOM     84  O   UNL A   1      38.328  33.470  31.295  1.00  0.00    -0.744 OA
ENDBRANCH  80  81
ENDBRANCH  48  73
BRANCH  60  85
ATOM     85  C   UNL A   1      45.188  23.888  33.475  1.00  0.00     0.058 A 
ATOM     86  C   UNL A   1      46.475  23.713  34.014  1.00  0.00     0.135 A 
ATOM     87  C   UNL A   1      44.245  22.892  33.842  1.00  0.00     0.135 A 
ATOM     88  F   UNL A   1      47.433  24.633  33.848  1.00  0.00    -0.206 F 
ATOM     89  C   UNL A   1      46.821  22.606  34.795  1.00  0.00     0.059 A 
ATOM     90  C   UNL A   1      44.553  21.812  34.667  1.00  0.00     0.059 A 
ATOM     91  F   UNL A   1      42.972  22.941  33.422  1.00  0.00    -0.206 F 
ATOM     92  C   UNL A   1      45.853  21.660  35.119  1.00  0.00     0.060 A 
BRANCH  92  93
ATOM     93  S   UNL A   1      46.268  20.269  36.188  1.00  0.00     0.124 S 
ATOM     94  O   UNL A   1      45.443  19.208  35.621  1.00  0.00    -0.237 OA
ATOM     95  O   UNL A   1      47.708  20.122  35.989  1.00  0.00    -0.237 OA
ATOM     96  O   UNL A   1      45.874  20.741  37.512  1.00  0.00    -0.744 OA
ENDBRANCH  92  93
ENDBRANCH  60  85
ENDBRANCH  34  35
ENDBRANCH  26  29
ENDBRANCH  24  25
ENDBRANCH  23  24
ENDBRANCH  22  23
ENDBRANCH   1  22
TORSDOF 19
ENDMDL
MODEL 3
REMARK VINA RESULT:     -12.3      4.691     11.380
REMARK SMILES CCCC1CN(c2cc(C(=O)NCCCCCCNC(=O)c3ccc(-c4c5nc(c(-c6c(F)cc(S(=O)(=O)[O-])cc6F)c6ccc([nH]6)c(-c6c(F)cc(S(=O)(=O)[O-])cc6F)c6nc(c(-c7c(F)cc(S(=O)(=O)[O-])cc7F)c7ccc4[nH]7)C=C6)C=C5)cc3)ccc2C)C1
REMARK SMILES IDX 15 1 14 2 13 3 12 4 10 5 11 6 9 8 7 9 8 10 90 11 89 12 91 13
REMARK SMILES IDX 88 14 6 15 4 16 5 17 92 18 3 19 2 20 1 21 16 22 17 23 18 24
REMARK SMILES IDX 19 25 20 26 21 28 22 29 23 30 87 31 24 32 86 33 25 34 26 35
REMARK SMILES IDX 27 36 80 37 28 38 85 39 79 40 81 41 29 42 84 43 78 44 77 45
REMARK SMILES IDX 30 47 64 48 43 49 63 50 44 51 47 52 62 53 82 54 45 55 46 56
REMARK SMILES IDX 61 58 83 59 48 60 31 61 32 62 41 63 33 64 34 65 40 66 42 67
REMARK SMILES IDX 35 68 36 69 37 70 38 71 39 72 65 73 66 74 75 75 67 76 68 77
REMARK SMILES IDX 74 78 76 79 69 80 70 81 71 82 72 83 73 84 49 85 50 86 59 87
REMARK SMILES IDX 51 88 52 89 58 90 60 91 53 92 54 93 55 94 56 95 57 96
REMARK H PARENT 12 7 19 27 81 46 47 57
REMARK Flexibility Score: inf
ROOT
ATOM      1  C   UNL A   1      35.459  22.357  24.305  1.00  0.00     0.002 C 
ENDROOT
BRANCH   1   2
ATOM      2  C   UNL A   1      35.558  21.020  25.042  1.00  0.00     0.021 C 
BRANCH   2   3
ATOM      3  C   UNL A   1      34.299  20.457  25.698  1.00  0.00     0.116 C 
BRANCH   3   4
ATOM      4  N   UNL A   1      33.949  21.054  26.972  1.00  0.00    -0.352 N 
ATOM      5  C   UNL A   1      33.135  22.122  27.276  1.00  0.00     0.251 C 
ATOM      6  O   UNL A   1      32.974  22.415  28.462  1.00  0.00    -0.269 OA
ATOM      7  H   UNL A   1      34.365  20.624  27.753  1.00  0.00     0.163 HD
BRANCH   5   8
ATOM      8  C   UNL A   1      32.477  22.967  26.238  1.00  0.00     0.041 A 
ATOM      9  C   UNL A   1      31.966  25.112  25.173  1.00  0.00     0.040 A 
ATOM     10  C   UNL A   1      32.702  24.339  26.091  1.00  0.00     0.040 A 
ATOM     11  C   UNL A   1      31.093  24.455  24.280  1.00  0.00    -0.028 A 
ATOM     12  C   UNL A   1      30.932  23.063  24.371  1.00  0.00     0.006 A 
ATOM     13  C   UNL A   1      30.362  25.168  23.173  1.00  0.00     0.046 C 
ATOM     14  C   UNL A   1      31.601  22.331  25.352  1.00  0.00     0.014 A 
BRANCH   9  15
ATOM     15  N   UNL A   1      32.055  26.524  25.189  1.00  0.00    -0.371 N 
ATOM     16  C   UNL A   1      33.288  28.067  25.847  1.00  0.00     0.028 C 
ATOM     17  C   UNL A   1      32.081  27.300  26.407  1.00  0.00     0.122 C 
ATOM     18  C   UNL A   1      32.965  27.396  24.508  1.00  0.00     0.122 C 
BRANCH  16  19
ATOM     19  C   UNL A   1      33.209  29.591  25.855  1.00  0.00     0.007 C 
BRANCH  19  20
ATOM     20  C   UNL A   1      34.179  30.201  26.868  1.00  0.00    -0.003 C 
ATOM     21  C   UNL A   1      33.526  31.288  27.714  1.00  0.00     0.004 C 
ENDBRANCH  19  20
ENDBRANCH  16  19
ENDBRANCH   9  15
ENDBRANCH   5   8
ENDBRANCH   3   4
ENDBRANCH   2   3
ENDBRANCH   1   2
BRANCH   1  22
ATOM     22  C   UNL A   1      35.971  23.622  25.005  1.00  0.00     0.002 C 
BRANCH  22  23
ATOM     23  C   UNL A   1      37.121  23.467  25.998  1.00  0.00     0.021 C 
BRANCH  23  24
ATOM     24  C   UNL A   1      38.493  23.236  25.371  1.00  0.00     0.116 C 
BRANCH  24  25
ATOM     25  N   UNL A   1      39.504  22.792  26.323  1.00  0.00    -0.352 N 
ATOM     26  C   UNL A   1      40.217  23.563  27.233  1.00  0.00     0.251 C 
ATOM     27  H   UNL A   1      39.706  21.829  26.323  1.00  0.00     0.163 HD
ATOM     28  O   UNL A   1      41.097  23.093  27.925  1.00  0.00    -0.269 OA
BRANCH  26  29
ATOM     29  C   UNL A   1      39.823  24.984  27.362  1.00  0.00     0.039 A 
ATOM     30  C   UNL A   1      40.495  25.931  26.584  1.00  0.00     0.014 A 
ATOM     31  C   UNL A   1      39.006  25.371  28.419  1.00  0.00     0.014 A 
ATOM     32  C   UNL A   1      40.505  27.266  26.990  1.00  0.00     0.010 A 
ATOM     33  C   UNL A   1      39.097  26.672  28.874  1.00  0.00     0.010 A 
ATOM     34  C   UNL A   1      39.882  27.613  28.188  1.00  0.00    -0.014 A 
BRANCH  34  35
ATOM     35  C   UNL A   1      40.075  28.892  28.870  1.00  0.00     0.031 A 
ATOM     36  C   UNL A   1      39.040  29.955  28.794  1.00  0.00     0.074 A 
ATOM     37  C   UNL A   1      41.135  29.073  29.690  1.00  0.00     0.049 A 
ATOM     38  N   UNL A   1      39.228  31.187  29.135  1.00  0.00    -0.248 NA
ATOM     39  C   UNL A   1      37.696  29.712  28.281  1.00  0.00     0.031 C 
ATOM     40  C   UNL A   1      41.260  30.068  30.751  1.00  0.00     0.029 A 
ATOM     41  N   UNL A   1      42.403  28.507  29.610  1.00  0.00    -0.354 N 
ATOM     42  C   UNL A   1      38.003  31.814  29.171  1.00  0.00     0.074 A 
ATOM     43  C   UNL A   1      37.089  30.865  28.577  1.00  0.00     0.031 C 
ATOM     44  C   UNL A   1      42.554  30.212  31.072  1.00  0.00     0.029 A 
ATOM     45  C   UNL A   1      43.326  29.431  30.124  1.00  0.00     0.049 A 
ATOM     46  H   UNL A   1      42.616  27.613  29.255  1.00  0.00     0.167 HD
ATOM     47  C   UNL A   1      37.881  33.011  29.816  1.00  0.00     0.037 A 
ATOM     48  C   UNL A   1      44.340  29.938  29.360  1.00  0.00     0.037 A 
ATOM     49  C   UNL A   1      39.179  33.501  30.278  1.00  0.00     0.049 A 
ATOM     50  C   UNL A   1      44.291  31.437  29.166  1.00  0.00     0.074 A 
ATOM     51  C   UNL A   1      39.818  33.467  31.508  1.00  0.00     0.029 A 
ATOM     52  N   UNL A   1      40.140  33.884  29.349  1.00  0.00    -0.354 N 
ATOM     53  N   UNL A   1      43.249  32.175  29.432  1.00  0.00    -0.248 NA
ATOM     54  C   UNL A   1      45.403  32.223  28.639  1.00  0.00     0.031 C 
ATOM     55  C   UNL A   1      41.180  33.802  31.309  1.00  0.00     0.029 A 
ATOM     56  C   UNL A   1      41.368  34.044  29.960  1.00  0.00     0.049 A 
ATOM     57  H   UNL A   1      39.968  34.022  28.389  1.00  0.00     0.167 HD
ATOM     58  C   UNL A   1      43.501  33.479  29.085  1.00  0.00     0.074 A 
ATOM     59  C   UNL A   1      44.878  33.462  28.631  1.00  0.00     0.031 C 
ATOM     60  C   UNL A   1      42.539  34.446  29.190  1.00  0.00     0.037 A 
BRANCH  47  61
ATOM     61  C   UNL A   1      36.555  33.590  30.281  1.00  0.00     0.058 A 
ATOM     62  C   UNL A   1      35.593  34.044  29.349  1.00  0.00     0.135 A 
ATOM     63  C   UNL A   1      36.194  33.788  31.628  1.00  0.00     0.135 A 
ATOM     64  F   UNL A   1      35.731  33.828  28.034  1.00  0.00    -0.206 F 
ATOM     65  C   UNL A   1      34.446  34.750  29.715  1.00  0.00     0.059 A 
ATOM     66  C   UNL A   1      35.082  34.543  32.020  1.00  0.00     0.059 A 
ATOM     67  F   UNL A   1      36.879  33.211  32.624  1.00  0.00    -0.206 F 
ATOM     68  C   UNL A   1      34.219  35.037  31.052  1.00  0.00     0.060 A 
BRANCH  68  69
ATOM     69  S   UNL A   1      32.795  36.046  31.498  1.00  0.00     0.124 S 
ATOM     70  O   UNL A   1      32.017  35.131  32.329  1.00  0.00    -0.237 OA
ATOM     71  O   UNL A   1      33.419  37.163  32.197  1.00  0.00    -0.237 OA
ATOM     72  O   UNL A   1      32.191  36.371  30.209  1.00  0.00    -0.744 OA
ENDBRANCH  68  69
ENDBRANCH  47  61
BRANCH  48  73
ATOM     73  C   UNL A   1      44.882  28.955  28.386  1.00  0.00     0.058 A 
ATOM     74  C   UNL A   1      45.822  28.026  28.870  1.00  0.00     0.135 A 
ATOM     75  C   UNL A   1      44.172  28.622  27.224  1.00  0.00     0.135 A 
ATOM     76  F   UNL A   1      46.542  28.311  29.968  1.00  0.00    -0.206 F 
ATOM     77  C   UNL A   1      45.916  26.745  28.343  1.00  0.00     0.059 A 
ATOM     78  C   UNL A   1      44.258  27.343  26.671  1.00  0.00     0.059 A 
ATOM     79  F   UNL A   1      43.269  29.473  26.715  1.00  0.00    -0.206 F 
ATOM     80  C   UNL A   1      45.072  26.393  27.292  1.00  0.00     0.060 A 
BRANCH  80  81
ATOM     81  S   UNL A   1      44.901  24.633  26.911  1.00  0.00     0.124 S 
ATOM     82  O   UNL A   1      44.121  24.149  28.044  1.00  0.00    -0.237 OA
ATOM     83  O   UNL A   1      44.197  24.686  25.631  1.00  0.00    -0.237 OA
ATOM     84  O   UNL A   1      46.282  24.169  26.850  1.00  0.00    -0.744 OA
ENDBRANCH  80  81
ENDBRANCH  48  73
BRANCH  60  85
ATOM     85  C   UNL A   1      42.610  35.871  28.672  1.00  0.00     0.058 A 
ATOM     86  C   UNL A   1      42.137  36.290  27.415  1.00  0.00     0.135 A 
ATOM     87  C   UNL A   1      43.057  36.917  29.521  1.00  0.00     0.135 A 
ATOM     88  F   UNL A   1      41.577  35.428  26.556  1.00  0.00    -0.206 F 
ATOM     89  C   UNL A   1      42.169  37.626  27.005  1.00  0.00     0.059 A 
ATOM     90  C   UNL A   1      43.043  38.261  29.154  1.00  0.00     0.059 A 
ATOM     91  F   UNL A   1      43.514  36.670  30.758  1.00  0.00    -0.206 F 
ATOM     92  C   UNL A   1      42.623  38.607  27.881  1.00  0.00     0.060 A 
BRANCH  92  93
ATOM     93  S   UNL A   1      42.597  40.341  27.391  1.00  0.00     0.124 S 
ATOM     94  O   UNL A   1      43.259  40.975  28.527  1.00  0.00    -0.237 OA
ATOM     95  O   UNL A   1      43.354  40.339  26.142  1.00  0.00    -0.237 OA
ATOM     96  O   UNL A   1      41.172  40.624  27.249  1.00  0.00    -0.744 OA
ENDBRANCH  92  93
ENDBRANCH  60  85
ENDBRANCH  34  35
ENDBRANCH  26  29
ENDBRANCH  24  25
ENDBRANCH  23  24
ENDBRANCH  22  23
ENDBRANCH   1  22
TORSDOF 19
ENDMDL
