MODEL 1
REMARK VINA RESULT:     -11.3      0.000      0.000
REMARK SMILES Cc1noc(-c2ccc(CCl)cc2)c1C(=O)NCCCCCCNC(=O)c1ccc(-c2c3nc(c(-c4c(F)cc(S(=O)(=O)[O-])cc4F)c4ccc([nH]4)c(-c4c(F)cc(S(=O)(=O)[O-])cc4F)c4nc(c(-c5c(F)cc(S(=O)(=O)[O-])cc5F)c5ccc2[nH]5)C=C4)C=C3)cc1
REMARK SMILES IDX 21 1 20 2 19 3 18 4 17 5 15 6 16 7 14 9 1 10 2 11 3 12 4 13
REMARK SMILES IDX 5 14 6 15 7 16 13 17 8 18 12 19 9 20 10 21 11 22 22 23 23 24
REMARK SMILES IDX 24 25 25 26 26 28 27 29 28 30 92 31 29 32 91 33 30 34 31 35
REMARK SMILES IDX 32 36 85 37 33 38 90 39 84 40 86 41 34 42 89 43 83 44 82 45
REMARK SMILES IDX 35 47 69 48 48 49 68 50 49 51 52 52 67 53 87 54 50 55 51 56
REMARK SMILES IDX 66 58 88 59 53 60 36 61 37 62 46 63 38 64 39 65 45 66 47 67
REMARK SMILES IDX 40 68 41 69 42 70 43 71 44 72 70 73 71 74 80 75 72 76 73 77
REMARK SMILES IDX 79 78 81 79 74 80 75 81 76 82 77 83 78 84 54 85 55 86 64 87
REMARK SMILES IDX 56 88 57 89 63 90 65 91 58 92 59 93 60 94 61 95 62 96
REMARK H PARENT 17 8 24 27 86 46 52 57
REMARK Flexibility Score: inf
ROOT
ATOM      1  C   UNL A   1      36.361  23.209  25.882  1.00  0.00     0.002 C 
ENDROOT
BRANCH   1   2
ATOM      2  C   UNL A   1      35.492  21.966  25.676  1.00  0.00     0.002 C 
BRANCH   2   3
ATOM      3  C   UNL A   1      34.002  22.113  25.985  1.00  0.00     0.021 C 
BRANCH   3   4
ATOM      4  C   UNL A   1      33.574  23.353  26.760  1.00  0.00     0.116 C 
BRANCH   4   5
ATOM      5  N   UNL A   1      32.272  23.856  26.412  1.00  0.00    -0.352 N 
ATOM      6  C   UNL A   1      31.813  24.517  25.302  1.00  0.00     0.257 C 
ATOM      7  O   UNL A   1      30.611  24.794  25.332  1.00  0.00    -0.269 OA
ATOM      8  H   UNL A   1      31.585  23.699  27.099  1.00  0.00     0.163 HD
BRANCH   6   9
ATOM      9  C   UNL A   1      32.653  24.917  24.175  1.00  0.00     0.110 A 
ATOM     10  C   UNL A   1      32.693  23.079  22.223  1.00  0.00     0.071 C 
ATOM     11  C   UNL A   1      33.039  24.347  22.911  1.00  0.00     0.094 A 
ATOM     12  N   UNL A   1      33.840  25.171  22.223  1.00  0.00    -0.084 NA
ATOM     13  O   UNL A   1      33.938  26.318  22.962  1.00  0.00    -0.355 OA
ATOM     14  C   UNL A   1      33.227  26.183  24.107  1.00  0.00     0.179 A 
BRANCH  14  15
ATOM     15  C   UNL A   1      33.232  27.377  24.935  1.00  0.00     0.021 A 
ATOM     16  C   UNL A   1      33.727  27.309  26.245  1.00  0.00     0.012 A 
ATOM     17  C   UNL A   1      32.747  28.597  24.456  1.00  0.00     0.012 A 
ATOM     18  C   UNL A   1      33.759  28.447  27.053  1.00  0.00     0.006 A 
ATOM     19  C   UNL A   1      32.769  29.736  25.268  1.00  0.00     0.006 A 
ATOM     20  C   UNL A   1      33.282  29.675  26.571  1.00  0.00    -0.033 A 
BRANCH  20  21
ATOM     21  C   UNL A   1      33.348  30.908  27.428  1.00  0.00     0.145 C 
ATOM     22  Cl  UNL A   1      35.017  31.499  27.581  1.00  0.00    -0.122 Cl
ENDBRANCH  20  21
ENDBRANCH  14  15
ENDBRANCH   6   9
ENDBRANCH   4   5
ENDBRANCH   3   4
ENDBRANCH   2   3
ENDBRANCH   1   2
BRANCH   1  23
ATOM     23  C   UNL A   1      37.871  23.015  25.737  1.00  0.00     0.021 C 
BRANCH  23  24
ATOM     24  C   UNL A   1      38.743  23.990  26.522  1.00  0.00     0.116 C 
BRANCH  24  25
ATOM     25  N   UNL A   1      40.147  23.902  26.161  1.00  0.00    -0.352 N 
ATOM     26  C   UNL A   1      41.191  24.717  26.514  1.00  0.00     0.251 C 
ATOM     27  H   UNL A   1      40.384  23.145  25.577  1.00  0.00     0.163 HD
ATOM     28  O   UNL A   1      42.284  24.581  25.964  1.00  0.00    -0.269 OA
BRANCH  26  29
ATOM     29  C   UNL A   1      41.002  25.773  27.533  1.00  0.00     0.039 A 
ATOM     30  C   UNL A   1      39.953  25.647  28.447  1.00  0.00     0.014 A 
ATOM     31  C   UNL A   1      41.845  26.887  27.584  1.00  0.00     0.014 A 
ATOM     32  C   UNL A   1      39.785  26.609  29.446  1.00  0.00     0.010 A 
ATOM     33  C   UNL A   1      41.723  27.804  28.625  1.00  0.00     0.010 A 
ATOM     34  C   UNL A   1      40.690  27.678  29.566  1.00  0.00    -0.014 A 
BRANCH  34  35
ATOM     35  C   UNL A   1      40.569  28.668  30.667  1.00  0.00     0.031 A 
ATOM     36  C   UNL A   1      41.432  28.547  31.895  1.00  0.00     0.074 A 
ATOM     37  C   UNL A   1      39.641  29.643  30.587  1.00  0.00     0.049 A 
ATOM     38  N   UNL A   1      41.431  29.278  32.980  1.00  0.00    -0.248 NA
ATOM     39  C   UNL A   1      42.404  27.443  31.918  1.00  0.00     0.031 C 
ATOM     40  C   UNL A   1      38.715  29.837  29.468  1.00  0.00     0.029 A 
ATOM     41  N   UNL A   1      39.317  30.648  31.462  1.00  0.00    -0.354 N 
ATOM     42  C   UNL A   1      42.392  28.720  33.816  1.00  0.00     0.074 A 
ATOM     43  C   UNL A   1      42.914  27.554  33.136  1.00  0.00     0.031 C 
ATOM     44  C   UNL A   1      37.945  30.908  29.716  1.00  0.00     0.029 A 
ATOM     45  C   UNL A   1      38.291  31.453  31.024  1.00  0.00     0.049 A 
ATOM     46  H   UNL A   1      39.775  30.782  32.323  1.00  0.00     0.167 HD
ATOM     47  C   UNL A   1      42.818  29.153  35.027  1.00  0.00     0.037 A 
ATOM     48  C   UNL A   1      37.689  32.505  31.614  1.00  0.00     0.037 A 
ATOM     49  C   UNL A   1      42.303  30.325  35.688  1.00  0.00     0.049 A 
ATOM     50  C   UNL A   1      38.167  32.958  32.967  1.00  0.00     0.074 A 
ATOM     51  C   UNL A   1      42.704  30.878  36.891  1.00  0.00     0.029 A 
ATOM     52  N   UNL A   1      41.271  31.119  35.209  1.00  0.00    -0.354 N 
ATOM     53  N   UNL A   1      39.124  32.458  33.713  1.00  0.00    -0.248 NA
ATOM     54  C   UNL A   1      37.491  34.121  33.556  1.00  0.00     0.031 C 
ATOM     55  C   UNL A   1      41.880  31.974  37.166  1.00  0.00     0.029 A 
ATOM     56  C   UNL A   1      41.004  32.141  36.105  1.00  0.00     0.049 A 
ATOM     57  H   UNL A   1      40.798  30.976  34.357  1.00  0.00     0.167 HD
ATOM     58  C   UNL A   1      39.182  33.261  34.846  1.00  0.00     0.074 A 
ATOM     59  C   UNL A   1      38.174  34.289  34.680  1.00  0.00     0.031 C 
ATOM     60  C   UNL A   1      39.998  33.160  35.925  1.00  0.00     0.037 A 
BRANCH  47  61
ATOM     61  C   UNL A   1      43.890  28.352  35.718  1.00  0.00     0.058 A 
ATOM     62  C   UNL A   1      43.578  27.348  36.649  1.00  0.00     0.135 A 
ATOM     63  C   UNL A   1      45.246  28.567  35.419  1.00  0.00     0.135 A 
ATOM     64  F   UNL A   1      42.301  27.108  36.983  1.00  0.00    -0.206 F 
ATOM     65  C   UNL A   1      44.573  26.612  37.286  1.00  0.00     0.059 A 
ATOM     66  C   UNL A   1      46.255  27.821  36.021  1.00  0.00     0.059 A 
ATOM     67  F   UNL A   1      45.602  29.513  34.536  1.00  0.00    -0.206 F 
ATOM     68  C   UNL A   1      45.909  26.856  36.966  1.00  0.00     0.060 A 
BRANCH  68  69
ATOM     69  S   UNL A   1      47.184  25.892  37.804  1.00  0.00     0.124 S 
ATOM     70  O   UNL A   1      48.390  26.635  37.449  1.00  0.00    -0.237 OA
ATOM     71  O   UNL A   1      46.774  25.980  39.201  1.00  0.00    -0.237 OA
ATOM     72  O   UNL A   1      47.064  24.569  37.199  1.00  0.00    -0.744 OA
ENDBRANCH  68  69
ENDBRANCH  47  61
BRANCH  48  73
ATOM     73  C   UNL A   1      36.580  33.212  30.917  1.00  0.00     0.058 A 
ATOM     74  C   UNL A   1      35.246  33.020  31.303  1.00  0.00     0.135 A 
ATOM     75  C   UNL A   1      36.833  34.106  29.864  1.00  0.00     0.135 A 
ATOM     76  F   UNL A   1      34.951  32.171  32.299  1.00  0.00    -0.206 F 
ATOM     77  C   UNL A   1      34.199  33.678  30.663  1.00  0.00     0.059 A 
ATOM     78  C   UNL A   1      35.806  34.796  29.226  1.00  0.00     0.059 A 
ATOM     79  F   UNL A   1      38.094  34.339  29.466  1.00  0.00    -0.206 F 
ATOM     80  C   UNL A   1      34.491  34.567  29.628  1.00  0.00     0.060 A 
BRANCH  80  81
ATOM     81  S   UNL A   1      33.129  35.454  28.841  1.00  0.00     0.124 S 
ATOM     82  O   UNL A   1      32.472  34.385  28.098  1.00  0.00    -0.237 OA
ATOM     83  O   UNL A   1      32.399  35.977  29.992  1.00  0.00    -0.237 OA
ATOM     84  O   UNL A   1      33.809  36.460  28.030  1.00  0.00    -0.744 OA
ENDBRANCH  80  81
ENDBRANCH  48  73
BRANCH  60  85
ATOM     85  C   UNL A   1      39.860  34.203  37.001  1.00  0.00     0.058 A 
ATOM     86  C   UNL A   1      40.473  35.463  36.894  1.00  0.00     0.135 A 
ATOM     87  C   UNL A   1      39.062  33.958  38.130  1.00  0.00     0.135 A 
ATOM     88  F   UNL A   1      41.251  35.748  35.838  1.00  0.00    -0.206 F 
ATOM     89  C   UNL A   1      40.317  36.432  37.880  1.00  0.00     0.059 A 
ATOM     90  C   UNL A   1      38.868  34.924  39.113  1.00  0.00     0.059 A 
ATOM     91  F   UNL A   1      38.445  32.775  38.278  1.00  0.00    -0.206 F 
ATOM     92  C   UNL A   1      39.510  36.154  38.985  1.00  0.00     0.060 A 
BRANCH  92  93
ATOM     93  S   UNL A   1      39.291  37.434  40.239  1.00  0.00     0.124 S 
ATOM     94  O   UNL A   1      40.662  37.897  40.428  1.00  0.00    -0.237 OA
ATOM     95  O   UNL A   1      38.390  38.369  39.574  1.00  0.00    -0.237 OA
ATOM     96  O   UNL A   1      38.713  36.710  41.367  1.00  0.00    -0.744 OA
ENDBRANCH  92  93
ENDBRANCH  60  85
ENDBRANCH  34  35
ENDBRANCH  26  29
ENDBRANCH  24  25
ENDBRANCH  23  24
ENDBRANCH   1  23
TORSDOF 18
ENDMDL
MODEL 2
REMARK VINA RESULT:     -11.3      4.862     10.449
REMARK SMILES Cc1noc(-c2ccc(CCl)cc2)c1C(=O)NCCCCCCNC(=O)c1ccc(-c2c3nc(c(-c4c(F)cc(S(=O)(=O)[O-])cc4F)c4ccc([nH]4)c(-c4c(F)cc(S(=O)(=O)[O-])cc4F)c4nc(c(-c5c(F)cc(S(=O)(=O)[O-])cc5F)c5ccc2[nH]5)C=C4)C=C3)cc1
REMARK SMILES IDX 21 1 20 2 19 3 18 4 17 5 15 6 16 7 14 9 1 10 2 11 3 12 4 13
REMARK SMILES IDX 5 14 6 15 7 16 13 17 8 18 12 19 9 20 10 21 11 22 22 23 23 24
REMARK SMILES IDX 24 25 25 26 26 28 27 29 28 30 92 31 29 32 91 33 30 34 31 35
REMARK SMILES IDX 32 36 85 37 33 38 90 39 84 40 86 41 34 42 89 43 83 44 82 45
REMARK SMILES IDX 35 47 69 48 48 49 68 50 49 51 52 52 67 53 87 54 50 55 51 56
REMARK SMILES IDX 66 58 88 59 53 60 36 61 37 62 46 63 38 64 39 65 45 66 47 67
REMARK SMILES IDX 40 68 41 69 42 70 43 71 44 72 70 73 71 74 80 75 72 76 73 77
REMARK SMILES IDX 79 78 81 79 74 80 75 81 76 82 77 83 78 84 54 85 55 86 64 87
REMARK SMILES IDX 56 88 57 89 63 90 65 91 58 92 59 93 60 94 61 95 62 96
REMARK H PARENT 17 8 24 27 86 46 52 57
REMARK Flexibility Score: inf
ROOT
ATOM      1  C   UNL A   1      31.644  28.899  25.606  1.00  0.00     0.002 C 
ENDROOT
BRANCH   1   2
ATOM      2  C   UNL A   1      31.692  28.809  24.079  1.00  0.00     0.002 C 
BRANCH   2   3
ATOM      3  C   UNL A   1      33.057  29.017  23.423  1.00  0.00     0.021 C 
BRANCH   3   4
ATOM      4  C   UNL A   1      34.019  27.836  23.438  1.00  0.00     0.116 C 
BRANCH   4   5
ATOM      5  N   UNL A   1      33.777  26.854  22.415  1.00  0.00    -0.352 N 
ATOM      6  C   UNL A   1      33.001  25.723  22.398  1.00  0.00     0.257 C 
ATOM      7  O   UNL A   1      33.017  25.110  21.327  1.00  0.00    -0.269 OA
ATOM      8  H   UNL A   1      34.259  27.024  21.574  1.00  0.00     0.163 HD
BRANCH   6   9
ATOM      9  C   UNL A   1      32.240  25.229  23.541  1.00  0.00     0.110 A 
ATOM     10  C   UNL A   1      29.656  25.937  23.438  1.00  0.00     0.071 C 
ATOM     11  C   UNL A   1      30.877  25.309  23.998  1.00  0.00     0.094 A 
ATOM     12  N   UNL A   1      30.699  24.634  25.142  1.00  0.00    -0.084 NA
ATOM     13  O   UNL A   1      31.896  24.035  25.424  1.00  0.00    -0.355 OA
ATOM     14  C   UNL A   1      32.805  24.366  24.477  1.00  0.00     0.179 A 
BRANCH  14  15
ATOM     15  C   UNL A   1      34.099  23.732  24.669  1.00  0.00     0.021 A 
ATOM     16  C   UNL A   1      34.826  23.292  23.554  1.00  0.00     0.012 A 
ATOM     17  C   UNL A   1      34.634  23.544  25.946  1.00  0.00     0.012 A 
ATOM     18  C   UNL A   1      36.079  22.696  23.713  1.00  0.00     0.006 A 
ATOM     19  C   UNL A   1      35.885  22.938  26.107  1.00  0.00     0.006 A 
ATOM     20  C   UNL A   1      36.623  22.515  24.992  1.00  0.00    -0.033 A 
BRANCH  20  21
ATOM     21  C   UNL A   1      37.987  21.906  25.162  1.00  0.00     0.145 C 
ATOM     22  Cl  UNL A   1      38.947  22.798  26.362  1.00  0.00    -0.122 Cl
ENDBRANCH  20  21
ENDBRANCH  14  15
ENDBRANCH   6   9
ENDBRANCH   4   5
ENDBRANCH   3   4
ENDBRANCH   2   3
ENDBRANCH   1   2
BRANCH   1  23
ATOM     23  C   UNL A   1      32.440  27.842  26.376  1.00  0.00     0.021 C 
BRANCH  23  24
ATOM     24  C   UNL A   1      33.654  28.355  27.143  1.00  0.00     0.116 C 
BRANCH  24  25
ATOM     25  N   UNL A   1      33.529  29.751  27.520  1.00  0.00    -0.352 N 
ATOM     26  C   UNL A   1      34.431  30.568  28.152  1.00  0.00     0.251 C 
ATOM     27  H   UNL A   1      32.671  30.175  27.287  1.00  0.00     0.163 HD
ATOM     28  O   UNL A   1      34.077  31.680  28.544  1.00  0.00    -0.269 OA
BRANCH  26  29
ATOM     29  C   UNL A   1      35.819  30.109  28.384  1.00  0.00     0.039 A 
ATOM     30  C   UNL A   1      36.718  30.111  27.315  1.00  0.00     0.014 A 
ATOM     31  C   UNL A   1      36.231  29.667  29.645  1.00  0.00     0.014 A 
ATOM     32  C   UNL A   1      38.044  29.725  27.523  1.00  0.00     0.010 A 
ATOM     33  C   UNL A   1      37.570  29.354  29.868  1.00  0.00     0.010 A 
ATOM     34  C   UNL A   1      38.490  29.376  28.809  1.00  0.00    -0.014 A 
BRANCH  34  35
ATOM     35  C   UNL A   1      39.915  29.035  29.062  1.00  0.00     0.031 A 
ATOM     36  C   UNL A   1      40.855  30.067  29.625  1.00  0.00     0.074 A 
ATOM     37  C   UNL A   1      40.374  27.811  28.730  1.00  0.00     0.049 A 
ATOM     38  N   UNL A   1      42.139  29.974  29.860  1.00  0.00    -0.248 NA
ATOM     39  C   UNL A   1      40.283  31.385  29.940  1.00  0.00     0.031 C 
ATOM     40  C   UNL A   1      39.571  26.740  28.136  1.00  0.00     0.029 A 
ATOM     41  N   UNL A   1      41.628  27.264  28.837  1.00  0.00    -0.354 N 
ATOM     42  C   UNL A   1      42.529  31.219  30.340  1.00  0.00     0.074 A 
ATOM     43  C   UNL A   1      41.357  32.068  30.308  1.00  0.00     0.031 C 
ATOM     44  C   UNL A   1      40.346  25.659  27.953  1.00  0.00     0.029 A 
ATOM     45  C   UNL A   1      41.707  25.970  28.376  1.00  0.00     0.049 A 
ATOM     46  H   UNL A   1      42.399  27.750  29.209  1.00  0.00     0.167 HD
ATOM     47  C   UNL A   1      43.745  31.611  30.790  1.00  0.00     0.037 A 
ATOM     48  C   UNL A   1      42.759  25.131  28.294  1.00  0.00     0.037 A 
ATOM     49  C   UNL A   1      44.902  30.753  30.833  1.00  0.00     0.049 A 
ATOM     50  C   UNL A   1      44.104  25.595  28.784  1.00  0.00     0.074 A 
ATOM     51  C   UNL A   1      46.165  31.038  31.321  1.00  0.00     0.029 A 
ATOM     52  N   UNL A   1      44.940  29.447  30.366  1.00  0.00    -0.354 N 
ATOM     53  N   UNL A   1      44.439  26.755  29.298  1.00  0.00    -0.248 NA
ATOM     54  C   UNL A   1      45.213  24.636  28.690  1.00  0.00     0.031 C 
ATOM     55  C   UNL A   1      46.981  29.924  31.099  1.00  0.00     0.029 A 
ATOM     56  C   UNL A   1      46.212  28.923  30.529  1.00  0.00     0.049 A 
ATOM     57  H   UNL A   1      44.175  28.964  29.976  1.00  0.00     0.167 HD
ATOM     58  C   UNL A   1      45.790  26.655  29.613  1.00  0.00     0.074 A 
ATOM     59  C   UNL A   1      46.206  25.316  29.246  1.00  0.00     0.031 C 
ATOM     60  C   UNL A   1      46.611  27.586  30.160  1.00  0.00     0.037 A 
BRANCH  47  61
ATOM     61  C   UNL A   1      43.888  33.032  31.266  1.00  0.00     0.058 A 
ATOM     62  C   UNL A   1      43.741  33.377  32.620  1.00  0.00     0.135 A 
ATOM     63  C   UNL A   1      44.212  34.059  30.364  1.00  0.00     0.135 A 
ATOM     64  F   UNL A   1      43.420  32.439  33.525  1.00  0.00    -0.206 F 
ATOM     65  C   UNL A   1      43.873  34.692  33.056  1.00  0.00     0.059 A 
ATOM     66  C   UNL A   1      44.380  35.377  30.783  1.00  0.00     0.059 A 
ATOM     67  F   UNL A   1      44.366  33.789  29.058  1.00  0.00    -0.206 F 
ATOM     68  C   UNL A   1      44.192  35.685  32.129  1.00  0.00     0.060 A 
BRANCH  68  69
ATOM     69  S   UNL A   1      44.357  37.385  32.714  1.00  0.00     0.124 S 
ATOM     70  O   UNL A   1      44.221  38.135  31.468  1.00  0.00    -0.237 OA
ATOM     71  O   UNL A   1      43.244  37.502  33.649  1.00  0.00    -0.237 OA
ATOM     72  O   UNL A   1      45.686  37.410  33.317  1.00  0.00    -0.744 OA
ENDBRANCH  68  69
ENDBRANCH  47  61
BRANCH  48  73
ATOM     73  C   UNL A   1      42.575  23.762  27.741  1.00  0.00     0.058 A 
ATOM     74  C   UNL A   1      42.597  23.532  26.358  1.00  0.00     0.135 A 
ATOM     75  C   UNL A   1      42.392  22.654  28.584  1.00  0.00     0.135 A 
ATOM     76  F   UNL A   1      42.762  24.559  25.510  1.00  0.00    -0.206 F 
ATOM     77  C   UNL A   1      42.430  22.256  25.828  1.00  0.00     0.059 A 
ATOM     78  C   UNL A   1      42.250  21.365  28.079  1.00  0.00     0.059 A 
ATOM     79  F   UNL A   1      42.379  22.816  29.917  1.00  0.00    -0.206 F 
ATOM     80  C   UNL A   1      42.261  21.179  26.698  1.00  0.00     0.060 A 
BRANCH  80  81
ATOM     81  S   UNL A   1      42.099  19.521  25.999  1.00  0.00     0.124 S 
ATOM     82  O   UNL A   1      42.580  18.691  27.098  1.00  0.00    -0.237 OA
ATOM     83  O   UNL A   1      40.669  19.446  25.719  1.00  0.00    -0.237 OA
ATOM     84  O   UNL A   1      42.959  19.568  24.821  1.00  0.00    -0.744 OA
ENDBRANCH  80  81
ENDBRANCH  48  73
BRANCH  60  85
ATOM     85  C   UNL A   1      48.037  27.184  30.427  1.00  0.00     0.058 A 
ATOM     86  C   UNL A   1      49.050  27.372  29.473  1.00  0.00     0.135 A 
ATOM     87  C   UNL A   1      48.402  26.649  31.673  1.00  0.00     0.135 A 
ATOM     88  F   UNL A   1      48.756  27.874  28.264  1.00  0.00    -0.206 F 
ATOM     89  C   UNL A   1      50.371  27.023  29.738  1.00  0.00     0.059 A 
ATOM     90  C   UNL A   1      49.721  26.322  31.970  1.00  0.00     0.059 A 
ATOM     91  F   UNL A   1      47.474  26.457  32.625  1.00  0.00    -0.206 F 
ATOM     92  C   UNL A   1      50.697  26.501  30.992  1.00  0.00     0.060 A 
BRANCH  92  93
ATOM     93  S   UNL A   1      52.420  26.084  31.333  1.00  0.00     0.124 S 
ATOM     94  O   UNL A   1      52.816  27.176  32.217  1.00  0.00    -0.237 OA
ATOM     95  O   UNL A   1      52.305  24.771  31.958  1.00  0.00    -0.237 OA
ATOM     96  O   UNL A   1      53.041  26.091  30.011  1.00  0.00    -0.744 OA
ENDBRANCH  92  93
ENDBRANCH  60  85
ENDBRANCH  34  35
ENDBRANCH  26  29
ENDBRANCH  24  25
ENDBRANCH  23  24
ENDBRANCH   1  23
TORSDOF 18
ENDMDL
MODEL 3
REMARK VINA RESULT:     -11.2      4.787     10.237
REMARK SMILES Cc1noc(-c2ccc(CCl)cc2)c1C(=O)NCCCCCCNC(=O)c1ccc(-c2c3nc(c(-c4c(F)cc(S(=O)(=O)[O-])cc4F)c4ccc([nH]4)c(-c4c(F)cc(S(=O)(=O)[O-])cc4F)c4nc(c(-c5c(F)cc(S(=O)(=O)[O-])cc5F)c5ccc2[nH]5)C=C4)C=C3)cc1
REMARK SMILES IDX 21 1 20 2 19 3 18 4 17 5 15 6 16 7 14 9 1 10 2 11 3 12 4 13
REMARK SMILES IDX 5 14 6 15 7 16 13 17 8 18 12 19 9 20 10 21 11 22 22 23 23 24
REMARK SMILES IDX 24 25 25 26 26 28 27 29 28 30 92 31 29 32 91 33 30 34 31 35
REMARK SMILES IDX 32 36 85 37 33 38 90 39 84 40 86 41 34 42 89 43 83 44 82 45
REMARK SMILES IDX 35 47 69 48 48 49 68 50 49 51 52 52 67 53 87 54 50 55 51 56
REMARK SMILES IDX 66 58 88 59 53 60 36 61 37 62 46 63 38 64 39 65 45 66 47 67
REMARK SMILES IDX 40 68 41 69 42 70 43 71 44 72 70 73 71 74 80 75 72 76 73 77
REMARK SMILES IDX 79 78 81 79 74 80 75 81 76 82 77 83 78 84 54 85 55 86 64 87
REMARK SMILES IDX 56 88 57 89 63 90 65 91 58 92 59 93 60 94 61 95 62 96
REMARK H PARENT 17 8 24 27 86 46 52 57
REMARK Flexibility Score: inf
ROOT
ATOM      1  C   UNL A   1      33.659  26.688  25.132  1.00  0.00     0.002 C 
ENDROOT
BRANCH   1   2
ATOM      2  C   UNL A   1      34.310  25.469  25.790  1.00  0.00     0.002 C 
BRANCH   2   3
ATOM      3  C   UNL A   1      35.148  24.567  24.884  1.00  0.00     0.021 C 
BRANCH   3   4
ATOM      4  C   UNL A   1      35.048  23.065  25.119  1.00  0.00     0.116 C 
BRANCH   4   5
ATOM      5  N   UNL A   1      33.928  22.659  25.927  1.00  0.00    -0.352 N 
ATOM      6  C   UNL A   1      32.832  21.885  25.647  1.00  0.00     0.257 C 
ATOM      7  O   UNL A   1      32.062  21.726  26.598  1.00  0.00    -0.269 OA
ATOM      8  H   UNL A   1      33.954  23.001  26.849  1.00  0.00     0.163 HD
BRANCH   6   9
ATOM      9  C   UNL A   1      32.540  21.313  24.335  1.00  0.00     0.110 A 
ATOM     10  C   UNL A   1      32.754  18.640  24.310  1.00  0.00     0.071 C 
ATOM     11  C   UNL A   1      32.510  19.994  23.757  1.00  0.00     0.094 A 
ATOM     12  N   UNL A   1      32.146  20.029  22.468  1.00  0.00    -0.084 NA
ATOM     13  O   UNL A   1      31.851  21.335  22.187  1.00  0.00    -0.355 OA
ATOM     14  C   UNL A   1      32.065  22.096  23.287  1.00  0.00     0.179 A 
BRANCH  14  15
ATOM     15  C   UNL A   1      31.730  23.498  23.095  1.00  0.00     0.021 A 
ATOM     16  C   UNL A   1      32.550  24.302  22.293  1.00  0.00     0.012 A 
ATOM     17  C   UNL A   1      30.605  24.064  23.699  1.00  0.00     0.012 A 
ATOM     18  C   UNL A   1      32.238  25.646  22.080  1.00  0.00     0.006 A 
ATOM     19  C   UNL A   1      30.296  25.414  23.494  1.00  0.00     0.006 A 
ATOM     20  C   UNL A   1      31.105  26.216  22.677  1.00  0.00    -0.033 A 
BRANCH  20  21
ATOM     21  C   UNL A   1      30.747  27.654  22.419  1.00  0.00     0.145 C 
ATOM     22  Cl  UNL A   1      30.935  28.639  23.886  1.00  0.00    -0.122 Cl
ENDBRANCH  20  21
ENDBRANCH  14  15
ENDBRANCH   6   9
ENDBRANCH   4   5
ENDBRANCH   3   4
ENDBRANCH   2   3
ENDBRANCH   1   2
BRANCH   1  23
ATOM     23  C   UNL A   1      34.021  28.054  25.718  1.00  0.00     0.021 C 
BRANCH  23  24
ATOM     24  C   UNL A   1      33.571  28.301  27.154  1.00  0.00     0.116 C 
BRANCH  24  25
ATOM     25  N   UNL A   1      33.445  29.713  27.466  1.00  0.00    -0.352 N 
ATOM     26  C   UNL A   1      34.343  30.558  28.067  1.00  0.00     0.251 C 
ATOM     27  H   UNL A   1      32.588  30.126  27.209  1.00  0.00     0.163 HD
ATOM     28  O   UNL A   1      33.987  31.685  28.405  1.00  0.00    -0.269 OA
BRANCH  26  29
ATOM     29  C   UNL A   1      35.729  30.109  28.328  1.00  0.00     0.039 A 
ATOM     30  C   UNL A   1      36.655  30.135  27.282  1.00  0.00     0.014 A 
ATOM     31  C   UNL A   1      36.114  29.653  29.593  1.00  0.00     0.014 A 
ATOM     32  C   UNL A   1      37.979  29.759  27.519  1.00  0.00     0.010 A 
ATOM     33  C   UNL A   1      37.450  29.351  29.845  1.00  0.00     0.010 A 
ATOM     34  C   UNL A   1      38.397  29.397  28.811  1.00  0.00    -0.014 A 
BRANCH  34  35
ATOM     35  C   UNL A   1      39.817  29.066  29.095  1.00  0.00     0.031 A 
ATOM     36  C   UNL A   1      40.733  30.101  29.693  1.00  0.00     0.074 A 
ATOM     37  C   UNL A   1      40.297  27.851  28.761  1.00  0.00     0.049 A 
ATOM     38  N   UNL A   1      42.012  30.018  29.959  1.00  0.00    -0.248 NA
ATOM     39  C   UNL A   1      40.141  31.411  30.008  1.00  0.00     0.031 C 
ATOM     40  C   UNL A   1      39.519  26.779  28.135  1.00  0.00     0.029 A 
ATOM     41  N   UNL A   1      41.553  27.315  28.894  1.00  0.00    -0.354 N 
ATOM     42  C   UNL A   1      42.377  31.261  30.462  1.00  0.00     0.074 A 
ATOM     43  C   UNL A   1      41.199  32.099  30.410  1.00  0.00     0.031 C 
ATOM     44  C   UNL A   1      40.309  25.708  27.960  1.00  0.00     0.029 A 
ATOM     45  C   UNL A   1      41.656  26.027  28.420  1.00  0.00     0.049 A 
ATOM     46  H   UNL A   1      42.310  27.804  29.290  1.00  0.00     0.167 HD
ATOM     47  C   UNL A   1      43.578  31.660  30.946  1.00  0.00     0.037 A 
ATOM     48  C   UNL A   1      42.718  25.200  28.356  1.00  0.00     0.037 A 
ATOM     49  C   UNL A   1      44.742  30.813  31.009  1.00  0.00     0.049 A 
ATOM     50  C   UNL A   1      44.046  25.670  28.884  1.00  0.00     0.074 A 
ATOM     51  C   UNL A   1      45.990  31.104  31.531  1.00  0.00     0.029 A 
ATOM     52  N   UNL A   1      44.805  29.512  30.529  1.00  0.00    -0.354 N 
ATOM     53  N   UNL A   1      44.357  26.828  29.419  1.00  0.00    -0.248 NA
ATOM     54  C   UNL A   1      45.166  24.723  28.808  1.00  0.00     0.031 C 
ATOM     55  C   UNL A   1      46.822  30.001  31.318  1.00  0.00     0.029 A 
ATOM     56  C   UNL A   1      46.077  28.998  30.718  1.00  0.00     0.049 A 
ATOM     57  H   UNL A   1      44.054  29.026  30.115  1.00  0.00     0.167 HD
ATOM     58  C   UNL A   1      45.700  26.737  29.767  1.00  0.00     0.074 A 
ATOM     59  C   UNL A   1      46.138  25.407  29.395  1.00  0.00     0.031 C 
ATOM     60  C   UNL A   1      46.499  27.670  30.344  1.00  0.00     0.037 A 
BRANCH  47  61
ATOM     61  C   UNL A   1      43.695  33.077  31.442  1.00  0.00     0.058 A 
ATOM     62  C   UNL A   1      43.868  34.157  30.560  1.00  0.00     0.135 A 
ATOM     63  C   UNL A   1      43.599  33.364  32.814  1.00  0.00     0.135 A 
ATOM     64  F   UNL A   1      43.980  33.941  29.241  1.00  0.00    -0.206 F 
ATOM     65  C   UNL A   1      43.978  35.465  31.023  1.00  0.00     0.059 A 
ATOM     66  C   UNL A   1      43.674  34.669  33.296  1.00  0.00     0.059 A 
ATOM     67  F   UNL A   1      43.432  32.372  33.703  1.00  0.00    -0.206 F 
ATOM     68  C   UNL A   1      43.880  35.710  32.393  1.00  0.00     0.060 A 
BRANCH  68  69
ATOM     69  S   UNL A   1      44.026  37.413  32.974  1.00  0.00     0.124 S 
ATOM     70  O   UNL A   1      43.997  38.153  31.716  1.00  0.00    -0.237 OA
ATOM     71  O   UNL A   1      42.847  37.555  33.821  1.00  0.00    -0.237 OA
ATOM     72  O   UNL A   1      45.305  37.425  33.677  1.00  0.00    -0.744 OA
ENDBRANCH  68  69
ENDBRANCH  47  61
BRANCH  48  73
ATOM     73  C   UNL A   1      42.562  23.835  27.783  1.00  0.00     0.058 A 
ATOM     74  C   UNL A   1      42.444  22.712  28.615  1.00  0.00     0.135 A 
ATOM     75  C   UNL A   1      42.509  23.628  26.395  1.00  0.00     0.135 A 
ATOM     76  F   UNL A   1      42.495  22.855  29.947  1.00  0.00    -0.206 F 
ATOM     77  C   UNL A   1      42.294  21.430  28.093  1.00  0.00     0.059 A 
ATOM     78  C   UNL A   1      42.332  22.360  25.850  1.00  0.00     0.059 A 
ATOM     79  F   UNL A   1      42.601  24.671  25.555  1.00  0.00    -0.206 F 
ATOM     80  C   UNL A   1      42.235  21.266  26.709  1.00  0.00     0.060 A 
BRANCH  80  81
ATOM     81  S   UNL A   1      41.986  19.605  26.044  1.00  0.00     0.124 S 
ATOM     82  O   UNL A   1      40.568  19.633  25.705  1.00  0.00    -0.237 OA
ATOM     83  O   UNL A   1      42.914  19.584  24.918  1.00  0.00    -0.237 OA
ATOM     84  O   UNL A   1      42.350  18.739  27.162  1.00  0.00    -0.744 OA
ENDBRANCH  80  81
ENDBRANCH  48  73
BRANCH  60  85
ATOM     85  C   UNL A   1      47.921  27.278  30.642  1.00  0.00     0.058 A 
ATOM     86  C   UNL A   1      48.270  26.590  31.815  1.00  0.00     0.135 A 
ATOM     87  C   UNL A   1      48.941  27.550  29.716  1.00  0.00     0.135 A 
ATOM     88  F   UNL A   1      47.336  26.310  32.738  1.00  0.00    -0.206 F 
ATOM     89  C   UNL A   1      49.583  26.208  32.070  1.00  0.00     0.059 A 
ATOM     90  C   UNL A   1      50.255  27.150  29.935  1.00  0.00     0.059 A 
ATOM     91  F   UNL A   1      48.661  28.197  28.572  1.00  0.00    -0.206 F 
ATOM     92  C   UNL A   1      50.569  26.490  31.122  1.00  0.00     0.060 A 
BRANCH  92  93
ATOM     93  S   UNL A   1      52.262  25.957  31.450  1.00  0.00     0.124 S 
ATOM     94  O   UNL A   1      52.721  26.990  32.373  1.00  0.00    -0.237 OA
ATOM     95  O   UNL A   1      52.065  24.632  32.028  1.00  0.00    -0.237 OA
ATOM     96  O   UNL A   1      52.886  25.973  30.130  1.00  0.00    -0.744 OA
ENDBRANCH  92  93
ENDBRANCH  60  85
ENDBRANCH  34  35
ENDBRANCH  26  29
ENDBRANCH  24  25
ENDBRANCH  23  24
ENDBRANCH   1  23
TORSDOF 18
ENDMDL
