MODEL 1
REMARK VINA RESULT:     -12.7      0.000      0.000
REMARK SMILES C[C@H](C(=O)NCCCCCCNC(=O)c1ccc(-c2c3nc(c(-c4c(F)cc(S(=O)(=O)[O-])cc4F)c4ccc([nH]4)c(-c4c(F)cc(S(=O)(=O)[O-])cc4F)c4nc(c(-c5c(F)cc(S(=O)(=O)[O-])cc5F)c5ccc2[nH]5)C=C4)C=C3)cc1)c1ccc2c3cc(Cl)ccc3n(C(=O)c3ccc(Cl)cc3)c2c1
REMARK SMILES IDX 8 1 7 2 6 3 5 4 3 5 4 6 2 8 1 9 81 10 82 11 103 12 83 13
REMARK SMILES IDX 102 14 84 15 92 16 85 17 91 18 86 19 90 20 87 21 89 22 88 23
REMARK SMILES IDX 93 24 94 25 95 26 96 27 101 28 97 29 100 30 98 31 99 32 9 33
REMARK SMILES IDX 10 34 11 35 12 36 13 37 14 39 15 40 16 41 80 42 17 43 79 44
REMARK SMILES IDX 18 45 19 46 20 47 73 48 21 49 78 50 72 51 74 52 22 53 77 54
REMARK SMILES IDX 71 55 70 56 23 58 57 59 36 60 56 61 37 62 40 63 55 64 75 65
REMARK SMILES IDX 38 66 39 67 54 69 76 70 41 71 24 72 25 73 34 74 26 75 27 76
REMARK SMILES IDX 33 77 35 78 28 79 29 80 30 81 31 82 32 83 58 84 59 85 68 86
REMARK SMILES IDX 60 87 61 88 67 89 69 90 62 91 63 92 64 93 65 94 66 95 42 96
REMARK SMILES IDX 43 97 52 98 44 99 45 100 51 101 53 102 46 103 47 104 48 105
REMARK SMILES IDX 49 106 50 107
REMARK H PARENT 5 7 12 38 74 57 40 68
REMARK Flexibility Score: inf
ROOT
ATOM      1  C   UNL A   1      33.928  29.302  27.418  1.00  0.00     0.002 C 
ENDROOT
BRANCH   1   2
ATOM      2  C   UNL A   1      34.097  28.349  26.221  1.00  0.00     0.021 C 
BRANCH   2   3
ATOM      3  C   UNL A   1      33.081  27.198  26.168  1.00  0.00     0.116 C 
BRANCH   3   4
ATOM      4  N   UNL A   1      31.832  27.612  25.547  1.00  0.00    -0.356 N 
ATOM      5  C   UNL A   1      31.311  27.385  24.303  1.00  0.00     0.227 C 
ATOM      6  O   UNL A   1      30.243  27.954  24.047  1.00  0.00    -0.274 OA
ATOM      7  H   UNL A   1      31.255  28.156  26.130  1.00  0.00     0.163 HD
BRANCH   5   8
ATOM      8  C   UNL A   1      31.984  26.433  23.292  1.00  0.00     0.105 C 
ATOM      9  C   UNL A   1      33.353  26.992  22.866  1.00  0.00     0.023 C 
BRANCH   8  10
ATOM     10  C   UNL A   1      32.110  25.006  23.814  1.00  0.00    -0.034 A 
ATOM     11  C   UNL A   1      31.021  24.254  24.265  1.00  0.00     0.005 A 
ATOM     12  C   UNL A   1      33.382  24.418  23.830  1.00  0.00     0.032 A 
ATOM     13  C   UNL A   1      31.174  22.909  24.641  1.00  0.00     0.011 A 
ATOM     14  C   UNL A   1      33.519  23.053  24.134  1.00  0.00     0.057 A 
ATOM     15  C   UNL A   1      32.431  22.280  24.507  1.00  0.00     0.008 A 
ATOM     16  N   UNL A   1      34.657  22.242  24.091  1.00  0.00    -0.276 N 
ATOM     17  C   UNL A   1      32.903  20.945  24.662  1.00  0.00     0.009 A 
ATOM     18  C   UNL A   1      34.277  20.927  24.363  1.00  0.00     0.057 A 
ATOM     19  C   UNL A   1      32.254  19.745  25.026  1.00  0.00     0.031 A 
ATOM     20  C   UNL A   1      35.015  19.731  24.459  1.00  0.00     0.029 A 
ATOM     21  C   UNL A   1      32.981  18.557  25.068  1.00  0.00     0.041 A 
ATOM     22  C   UNL A   1      34.340  18.547  24.783  1.00  0.00     0.023 A 
ATOM     23  Cl  UNL A   1      32.180  17.094  25.496  1.00  0.00    -0.084 Cl
BRANCH  16  24
ATOM     24  C   UNL A   1      35.939  22.790  23.858  1.00  0.00     0.262 C 
ATOM     25  O   UNL A   1      36.207  22.997  22.672  1.00  0.00    -0.268 OA
BRANCH  24  26
ATOM     26  C   UNL A   1      37.062  22.942  24.829  1.00  0.00     0.040 A 
ATOM     27  C   UNL A   1      37.890  21.811  25.009  1.00  0.00     0.015 A 
ATOM     28  C   UNL A   1      37.297  24.064  25.616  1.00  0.00     0.015 A 
ATOM     29  C   UNL A   1      38.904  21.787  25.970  1.00  0.00     0.021 A 
ATOM     30  C   UNL A   1      38.366  24.057  26.524  1.00  0.00     0.021 A 
ATOM     31  C   UNL A   1      39.129  22.913  26.738  1.00  0.00     0.041 A 
ATOM     32  Cl  UNL A   1      40.267  22.851  28.022  1.00  0.00    -0.084 Cl
ENDBRANCH  24  26
ENDBRANCH  16  24
ENDBRANCH   8  10
ENDBRANCH   5   8
ENDBRANCH   3   4
ENDBRANCH   2   3
ENDBRANCH   1   2
BRANCH   1  33
ATOM     33  C   UNL A   1      33.620  30.773  27.082  1.00  0.00     0.002 C 
BRANCH  33  34
ATOM     34  C   UNL A   1      34.061  31.823  28.117  1.00  0.00     0.021 C 
BRANCH  34  35
ATOM     35  C   UNL A   1      35.486  31.673  28.674  1.00  0.00     0.116 C 
BRANCH  35  36
ATOM     36  N   UNL A   1      35.519  31.167  30.035  1.00  0.00    -0.352 N 
ATOM     37  C   UNL A   1      36.472  30.441  30.718  1.00  0.00     0.251 C 
ATOM     38  H   UNL A   1      34.716  31.378  30.565  1.00  0.00     0.163 HD
ATOM     39  O   UNL A   1      36.198  30.041  31.849  1.00  0.00    -0.269 OA
BRANCH  37  40
ATOM     40  C   UNL A   1      37.802  30.094  30.142  1.00  0.00     0.039 A 
ATOM     41  C   UNL A   1      38.874  29.905  31.023  1.00  0.00     0.014 A 
ATOM     42  C   UNL A   1      38.055  30.045  28.768  1.00  0.00     0.014 A 
ATOM     43  C   UNL A   1      40.160  29.594  30.545  1.00  0.00     0.010 A 
ATOM     44  C   UNL A   1      39.337  29.689  28.293  1.00  0.00     0.010 A 
ATOM     45  C   UNL A   1      40.409  29.437  29.172  1.00  0.00    -0.014 A 
BRANCH  45  46
ATOM     46  C   UNL A   1      41.769  29.018  28.678  1.00  0.00     0.031 A 
ATOM     47  C   UNL A   1      42.910  30.006  28.582  1.00  0.00     0.074 A 
ATOM     48  C   UNL A   1      42.013  27.743  28.291  1.00  0.00     0.049 A 
ATOM     49  N   UNL A   1      44.142  29.810  28.178  1.00  0.00    -0.248 NA
ATOM     50  C   UNL A   1      42.626  31.395  28.971  1.00  0.00     0.031 C 
ATOM     51  C   UNL A   1      41.032  26.660  28.279  1.00  0.00     0.029 A 
ATOM     52  N   UNL A   1      43.162  27.136  27.827  1.00  0.00    -0.354 N 
ATOM     53  C   UNL A   1      44.779  31.043  28.265  1.00  0.00     0.074 A 
ATOM     54  C   UNL A   1      43.776  31.995  28.695  1.00  0.00     0.031 C 
ATOM     55  C   UNL A   1      41.612  25.529  27.845  1.00  0.00     0.029 A 
ATOM     56  C   UNL A   1      43.012  25.797  27.535  1.00  0.00     0.049 A 
ATOM     57  H   UNL A   1      44.014  27.617  27.717  1.00  0.00     0.167 HD
ATOM     58  C   UNL A   1      46.081  31.359  28.050  1.00  0.00     0.037 A 
ATOM     59  C   UNL A   1      43.889  24.877  27.080  1.00  0.00     0.037 A 
ATOM     60  C   UNL A   1      47.111  30.430  27.662  1.00  0.00     0.049 A 
ATOM     61  C   UNL A   1      45.329  25.254  26.842  1.00  0.00     0.074 A 
ATOM     62  C   UNL A   1      48.463  30.675  27.481  1.00  0.00     0.029 A 
ATOM     63  N   UNL A   1      46.916  29.085  27.400  1.00  0.00    -0.354 N 
ATOM     64  N   UNL A   1      45.916  26.412  27.010  1.00  0.00    -0.248 NA
ATOM     65  C   UNL A   1      46.229  24.189  26.371  1.00  0.00     0.031 C 
ATOM     66  C   UNL A   1      49.080  29.485  27.082  1.00  0.00     0.029 A 
ATOM     67  C   UNL A   1      48.119  28.491  27.047  1.00  0.00     0.049 A 
ATOM     68  H   UNL A   1      46.051  28.618  27.455  1.00  0.00     0.167 HD
ATOM     69  C   UNL A   1      47.257  26.206  26.700  1.00  0.00     0.074 A 
ATOM     70  C   UNL A   1      47.399  24.812  26.344  1.00  0.00     0.031 C 
ATOM     71  C   UNL A   1      48.277  27.099  26.713  1.00  0.00     0.037 A 
BRANCH  58  72
ATOM     72  C   UNL A   1      46.483  32.791  28.268  1.00  0.00     0.058 A 
ATOM     73  C   UNL A   1      46.979  33.226  29.507  1.00  0.00     0.135 A 
ATOM     74  C   UNL A   1      46.416  33.725  27.222  1.00  0.00     0.135 A 
ATOM     75  F   UNL A   1      47.055  32.374  30.541  1.00  0.00    -0.206 F 
ATOM     76  C   UNL A   1      47.362  34.546  29.712  1.00  0.00     0.059 A 
ATOM     77  C   UNL A   1      46.818  35.045  27.398  1.00  0.00     0.059 A 
ATOM     78  F   UNL A   1      45.955  33.358  26.015  1.00  0.00    -0.206 F 
ATOM     79  C   UNL A   1      47.274  35.450  28.652  1.00  0.00     0.060 A 
BRANCH  79  80
ATOM     80  S   UNL A   1      47.768  37.162  28.938  1.00  0.00     0.124 S 
ATOM     81  O   UNL A   1      46.749  37.601  29.887  1.00  0.00    -0.237 OA
ATOM     82  O   UNL A   1      49.115  37.014  29.479  1.00  0.00    -0.237 OA
ATOM     83  O   UNL A   1      47.691  37.763  27.610  1.00  0.00    -0.744 OA
ENDBRANCH  79  80
ENDBRANCH  58  72
BRANCH  59  84
ATOM     84  C   UNL A   1      43.453  23.474  26.831  1.00  0.00     0.058 A 
ATOM     85  C   UNL A   1      43.320  22.561  27.888  1.00  0.00     0.135 A 
ATOM     86  C   UNL A   1      43.229  23.004  25.529  1.00  0.00     0.135 A 
ATOM     87  F   UNL A   1      43.537  22.961  29.150  1.00  0.00    -0.206 F 
ATOM     88  C   UNL A   1      43.017  21.222  27.663  1.00  0.00     0.059 A 
ATOM     89  C   UNL A   1      42.902  21.673  25.280  1.00  0.00     0.059 A 
ATOM     90  F   UNL A   1      43.331  23.839  24.484  1.00  0.00    -0.206 F 
ATOM     91  C   UNL A   1      42.819  20.785  26.352  1.00  0.00     0.060 A 
BRANCH  91  92
ATOM     92  S   UNL A   1      42.429  19.045  26.064  1.00  0.00     0.124 S 
ATOM     93  O   UNL A   1      42.718  18.461  27.369  1.00  0.00    -0.237 OA
ATOM     94  O   UNL A   1      41.019  19.103  25.688  1.00  0.00    -0.237 OA
ATOM     95  O   UNL A   1      43.341  18.673  24.988  1.00  0.00    -0.744 OA
ENDBRANCH  91  92
ENDBRANCH  59  84
BRANCH  71  96
ATOM     96  C   UNL A   1      49.655  26.597  26.376  1.00  0.00     0.058 A 
ATOM     97  C   UNL A   1      50.453  25.933  27.322  1.00  0.00     0.135 A 
ATOM     98  C   UNL A   1      50.168  26.740  25.077  1.00  0.00     0.135 A 
ATOM     99  F   UNL A   1      50.015  25.775  28.581  1.00  0.00    -0.206 F 
ATOM    100  C   UNL A   1      51.716  25.448  26.997  1.00  0.00     0.059 A 
ATOM    101  C   UNL A   1      51.419  26.242  24.723  1.00  0.00     0.059 A 
ATOM    102  F   UNL A   1      49.445  27.360  24.130  1.00  0.00    -0.206 F 
ATOM    103  C   UNL A   1      52.192  25.607  25.694  1.00  0.00     0.060 A 
BRANCH 103 104
ATOM    104  S   UNL A   1      53.817  24.939  25.275  1.00  0.00     0.124 S 
ATOM    105  O   UNL A   1      53.528  23.516  25.146  1.00  0.00    -0.237 OA
ATOM    106  O   UNL A   1      54.134  25.637  24.032  1.00  0.00    -0.237 OA
ATOM    107  O   UNL A   1      54.642  25.313  26.421  1.00  0.00    -0.744 OA
ENDBRANCH 103 104
ENDBRANCH  71  96
ENDBRANCH  45  46
ENDBRANCH  37  40
ENDBRANCH  35  36
ENDBRANCH  34  35
ENDBRANCH  33  34
ENDBRANCH   1  33
TORSDOF 19
ENDMDL
MODEL 2
REMARK VINA RESULT:     -12.7      6.480     12.278
REMARK SMILES C[C@H](C(=O)NCCCCCCNC(=O)c1ccc(-c2c3nc(c(-c4c(F)cc(S(=O)(=O)[O-])cc4F)c4ccc([nH]4)c(-c4c(F)cc(S(=O)(=O)[O-])cc4F)c4nc(c(-c5c(F)cc(S(=O)(=O)[O-])cc5F)c5ccc2[nH]5)C=C4)C=C3)cc1)c1ccc2c3cc(Cl)ccc3n(C(=O)c3ccc(Cl)cc3)c2c1
REMARK SMILES IDX 8 1 7 2 6 3 5 4 3 5 4 6 2 8 1 9 81 10 82 11 103 12 83 13
REMARK SMILES IDX 102 14 84 15 92 16 85 17 91 18 86 19 90 20 87 21 89 22 88 23
REMARK SMILES IDX 93 24 94 25 95 26 96 27 101 28 97 29 100 30 98 31 99 32 9 33
REMARK SMILES IDX 10 34 11 35 12 36 13 37 14 39 15 40 16 41 80 42 17 43 79 44
REMARK SMILES IDX 18 45 19 46 20 47 73 48 21 49 78 50 72 51 74 52 22 53 77 54
REMARK SMILES IDX 71 55 70 56 23 58 57 59 36 60 56 61 37 62 40 63 55 64 75 65
REMARK SMILES IDX 38 66 39 67 54 69 76 70 41 71 24 72 25 73 34 74 26 75 27 76
REMARK SMILES IDX 33 77 35 78 28 79 29 80 30 81 31 82 32 83 58 84 59 85 68 86
REMARK SMILES IDX 60 87 61 88 67 89 69 90 62 91 63 92 64 93 65 94 66 95 42 96
REMARK SMILES IDX 43 97 52 98 44 99 45 100 51 101 53 102 46 103 47 104 48 105
REMARK SMILES IDX 49 106 50 107
REMARK H PARENT 5 7 12 38 74 57 40 68
REMARK Flexibility Score: inf
ROOT
ATOM      1  C   UNL A   1      37.030  23.326  24.239  1.00  0.00     0.002 C 
ENDROOT
BRANCH   1   2
ATOM      2  C   UNL A   1      35.765  22.632  23.704  1.00  0.00     0.021 C 
BRANCH   2   3
ATOM      3  C   UNL A   1      34.672  23.588  23.201  1.00  0.00     0.116 C 
BRANCH   3   4
ATOM      4  N   UNL A   1      33.635  22.879  22.466  1.00  0.00    -0.356 N 
ATOM      5  C   UNL A   1      32.511  22.218  22.880  1.00  0.00     0.227 C 
ATOM      6  O   UNL A   1      31.865  21.638  21.999  1.00  0.00    -0.274 OA
ATOM      7  H   UNL A   1      33.767  22.873  21.490  1.00  0.00     0.163 HD
BRANCH   5   8
ATOM      8  C   UNL A   1      32.041  22.238  24.350  1.00  0.00     0.105 C 
ATOM      9  C   UNL A   1      32.694  21.084  25.131  1.00  0.00     0.023 C 
BRANCH   8  10
ATOM     10  C   UNL A   1      32.290  23.578  25.034  1.00  0.00    -0.034 A 
ATOM     11  C   UNL A   1      33.284  23.775  25.997  1.00  0.00     0.005 A 
ATOM     12  C   UNL A   1      31.487  24.666  24.667  1.00  0.00     0.032 A 
ATOM     13  C   UNL A   1      33.541  25.053  26.524  1.00  0.00     0.011 A 
ATOM     14  C   UNL A   1      31.795  25.954  25.138  1.00  0.00     0.057 A 
ATOM     15  C   UNL A   1      32.830  26.170  26.034  1.00  0.00     0.008 A 
ATOM     16  N   UNL A   1      31.216  27.183  24.809  1.00  0.00    -0.276 N 
ATOM     17  C   UNL A   1      32.917  27.578  26.236  1.00  0.00     0.009 A 
ATOM     18  C   UNL A   1      31.937  28.198  25.441  1.00  0.00     0.057 A 
ATOM     19  C   UNL A   1      33.771  28.371  27.032  1.00  0.00     0.031 A 
ATOM     20  C   UNL A   1      31.779  29.598  25.462  1.00  0.00     0.029 A 
ATOM     21  C   UNL A   1      33.641  29.758  27.008  1.00  0.00     0.041 A 
ATOM     22  C   UNL A   1      32.664  30.365  26.230  1.00  0.00     0.023 A 
ATOM     23  Cl  UNL A   1      34.697  30.721  27.969  1.00  0.00    -0.084 Cl
BRANCH  16  24
ATOM     24  C   UNL A   1      30.055  27.256  24.006  1.00  0.00     0.262 C 
ATOM     25  O   UNL A   1      29.463  26.184  23.854  1.00  0.00    -0.268 OA
BRANCH  24  26
ATOM     26  C   UNL A   1      29.590  28.397  23.166  1.00  0.00     0.040 A 
ATOM     27  C   UNL A   1      28.197  28.641  23.158  1.00  0.00     0.015 A 
ATOM     28  C   UNL A   1      30.399  29.170  22.340  1.00  0.00     0.015 A 
ATOM     29  C   UNL A   1      27.624  29.606  22.327  1.00  0.00     0.021 A 
ATOM     30  C   UNL A   1      29.823  30.187  21.567  1.00  0.00     0.021 A 
ATOM     31  C   UNL A   1      28.444  30.370  21.519  1.00  0.00     0.041 A 
ATOM     32  Cl  UNL A   1      27.746  31.453  20.384  1.00  0.00    -0.084 Cl
ENDBRANCH  24  26
ENDBRANCH  16  24
ENDBRANCH   8  10
ENDBRANCH   5   8
ENDBRANCH   3   4
ENDBRANCH   2   3
ENDBRANCH   1   2
BRANCH   1  33
ATOM     33  C   UNL A   1      37.345  23.114  25.732  1.00  0.00     0.002 C 
BRANCH  33  34
ATOM     34  C   UNL A   1      38.585  22.262  26.060  1.00  0.00     0.021 C 
BRANCH  34  35
ATOM     35  C   UNL A   1      39.697  22.960  26.860  1.00  0.00     0.116 C 
BRANCH  35  36
ATOM     36  N   UNL A   1      40.636  23.687  26.022  1.00  0.00    -0.352 N 
ATOM     37  C   UNL A   1      41.186  24.945  26.146  1.00  0.00     0.251 C 
ATOM     38  H   UNL A   1      40.929  23.194  25.222  1.00  0.00     0.163 HD
ATOM     39  O   UNL A   1      41.883  25.369  25.224  1.00  0.00    -0.269 OA
BRANCH  37  40
ATOM     40  C   UNL A   1      40.955  25.825  27.327  1.00  0.00     0.039 A 
ATOM     41  C   UNL A   1      41.936  26.772  27.646  1.00  0.00     0.014 A 
ATOM     42  C   UNL A   1      39.861  25.688  28.185  1.00  0.00     0.014 A 
ATOM     43  C   UNL A   1      41.790  27.621  28.758  1.00  0.00     0.010 A 
ATOM     44  C   UNL A   1      39.695  26.572  29.275  1.00  0.00     0.010 A 
ATOM     45  C   UNL A   1      40.646  27.568  29.571  1.00  0.00    -0.014 A 
BRANCH  45  46
ATOM     46  C   UNL A   1      40.460  28.542  30.705  1.00  0.00     0.031 A 
ATOM     47  C   UNL A   1      41.304  28.461  31.956  1.00  0.00     0.074 A 
ATOM     48  C   UNL A   1      39.520  29.516  30.648  1.00  0.00     0.049 A 
ATOM     49  N   UNL A   1      41.274  29.221  33.026  1.00  0.00    -0.248 NA
ATOM     50  C   UNL A   1      42.297  27.380  32.025  1.00  0.00     0.031 C 
ATOM     51  C   UNL A   1      38.590  29.729  29.541  1.00  0.00     0.029 A 
ATOM     52  N   UNL A   1      39.185  30.512  31.541  1.00  0.00    -0.354 N 
ATOM     53  C   UNL A   1      42.238  28.713  33.889  1.00  0.00     0.074 A 
ATOM     54  C   UNL A   1      42.789  27.538  33.246  1.00  0.00     0.031 C 
ATOM     55  C   UNL A   1      37.801  30.783  29.810  1.00  0.00     0.029 A 
ATOM     56  C   UNL A   1      38.157  31.326  31.116  1.00  0.00     0.049 A 
ATOM     57  H   UNL A   1      39.640  30.631  32.406  1.00  0.00     0.167 HD
ATOM     58  C   UNL A   1      42.662  29.191  35.086  1.00  0.00     0.037 A 
ATOM     59  C   UNL A   1      37.566  32.395  31.692  1.00  0.00     0.037 A 
ATOM     60  C   UNL A   1      42.165  30.378  35.733  1.00  0.00     0.049 A 
ATOM     61  C   UNL A   1      38.051  32.904  33.025  1.00  0.00     0.074 A 
ATOM     62  C   UNL A   1      42.591  30.949  36.922  1.00  0.00     0.029 A 
ATOM     63  N   UNL A   1      41.142  31.180  35.255  1.00  0.00    -0.354 N 
ATOM     64  N   UNL A   1      39.018  32.446  33.779  1.00  0.00    -0.248 NA
ATOM     65  C   UNL A   1      37.372  34.089  33.576  1.00  0.00     0.031 C 
ATOM     66  C   UNL A   1      41.807  32.079  37.177  1.00  0.00     0.029 A 
ATOM     67  C   UNL A   1      40.916  32.232  36.130  1.00  0.00     0.049 A 
ATOM     68  H   UNL A   1      40.649  31.026  34.418  1.00  0.00     0.167 HD
ATOM     69  C   UNL A   1      39.088  33.306  34.871  1.00  0.00     0.074 A 
ATOM     70  C   UNL A   1      38.073  34.317  34.678  1.00  0.00     0.031 C 
ATOM     71  C   UNL A   1      39.924  33.257  35.937  1.00  0.00     0.037 A 
BRANCH  58  72
ATOM     72  C   UNL A   1      43.765  28.435  35.773  1.00  0.00     0.058 A 
ATOM     73  C   UNL A   1      45.108  28.822  35.635  1.00  0.00     0.135 A 
ATOM     74  C   UNL A   1      43.478  27.346  36.611  1.00  0.00     0.135 A 
ATOM     75  F   UNL A   1      45.434  29.852  34.838  1.00  0.00    -0.206 F 
ATOM     76  C   UNL A   1      46.131  28.135  36.275  1.00  0.00     0.059 A 
ATOM     77  C   UNL A   1      44.485  26.658  37.282  1.00  0.00     0.059 A 
ATOM     78  F   UNL A   1      42.210  26.940  36.783  1.00  0.00    -0.206 F 
ATOM     79  C   UNL A   1      45.810  27.050  37.094  1.00  0.00     0.060 A 
BRANCH  79  80
ATOM     80  S   UNL A   1      47.152  26.164  37.912  1.00  0.00     0.124 S 
ATOM     81  O   UNL A   1      48.147  26.101  36.846  1.00  0.00    -0.237 OA
ATOM     82  O   UNL A   1      47.475  27.044  39.030  1.00  0.00    -0.237 OA
ATOM     83  O   UNL A   1      46.542  24.888  38.277  1.00  0.00    -0.744 OA
ENDBRANCH  79  80
ENDBRANCH  58  72
BRANCH  59  84
ATOM     84  C   UNL A   1      36.444  33.100  31.008  1.00  0.00     0.058 A 
ATOM     85  C   UNL A   1      36.669  33.855  29.847  1.00  0.00     0.135 A 
ATOM     86  C   UNL A   1      35.147  33.086  31.540  1.00  0.00     0.135 A 
ATOM     87  F   UNL A   1      37.896  33.909  29.309  1.00  0.00    -0.206 F 
ATOM     88  C   UNL A   1      35.655  34.605  29.257  1.00  0.00     0.059 A 
ATOM     89  C   UNL A   1      34.111  33.809  30.953  1.00  0.00     0.059 A 
ATOM     90  F   UNL A   1      34.878  32.370  32.641  1.00  0.00    -0.206 F 
ATOM     91  C   UNL A   1      34.380  34.582  29.824  1.00  0.00     0.060 A 
BRANCH  91  92
ATOM     92  S   UNL A   1      33.069  35.558  29.056  1.00  0.00     0.124 S 
ATOM     93  O   UNL A   1      32.296  35.976  30.220  1.00  0.00    -0.237 OA
ATOM     94  O   UNL A   1      33.823  36.609  28.379  1.00  0.00    -0.237 OA
ATOM     95  O   UNL A   1      32.414  34.599  28.173  1.00  0.00    -0.744 OA
ENDBRANCH  91  92
ENDBRANCH  59  84
BRANCH  71  96
ATOM     96  C   UNL A   1      39.816  34.350  36.965  1.00  0.00     0.058 A 
ATOM     97  C   UNL A   1      40.391  35.616  36.763  1.00  0.00     0.135 A 
ATOM     98  C   UNL A   1      39.090  34.147  38.150  1.00  0.00     0.135 A 
ATOM     99  F   UNL A   1      41.102  35.864  35.652  1.00  0.00    -0.206 F 
ATOM    100  C   UNL A   1      40.266  36.632  37.706  1.00  0.00     0.059 A 
ATOM    101  C   UNL A   1      38.933  35.156  39.097  1.00  0.00     0.059 A 
ATOM    102  F   UNL A   1      38.514  32.959  38.392  1.00  0.00    -0.206 F 
ATOM    103  C   UNL A   1      39.534  36.393  38.871  1.00  0.00     0.060 A 
BRANCH 103 104
ATOM    104  S   UNL A   1      39.347  37.730  40.070  1.00  0.00     0.124 S 
ATOM    105  O   UNL A   1      40.623  38.424  39.940  1.00  0.00    -0.237 OA
ATOM    106  O   UNL A   1      38.180  38.447  39.564  1.00  0.00    -0.237 OA
ATOM    107  O   UNL A   1      39.140  37.026  41.333  1.00  0.00    -0.744 OA
ENDBRANCH 103 104
ENDBRANCH  71  96
ENDBRANCH  45  46
ENDBRANCH  37  40
ENDBRANCH  35  36
ENDBRANCH  34  35
ENDBRANCH  33  34
ENDBRANCH   1  33
TORSDOF 19
ENDMDL
MODEL 3
REMARK VINA RESULT:     -12.6      6.381     12.041
REMARK SMILES C[C@H](C(=O)NCCCCCCNC(=O)c1ccc(-c2c3nc(c(-c4c(F)cc(S(=O)(=O)[O-])cc4F)c4ccc([nH]4)c(-c4c(F)cc(S(=O)(=O)[O-])cc4F)c4nc(c(-c5c(F)cc(S(=O)(=O)[O-])cc5F)c5ccc2[nH]5)C=C4)C=C3)cc1)c1ccc2c3cc(Cl)ccc3n(C(=O)c3ccc(Cl)cc3)c2c1
REMARK SMILES IDX 8 1 7 2 6 3 5 4 3 5 4 6 2 8 1 9 81 10 82 11 103 12 83 13
REMARK SMILES IDX 102 14 84 15 92 16 85 17 91 18 86 19 90 20 87 21 89 22 88 23
REMARK SMILES IDX 93 24 94 25 95 26 96 27 101 28 97 29 100 30 98 31 99 32 9 33
REMARK SMILES IDX 10 34 11 35 12 36 13 37 14 39 15 40 16 41 80 42 17 43 79 44
REMARK SMILES IDX 18 45 19 46 20 47 73 48 21 49 78 50 72 51 74 52 22 53 77 54
REMARK SMILES IDX 71 55 70 56 23 58 57 59 36 60 56 61 37 62 40 63 55 64 75 65
REMARK SMILES IDX 38 66 39 67 54 69 76 70 41 71 24 72 25 73 34 74 26 75 27 76
REMARK SMILES IDX 33 77 35 78 28 79 29 80 30 81 31 82 32 83 58 84 59 85 68 86
REMARK SMILES IDX 60 87 61 88 67 89 69 90 62 91 63 92 64 93 65 94 66 95 42 96
REMARK SMILES IDX 43 97 52 98 44 99 45 100 51 101 53 102 46 103 47 104 48 105
REMARK SMILES IDX 49 106 50 107
REMARK H PARENT 5 7 12 38 74 57 40 68
REMARK Flexibility Score: inf
ROOT
ATOM      1  C   UNL A   1      37.678  22.679  25.572  1.00  0.00     0.002 C 
ENDROOT
BRANCH   1   2
ATOM      2  C   UNL A   1      36.219  23.048  25.897  1.00  0.00     0.021 C 
BRANCH   2   3
ATOM      3  C   UNL A   1      35.207  21.912  25.688  1.00  0.00     0.116 C 
BRANCH   3   4
ATOM      4  N   UNL A   1      33.844  22.354  25.939  1.00  0.00    -0.356 N 
ATOM      5  C   UNL A   1      32.953  23.051  25.169  1.00  0.00     0.227 C 
ATOM      6  O   UNL A   1      31.881  23.348  25.710  1.00  0.00    -0.274 OA
ATOM      7  H   UNL A   1      33.498  22.106  26.827  1.00  0.00     0.163 HD
BRANCH   5   8
ATOM      8  C   UNL A   1      33.241  23.403  23.695  1.00  0.00     0.105 C 
ATOM      9  C   UNL A   1      32.777  22.258  22.776  1.00  0.00     0.023 C 
BRANCH   8  10
ATOM     10  C   UNL A   1      32.628  24.733  23.271  1.00  0.00    -0.034 A 
ATOM     11  C   UNL A   1      32.200  25.001  21.968  1.00  0.00     0.005 A 
ATOM     12  C   UNL A   1      32.477  25.730  24.245  1.00  0.00     0.032 A 
ATOM     13  C   UNL A   1      31.549  26.206  21.652  1.00  0.00     0.011 A 
ATOM     14  C   UNL A   1      31.759  26.900  23.944  1.00  0.00     0.057 A 
ATOM     15  C   UNL A   1      31.263  27.139  22.672  1.00  0.00     0.008 A 
ATOM     16  N   UNL A   1      31.385  27.954  24.782  1.00  0.00    -0.276 N 
ATOM     17  C   UNL A   1      30.529  28.359  22.736  1.00  0.00     0.009 A 
ATOM     18  C   UNL A   1      30.579  28.834  24.058  1.00  0.00     0.057 A 
ATOM     19  C   UNL A   1      29.814  29.087  21.761  1.00  0.00     0.031 A 
ATOM     20  C   UNL A   1      29.953  30.047  24.407  1.00  0.00     0.029 A 
ATOM     21  C   UNL A   1      29.154  30.259  22.126  1.00  0.00     0.041 A 
ATOM     22  C   UNL A   1      29.217  30.730  23.430  1.00  0.00     0.023 A 
ATOM     23  Cl  UNL A   1      28.270  31.134  20.936  1.00  0.00    -0.084 Cl
BRANCH  16  24
ATOM     24  C   UNL A   1      31.858  28.037  26.112  1.00  0.00     0.262 C 
ATOM     25  O   UNL A   1      31.168  27.446  26.945  1.00  0.00    -0.268 OA
BRANCH  24  26
ATOM     26  C   UNL A   1      32.943  28.911  26.646  1.00  0.00     0.040 A 
ATOM     27  C   UNL A   1      32.568  30.227  27.000  1.00  0.00     0.015 A 
ATOM     28  C   UNL A   1      34.286  28.560  26.740  1.00  0.00     0.015 A 
ATOM     29  C   UNL A   1      33.509  31.176  27.406  1.00  0.00     0.021 A 
ATOM     30  C   UNL A   1      35.211  29.498  27.221  1.00  0.00     0.021 A 
ATOM     31  C   UNL A   1      34.837  30.809  27.501  1.00  0.00     0.041 A 
ATOM     32  Cl  UNL A   1      36.024  31.998  27.851  1.00  0.00    -0.084 Cl
ENDBRANCH  24  26
ENDBRANCH  16  24
ENDBRANCH   8  10
ENDBRANCH   5   8
ENDBRANCH   3   4
ENDBRANCH   2   3
ENDBRANCH   1   2
BRANCH   1  33
ATOM     33  C   UNL A   1      38.758  23.311  26.469  1.00  0.00     0.002 C 
BRANCH  33  34
ATOM     34  C   UNL A   1      39.902  22.387  26.925  1.00  0.00     0.021 C 
BRANCH  34  35
ATOM     35  C   UNL A   1      41.247  23.068  27.227  1.00  0.00     0.116 C 
BRANCH  35  36
ATOM     36  N   UNL A   1      41.746  23.865  26.120  1.00  0.00    -0.352 N 
ATOM     37  C   UNL A   1      41.933  25.224  25.984  1.00  0.00     0.251 C 
ATOM     38  H   UNL A   1      41.994  23.342  25.324  1.00  0.00     0.163 HD
ATOM     39  O   UNL A   1      42.274  25.658  24.883  1.00  0.00    -0.269 OA
BRANCH  37  40
ATOM     40  C   UNL A   1      41.714  26.195  27.095  1.00  0.00     0.039 A 
ATOM     41  C   UNL A   1      40.620  25.988  27.945  1.00  0.00     0.014 A 
ATOM     42  C   UNL A   1      42.483  27.348  27.269  1.00  0.00     0.014 A 
ATOM     43  C   UNL A   1      40.346  26.875  29.001  1.00  0.00     0.010 A 
ATOM     44  C   UNL A   1      42.231  28.214  28.357  1.00  0.00     0.010 A 
ATOM     45  C   UNL A   1      41.170  27.984  29.256  1.00  0.00    -0.014 A 
BRANCH  45  46
ATOM     46  C   UNL A   1      40.917  28.876  30.442  1.00  0.00     0.031 A 
ATOM     47  C   UNL A   1      41.739  28.756  31.706  1.00  0.00     0.074 A 
ATOM     48  C   UNL A   1      39.935  29.809  30.424  1.00  0.00     0.049 A 
ATOM     49  N   UNL A   1      41.652  29.446  32.819  1.00  0.00    -0.248 NA
ATOM     50  C   UNL A   1      42.780  27.718  31.731  1.00  0.00     0.031 C 
ATOM     51  C   UNL A   1      39.017  30.047  29.311  1.00  0.00     0.029 A 
ATOM     52  N   UNL A   1      39.536  30.731  31.368  1.00  0.00    -0.354 N 
ATOM     53  C   UNL A   1      42.622  28.930  33.671  1.00  0.00     0.074 A 
ATOM     54  C   UNL A   1      43.239  27.823  32.970  1.00  0.00     0.031 C 
ATOM     55  C   UNL A   1      38.175  31.046  29.626  1.00  0.00     0.029 A 
ATOM     56  C   UNL A   1      38.480  31.523  30.970  1.00  0.00     0.049 A 
ATOM     57  H   UNL A   1      39.968  30.817  32.249  1.00  0.00     0.167 HD
ATOM     58  C   UNL A   1      43.000  29.351  34.904  1.00  0.00     0.037 A 
ATOM     59  C   UNL A   1      37.829  32.526  31.597  1.00  0.00     0.037 A 
ATOM     60  C   UNL A   1      42.435  30.472  35.611  1.00  0.00     0.049 A 
ATOM     61  C   UNL A   1      38.263  32.973  32.969  1.00  0.00     0.074 A 
ATOM     62  C   UNL A   1      42.811  30.987  36.842  1.00  0.00     0.029 A 
ATOM     63  N   UNL A   1      41.386  31.255  35.160  1.00  0.00    -0.354 N 
ATOM     64  N   UNL A   1      39.236  32.513  33.716  1.00  0.00    -0.248 NA
ATOM     65  C   UNL A   1      37.520  34.090  33.575  1.00  0.00     0.031 C 
ATOM     66  C   UNL A   1      41.971  32.063  37.147  1.00  0.00     0.029 A 
ATOM     67  C   UNL A   1      41.095  32.240  36.092  1.00  0.00     0.049 A 
ATOM     68  H   UNL A   1      40.917  31.131  34.303  1.00  0.00     0.167 HD
ATOM     69  C   UNL A   1      39.244  33.307  34.859  1.00  0.00     0.074 A 
ATOM     70  C   UNL A   1      38.187  34.281  34.705  1.00  0.00     0.031 C 
ATOM     71  C   UNL A   1      40.060  33.230  35.939  1.00  0.00     0.037 A 
BRANCH  58  72
ATOM     72  C   UNL A   1      44.123  28.604  35.569  1.00  0.00     0.058 A 
ATOM     73  C   UNL A   1      43.867  27.527  36.433  1.00  0.00     0.135 A 
ATOM     74  C   UNL A   1      45.462  28.936  35.308  1.00  0.00     0.135 A 
ATOM     75  F   UNL A   1      42.604  27.178  36.721  1.00  0.00    -0.206 F 
ATOM     76  C   UNL A   1      44.900  26.827  37.043  1.00  0.00     0.059 A 
ATOM     77  C   UNL A   1      46.512  28.231  35.889  1.00  0.00     0.059 A 
ATOM     78  F   UNL A   1      45.759  29.953  34.484  1.00  0.00    -0.206 F 
ATOM     79  C   UNL A   1      46.220  27.189  36.768  1.00  0.00     0.060 A 
BRANCH  79  80
ATOM     80  S   UNL A   1      47.549  26.272  37.575  1.00  0.00     0.124 S 
ATOM     81  O   UNL A   1      48.729  26.897  36.984  1.00  0.00    -0.237 OA
ATOM     82  O   UNL A   1      47.319  26.561  38.986  1.00  0.00    -0.237 OA
ATOM     83  O   UNL A   1      47.302  24.891  37.171  1.00  0.00    -0.744 OA
ENDBRANCH  79  80
ENDBRANCH  58  72
BRANCH  59  84
ATOM     84  C   UNL A   1      36.690  33.221  30.932  1.00  0.00     0.058 A 
ATOM     85  C   UNL A   1      36.915  34.238  29.992  1.00  0.00     0.135 A 
ATOM     86  C   UNL A   1      35.362  32.929  31.274  1.00  0.00     0.135 A 
ATOM     87  F   UNL A   1      38.169  34.562  29.642  1.00  0.00    -0.206 F 
ATOM     88  C   UNL A   1      35.866  34.968  29.441  1.00  0.00     0.059 A 
ATOM     89  C   UNL A   1      34.294  33.630  30.719  1.00  0.00     0.059 A 
ATOM     90  F   UNL A   1      35.092  31.957  32.159  1.00  0.00    -0.206 F 
ATOM     91  C   UNL A   1      34.558  34.662  29.819  1.00  0.00     0.060 A 
BRANCH  91  92
ATOM     92  S   UNL A   1      33.200  35.614  29.103  1.00  0.00     0.124 S 
ATOM     93  O   UNL A   1      33.921  36.570  28.270  1.00  0.00    -0.237 OA
ATOM     94  O   UNL A   1      32.446  34.588  28.390  1.00  0.00    -0.237 OA
ATOM     95  O   UNL A   1      32.532  36.172  30.274  1.00  0.00    -0.744 OA
ENDBRANCH  91  92
ENDBRANCH  59  84
BRANCH  71  96
ATOM     96  C   UNL A   1      39.882  34.251  37.029  1.00  0.00     0.058 A 
ATOM     97  C   UNL A   1      40.452  35.532  36.944  1.00  0.00     0.135 A 
ATOM     98  C   UNL A   1      39.091  33.964  38.154  1.00  0.00     0.135 A 
ATOM     99  F   UNL A   1      41.223  35.858  35.895  1.00  0.00    -0.206 F 
ATOM    100  C   UNL A   1      40.262  36.482  37.944  1.00  0.00     0.059 A 
ATOM    101  C   UNL A   1      38.868  34.906  39.154  1.00  0.00     0.059 A 
ATOM    102  F   UNL A   1      38.515  32.758  38.284  1.00  0.00    -0.206 F 
ATOM    103  C   UNL A   1      39.468  36.160  39.046  1.00  0.00     0.060 A 
BRANCH 103 104
ATOM    104  S   UNL A   1      39.198  37.414  40.318  1.00  0.00     0.124 S 
ATOM    105  O   UNL A   1      38.628  36.619  41.400  1.00  0.00    -0.237 OA
ATOM    106  O   UNL A   1      40.546  37.925  40.548  1.00  0.00    -0.237 OA
ATOM    107  O   UNL A   1      38.281  38.354  39.678  1.00  0.00    -0.744 OA
ENDBRANCH 103 104
ENDBRANCH  71  96
ENDBRANCH  45  46
ENDBRANCH  37  40
ENDBRANCH  35  36
ENDBRANCH  34  35
ENDBRANCH  33  34
ENDBRANCH   1  33
TORSDOF 19
ENDMDL
