MODEL 1
REMARK VINA RESULT:     -10.9      0.000      0.000
REMARK SMILES CC(=O)N[C@@H](C)C(=O)N1CCC[C@H]1C(=O)NCCCCCCNC(=O)c1ccc(-c2c3nc(c(-c4c(F)cc(S(=O)(=O)[O-])cc4F)c4ccc([nH]4)c(-c4c(F)cc(S(=O)(=O)[O-])cc4F)c4nc(c(-c5c(F)cc(S(=O)(=O)[O-])cc5F)c5ccc2[nH]5)C=C4)C=C3)cc1
REMARK SMILES IDX 19 1 18 2 17 3 16 4 14 5 15 6 13 8 9 9 10 10 11 11 12 12
REMARK SMILES IDX 7 13 8 14 5 15 6 16 4 17 1 18 2 19 3 20 20 22 21 23 22 24
REMARK SMILES IDX 23 25 24 26 25 28 26 29 27 30 91 31 28 32 90 33 29 34 30 35
REMARK SMILES IDX 31 36 84 37 32 38 89 39 83 40 85 41 33 42 88 43 82 44 81 45
REMARK SMILES IDX 34 47 68 48 47 49 67 50 48 51 51 52 66 53 86 54 49 55 50 56
REMARK SMILES IDX 65 58 87 59 52 60 35 61 36 62 45 63 37 64 38 65 44 66 46 67
REMARK SMILES IDX 39 68 40 69 41 70 42 71 43 72 69 73 70 74 79 75 71 76 72 77
REMARK SMILES IDX 78 78 80 79 73 80 74 81 75 82 76 83 77 84 53 85 54 86 63 87
REMARK SMILES IDX 55 88 56 89 62 90 64 91 57 92 58 93 59 94 60 95 61 96
REMARK H PARENT 16 7 4 21 23 27 85 46 51 57
REMARK Flexibility Score: inf
ROOT
ATOM      1  C   UNL A   1      38.071  21.259  25.489  1.00  0.00     0.002 C 
ENDROOT
BRANCH   1   2
ATOM      2  C   UNL A   1      37.322  22.228  24.569  1.00  0.00     0.021 C 
BRANCH   2   3
ATOM      3  C   UNL A   1      36.788  23.484  25.247  1.00  0.00     0.116 C 
BRANCH   3   4
ATOM      4  N   UNL A   1      35.976  23.207  26.416  1.00  0.00    -0.354 N 
ATOM      5  C   UNL A   1      34.625  23.376  26.574  1.00  0.00     0.242 C 
ATOM      6  O   UNL A   1      34.086  22.837  27.542  1.00  0.00    -0.273 OA
ATOM      7  H   UNL A   1      36.457  22.852  27.198  1.00  0.00     0.163 HD
BRANCH   5   8
ATOM      8  C   UNL A   1      33.838  24.204  25.532  1.00  0.00     0.174 C 
ATOM      9  N   UNL A   1      32.383  24.037  25.586  1.00  0.00    -0.329 N 
ATOM     10  C   UNL A   1      31.725  25.225  26.078  1.00  0.00     0.120 C 
ATOM     11  C   UNL A   1      32.653  26.340  25.647  1.00  0.00     0.024 C 
ATOM     12  C   UNL A   1      34.040  25.718  25.779  1.00  0.00     0.037 C 
BRANCH   9  13
ATOM     13  C   UNL A   1      31.740  22.848  25.358  1.00  0.00     0.245 C 
ATOM     14  O   UNL A   1      30.642  22.607  25.861  1.00  0.00    -0.272 OA
BRANCH  13  15
ATOM     15  C   UNL A   1      32.378  21.871  24.347  1.00  0.00     0.168 C 
ATOM     16  C   UNL A   1      32.048  22.179  22.892  1.00  0.00     0.041 C 
BRANCH  15  17
ATOM     17  N   UNL A   1      32.047  20.498  24.696  1.00  0.00    -0.345 N 
ATOM     18  C   UNL A   1      34.381  19.726  24.927  1.00  0.00     0.114 C 
ATOM     19  C   UNL A   1      32.900  19.505  25.077  1.00  0.00     0.217 C 
ATOM     20  O   UNL A   1      32.430  18.451  25.501  1.00  0.00    -0.275 OA
ATOM     21  H   UNL A   1      31.093  20.258  24.654  1.00  0.00     0.164 HD
ENDBRANCH  15  17
ENDBRANCH  13  15
ENDBRANCH   9  13
ENDBRANCH   5   8
ENDBRANCH   3   4
ENDBRANCH   2   3
ENDBRANCH   1   2
BRANCH   1  22
ATOM     22  C   UNL A   1      39.487  21.673  25.906  1.00  0.00     0.002 C 
BRANCH  22  23
ATOM     23  C   UNL A   1      39.588  22.715  27.023  1.00  0.00     0.021 C 
BRANCH  23  24
ATOM     24  C   UNL A   1      40.984  23.265  27.293  1.00  0.00     0.116 C 
BRANCH  24  25
ATOM     25  N   UNL A   1      41.497  24.060  26.193  1.00  0.00    -0.352 N 
ATOM     26  C   UNL A   1      41.626  25.421  26.080  1.00  0.00     0.251 C 
ATOM     27  H   UNL A   1      41.799  23.544  25.411  1.00  0.00     0.163 HD
ATOM     28  O   UNL A   1      41.963  25.903  25.003  1.00  0.00    -0.269 OA
BRANCH  26  29
ATOM     29  C   UNL A   1      41.343  26.310  27.232  1.00  0.00     0.039 A 
ATOM     30  C   UNL A   1      42.184  27.407  27.443  1.00  0.00     0.014 A 
ATOM     31  C   UNL A   1      40.304  26.049  28.130  1.00  0.00     0.014 A 
ATOM     32  C   UNL A   1      41.968  28.253  28.535  1.00  0.00     0.010 A 
ATOM     33  C   UNL A   1      40.044  26.935  29.176  1.00  0.00     0.010 A 
ATOM     34  C   UNL A   1      40.888  28.033  29.403  1.00  0.00    -0.014 A 
BRANCH  34  35
ATOM     35  C   UNL A   1      40.666  28.918  30.578  1.00  0.00     0.031 A 
ATOM     36  C   UNL A   1      41.507  28.753  31.817  1.00  0.00     0.074 A 
ATOM     37  C   UNL A   1      39.700  29.856  30.536  1.00  0.00     0.049 A 
ATOM     38  N   UNL A   1      41.461  29.421  32.941  1.00  0.00    -0.248 NA
ATOM     39  C   UNL A   1      42.515  27.680  31.802  1.00  0.00     0.031 C 
ATOM     40  C   UNL A   1      38.785  30.078  29.414  1.00  0.00     0.029 A 
ATOM     41  N   UNL A   1      39.325  30.796  31.461  1.00  0.00    -0.354 N 
ATOM     42  C   UNL A   1      42.426  28.850  33.763  1.00  0.00     0.074 A 
ATOM     43  C   UNL A   1      42.996  27.739  33.034  1.00  0.00     0.031 C 
ATOM     44  C   UNL A   1      37.972  31.106  29.708  1.00  0.00     0.029 A 
ATOM     45  C   UNL A   1      38.289  31.598  31.046  1.00  0.00     0.049 A 
ATOM     46  H   UNL A   1      39.758  30.890  32.340  1.00  0.00     0.167 HD
ATOM     47  C   UNL A   1      42.824  29.234  35.000  1.00  0.00     0.037 A 
ATOM     48  C   UNL A   1      37.667  32.618  31.669  1.00  0.00     0.037 A 
ATOM     49  C   UNL A   1      42.272  30.357  35.712  1.00  0.00     0.049 A 
ATOM     50  C   UNL A   1      38.138  33.037  33.036  1.00  0.00     0.074 A 
ATOM     51  C   UNL A   1      42.638  30.857  36.950  1.00  0.00     0.029 A 
ATOM     52  N   UNL A   1      41.241  31.159  35.247  1.00  0.00    -0.354 N 
ATOM     53  N   UNL A   1      39.092  32.522  33.774  1.00  0.00    -0.248 NA
ATOM     54  C   UNL A   1      37.456  34.185  33.649  1.00  0.00     0.031 C 
ATOM     55  C   UNL A   1      41.803  31.940  37.249  1.00  0.00     0.029 A 
ATOM     56  C   UNL A   1      40.948  32.142  36.179  1.00  0.00     0.049 A 
ATOM     57  H   UNL A   1      40.784  31.047  34.383  1.00  0.00     0.167 HD
ATOM     58  C   UNL A   1      39.138  33.294  34.929  1.00  0.00     0.074 A 
ATOM     59  C   UNL A   1      38.130  34.324  34.782  1.00  0.00     0.031 C 
ATOM     60  C   UNL A   1      39.939  33.160  36.016  1.00  0.00     0.037 A 
BRANCH  47  61
ATOM     61  C   UNL A   1      43.923  28.440  35.654  1.00  0.00     0.058 A 
ATOM     62  C   UNL A   1      45.277  28.739  35.428  1.00  0.00     0.135 A 
ATOM     63  C   UNL A   1      43.624  27.390  36.536  1.00  0.00     0.135 A 
ATOM     64  F   UNL A   1      45.620  29.722  34.581  1.00  0.00    -0.206 F 
ATOM     65  C   UNL A   1      46.294  28.005  36.027  1.00  0.00     0.059 A 
ATOM     66  C   UNL A   1      44.626  26.659  37.170  1.00  0.00     0.059 A 
ATOM     67  F   UNL A   1      42.347  27.061  36.789  1.00  0.00    -0.206 F 
ATOM     68  C   UNL A   1      45.959  26.965  36.896  1.00  0.00     0.060 A 
BRANCH  68  69
ATOM     69  S   UNL A   1      47.292  26.022  37.666  1.00  0.00     0.124 S 
ATOM     70  O   UNL A   1      47.075  24.695  37.099  1.00  0.00    -0.237 OA
ATOM     71  O   UNL A   1      48.483  26.725  37.198  1.00  0.00    -0.237 OA
ATOM     72  O   UNL A   1      47.016  26.146  39.094  1.00  0.00    -0.744 OA
ENDBRANCH  68  69
ENDBRANCH  47  61
BRANCH  48  73
ATOM     73  C   UNL A   1      36.545  33.327  30.997  1.00  0.00     0.058 A 
ATOM     74  C   UNL A   1      36.778  34.192  29.917  1.00  0.00     0.135 A 
ATOM     75  C   UNL A   1      35.218  33.148  31.417  1.00  0.00     0.135 A 
ATOM     76  F   UNL A   1      38.031  34.400  29.483  1.00  0.00    -0.206 F 
ATOM     77  C   UNL A   1      35.739  34.870  29.289  1.00  0.00     0.059 A 
ATOM     78  C   UNL A   1      34.159  33.795  30.788  1.00  0.00     0.059 A 
ATOM     79  F   UNL A   1      34.941  32.317  32.433  1.00  0.00    -0.206 F 
ATOM     80  C   UNL A   1      34.431  34.664  29.732  1.00  0.00     0.060 A 
BRANCH  80  81
ATOM     81  S   UNL A   1      33.084  35.518  28.885  1.00  0.00     0.124 S 
ATOM     82  O   UNL A   1      32.333  36.067  30.008  1.00  0.00    -0.237 OA
ATOM     83  O   UNL A   1      33.803  36.486  28.062  1.00  0.00    -0.237 OA
ATOM     84  O   UNL A   1      32.423  34.446  28.145  1.00  0.00    -0.744 OA
ENDBRANCH  80  81
ENDBRANCH  48  73
BRANCH  60  85
ATOM     85  C   UNL A   1      39.768  34.163  37.123  1.00  0.00     0.058 A 
ATOM     86  C   UNL A   1      38.905  33.926  38.203  1.00  0.00     0.135 A 
ATOM     87  C   UNL A   1      40.503  35.360  37.121  1.00  0.00     0.135 A 
ATOM     88  F   UNL A   1      38.176  32.799  38.251  1.00  0.00    -0.206 F 
ATOM     89  C   UNL A   1      38.749  34.856  39.226  1.00  0.00     0.059 A 
ATOM     90  C   UNL A   1      40.385  36.290  38.148  1.00  0.00     0.059 A 
ATOM     91  F   UNL A   1      41.353  35.630  36.117  1.00  0.00    -0.206 F 
ATOM     92  C   UNL A   1      39.493  36.037  39.189  1.00  0.00     0.060 A 
BRANCH  92  93
ATOM     93  S   UNL A   1      39.297  37.227  40.531  1.00  0.00     0.124 S 
ATOM     94  O   UNL A   1      38.300  38.136  39.974  1.00  0.00    -0.237 OA
ATOM     95  O   UNL A   1      38.840  36.385  41.632  1.00  0.00    -0.237 OA
ATOM     96  O   UNL A   1      40.636  37.783  40.690  1.00  0.00    -0.744 OA
ENDBRANCH  92  93
ENDBRANCH  60  85
ENDBRANCH  34  35
ENDBRANCH  26  29
ENDBRANCH  24  25
ENDBRANCH  23  24
ENDBRANCH  22  23
ENDBRANCH   1  22
TORSDOF 19
ENDMDL
MODEL 2
REMARK VINA RESULT:     -10.9      1.810      2.692
REMARK SMILES CC(=O)N[C@@H](C)C(=O)N1CCC[C@H]1C(=O)NCCCCCCNC(=O)c1ccc(-c2c3nc(c(-c4c(F)cc(S(=O)(=O)[O-])cc4F)c4ccc([nH]4)c(-c4c(F)cc(S(=O)(=O)[O-])cc4F)c4nc(c(-c5c(F)cc(S(=O)(=O)[O-])cc5F)c5ccc2[nH]5)C=C4)C=C3)cc1
REMARK SMILES IDX 19 1 18 2 17 3 16 4 14 5 15 6 13 8 9 9 10 10 11 11 12 12
REMARK SMILES IDX 7 13 8 14 5 15 6 16 4 17 1 18 2 19 3 20 20 22 21 23 22 24
REMARK SMILES IDX 23 25 24 26 25 28 26 29 27 30 91 31 28 32 90 33 29 34 30 35
REMARK SMILES IDX 31 36 84 37 32 38 89 39 83 40 85 41 33 42 88 43 82 44 81 45
REMARK SMILES IDX 34 47 68 48 47 49 67 50 48 51 51 52 66 53 86 54 49 55 50 56
REMARK SMILES IDX 65 58 87 59 52 60 35 61 36 62 45 63 37 64 38 65 44 66 46 67
REMARK SMILES IDX 39 68 40 69 41 70 42 71 43 72 69 73 70 74 79 75 71 76 72 77
REMARK SMILES IDX 78 78 80 79 73 80 74 81 75 82 76 83 77 84 53 85 54 86 63 87
REMARK SMILES IDX 55 88 56 89 62 90 64 91 57 92 58 93 59 94 60 95 61 96
REMARK H PARENT 16 7 4 21 23 27 85 46 51 57
REMARK Flexibility Score: inf
ROOT
ATOM      1  C   UNL A   1      35.300  22.401  24.938  1.00  0.00     0.002 C 
ENDROOT
BRANCH   1   2
ATOM      2  C   UNL A   1      35.442  22.952  23.516  1.00  0.00     0.021 C 
BRANCH   2   3
ATOM      3  C   UNL A   1      34.230  23.711  22.990  1.00  0.00     0.116 C 
BRANCH   3   4
ATOM      4  N   UNL A   1      33.181  23.876  23.978  1.00  0.00    -0.354 N 
ATOM      5  C   UNL A   1      32.853  24.999  24.691  1.00  0.00     0.242 C 
ATOM      6  O   UNL A   1      31.770  25.012  25.281  1.00  0.00    -0.273 OA
ATOM      7  H   UNL A   1      32.634  23.078  24.160  1.00  0.00     0.163 HD
BRANCH   5   8
ATOM      8  C   UNL A   1      33.829  26.198  24.709  1.00  0.00     0.174 C 
ATOM      9  N   UNL A   1      33.408  27.345  23.899  1.00  0.00    -0.329 N 
ATOM     10  C   UNL A   1      33.026  28.470  24.721  1.00  0.00     0.120 C 
ATOM     11  C   UNL A   1      33.874  28.297  25.963  1.00  0.00     0.024 C 
ATOM     12  C   UNL A   1      33.944  26.782  26.137  1.00  0.00     0.037 C 
BRANCH   9  13
ATOM     13  C   UNL A   1      33.239  27.301  22.540  1.00  0.00     0.245 C 
ATOM     14  O   UNL A   1      34.129  27.673  21.773  1.00  0.00    -0.272 OA
BRANCH  13  15
ATOM     15  C   UNL A   1      31.949  26.651  21.998  1.00  0.00     0.168 C 
ATOM     16  C   UNL A   1      32.168  25.745  20.793  1.00  0.00     0.041 C 
BRANCH  15  17
ATOM     17  N   UNL A   1      30.946  27.670  21.731  1.00  0.00    -0.345 N 
ATOM     18  C   UNL A   1      29.584  27.218  23.741  1.00  0.00     0.114 C 
ATOM     19  C   UNL A   1      29.911  28.053  22.532  1.00  0.00     0.217 C 
ATOM     20  O   UNL A   1      29.260  29.049  22.224  1.00  0.00    -0.275 OA
ATOM     21  H   UNL A   1      31.024  28.140  20.870  1.00  0.00     0.164 HD
ENDBRANCH  15  17
ENDBRANCH  13  15
ENDBRANCH   9  13
ENDBRANCH   5   8
ENDBRANCH   3   4
ENDBRANCH   2   3
ENDBRANCH   1   2
BRANCH   1  22
ATOM     22  C   UNL A   1      36.158  23.072  26.017  1.00  0.00     0.002 C 
BRANCH  22  23
ATOM     23  C   UNL A   1      37.674  23.013  25.811  1.00  0.00     0.021 C 
BRANCH  23  24
ATOM     24  C   UNL A   1      38.480  24.097  26.515  1.00  0.00     0.116 C 
BRANCH  24  25
ATOM     25  N   UNL A   1      39.875  24.110  26.116  1.00  0.00    -0.352 N 
ATOM     26  C   UNL A   1      40.899  24.924  26.529  1.00  0.00     0.251 C 
ATOM     27  H   UNL A   1      40.124  23.431  25.447  1.00  0.00     0.163 HD
ATOM     28  O   UNL A   1      41.986  24.855  25.963  1.00  0.00    -0.269 OA
BRANCH  26  29
ATOM     29  C   UNL A   1      40.701  25.894  27.632  1.00  0.00     0.039 A 
ATOM     30  C   UNL A   1      41.608  26.950  27.756  1.00  0.00     0.014 A 
ATOM     31  C   UNL A   1      39.675  25.747  28.572  1.00  0.00     0.014 A 
ATOM     32  C   UNL A   1      41.472  27.870  28.800  1.00  0.00     0.010 A 
ATOM     33  C   UNL A   1      39.496  26.706  29.569  1.00  0.00     0.010 A 
ATOM     34  C   UNL A   1      40.407  27.765  29.708  1.00  0.00    -0.014 A 
BRANCH  34  35
ATOM     35  C   UNL A   1      40.270  28.728  30.832  1.00  0.00     0.031 A 
ATOM     36  C   UNL A   1      41.143  28.595  32.052  1.00  0.00     0.074 A 
ATOM     37  C   UNL A   1      39.350  29.711  30.763  1.00  0.00     0.049 A 
ATOM     38  N   UNL A   1      41.169  29.330  33.134  1.00  0.00    -0.248 NA
ATOM     39  C   UNL A   1      42.096  27.473  32.071  1.00  0.00     0.031 C 
ATOM     40  C   UNL A   1      38.409  29.912  29.659  1.00  0.00     0.029 A 
ATOM     41  N   UNL A   1      39.055  30.723  31.640  1.00  0.00    -0.354 N 
ATOM     42  C   UNL A   1      42.132  28.760  33.959  1.00  0.00     0.074 A 
ATOM     43  C   UNL A   1      42.622  27.580  33.281  1.00  0.00     0.031 C 
ATOM     44  C   UNL A   1      37.659  30.996  29.915  1.00  0.00     0.029 A 
ATOM     45  C   UNL A   1      38.046  31.551  31.209  1.00  0.00     0.049 A 
ATOM     46  H   UNL A   1      39.522  30.847  32.498  1.00  0.00     0.167 HD
ATOM     47  C   UNL A   1      42.592  29.196  35.157  1.00  0.00     0.037 A 
ATOM     48  C   UNL A   1      37.497  32.636  31.788  1.00  0.00     0.037 A 
ATOM     49  C   UNL A   1      42.121  30.387  35.815  1.00  0.00     0.049 A 
ATOM     50  C   UNL A   1      38.035  33.112  33.111  1.00  0.00     0.074 A 
ATOM     51  C   UNL A   1      42.553  30.940  37.008  1.00  0.00     0.029 A 
ATOM     52  N   UNL A   1      41.116  31.212  35.335  1.00  0.00    -0.354 N 
ATOM     53  N   UNL A   1      38.987  32.593  33.848  1.00  0.00    -0.248 NA
ATOM     54  C   UNL A   1      37.432  34.328  33.674  1.00  0.00     0.031 C 
ATOM     55  C   UNL A   1      41.784  32.081  37.266  1.00  0.00     0.029 A 
ATOM     56  C   UNL A   1      40.903  32.262  36.213  1.00  0.00     0.049 A 
ATOM     57  H   UNL A   1      40.624  31.072  34.493  1.00  0.00     0.167 HD
ATOM     58  C   UNL A   1      39.111  33.429  34.953  1.00  0.00     0.074 A 
ATOM     59  C   UNL A   1      38.151  34.499  34.774  1.00  0.00     0.031 C 
ATOM     60  C   UNL A   1      39.941  33.319  36.020  1.00  0.00     0.037 A 
BRANCH  47  61
ATOM     61  C   UNL A   1      43.671  28.387  35.823  1.00  0.00     0.058 A 
ATOM     62  C   UNL A   1      45.032  28.637  35.577  1.00  0.00     0.135 A 
ATOM     63  C   UNL A   1      43.349  27.373  36.738  1.00  0.00     0.135 A 
ATOM     64  F   UNL A   1      45.397  29.586  34.699  1.00  0.00    -0.206 F 
ATOM     65  C   UNL A   1      46.032  27.889  36.188  1.00  0.00     0.059 A 
ATOM     66  C   UNL A   1      44.334  26.629  37.383  1.00  0.00     0.059 A 
ATOM     67  F   UNL A   1      42.065  27.090  37.011  1.00  0.00    -0.206 F 
ATOM     68  C   UNL A   1      45.673  26.885  37.089  1.00  0.00     0.060 A 
BRANCH  68  69
ATOM     69  S   UNL A   1      46.984  25.923  37.874  1.00  0.00     0.124 S 
ATOM     70  O   UNL A   1      47.284  24.940  36.838  1.00  0.00    -0.237 OA
ATOM     71  O   UNL A   1      48.014  26.931  38.109  1.00  0.00    -0.237 OA
ATOM     72  O   UNL A   1      46.344  25.393  39.074  1.00  0.00    -0.744 OA
ENDBRANCH  68  69
ENDBRANCH  47  61
BRANCH  48  73
ATOM     73  C   UNL A   1      36.389  33.361  31.109  1.00  0.00     0.058 A 
ATOM     74  C   UNL A   1      36.619  34.106  29.943  1.00  0.00     0.135 A 
ATOM     75  C   UNL A   1      35.078  33.316  31.609  1.00  0.00     0.135 A 
ATOM     76  F   UNL A   1      37.856  34.184  29.429  1.00  0.00    -0.206 F 
ATOM     77  C   UNL A   1      35.593  34.799  29.306  1.00  0.00     0.059 A 
ATOM     78  C   UNL A   1      34.032  33.979  30.976  1.00  0.00     0.059 A 
ATOM     79  F   UNL A   1      34.804  32.602  32.711  1.00  0.00    -0.206 F 
ATOM     80  C   UNL A   1      34.302  34.727  29.831  1.00  0.00     0.060 A 
BRANCH  80  81
ATOM     81  S   UNL A   1      32.969  35.596  28.976  1.00  0.00     0.124 S 
ATOM     82  O   UNL A   1      32.173  36.087  30.095  1.00  0.00    -0.237 OA
ATOM     83  O   UNL A   1      33.699  36.608  28.218  1.00  0.00    -0.237 OA
ATOM     84  O   UNL A   1      32.350  34.547  28.171  1.00  0.00    -0.744 OA
ENDBRANCH  80  81
ENDBRANCH  48  73
BRANCH  60  85
ATOM     85  C   UNL A   1      39.859  34.394  37.068  1.00  0.00     0.058 A 
ATOM     86  C   UNL A   1      39.090  34.230  38.230  1.00  0.00     0.135 A 
ATOM     87  C   UNL A   1      40.584  35.588  36.924  1.00  0.00     0.135 A 
ATOM     88  F   UNL A   1      38.374  33.109  38.414  1.00  0.00    -0.206 F 
ATOM     89  C   UNL A   1      39.016  35.226  39.199  1.00  0.00     0.059 A 
ATOM     90  C   UNL A   1      40.548  36.585  37.893  1.00  0.00     0.059 A 
ATOM     91  F   UNL A   1      41.346  35.790  35.836  1.00  0.00    -0.206 F 
ATOM     92  C   UNL A   1      39.748  36.402  39.020  1.00  0.00     0.060 A 
BRANCH  92  93
ATOM     93  S   UNL A   1      39.658  37.679  40.292  1.00  0.00     0.124 S 
ATOM     94  O   UNL A   1      38.977  36.971  41.371  1.00  0.00    -0.237 OA
ATOM     95  O   UNL A   1      41.065  37.987  40.527  1.00  0.00    -0.237 OA
ATOM     96  O   UNL A   1      38.889  38.741  39.653  1.00  0.00    -0.744 OA
ENDBRANCH  92  93
ENDBRANCH  60  85
ENDBRANCH  34  35
ENDBRANCH  26  29
ENDBRANCH  24  25
ENDBRANCH  23  24
ENDBRANCH  22  23
ENDBRANCH   1  22
TORSDOF 19
ENDMDL
MODEL 3
REMARK VINA RESULT:     -10.8      1.304      2.388
REMARK SMILES CC(=O)N[C@@H](C)C(=O)N1CCC[C@H]1C(=O)NCCCCCCNC(=O)c1ccc(-c2c3nc(c(-c4c(F)cc(S(=O)(=O)[O-])cc4F)c4ccc([nH]4)c(-c4c(F)cc(S(=O)(=O)[O-])cc4F)c4nc(c(-c5c(F)cc(S(=O)(=O)[O-])cc5F)c5ccc2[nH]5)C=C4)C=C3)cc1
REMARK SMILES IDX 19 1 18 2 17 3 16 4 14 5 15 6 13 8 9 9 10 10 11 11 12 12
REMARK SMILES IDX 7 13 8 14 5 15 6 16 4 17 1 18 2 19 3 20 20 22 21 23 22 24
REMARK SMILES IDX 23 25 24 26 25 28 26 29 27 30 91 31 28 32 90 33 29 34 30 35
REMARK SMILES IDX 31 36 84 37 32 38 89 39 83 40 85 41 33 42 88 43 82 44 81 45
REMARK SMILES IDX 34 47 68 48 47 49 67 50 48 51 51 52 66 53 86 54 49 55 50 56
REMARK SMILES IDX 65 58 87 59 52 60 35 61 36 62 45 63 37 64 38 65 44 66 46 67
REMARK SMILES IDX 39 68 40 69 41 70 42 71 43 72 69 73 70 74 79 75 71 76 72 77
REMARK SMILES IDX 78 78 80 79 73 80 74 81 75 82 76 83 77 84 53 85 54 86 63 87
REMARK SMILES IDX 55 88 56 89 62 90 64 91 57 92 58 93 59 94 60 95 61 96
REMARK H PARENT 16 7 4 21 23 27 85 46 51 57
REMARK Flexibility Score: inf
ROOT
ATOM      1  C   UNL A   1      36.823  23.103  24.047  1.00  0.00     0.002 C 
ENDROOT
BRANCH   1   2
ATOM      2  C   UNL A   1      35.354  22.710  23.860  1.00  0.00     0.021 C 
BRANCH   2   3
ATOM      3  C   UNL A   1      34.392  23.875  23.658  1.00  0.00     0.116 C 
BRANCH   3   4
ATOM      4  N   UNL A   1      34.385  24.814  24.762  1.00  0.00    -0.354 N 
ATOM      5  C   UNL A   1      33.661  25.970  24.892  1.00  0.00     0.242 C 
ATOM      6  O   UNL A   1      33.594  26.487  26.009  1.00  0.00    -0.273 OA
ATOM      7  H   UNL A   1      34.978  24.593  25.517  1.00  0.00     0.163 HD
BRANCH   5   8
ATOM      8  C   UNL A   1      32.948  26.560  23.653  1.00  0.00     0.174 C 
ATOM      9  N   UNL A   1      31.586  27.044  23.901  1.00  0.00    -0.329 N 
ATOM     10  C   UNL A   1      31.508  28.484  23.833  1.00  0.00     0.120 C 
ATOM     11  C   UNL A   1      32.604  28.846  22.854  1.00  0.00     0.024 C 
ATOM     12  C   UNL A   1      33.693  27.817  23.146  1.00  0.00     0.037 C 
BRANCH   9  13
ATOM     13  C   UNL A   1      30.552  26.242  24.310  1.00  0.00     0.245 C 
ATOM     14  O   UNL A   1      29.412  26.687  24.445  1.00  0.00    -0.272 OA
BRANCH  13  15
ATOM     15  C   UNL A   1      30.835  24.734  24.473  1.00  0.00     0.168 C 
ATOM     16  C   UNL A   1      30.553  23.909  23.224  1.00  0.00     0.041 C 
BRANCH  15  17
ATOM     17  N   UNL A   1      30.132  24.212  25.635  1.00  0.00    -0.345 N 
ATOM     18  C   UNL A   1      31.882  22.595  26.285  1.00  0.00     0.114 C 
ATOM     19  C   UNL A   1      30.593  23.322  26.560  1.00  0.00     0.217 C 
ATOM     20  O   UNL A   1      29.926  23.121  27.572  1.00  0.00    -0.275 OA
ATOM     21  H   UNL A   1      29.215  24.541  25.770  1.00  0.00     0.164 HD
ENDBRANCH  15  17
ENDBRANCH  13  15
ENDBRANCH   9  13
ENDBRANCH   5   8
ENDBRANCH   3   4
ENDBRANCH   2   3
ENDBRANCH   1   2
BRANCH   1  22
ATOM     22  C   UNL A   1      37.460  22.733  25.392  1.00  0.00     0.002 C 
BRANCH  22  23
ATOM     23  C   UNL A   1      38.098  23.881  26.179  1.00  0.00     0.021 C 
BRANCH  23  24
ATOM     24  C   UNL A   1      39.370  23.535  26.942  1.00  0.00     0.116 C 
BRANCH  24  25
ATOM     25  N   UNL A   1      40.575  23.927  26.235  1.00  0.00    -0.352 N 
ATOM     26  C   UNL A   1      41.364  25.038  26.395  1.00  0.00     0.251 C 
ATOM     27  H   UNL A   1      40.870  23.301  25.535  1.00  0.00     0.163 HD
ATOM     28  O   UNL A   1      42.272  25.248  25.597  1.00  0.00    -0.269 OA
BRANCH  26  29
ATOM     29  C   UNL A   1      41.119  25.991  27.504  1.00  0.00     0.039 A 
ATOM     30  C   UNL A   1      41.967  27.096  27.627  1.00  0.00     0.014 A 
ATOM     31  C   UNL A   1      40.109  25.783  28.449  1.00  0.00     0.014 A 
ATOM     32  C   UNL A   1      41.786  28.002  28.675  1.00  0.00     0.010 A 
ATOM     33  C   UNL A   1      39.883  26.727  29.451  1.00  0.00     0.010 A 
ATOM     34  C   UNL A   1      40.734  27.834  29.589  1.00  0.00    -0.014 A 
BRANCH  34  35
ATOM     35  C   UNL A   1      40.551  28.784  30.718  1.00  0.00     0.031 A 
ATOM     36  C   UNL A   1      41.406  28.664  31.953  1.00  0.00     0.074 A 
ATOM     37  C   UNL A   1      39.606  29.741  30.641  1.00  0.00     0.049 A 
ATOM     38  N   UNL A   1      41.393  29.391  33.041  1.00  0.00    -0.248 NA
ATOM     39  C   UNL A   1      42.389  27.568  31.980  1.00  0.00     0.031 C 
ATOM     40  C   UNL A   1      38.680  29.926  29.521  1.00  0.00     0.029 A 
ATOM     41  N   UNL A   1      39.268  30.738  31.520  1.00  0.00    -0.354 N 
ATOM     42  C   UNL A   1      42.356  28.841  33.878  1.00  0.00     0.074 A 
ATOM     43  C   UNL A   1      42.890  27.680  33.200  1.00  0.00     0.031 C 
ATOM     44  C   UNL A   1      37.896  30.987  29.772  1.00  0.00     0.029 A 
ATOM     45  C   UNL A   1      38.244  31.541  31.077  1.00  0.00     0.049 A 
ATOM     46  H   UNL A   1      39.716  30.867  32.387  1.00  0.00     0.167 HD
ATOM     47  C   UNL A   1      42.782  29.279  35.088  1.00  0.00     0.037 A 
ATOM     48  C   UNL A   1      37.655  32.606  31.655  1.00  0.00     0.037 A 
ATOM     49  C   UNL A   1      42.267  30.451  35.747  1.00  0.00     0.049 A 
ATOM     50  C   UNL A   1      38.156  33.085  32.991  1.00  0.00     0.074 A 
ATOM     51  C   UNL A   1      42.663  31.005  36.952  1.00  0.00     0.029 A 
ATOM     52  N   UNL A   1      41.248  31.252  35.255  1.00  0.00    -0.354 N 
ATOM     53  N   UNL A   1      39.109  32.586  33.742  1.00  0.00    -0.248 NA
ATOM     54  C   UNL A   1      37.511  34.279  33.553  1.00  0.00     0.031 C 
ATOM     55  C   UNL A   1      41.859  32.122  37.205  1.00  0.00     0.029 A 
ATOM     56  C   UNL A   1      40.992  32.288  36.137  1.00  0.00     0.049 A 
ATOM     57  H   UNL A   1      40.776  31.106  34.404  1.00  0.00     0.167 HD
ATOM     58  C   UNL A   1      39.191  33.416  34.855  1.00  0.00     0.074 A 
ATOM     59  C   UNL A   1      38.205  34.461  34.668  1.00  0.00     0.031 C 
ATOM     60  C   UNL A   1      40.004  33.320  35.935  1.00  0.00     0.037 A 
BRANCH  47  61
ATOM     61  C   UNL A   1      43.872  28.494  35.767  1.00  0.00     0.058 A 
ATOM     62  C   UNL A   1      43.578  27.399  36.596  1.00  0.00     0.135 A 
ATOM     63  C   UNL A   1      45.223  28.818  35.568  1.00  0.00     0.135 A 
ATOM     64  F   UNL A   1      42.302  27.054  36.835  1.00  0.00    -0.206 F 
ATOM     65  C   UNL A   1      44.582  26.674  37.229  1.00  0.00     0.059 A 
ATOM     66  C   UNL A   1      46.246  28.089  36.169  1.00  0.00     0.059 A 
ATOM     67  F   UNL A   1      45.562  29.856  34.786  1.00  0.00    -0.206 F 
ATOM     68  C   UNL A   1      45.914  27.028  37.010  1.00  0.00     0.060 A 
BRANCH  68  69
ATOM     69  S   UNL A   1      47.206  26.077  37.839  1.00  0.00     0.124 S 
ATOM     70  O   UNL A   1      46.740  24.710  37.631  1.00  0.00    -0.237 OA
ATOM     71  O   UNL A   1      48.402  26.459  37.093  1.00  0.00    -0.237 OA
ATOM     72  O   UNL A   1      47.150  26.556  39.216  1.00  0.00    -0.744 OA
ENDBRANCH  68  69
ENDBRANCH  47  61
BRANCH  48  73
ATOM     73  C   UNL A   1      36.540  33.306  30.962  1.00  0.00     0.058 A 
ATOM     74  C   UNL A   1      35.217  33.184  31.413  1.00  0.00     0.135 A 
ATOM     75  C   UNL A   1      36.777  34.118  29.842  1.00  0.00     0.135 A 
ATOM     76  F   UNL A   1      34.939  32.416  32.477  1.00  0.00    -0.206 F 
ATOM     77  C   UNL A   1      34.165  33.824  30.765  1.00  0.00     0.059 A 
ATOM     78  C   UNL A   1      35.746  34.788  29.193  1.00  0.00     0.059 A 
ATOM     79  F   UNL A   1      38.028  34.281  29.384  1.00  0.00    -0.206 F 
ATOM     80  C   UNL A   1      34.440  34.625  29.656  1.00  0.00     0.060 A 
BRANCH  80  81
ATOM     81  S   UNL A   1      33.073  35.484  28.846  1.00  0.00     0.124 S 
ATOM     82  O   UNL A   1      33.781  36.500  28.075  1.00  0.00    -0.237 OA
ATOM     83  O   UNL A   1      32.452  34.413  28.074  1.00  0.00    -0.237 OA
ATOM     84  O   UNL A   1      32.279  35.980  29.967  1.00  0.00    -0.744 OA
ENDBRANCH  80  81
ENDBRANCH  48  73
BRANCH  60  85
ATOM     85  C   UNL A   1      39.874  34.384  36.991  1.00  0.00     0.058 A 
ATOM     86  C   UNL A   1      40.582  35.593  36.907  1.00  0.00     0.135 A 
ATOM     87  C   UNL A   1      39.005  34.207  38.079  1.00  0.00     0.135 A 
ATOM     88  F   UNL A   1      41.429  35.810  35.888  1.00  0.00    -0.206 F 
ATOM     89  C   UNL A   1      40.459  36.575  37.883  1.00  0.00     0.059 A 
ATOM     90  C   UNL A   1      38.844  35.188  39.052  1.00  0.00     0.059 A 
ATOM     91  F   UNL A   1      38.294  33.073  38.199  1.00  0.00    -0.206 F 
ATOM     92  C   UNL A   1      39.588  36.363  38.954  1.00  0.00     0.060 A 
BRANCH  92  93
ATOM     93  S   UNL A   1      39.423  37.653  40.205  1.00  0.00     0.124 S 
ATOM     94  O   UNL A   1      39.065  36.873  41.385  1.00  0.00    -0.237 OA
ATOM     95  O   UNL A   1      40.755  38.248  40.220  1.00  0.00    -0.237 OA
ATOM     96  O   UNL A   1      38.367  38.509  39.673  1.00  0.00    -0.744 OA
ENDBRANCH  92  93
ENDBRANCH  60  85
ENDBRANCH  34  35
ENDBRANCH  26  29
ENDBRANCH  24  25
ENDBRANCH  23  24
ENDBRANCH  22  23
ENDBRANCH   1  22
TORSDOF 19
ENDMDL
