MODEL 1
REMARK VINA RESULT:     -10.7      0.000      0.000
REMARK SMILES C[C@@H](C(=O)NCCCCCCNC(=O)c1ccc(-c2c3nc(c(-c4c(F)cc(S(=O)(=O)[O-])cc4F)c4ccc([nH]4)c(-c4c(F)cc(S(=O)(=O)[O-])cc4F)c4nc(c(-c5c(F)cc(S(=O)(=O)[O-])cc5F)c5ccc2[nH]5)C=C4)C=C3)cc1)c1ccc2c(c1)[nH]c1ccc(Cl)cc12
REMARK SMILES IDX 9 1 8 2 7 3 6 4 5 5 3 6 4 7 2 9 1 10 81 11 82 12 86 13 83 14
REMARK SMILES IDX 85 15 84 16 87 17 94 18 88 19 93 21 89 22 91 23 90 24 92 25
REMARK SMILES IDX 10 26 11 27 12 28 13 29 14 31 15 32 16 33 80 34 17 35 79 36
REMARK SMILES IDX 18 37 19 38 20 39 73 40 21 41 78 42 72 43 74 44 22 45 77 46
REMARK SMILES IDX 71 47 70 48 23 50 57 51 36 52 56 53 37 54 40 55 55 56 75 57
REMARK SMILES IDX 38 58 39 59 54 61 76 62 41 63 24 64 25 65 34 66 26 67 27 68
REMARK SMILES IDX 33 69 35 70 28 71 29 72 30 73 31 74 32 75 58 76 59 77 68 78
REMARK SMILES IDX 60 79 61 80 67 81 69 82 62 83 63 84 64 85 65 86 66 87 42 88
REMARK SMILES IDX 43 89 52 90 44 91 45 92 51 93 53 94 46 95 47 96 48 97 49 98
REMARK SMILES IDX 50 99
REMARK H PARENT 5 8 87 20 12 30 74 49 40 60
REMARK Flexibility Score: inf
ROOT
ATOM      1  C   UNL A   1      34.715  33.940  28.423  1.00  0.00     0.002 C 
ENDROOT
BRANCH   1   2
ATOM      2  C   UNL A   1      33.352  34.558  28.757  1.00  0.00     0.002 C 
BRANCH   2   3
ATOM      3  C   UNL A   1      33.411  35.993  29.303  1.00  0.00     0.021 C 
BRANCH   3   4
ATOM      4  C   UNL A   1      32.697  36.160  30.648  1.00  0.00     0.116 C 
BRANCH   4   5
ATOM      5  N   UNL A   1      33.645  36.546  31.673  1.00  0.00    -0.356 N 
ATOM      6  C   UNL A   1      34.434  35.802  32.497  1.00  0.00     0.227 C 
ATOM      7  O   UNL A   1      35.057  36.431  33.356  1.00  0.00    -0.274 OA
ATOM      8  H   UNL A   1      33.734  37.519  31.796  1.00  0.00     0.163 HD
BRANCH   6   9
ATOM      9  C   UNL A   1      34.599  34.284  32.293  1.00  0.00     0.105 C 
ATOM     10  C   UNL A   1      33.690  33.419  33.189  1.00  0.00     0.023 C 
BRANCH   9  11
ATOM     11  C   UNL A   1      36.060  33.848  32.489  1.00  0.00    -0.034 A 
ATOM     12  C   UNL A   1      37.043  34.138  31.531  1.00  0.00     0.005 A 
ATOM     13  C   UNL A   1      36.418  33.115  33.631  1.00  0.00     0.031 A 
ATOM     14  C   UNL A   1      38.361  33.658  31.666  1.00  0.00     0.011 A 
ATOM     15  C   UNL A   1      37.681  32.536  33.673  1.00  0.00     0.047 A 
ATOM     16  C   UNL A   1      38.676  32.797  32.740  1.00  0.00     0.007 A 
ATOM     17  N   UNL A   1      38.165  31.607  34.555  1.00  0.00    -0.355 N 
ATOM     18  C   UNL A   1      39.829  32.041  33.146  1.00  0.00     0.009 A 
ATOM     19  C   UNL A   1      39.427  31.214  34.196  1.00  0.00     0.047 A 
ATOM     20  H   UNL A   1      37.674  31.269  35.338  1.00  0.00     0.167 HD
ATOM     21  C   UNL A   1      41.157  31.931  32.688  1.00  0.00     0.031 A 
ATOM     22  C   UNL A   1      40.223  30.198  34.730  1.00  0.00     0.028 A 
ATOM     23  C   UNL A   1      41.990  30.960  33.259  1.00  0.00     0.041 A 
ATOM     24  C   UNL A   1      41.521  30.081  34.233  1.00  0.00     0.022 A 
ATOM     25  Cl  UNL A   1      43.631  30.842  32.747  1.00  0.00    -0.084 Cl
ENDBRANCH   9  11
ENDBRANCH   6   9
ENDBRANCH   4   5
ENDBRANCH   3   4
ENDBRANCH   2   3
ENDBRANCH   1   2
BRANCH   1  26
ATOM     26  C   UNL A   1      34.669  32.460  28.038  1.00  0.00     0.021 C 
BRANCH  26  27
ATOM     27  C   UNL A   1      35.825  31.634  28.592  1.00  0.00     0.116 C 
BRANCH  27  28
ATOM     28  N   UNL A   1      35.637  31.318  29.999  1.00  0.00    -0.352 N 
ATOM     29  C   UNL A   1      36.380  30.499  30.813  1.00  0.00     0.251 C 
ATOM     30  H   UNL A   1      34.865  31.753  30.429  1.00  0.00     0.163 HD
ATOM     31  O   UNL A   1      35.947  30.173  31.912  1.00  0.00    -0.269 OA
BRANCH  29  32
ATOM     32  C   UNL A   1      37.693  30.001  30.351  1.00  0.00     0.039 A 
ATOM     33  C   UNL A   1      38.044  30.162  29.008  1.00  0.00     0.014 A 
ATOM     34  C   UNL A   1      38.574  29.373  31.237  1.00  0.00     0.014 A 
ATOM     35  C   UNL A   1      39.303  29.745  28.569  1.00  0.00     0.010 A 
ATOM     36  C   UNL A   1      39.854  29.029  30.815  1.00  0.00     0.010 A 
ATOM     37  C   UNL A   1      40.231  29.207  29.476  1.00  0.00    -0.014 A 
BRANCH  37  38
ATOM     38  C   UNL A   1      41.602  28.830  29.041  1.00  0.00     0.031 A 
ATOM     39  C   UNL A   1      42.694  29.866  28.995  1.00  0.00     0.074 A 
ATOM     40  C   UNL A   1      41.847  27.570  28.630  1.00  0.00     0.049 A 
ATOM     41  N   UNL A   1      43.930  29.742  28.587  1.00  0.00    -0.248 NA
ATOM     42  C   UNL A   1      42.343  31.224  29.438  1.00  0.00     0.031 C 
ATOM     43  C   UNL A   1      40.858  26.491  28.581  1.00  0.00     0.029 A 
ATOM     44  N   UNL A   1      42.997  26.985  28.163  1.00  0.00    -0.354 N 
ATOM     45  C   UNL A   1      44.500  31.004  28.711  1.00  0.00     0.074 A 
ATOM     46  C   UNL A   1      43.458  31.891  29.182  1.00  0.00     0.031 C 
ATOM     47  C   UNL A   1      41.450  25.371  28.134  1.00  0.00     0.029 A 
ATOM     48  C   UNL A   1      42.845  25.662  27.822  1.00  0.00     0.049 A 
ATOM     49  H   UNL A   1      43.851  27.468  28.081  1.00  0.00     0.167 HD
ATOM     50  C   UNL A   1      45.779  31.384  28.476  1.00  0.00     0.037 A 
ATOM     51  C   UNL A   1      43.726  24.783  27.304  1.00  0.00     0.037 A 
ATOM     52  C   UNL A   1      46.814  30.487  28.028  1.00  0.00     0.049 A 
ATOM     53  C   UNL A   1      45.141  25.228  27.049  1.00  0.00     0.074 A 
ATOM     54  C   UNL A   1      48.156  30.760  27.823  1.00  0.00     0.029 A 
ATOM     55  N   UNL A   1      46.626  29.149  27.711  1.00  0.00    -0.354 N 
ATOM     56  N   UNL A   1      45.680  26.409  27.239  1.00  0.00    -0.248 NA
ATOM     57  C   UNL A   1      46.069  24.222  26.515  1.00  0.00     0.031 C 
ATOM     58  C   UNL A   1      48.765  29.604  27.325  1.00  0.00     0.029 A 
ATOM     59  C   UNL A   1      47.819  28.592  27.283  1.00  0.00     0.049 A 
ATOM     60  H   UNL A   1      45.770  28.669  27.779  1.00  0.00     0.167 HD
ATOM     61  C   UNL A   1      47.016  26.280  26.875  1.00  0.00     0.074 A 
ATOM     62  C   UNL A   1      47.206  24.904  26.466  1.00  0.00     0.031 C 
ATOM     63  C   UNL A   1      47.996  27.217  26.882  1.00  0.00     0.037 A 
BRANCH  50  64
ATOM     64  C   UNL A   1      46.134  32.829  28.694  1.00  0.00     0.058 A 
ATOM     65  C   UNL A   1      46.054  33.777  27.661  1.00  0.00     0.135 A 
ATOM     66  C   UNL A   1      46.516  33.285  29.967  1.00  0.00     0.135 A 
ATOM     67  F   UNL A   1      45.708  33.397  26.420  1.00  0.00    -0.206 F 
ATOM     68  C   UNL A   1      46.365  35.116  27.874  1.00  0.00     0.059 A 
ATOM     69  C   UNL A   1      46.802  34.626  30.211  1.00  0.00     0.059 A 
ATOM     70  F   UNL A   1      46.610  32.424  30.993  1.00  0.00    -0.206 F 
ATOM     71  C   UNL A   1      46.736  35.532  29.154  1.00  0.00     0.060 A 
BRANCH  71  72
ATOM     72  S   UNL A   1      47.125  37.275  29.414  1.00  0.00     0.124 S 
ATOM     73  O   UNL A   1      46.750  37.851  28.127  1.00  0.00    -0.237 OA
ATOM     74  O   UNL A   1      46.263  37.621  30.540  1.00  0.00    -0.237 OA
ATOM     75  O   UNL A   1      48.556  37.266  29.703  1.00  0.00    -0.744 OA
ENDBRANCH  71  72
ENDBRANCH  50  64
BRANCH  51  76
ATOM     76  C   UNL A   1      43.296  23.389  27.009  1.00  0.00     0.058 A 
ATOM     77  C   UNL A   1      43.093  22.957  25.690  1.00  0.00     0.135 A 
ATOM     78  C   UNL A   1      43.101  22.454  28.038  1.00  0.00     0.135 A 
ATOM     79  F   UNL A   1      43.260  23.814  24.671  1.00  0.00    -0.206 F 
ATOM     80  C   UNL A   1      42.698  21.655  25.400  1.00  0.00     0.059 A 
ATOM     81  C   UNL A   1      42.734  21.139  27.773  1.00  0.00     0.059 A 
ATOM     82  F   UNL A   1      43.299  22.811  29.317  1.00  0.00    -0.206 F 
ATOM     83  C   UNL A   1      42.526  20.752  26.450  1.00  0.00     0.060 A 
BRANCH  83  84
ATOM     84  S   UNL A   1      42.068  19.048  26.061  1.00  0.00     0.124 S 
ATOM     85  O   UNL A   1      42.970  18.748  24.954  1.00  0.00    -0.237 OA
ATOM     86  O   UNL A   1      42.348  18.363  27.317  1.00  0.00    -0.237 OA
ATOM     87  O   UNL A   1      40.654  19.152  25.713  1.00  0.00    -0.744 OA
ENDBRANCH  83  84
ENDBRANCH  51  76
BRANCH  63  88
ATOM     88  C   UNL A   1      49.377  26.782  26.468  1.00  0.00     0.058 A 
ATOM     89  C   UNL A   1      50.254  26.151  27.363  1.00  0.00     0.135 A 
ATOM     90  C   UNL A   1      49.805  26.951  25.141  1.00  0.00     0.135 A 
ATOM     91  F   UNL A   1      49.898  25.970  28.644  1.00  0.00    -0.206 F 
ATOM     92  C   UNL A   1      51.516  25.724  26.963  1.00  0.00     0.059 A 
ATOM     93  C   UNL A   1      51.050  26.503  24.711  1.00  0.00     0.059 A 
ATOM     94  F   UNL A   1      49.002  27.539  24.240  1.00  0.00    -0.206 F 
ATOM     95  C   UNL A   1      51.905  25.902  25.633  1.00  0.00     0.060 A 
BRANCH  95  96
ATOM     96  S   UNL A   1      53.532  25.313  25.121  1.00  0.00     0.124 S 
ATOM     97  O   UNL A   1      54.410  26.051  26.024  1.00  0.00    -0.237 OA
ATOM     98  O   UNL A   1      53.435  23.877  25.366  1.00  0.00    -0.237 OA
ATOM     99  O   UNL A   1      53.607  25.700  23.716  1.00  0.00    -0.744 OA
ENDBRANCH  95  96
ENDBRANCH  63  88
ENDBRANCH  37  38
ENDBRANCH  29  32
ENDBRANCH  27  28
ENDBRANCH  26  27
ENDBRANCH   1  26
TORSDOF 17
ENDMDL
MODEL 2
REMARK VINA RESULT:     -10.5      6.396     13.123
REMARK SMILES C[C@@H](C(=O)NCCCCCCNC(=O)c1ccc(-c2c3nc(c(-c4c(F)cc(S(=O)(=O)[O-])cc4F)c4ccc([nH]4)c(-c4c(F)cc(S(=O)(=O)[O-])cc4F)c4nc(c(-c5c(F)cc(S(=O)(=O)[O-])cc5F)c5ccc2[nH]5)C=C4)C=C3)cc1)c1ccc2c(c1)[nH]c1ccc(Cl)cc12
REMARK SMILES IDX 9 1 8 2 7 3 6 4 5 5 3 6 4 7 2 9 1 10 81 11 82 12 86 13 83 14
REMARK SMILES IDX 85 15 84 16 87 17 94 18 88 19 93 21 89 22 91 23 90 24 92 25
REMARK SMILES IDX 10 26 11 27 12 28 13 29 14 31 15 32 16 33 80 34 17 35 79 36
REMARK SMILES IDX 18 37 19 38 20 39 73 40 21 41 78 42 72 43 74 44 22 45 77 46
REMARK SMILES IDX 71 47 70 48 23 50 57 51 36 52 56 53 37 54 40 55 55 56 75 57
REMARK SMILES IDX 38 58 39 59 54 61 76 62 41 63 24 64 25 65 34 66 26 67 27 68
REMARK SMILES IDX 33 69 35 70 28 71 29 72 30 73 31 74 32 75 58 76 59 77 68 78
REMARK SMILES IDX 60 79 61 80 67 81 69 82 62 83 63 84 64 85 65 86 66 87 42 88
REMARK SMILES IDX 43 89 52 90 44 91 45 92 51 93 53 94 46 95 47 96 48 97 49 98
REMARK SMILES IDX 50 99
REMARK H PARENT 5 8 87 20 12 30 74 49 40 60
REMARK Flexibility Score: inf
ROOT
ATOM      1  C   UNL A   1      37.213  22.911  24.986  1.00  0.00     0.002 C 
ENDROOT
BRANCH   1   2
ATOM      2  C   UNL A   1      36.481  21.619  24.603  1.00  0.00     0.002 C 
BRANCH   2   3
ATOM      3  C   UNL A   1      35.452  21.132  25.635  1.00  0.00     0.021 C 
BRANCH   3   4
ATOM      4  C   UNL A   1      34.288  20.355  25.011  1.00  0.00     0.116 C 
BRANCH   4   5
ATOM      5  N   UNL A   1      33.661  21.143  23.970  1.00  0.00    -0.356 N 
ATOM      6  C   UNL A   1      32.690  22.097  24.023  1.00  0.00     0.227 C 
ATOM      7  O   UNL A   1      32.281  22.508  22.934  1.00  0.00    -0.274 OA
ATOM      8  H   UNL A   1      33.996  20.955  23.063  1.00  0.00     0.163 HD
BRANCH   6   9
ATOM      9  C   UNL A   1      32.215  22.682  25.367  1.00  0.00     0.105 C 
ATOM     10  C   UNL A   1      30.689  22.623  25.582  1.00  0.00     0.023 C 
BRANCH   9  11
ATOM     11  C   UNL A   1      32.693  24.131  25.547  1.00  0.00    -0.034 A 
ATOM     12  C   UNL A   1      34.026  24.426  25.871  1.00  0.00     0.005 A 
ATOM     13  C   UNL A   1      31.775  25.185  25.420  1.00  0.00     0.031 A 
ATOM     14  C   UNL A   1      34.442  25.748  26.128  1.00  0.00     0.011 A 
ATOM     15  C   UNL A   1      32.174  26.458  25.813  1.00  0.00     0.047 A 
ATOM     16  C   UNL A   1      33.482  26.783  26.145  1.00  0.00     0.007 A 
ATOM     17  N   UNL A   1      31.404  27.575  25.996  1.00  0.00    -0.355 N 
ATOM     18  C   UNL A   1      33.491  28.185  26.460  1.00  0.00     0.009 A 
ATOM     19  C   UNL A   1      32.160  28.606  26.487  1.00  0.00     0.047 A 
ATOM     20  H   UNL A   1      30.440  27.630  25.802  1.00  0.00     0.167 HD
ATOM     21  C   UNL A   1      34.489  29.125  26.785  1.00  0.00     0.031 A 
ATOM     22  C   UNL A   1      31.755  29.863  26.942  1.00  0.00     0.028 A 
ATOM     23  C   UNL A   1      34.101  30.413  27.179  1.00  0.00     0.041 A 
ATOM     24  C   UNL A   1      32.759  30.764  27.297  1.00  0.00     0.022 A 
ATOM     25  Cl  UNL A   1      35.308  31.591  27.534  1.00  0.00    -0.084 Cl
ENDBRANCH   9  11
ENDBRANCH   6   9
ENDBRANCH   4   5
ENDBRANCH   3   4
ENDBRANCH   2   3
ENDBRANCH   1   2
BRANCH   1  26
ATOM     26  C   UNL A   1      38.242  22.753  26.107  1.00  0.00     0.021 C 
BRANCH  26  27
ATOM     27  C   UNL A   1      38.969  24.043  26.473  1.00  0.00     0.116 C 
BRANCH  27  28
ATOM     28  N   UNL A   1      40.374  23.995  26.100  1.00  0.00    -0.352 N 
ATOM     29  C   UNL A   1      41.387  24.867  26.413  1.00  0.00     0.251 C 
ATOM     30  H   UNL A   1      40.636  23.227  25.543  1.00  0.00     0.163 HD
ATOM     31  O   UNL A   1      42.461  24.792  25.829  1.00  0.00    -0.269 OA
BRANCH  29  32
ATOM     32  C   UNL A   1      41.169  25.905  27.444  1.00  0.00     0.039 A 
ATOM     33  C   UNL A   1      40.147  25.726  28.380  1.00  0.00     0.014 A 
ATOM     34  C   UNL A   1      41.966  27.053  27.484  1.00  0.00     0.014 A 
ATOM     35  C   UNL A   1      39.965  26.672  29.391  1.00  0.00     0.010 A 
ATOM     36  C   UNL A   1      41.832  27.953  28.537  1.00  0.00     0.010 A 
ATOM     37  C   UNL A   1      40.827  27.775  29.498  1.00  0.00    -0.014 A 
BRANCH  37  38
ATOM     38  C   UNL A   1      40.696  28.749  30.614  1.00  0.00     0.031 A 
ATOM     39  C   UNL A   1      41.553  28.612  31.844  1.00  0.00     0.074 A 
ATOM     40  C   UNL A   1      39.762  29.720  30.544  1.00  0.00     0.049 A 
ATOM     41  N   UNL A   1      41.539  29.325  32.941  1.00  0.00    -0.248 NA
ATOM     42  C   UNL A   1      42.533  27.515  31.855  1.00  0.00     0.031 C 
ATOM     43  C   UNL A   1      38.839  29.923  29.426  1.00  0.00     0.029 A 
ATOM     44  N   UNL A   1      39.426  30.708  31.434  1.00  0.00    -0.354 N 
ATOM     45  C   UNL A   1      42.495  28.756  33.776  1.00  0.00     0.074 A 
ATOM     46  C   UNL A   1      43.032  27.608  33.079  1.00  0.00     0.031 C 
ATOM     47  C   UNL A   1      38.058  30.983  29.686  1.00  0.00     0.029 A 
ATOM     48  C   UNL A   1      38.393  31.509  31.006  1.00  0.00     0.049 A 
ATOM     49  H   UNL A   1      39.882  30.832  32.298  1.00  0.00     0.167 HD
ATOM     50  C   UNL A   1      42.903  29.168  35.000  1.00  0.00     0.037 A 
ATOM     51  C   UNL A   1      37.776  32.542  31.612  1.00  0.00     0.037 A 
ATOM     52  C   UNL A   1      42.377  30.326  35.676  1.00  0.00     0.049 A 
ATOM     53  C   UNL A   1      38.244  32.979  32.974  1.00  0.00     0.074 A 
ATOM     54  C   UNL A   1      42.770  30.863  36.890  1.00  0.00     0.029 A 
ATOM     55  N   UNL A   1      41.344  31.123  35.203  1.00  0.00    -0.354 N 
ATOM     56  N   UNL A   1      39.198  32.471  33.719  1.00  0.00    -0.248 NA
ATOM     57  C   UNL A   1      37.560  34.131  33.576  1.00  0.00     0.031 C 
ATOM     58  C   UNL A   1      41.936  31.948  37.178  1.00  0.00     0.029 A 
ATOM     59  C   UNL A   1      41.066  32.128  36.114  1.00  0.00     0.049 A 
ATOM     60  H   UNL A   1      40.878  30.992  34.346  1.00  0.00     0.167 HD
ATOM     61  C   UNL A   1      39.247  33.260  34.863  1.00  0.00     0.074 A 
ATOM     62  C   UNL A   1      38.235  34.285  34.707  1.00  0.00     0.031 C 
ATOM     63  C   UNL A   1      40.058  33.146  35.944  1.00  0.00     0.037 A 
BRANCH  50  64
ATOM     64  C   UNL A   1      43.968  28.361  35.693  1.00  0.00     0.058 A 
ATOM     65  C   UNL A   1      45.333  28.659  35.553  1.00  0.00     0.135 A 
ATOM     66  C   UNL A   1      43.616  27.302  36.547  1.00  0.00     0.135 A 
ATOM     67  F   UNL A   1      45.729  29.650  34.738  1.00  0.00    -0.206 F 
ATOM     68  C   UNL A   1      46.311  27.920  36.212  1.00  0.00     0.059 A 
ATOM     69  C   UNL A   1      44.577  26.571  37.241  1.00  0.00     0.059 A 
ATOM     70  F   UNL A   1      42.326  26.972  36.719  1.00  0.00    -0.206 F 
ATOM     71  C   UNL A   1      45.923  26.879  37.056  1.00  0.00     0.060 A 
BRANCH  71  72
ATOM     72  S   UNL A   1      47.205  25.940  37.911  1.00  0.00     0.124 S 
ATOM     73  O   UNL A   1      48.415  26.611  37.446  1.00  0.00    -0.237 OA
ATOM     74  O   UNL A   1      46.862  26.153  39.314  1.00  0.00    -0.237 OA
ATOM     75  O   UNL A   1      47.015  24.579  37.421  1.00  0.00    -0.744 OA
ENDBRANCH  71  72
ENDBRANCH  50  64
BRANCH  51  76
ATOM     76  C   UNL A   1      36.656  33.242  30.926  1.00  0.00     0.058 A 
ATOM     77  C   UNL A   1      36.899  34.171  29.904  1.00  0.00     0.135 A 
ATOM     78  C   UNL A   1      35.318  32.980  31.264  1.00  0.00     0.135 A 
ATOM     79  F   UNL A   1      38.160  34.460  29.548  1.00  0.00    -0.206 F 
ATOM     80  C   UNL A   1      35.861  34.827  29.250  1.00  0.00     0.059 A 
ATOM     81  C   UNL A   1      34.262  33.601  30.606  1.00  0.00     0.059 A 
ATOM     82  F   UNL A   1      35.029  32.087  32.224  1.00  0.00    -0.206 F 
ATOM     83  C   UNL A   1      34.544  34.531  29.606  1.00  0.00     0.060 A 
BRANCH  83  84
ATOM     84  S   UNL A   1      33.202  35.345  28.713  1.00  0.00     0.124 S 
ATOM     85  O   UNL A   1      32.548  34.211  28.068  1.00  0.00    -0.237 OA
ATOM     86  O   UNL A   1      32.458  35.981  29.794  1.00  0.00    -0.237 OA
ATOM     87  O   UNL A   1      33.902  36.262  27.818  1.00  0.00    -0.744 OA
ENDBRANCH  83  84
ENDBRANCH  51  76
BRANCH  63  88
ATOM     88  C   UNL A   1      39.914  34.175  37.033  1.00  0.00     0.058 A 
ATOM     89  C   UNL A   1      40.640  35.376  37.019  1.00  0.00     0.135 A 
ATOM     90  C   UNL A   1      38.994  33.980  38.076  1.00  0.00     0.135 A 
ATOM     91  F   UNL A   1      41.537  35.612  36.048  1.00  0.00    -0.206 F 
ATOM     92  C   UNL A   1      40.477  36.335  38.013  1.00  0.00     0.059 A 
ATOM     93  C   UNL A   1      38.791  34.939  39.063  1.00  0.00     0.059 A 
ATOM     94  F   UNL A   1      38.264  32.854  38.133  1.00  0.00    -0.206 F 
ATOM     95  C   UNL A   1      39.547  36.109  39.030  1.00  0.00     0.060 A 
BRANCH  95  96
ATOM     96  S   UNL A   1      39.323  37.378  40.295  1.00  0.00     0.124 S 
ATOM     97  O   UNL A   1      38.972  36.572  41.460  1.00  0.00    -0.237 OA
ATOM     98  O   UNL A   1      40.636  38.013  40.335  1.00  0.00    -0.237 OA
ATOM     99  O   UNL A   1      38.248  38.206  39.757  1.00  0.00    -0.744 OA
ENDBRANCH  95  96
ENDBRANCH  63  88
ENDBRANCH  37  38
ENDBRANCH  29  32
ENDBRANCH  27  28
ENDBRANCH  26  27
ENDBRANCH   1  26
TORSDOF 17
ENDMDL
MODEL 3
REMARK VINA RESULT:     -10.5      4.474      6.561
REMARK SMILES C[C@@H](C(=O)NCCCCCCNC(=O)c1ccc(-c2c3nc(c(-c4c(F)cc(S(=O)(=O)[O-])cc4F)c4ccc([nH]4)c(-c4c(F)cc(S(=O)(=O)[O-])cc4F)c4nc(c(-c5c(F)cc(S(=O)(=O)[O-])cc5F)c5ccc2[nH]5)C=C4)C=C3)cc1)c1ccc2c(c1)[nH]c1ccc(Cl)cc12
REMARK SMILES IDX 9 1 8 2 7 3 6 4 5 5 3 6 4 7 2 9 1 10 81 11 82 12 86 13 83 14
REMARK SMILES IDX 85 15 84 16 87 17 94 18 88 19 93 21 89 22 91 23 90 24 92 25
REMARK SMILES IDX 10 26 11 27 12 28 13 29 14 31 15 32 16 33 80 34 17 35 79 36
REMARK SMILES IDX 18 37 19 38 20 39 73 40 21 41 78 42 72 43 74 44 22 45 77 46
REMARK SMILES IDX 71 47 70 48 23 50 57 51 36 52 56 53 37 54 40 55 55 56 75 57
REMARK SMILES IDX 38 58 39 59 54 61 76 62 41 63 24 64 25 65 34 66 26 67 27 68
REMARK SMILES IDX 33 69 35 70 28 71 29 72 30 73 31 74 32 75 58 76 59 77 68 78
REMARK SMILES IDX 60 79 61 80 67 81 69 82 62 83 63 84 64 85 65 86 66 87 42 88
REMARK SMILES IDX 43 89 52 90 44 91 45 92 51 93 53 94 46 95 47 96 48 97 49 98
REMARK SMILES IDX 50 99
REMARK H PARENT 5 8 87 20 12 30 74 49 40 60
REMARK Flexibility Score: inf
ROOT
ATOM      1  C   UNL A   1      33.126  30.735  27.267  1.00  0.00     0.002 C 
ENDROOT
BRANCH   1   2
ATOM      2  C   UNL A   1      31.814  30.026  26.907  1.00  0.00     0.002 C 
BRANCH   2   3
ATOM      3  C   UNL A   1      31.672  28.607  27.477  1.00  0.00     0.021 C 
BRANCH   3   4
ATOM      4  C   UNL A   1      31.537  27.529  26.396  1.00  0.00     0.116 C 
BRANCH   4   5
ATOM      5  N   UNL A   1      31.226  28.137  25.119  1.00  0.00    -0.356 N 
ATOM      6  C   UNL A   1      32.001  28.390  24.028  1.00  0.00     0.227 C 
ATOM      7  O   UNL A   1      31.462  29.034  23.124  1.00  0.00    -0.274 OA
ATOM      8  H   UNL A   1      30.287  28.417  25.023  1.00  0.00     0.163 HD
BRANCH   6   9
ATOM      9  C   UNL A   1      33.427  27.818  23.909  1.00  0.00     0.105 C 
ATOM     10  C   UNL A   1      34.264  28.431  22.768  1.00  0.00     0.023 C 
BRANCH   9  11
ATOM     11  C   UNL A   1      33.405  26.290  23.752  1.00  0.00    -0.034 A 
ATOM     12  C   UNL A   1      32.795  25.678  22.647  1.00  0.00     0.005 A 
ATOM     13  C   UNL A   1      33.975  25.482  24.749  1.00  0.00     0.031 A 
ATOM     14  C   UNL A   1      32.693  24.275  22.551  1.00  0.00     0.011 A 
ATOM     15  C   UNL A   1      33.739  24.112  24.702  1.00  0.00     0.047 A 
ATOM     16  C   UNL A   1      33.134  23.475  23.627  1.00  0.00     0.007 A 
ATOM     17  N   UNL A   1      33.988  23.171  25.663  1.00  0.00    -0.355 N 
ATOM     18  C   UNL A   1      33.103  22.074  23.944  1.00  0.00     0.009 A 
ATOM     19  C   UNL A   1      33.518  21.946  25.271  1.00  0.00     0.047 A 
ATOM     20  H   UNL A   1      34.443  23.349  26.518  1.00  0.00     0.167 HD
ATOM     21  C   UNL A   1      32.706  20.908  23.260  1.00  0.00     0.031 A 
ATOM     22  C   UNL A   1      33.439  20.753  25.995  1.00  0.00     0.028 A 
ATOM     23  C   UNL A   1      32.684  19.691  23.954  1.00  0.00     0.041 A 
ATOM     24  C   UNL A   1      33.004  19.620  25.308  1.00  0.00     0.022 A 
ATOM     25  Cl  UNL A   1      32.248  18.247  23.122  1.00  0.00    -0.084 Cl
ENDBRANCH   9  11
ENDBRANCH   6   9
ENDBRANCH   4   5
ENDBRANCH   3   4
ENDBRANCH   2   3
ENDBRANCH   1   2
BRANCH   1  26
ATOM     26  C   UNL A   1      34.392  29.969  26.877  1.00  0.00     0.021 C 
BRANCH  26  27
ATOM     27  C   UNL A   1      35.198  29.450  28.063  1.00  0.00     0.116 C 
BRANCH  27  28
ATOM     28  N   UNL A   1      35.316  30.449  29.114  1.00  0.00    -0.352 N 
ATOM     29  C   UNL A   1      36.399  30.764  29.897  1.00  0.00     0.251 C 
ATOM     30  H   UNL A   1      34.502  30.975  29.289  1.00  0.00     0.163 HD
ATOM     31  O   UNL A   1      36.255  31.476  30.883  1.00  0.00    -0.269 OA
BRANCH  29  32
ATOM     32  C   UNL A   1      37.733  30.225  29.554  1.00  0.00     0.039 A 
ATOM     33  C   UNL A   1      38.079  30.079  28.208  1.00  0.00     0.014 A 
ATOM     34  C   UNL A   1      38.637  29.861  30.556  1.00  0.00     0.014 A 
ATOM     35  C   UNL A   1      39.355  29.622  27.870  1.00  0.00     0.010 A 
ATOM     36  C   UNL A   1      39.932  29.480  30.216  1.00  0.00     0.010 A 
ATOM     37  C   UNL A   1      40.303  29.352  28.870  1.00  0.00    -0.014 A 
BRANCH  37  38
ATOM     38  C   UNL A   1      41.690  28.940  28.525  1.00  0.00     0.031 A 
ATOM     39  C   UNL A   1      42.794  29.962  28.478  1.00  0.00     0.074 A 
ATOM     40  C   UNL A   1      41.940  27.657  28.195  1.00  0.00     0.049 A 
ATOM     41  N   UNL A   1      44.048  29.806  28.140  1.00  0.00    -0.248 NA
ATOM     42  C   UNL A   1      42.438  31.346  28.831  1.00  0.00     0.031 C 
ATOM     43  C   UNL A   1      40.942  26.586  28.155  1.00  0.00     0.029 A 
ATOM     44  N   UNL A   1      43.105  27.038  27.819  1.00  0.00    -0.354 N 
ATOM     45  C   UNL A   1      44.626  31.067  28.225  1.00  0.00     0.074 A 
ATOM     46  C   UNL A   1      43.572  31.988  28.595  1.00  0.00     0.031 C 
ATOM     47  C   UNL A   1      41.542  25.439  27.799  1.00  0.00     0.029 A 
ATOM     48  C   UNL A   1      42.955  25.699  27.541  1.00  0.00     0.049 A 
ATOM     49  H   UNL A   1      43.968  27.508  27.753  1.00  0.00     0.167 HD
ATOM     50  C   UNL A   1      45.919  31.422  28.034  1.00  0.00     0.037 A 
ATOM     51  C   UNL A   1      43.850  24.786  27.116  1.00  0.00     0.037 A 
ATOM     52  C   UNL A   1      46.964  30.493  27.687  1.00  0.00     0.049 A 
ATOM     53  C   UNL A   1      45.280  25.204  26.908  1.00  0.00     0.074 A 
ATOM     54  C   UNL A   1      48.317  30.742  27.534  1.00  0.00     0.029 A 
ATOM     55  N   UNL A   1      46.776  29.142  27.432  1.00  0.00    -0.354 N 
ATOM     56  N   UNL A   1      45.823  26.389  27.061  1.00  0.00    -0.248 NA
ATOM     57  C   UNL A   1      46.222  24.163  26.476  1.00  0.00     0.031 C 
ATOM     58  C   UNL A   1      48.938  29.556  27.130  1.00  0.00     0.029 A 
ATOM     59  C   UNL A   1      47.983  28.552  27.095  1.00  0.00     0.049 A 
ATOM     60  H   UNL A   1      45.913  28.673  27.484  1.00  0.00     0.167 HD
ATOM     61  C   UNL A   1      47.174  26.229  26.772  1.00  0.00     0.074 A 
ATOM     62  C   UNL A   1      47.368  24.831  26.447  1.00  0.00     0.031 C 
ATOM     63  C   UNL A   1      48.163  27.156  26.777  1.00  0.00     0.037 A 
BRANCH  50  64
ATOM     64  C   UNL A   1      46.279  32.874  28.191  1.00  0.00     0.058 A 
ATOM     65  C   UNL A   1      46.707  33.403  29.420  1.00  0.00     0.135 A 
ATOM     66  C   UNL A   1      46.241  33.742  27.087  1.00  0.00     0.135 A 
ATOM     67  F   UNL A   1      46.749  32.625  30.513  1.00  0.00    -0.206 F 
ATOM     68  C   UNL A   1      47.057  34.743  29.554  1.00  0.00     0.059 A 
ATOM     69  C   UNL A   1      46.618  35.078  27.191  1.00  0.00     0.059 A 
ATOM     70  F   UNL A   1      45.840  33.292  25.887  1.00  0.00    -0.206 F 
ATOM     71  C   UNL A   1      47.011  35.573  28.433  1.00  0.00     0.060 A 
BRANCH  71  72
ATOM     72  S   UNL A   1      47.481  37.305  28.624  1.00  0.00     0.124 S 
ATOM     73  O   UNL A   1      48.199  37.550  27.377  1.00  0.00    -0.237 OA
ATOM     74  O   UNL A   1      46.186  37.966  28.750  1.00  0.00    -0.237 OA
ATOM     75  O   UNL A   1      48.302  37.304  29.831  1.00  0.00    -0.744 OA
ENDBRANCH  71  72
ENDBRANCH  50  64
BRANCH  51  76
ATOM     76  C   UNL A   1      43.419  23.382  26.874  1.00  0.00     0.058 A 
ATOM     77  C   UNL A   1      43.305  22.873  25.573  1.00  0.00     0.135 A 
ATOM     78  C   UNL A   1      43.134  22.515  27.941  1.00  0.00     0.135 A 
ATOM     79  F   UNL A   1      43.560  23.663  24.519  1.00  0.00    -0.206 F 
ATOM     80  C   UNL A   1      42.909  21.561  25.334  1.00  0.00     0.059 A 
ATOM     81  C   UNL A   1      42.764  21.191  27.730  1.00  0.00     0.059 A 
ATOM     82  F   UNL A   1      43.244  22.947  29.207  1.00  0.00    -0.206 F 
ATOM     83  C   UNL A   1      42.646  20.726  26.421  1.00  0.00     0.060 A 
BRANCH  83  84
ATOM     84  S   UNL A   1      42.189  19.007  26.102  1.00  0.00     0.124 S 
ATOM     85  O   UNL A   1      43.077  18.668  24.996  1.00  0.00    -0.237 OA
ATOM     86  O   UNL A   1      42.489  18.370  27.380  1.00  0.00    -0.237 OA
ATOM     87  O   UNL A   1      40.770  19.094  25.771  1.00  0.00    -0.744 OA
ENDBRANCH  83  84
ENDBRANCH  51  76
BRANCH  63  88
ATOM     88  C   UNL A   1      49.558  26.687  26.457  1.00  0.00     0.058 A 
ATOM     89  C   UNL A   1      50.348  26.012  27.400  1.00  0.00     0.135 A 
ATOM     90  C   UNL A   1      50.087  26.867  25.169  1.00  0.00     0.135 A 
ATOM     91  F   UNL A   1      49.893  25.818  28.648  1.00  0.00    -0.206 F 
ATOM     92  C   UNL A   1      51.623  25.555  27.086  1.00  0.00     0.059 A 
ATOM     93  C   UNL A   1      51.348  26.390  24.822  1.00  0.00     0.059 A 
ATOM     94  F   UNL A   1      49.370  27.496  24.224  1.00  0.00    -0.206 F 
ATOM     95  C   UNL A   1      52.114  25.746  25.791  1.00  0.00     0.060 A 
BRANCH  95  96
ATOM     96  S   UNL A   1      53.757  25.117  25.388  1.00  0.00     0.124 S 
ATOM     97  O   UNL A   1      53.921  25.582  24.014  1.00  0.00    -0.237 OA
ATOM     98  O   UNL A   1      54.596  25.775  26.385  1.00  0.00    -0.237 OA
ATOM     99  O   UNL A   1      53.617  23.673  25.549  1.00  0.00    -0.744 OA
ENDBRANCH  95  96
ENDBRANCH  63  88
ENDBRANCH  37  38
ENDBRANCH  29  32
ENDBRANCH  27  28
ENDBRANCH  26  27
ENDBRANCH   1  26
TORSDOF 17
ENDMDL
