MODEL 1
REMARK VINA RESULT:     -10.4      0.000      0.000
REMARK SMILES CC[NH+](CC)[C@](C)(C(=O)NCCCCCCNC(=O)c1ccc(-c2c3nc(c(-c4c(F)cc(S(=O)(=O)[O-])cc4F)c4ccc([nH]4)c(-c4c(F)cc(S(=O)(=O)[O-])cc4F)c4nc(c(-c5c(F)cc(S(=O)(=O)[O-])cc5F)c5ccc2[nH]5)C=C4)C=C3)cc1)c1cc(F)c(C)cc1F
REMARK SMILES IDX 14 1 13 2 12 3 11 4 10 5 8 6 9 7 6 9 7 10 3 11 2 13 1 14
REMARK SMILES IDX 4 15 5 16 86 17 87 18 93 19 88 20 92 21 94 22 89 23 90 24
REMARK SMILES IDX 91 25 15 26 16 27 17 28 18 29 19 31 20 32 21 33 85 34 22 35
REMARK SMILES IDX 84 36 23 37 24 38 25 39 78 40 26 41 83 42 77 43 79 44 27 45
REMARK SMILES IDX 82 46 76 47 75 48 28 50 62 51 41 52 61 53 42 54 45 55 60 56
REMARK SMILES IDX 80 57 43 58 44 59 59 61 81 62 46 63 29 64 30 65 39 66 31 67
REMARK SMILES IDX 32 68 38 69 40 70 33 71 34 72 35 73 36 74 37 75 63 76 64 77
REMARK SMILES IDX 73 78 65 79 66 80 72 81 74 82 67 83 68 84 69 85 70 86 71 87
REMARK SMILES IDX 47 88 48 89 57 90 49 91 50 92 56 93 58 94 51 95 52 96 53 97
REMARK SMILES IDX 54 98 55 99
REMARK H PARENT 10 8 3 12 17 30 79 49 45 60
REMARK Flexibility Score: inf
ROOT
ATOM      1  C   UNL A   1      31.948  28.609  24.921  1.00  0.00     0.002 C 
ENDROOT
BRANCH   1   2
ATOM      2  C   UNL A   1      31.086  27.357  24.706  1.00  0.00     0.002 C 
BRANCH   2   3
ATOM      3  C   UNL A   1      30.875  26.469  25.935  1.00  0.00     0.021 C 
BRANCH   3   4
ATOM      4  C   UNL A   1      30.665  24.997  25.617  1.00  0.00     0.116 C 
BRANCH   4   5
ATOM      5  N   UNL A   1      31.126  24.113  26.672  1.00  0.00    -0.350 N 
ATOM      6  C   UNL A   1      32.115  23.161  26.733  1.00  0.00     0.286 C 
ATOM      7  O   UNL A   1      32.432  22.908  27.903  1.00  0.00    -0.267 OA
ATOM      8  H   UNL A   1      30.629  24.216  27.515  1.00  0.00     0.163 HD
BRANCH   6   9
ATOM      9  C   UNL A   1      32.810  22.474  25.437  1.00  0.00     0.202 C 
ATOM     10  C   UNL A   1      32.382  20.971  25.509  1.00  0.00     0.096 C 
BRANCH   9  11
ATOM     11  N   UNL A   1      32.399  23.227  24.151  1.00  0.00    -0.319 N 
ATOM     12  H   UNL A   1      31.833  23.992  24.518  1.00  0.00     0.349 HD
BRANCH  11  13
ATOM     13  C   UNL A   1      31.483  22.540  23.227  1.00  0.00     0.259 C 
ATOM     14  C   UNL A   1      32.138  21.646  22.173  1.00  0.00     0.071 C 
ENDBRANCH  11  13
BRANCH  11  15
ATOM     15  C   UNL A   1      33.580  23.766  23.424  1.00  0.00     0.259 C 
ATOM     16  C   UNL A   1      33.544  25.210  22.916  1.00  0.00     0.071 C 
ENDBRANCH  11  15
ENDBRANCH   9  11
BRANCH   9  17
ATOM     17  C   UNL A   1      34.402  22.507  25.544  1.00  0.00     0.060 A 
ATOM     18  C   UNL A   1      35.231  21.385  25.342  1.00  0.00     0.053 A 
ATOM     19  C   UNL A   1      35.092  23.681  25.938  1.00  0.00     0.133 A 
ATOM     20  C   UNL A   1      36.628  21.463  25.460  1.00  0.00     0.126 A 
ATOM     21  C   UNL A   1      36.480  23.752  26.083  1.00  0.00     0.046 A 
ATOM     22  F   UNL A   1      34.431  24.802  26.264  1.00  0.00    -0.206 F 
ATOM     23  F   UNL A   1      37.359  20.367  25.210  1.00  0.00    -0.207 F 
ATOM     24  C   UNL A   1      37.269  22.637  25.841  1.00  0.00    -0.012 A 
ATOM     25  C   UNL A   1      38.758  22.696  25.982  1.00  0.00     0.047 C 
ENDBRANCH   9  17
ENDBRANCH   6   9
ENDBRANCH   4   5
ENDBRANCH   3   4
ENDBRANCH   2   3
ENDBRANCH   1   2
BRANCH   1  26
ATOM     26  C   UNL A   1      33.443  28.369  25.144  1.00  0.00     0.021 C 
BRANCH  26  27
ATOM     27  C   UNL A   1      33.913  28.456  26.590  1.00  0.00     0.116 C 
BRANCH  27  28
ATOM     28  N   UNL A   1      33.677  29.762  27.177  1.00  0.00    -0.352 N 
ATOM     29  C   UNL A   1      34.491  30.512  27.989  1.00  0.00     0.251 C 
ATOM     30  H   UNL A   1      32.807  30.169  26.962  1.00  0.00     0.163 HD
ATOM     31  O   UNL A   1      34.060  31.538  28.499  1.00  0.00    -0.269 OA
BRANCH  29  32
ATOM     32  C   UNL A   1      35.873  30.062  28.269  1.00  0.00     0.039 A 
ATOM     33  C   UNL A   1      36.807  30.100  27.231  1.00  0.00     0.014 A 
ATOM     34  C   UNL A   1      36.250  29.598  29.534  1.00  0.00     0.014 A 
ATOM     35  C   UNL A   1      38.127  29.720  27.473  1.00  0.00     0.010 A 
ATOM     36  C   UNL A   1      37.584  29.295  29.793  1.00  0.00     0.010 A 
ATOM     37  C   UNL A   1      38.536  29.345  28.764  1.00  0.00    -0.014 A 
BRANCH  37  38
ATOM     38  C   UNL A   1      39.956  29.005  29.042  1.00  0.00     0.031 A 
ATOM     39  C   UNL A   1      40.878  30.025  29.653  1.00  0.00     0.074 A 
ATOM     40  C   UNL A   1      40.420  27.782  28.710  1.00  0.00     0.049 A 
ATOM     41  N   UNL A   1      42.146  29.911  29.956  1.00  0.00    -0.248 NA
ATOM     42  C   UNL A   1      40.311  31.352  29.940  1.00  0.00     0.031 C 
ATOM     43  C   UNL A   1      39.635  26.728  28.063  1.00  0.00     0.029 A 
ATOM     44  N   UNL A   1      41.662  27.221  28.869  1.00  0.00    -0.354 N 
ATOM     45  C   UNL A   1      42.528  31.150  30.460  1.00  0.00     0.074 A 
ATOM     46  C   UNL A   1      41.375  32.017  30.368  1.00  0.00     0.031 C 
ATOM     47  C   UNL A   1      40.405  25.639  27.907  1.00  0.00     0.029 A 
ATOM     48  C   UNL A   1      41.746  25.928  28.405  1.00  0.00     0.049 A 
ATOM     49  H   UNL A   1      42.421  27.697  29.275  1.00  0.00     0.167 HD
ATOM     50  C   UNL A   1      43.726  31.522  30.974  1.00  0.00     0.037 A 
ATOM     51  C   UNL A   1      42.788  25.073  28.378  1.00  0.00     0.037 A 
ATOM     52  C   UNL A   1      44.863  30.645  31.080  1.00  0.00     0.049 A 
ATOM     53  C   UNL A   1      44.106  25.512  28.955  1.00  0.00     0.074 A 
ATOM     54  C   UNL A   1      46.102  30.907  31.640  1.00  0.00     0.029 A 
ATOM     55  N   UNL A   1      44.907  29.339  30.611  1.00  0.00    -0.354 N 
ATOM     56  N   UNL A   1      44.428  26.663  29.496  1.00  0.00    -0.248 NA
ATOM     57  C   UNL A   1      45.201  24.532  28.929  1.00  0.00     0.031 C 
ATOM     58  C   UNL A   1      46.911  29.781  31.460  1.00  0.00     0.029 A 
ATOM     59  C   UNL A   1      46.159  28.794  30.845  1.00  0.00     0.049 A 
ATOM     60  H   UNL A   1      44.158  28.871  30.177  1.00  0.00     0.167 HD
ATOM     61  C   UNL A   1      45.753  26.537  29.900  1.00  0.00     0.074 A 
ATOM     62  C   UNL A   1      46.165  25.191  29.556  1.00  0.00     0.031 C 
ATOM     63  C   UNL A   1      46.556  27.451  30.500  1.00  0.00     0.037 A 
BRANCH  50  64
ATOM     64  C   UNL A   1      43.870  32.938  31.466  1.00  0.00     0.058 A 
ATOM     65  C   UNL A   1      44.229  33.988  30.606  1.00  0.00     0.135 A 
ATOM     66  C   UNL A   1      43.596  33.258  32.806  1.00  0.00     0.135 A 
ATOM     67  F   UNL A   1      44.518  33.740  29.319  1.00  0.00    -0.206 F 
ATOM     68  C   UNL A   1      44.334  35.299  31.060  1.00  0.00     0.059 A 
ATOM     69  C   UNL A   1      43.664  34.567  33.276  1.00  0.00     0.059 A 
ATOM     70  F   UNL A   1      43.250  32.294  33.675  1.00  0.00    -0.206 F 
ATOM     71  C   UNL A   1      44.045  35.579  32.396  1.00  0.00     0.060 A 
BRANCH  71  72
ATOM     72  S   UNL A   1      44.169  37.289  32.964  1.00  0.00     0.124 S 
ATOM     73  O   UNL A   1      44.152  38.017  31.699  1.00  0.00    -0.237 OA
ATOM     74  O   UNL A   1      42.975  37.428  33.791  1.00  0.00    -0.237 OA
ATOM     75  O   UNL A   1      45.436  37.317  33.687  1.00  0.00    -0.744 OA
ENDBRANCH  71  72
ENDBRANCH  50  64
BRANCH  51  76
ATOM     76  C   UNL A   1      42.620  23.713  27.797  1.00  0.00     0.058 A 
ATOM     77  C   UNL A   1      42.658  23.505  26.411  1.00  0.00     0.135 A 
ATOM     78  C   UNL A   1      42.419  22.593  28.619  1.00  0.00     0.135 A 
ATOM     79  F   UNL A   1      42.842  24.543  25.581  1.00  0.00    -0.206 F 
ATOM     80  C   UNL A   1      42.481  22.240  25.857  1.00  0.00     0.059 A 
ATOM     81  C   UNL A   1      42.271  21.314  28.092  1.00  0.00     0.059 A 
ATOM     82  F   UNL A   1      42.392  22.733  29.954  1.00  0.00    -0.206 F 
ATOM     83  C   UNL A   1      42.290  21.149  26.708  1.00  0.00     0.060 A 
BRANCH  83  84
ATOM     84  S   UNL A   1      42.101  19.507  25.982  1.00  0.00     0.124 S 
ATOM     85  O   UNL A   1      42.574  18.652  27.065  1.00  0.00    -0.237 OA
ATOM     86  O   UNL A   1      40.668  19.458  25.708  1.00  0.00    -0.237 OA
ATOM     87  O   UNL A   1      42.956  19.562  24.801  1.00  0.00    -0.744 OA
ENDBRANCH  83  84
ENDBRANCH  51  76
BRANCH  63  88
ATOM     88  C   UNL A   1      47.951  27.017  30.857  1.00  0.00     0.058 A 
ATOM     89  C   UNL A   1      48.245  26.395  32.081  1.00  0.00     0.135 A 
ATOM     90  C   UNL A   1      49.005  27.192  29.944  1.00  0.00     0.135 A 
ATOM     91  F   UNL A   1      47.277  26.207  32.992  1.00  0.00    -0.206 F 
ATOM     92  C   UNL A   1      49.537  25.995  32.402  1.00  0.00     0.059 A 
ATOM     93  C   UNL A   1      50.299  26.769  30.229  1.00  0.00     0.059 A 
ATOM     94  F   UNL A   1      48.779  27.769  28.753  1.00  0.00    -0.206 F 
ATOM     95  C   UNL A   1      50.558  26.186  31.468  1.00  0.00     0.060 A 
BRANCH  95  96
ATOM     96  S   UNL A   1      52.228  25.645  31.891  1.00  0.00     0.124 S 
ATOM     97  O   UNL A   1      52.544  26.518  33.015  1.00  0.00    -0.237 OA
ATOM     98  O   UNL A   1      52.025  24.237  32.220  1.00  0.00    -0.237 OA
ATOM     99  O   UNL A   1      52.986  25.894  30.668  1.00  0.00    -0.744 OA
ENDBRANCH  95  96
ENDBRANCH  63  88
ENDBRANCH  37  38
ENDBRANCH  29  32
ENDBRANCH  27  28
ENDBRANCH  26  27
ENDBRANCH   1  26
TORSDOF 20
ENDMDL
MODEL 2
REMARK VINA RESULT:     -10.4      3.459      9.340
REMARK SMILES CC[NH+](CC)[C@](C)(C(=O)NCCCCCCNC(=O)c1ccc(-c2c3nc(c(-c4c(F)cc(S(=O)(=O)[O-])cc4F)c4ccc([nH]4)c(-c4c(F)cc(S(=O)(=O)[O-])cc4F)c4nc(c(-c5c(F)cc(S(=O)(=O)[O-])cc5F)c5ccc2[nH]5)C=C4)C=C3)cc1)c1cc(F)c(C)cc1F
REMARK SMILES IDX 14 1 13 2 12 3 11 4 10 5 8 6 9 7 6 9 7 10 3 11 2 13 1 14
REMARK SMILES IDX 4 15 5 16 86 17 87 18 93 19 88 20 92 21 94 22 89 23 90 24
REMARK SMILES IDX 91 25 15 26 16 27 17 28 18 29 19 31 20 32 21 33 85 34 22 35
REMARK SMILES IDX 84 36 23 37 24 38 25 39 78 40 26 41 83 42 77 43 79 44 27 45
REMARK SMILES IDX 82 46 76 47 75 48 28 50 62 51 41 52 61 53 42 54 45 55 60 56
REMARK SMILES IDX 80 57 43 58 44 59 59 61 81 62 46 63 29 64 30 65 39 66 31 67
REMARK SMILES IDX 32 68 38 69 40 70 33 71 34 72 35 73 36 74 37 75 63 76 64 77
REMARK SMILES IDX 73 78 65 79 66 80 72 81 74 82 67 83 68 84 69 85 70 86 71 87
REMARK SMILES IDX 47 88 48 89 57 90 49 91 50 92 56 93 58 94 51 95 52 96 53 97
REMARK SMILES IDX 54 98 55 99
REMARK H PARENT 10 8 3 12 17 30 79 49 45 60
REMARK Flexibility Score: inf
ROOT
ATOM      1  C   UNL A   1      37.563  21.130  24.683  1.00  0.00     0.002 C 
ENDROOT
BRANCH   1   2
ATOM      2  C   UNL A   1      37.594  22.306  25.669  1.00  0.00     0.002 C 
BRANCH   2   3
ATOM      3  C   UNL A   1      36.971  23.613  25.174  1.00  0.00     0.021 C 
BRANCH   3   4
ATOM      4  C   UNL A   1      35.462  23.563  24.997  1.00  0.00     0.116 C 
BRANCH   4   5
ATOM      5  N   UNL A   1      34.786  24.742  25.506  1.00  0.00    -0.350 N 
ATOM      6  C   UNL A   1      33.528  25.258  25.313  1.00  0.00     0.286 C 
ATOM      7  O   UNL A   1      33.220  26.055  26.210  1.00  0.00    -0.267 OA
ATOM      8  H   UNL A   1      35.342  25.282  26.112  1.00  0.00     0.163 HD
BRANCH   6   9
ATOM      9  C   UNL A   1      32.547  24.853  24.085  1.00  0.00     0.202 C 
ATOM     10  C   UNL A   1      33.478  24.820  22.829  1.00  0.00     0.096 C 
BRANCH   9  11
ATOM     11  N   UNL A   1      31.808  23.534  24.407  1.00  0.00    -0.319 N 
ATOM     12  H   UNL A   1      30.829  23.806  24.318  1.00  0.00     0.349 HD
BRANCH  11  13
ATOM     13  C   UNL A   1      31.896  23.027  25.785  1.00  0.00     0.259 C 
ATOM     14  C   UNL A   1      30.667  23.259  26.666  1.00  0.00     0.071 C 
ENDBRANCH  11  13
BRANCH  11  15
ATOM     15  C   UNL A   1      32.134  22.465  23.426  1.00  0.00     0.259 C 
ATOM     16  C   UNL A   1      32.936  21.247  23.894  1.00  0.00     0.071 C 
ENDBRANCH  11  15
ENDBRANCH   9  11
BRANCH   9  17
ATOM     17  C   UNL A   1      31.451  25.984  23.818  1.00  0.00     0.060 A 
ATOM     18  C   UNL A   1      30.063  25.787  23.953  1.00  0.00     0.053 A 
ATOM     19  C   UNL A   1      31.817  27.268  23.340  1.00  0.00     0.133 A 
ATOM     20  C   UNL A   1      29.139  26.812  23.694  1.00  0.00     0.126 A 
ATOM     21  C   UNL A   1      30.896  28.280  23.055  1.00  0.00     0.046 A 
ATOM     22  F   UNL A   1      33.095  27.572  23.065  1.00  0.00    -0.206 F 
ATOM     23  F   UNL A   1      27.834  26.568  23.886  1.00  0.00    -0.207 F 
ATOM     24  C   UNL A   1      29.537  28.062  23.234  1.00  0.00    -0.012 A 
ATOM     25  C   UNL A   1      28.537  29.136  22.942  1.00  0.00     0.047 C 
ENDBRANCH   9  17
ENDBRANCH   6   9
ENDBRANCH   4   5
ENDBRANCH   3   4
ENDBRANCH   2   3
ENDBRANCH   1   2
BRANCH   1  26
ATOM     26  C   UNL A   1      38.463  19.939  25.025  1.00  0.00     0.021 C 
BRANCH  26  27
ATOM     27  C   UNL A   1      39.556  20.216  26.049  1.00  0.00     0.116 C 
BRANCH  27  28
ATOM     28  N   UNL A   1      40.611  19.220  26.024  1.00  0.00    -0.352 N 
ATOM     29  C   UNL A   1      41.970  19.390  26.115  1.00  0.00     0.251 C 
ATOM     30  H   UNL A   1      40.309  18.288  25.927  1.00  0.00     0.163 HD
ATOM     31  O   UNL A   1      42.714  18.434  25.937  1.00  0.00    -0.269 OA
BRANCH  29  32
ATOM     32  C   UNL A   1      42.531  20.730  26.398  1.00  0.00     0.039 A 
ATOM     33  C   UNL A   1      42.965  21.508  25.323  1.00  0.00     0.014 A 
ATOM     34  C   UNL A   1      42.638  21.218  27.704  1.00  0.00     0.014 A 
ATOM     35  C   UNL A   1      43.461  22.791  25.552  1.00  0.00     0.010 A 
ATOM     36  C   UNL A   1      43.059  22.528  27.924  1.00  0.00     0.010 A 
ATOM     37  C   UNL A   1      43.484  23.326  26.851  1.00  0.00    -0.014 A 
BRANCH  37  38
ATOM     38  C   UNL A   1      43.947  24.717  27.093  1.00  0.00     0.031 A 
ATOM     39  C   UNL A   1      45.399  25.076  26.925  1.00  0.00     0.074 A 
ATOM     40  C   UNL A   1      43.060  25.649  27.497  1.00  0.00     0.049 A 
ATOM     41  N   UNL A   1      45.987  26.232  27.102  1.00  0.00    -0.248 NA
ATOM     42  C   UNL A   1      46.315  23.994  26.531  1.00  0.00     0.031 C 
ATOM     43  C   UNL A   1      41.637  25.407  27.747  1.00  0.00     0.029 A 
ATOM     44  N   UNL A   1      43.222  26.983  27.772  1.00  0.00    -0.354 N 
ATOM     45  C   UNL A   1      47.337  26.014  26.849  1.00  0.00     0.074 A 
ATOM     46  C   UNL A   1      47.491  24.605  26.563  1.00  0.00     0.031 C 
ATOM     47  C   UNL A   1      41.051  26.560  28.109  1.00  0.00     0.029 A 
ATOM     48  C   UNL A   1      42.060  27.613  28.155  1.00  0.00     0.049 A 
ATOM     49  H   UNL A   1      44.088  27.447  27.701  1.00  0.00     0.167 HD
ATOM     50  C   UNL A   1      48.352  26.912  26.833  1.00  0.00     0.037 A 
ATOM     51  C   UNL A   1      41.834  28.893  28.511  1.00  0.00     0.037 A 
ATOM     52  C   UNL A   1      48.185  28.318  27.099  1.00  0.00     0.049 A 
ATOM     53  C   UNL A   1      42.979  29.870  28.484  1.00  0.00     0.074 A 
ATOM     54  C   UNL A   1      49.138  29.321  27.048  1.00  0.00     0.029 A 
ATOM     55  N   UNL A   1      46.992  28.921  27.471  1.00  0.00    -0.354 N 
ATOM     56  N   UNL A   1      44.235  29.662  28.169  1.00  0.00    -0.248 NA
ATOM     57  C   UNL A   1      42.673  31.260  28.850  1.00  0.00     0.031 C 
ATOM     58  C   UNL A   1      48.535  30.519  27.444  1.00  0.00     0.029 A 
ATOM     59  C   UNL A   1      47.191  30.277  27.680  1.00  0.00     0.049 A 
ATOM     60  H   UNL A   1      46.131  28.454  27.572  1.00  0.00     0.167 HD
ATOM     61  C   UNL A   1      44.864  30.898  28.272  1.00  0.00     0.074 A 
ATOM     62  C   UNL A   1      43.845  31.851  28.662  1.00  0.00     0.031 C 
ATOM     63  C   UNL A   1      46.166  31.215  28.065  1.00  0.00     0.037 A 
BRANCH  50  64
ATOM     64  C   UNL A   1      49.734  26.407  26.514  1.00  0.00     0.058 A 
ATOM     65  C   UNL A   1      50.592  25.917  27.511  1.00  0.00     0.135 A 
ATOM     66  C   UNL A   1      50.187  26.363  25.185  1.00  0.00     0.135 A 
ATOM     67  F   UNL A   1      50.218  25.949  28.801  1.00  0.00    -0.206 F 
ATOM     68  C   UNL A   1      51.857  25.425  27.208  1.00  0.00     0.059 A 
ATOM     69  C   UNL A   1      51.437  25.846  24.854  1.00  0.00     0.059 A 
ATOM     70  F   UNL A   1      49.410  26.819  24.190  1.00  0.00    -0.206 F 
ATOM     71  C   UNL A   1      52.269  25.391  25.875  1.00  0.00     0.060 A 
BRANCH  71  72
ATOM     72  S   UNL A   1      53.908  24.732  25.498  1.00  0.00     0.124 S 
ATOM     73  O   UNL A   1      54.330  25.607  24.409  1.00  0.00    -0.237 OA
ATOM     74  O   UNL A   1      54.612  24.909  26.763  1.00  0.00    -0.237 OA
ATOM     75  O   UNL A   1      53.640  23.347  25.122  1.00  0.00    -0.744 OA
ENDBRANCH  71  72
ENDBRANCH  50  64
BRANCH  51  76
ATOM     76  C   UNL A   1      40.466  29.326  28.906  1.00  0.00     0.058 A 
ATOM     77  C   UNL A   1      39.471  29.558  27.945  1.00  0.00     0.135 A 
ATOM     78  C   UNL A   1      40.126  29.514  30.255  1.00  0.00     0.135 A 
ATOM     79  F   UNL A   1      39.747  29.398  26.641  1.00  0.00    -0.206 F 
ATOM     80  C   UNL A   1      38.196  29.983  28.303  1.00  0.00     0.059 A 
ATOM     81  C   UNL A   1      38.849  29.907  30.640  1.00  0.00     0.059 A 
ATOM     82  F   UNL A   1      41.035  29.288  31.217  1.00  0.00    -0.206 F 
ATOM     83  C   UNL A   1      37.893  30.153  29.655  1.00  0.00     0.060 A 
BRANCH  83  84
ATOM     84  S   UNL A   1      36.224  30.667  30.112  1.00  0.00     0.124 S 
ATOM     85  O   UNL A   1      36.041  29.974  31.382  1.00  0.00    -0.237 OA
ATOM     86  O   UNL A   1      36.361  32.118  30.189  1.00  0.00    -0.237 OA
ATOM     87  O   UNL A   1      35.408  30.179  29.004  1.00  0.00    -0.744 OA
ENDBRANCH  83  84
ENDBRANCH  51  76
BRANCH  63  88
ATOM     88  C   UNL A   1      46.558  32.660  28.219  1.00  0.00     0.058 A 
ATOM     89  C   UNL A   1      46.422  33.582  27.169  1.00  0.00     0.135 A 
ATOM     90  C   UNL A   1      47.044  33.137  29.448  1.00  0.00     0.135 A 
ATOM     91  F   UNL A   1      45.968  33.179  25.971  1.00  0.00    -0.206 F 
ATOM     92  C   UNL A   1      46.785  34.916  27.320  1.00  0.00     0.059 A 
ATOM     93  C   UNL A   1      47.381  34.473  29.633  1.00  0.00     0.059 A 
ATOM     94  F   UNL A   1      47.182  32.302  30.490  1.00  0.00    -0.206 F 
ATOM     95  C   UNL A   1      47.263  35.352  28.557  1.00  0.00     0.060 A 
BRANCH  95  96
ATOM     96  S   UNL A   1      47.713  37.090  28.746  1.00  0.00     0.124 S 
ATOM     97  O   UNL A   1      47.639  37.564  27.368  1.00  0.00    -0.237 OA
ATOM     98  O   UNL A   1      46.672  37.586  29.643  1.00  0.00    -0.237 OA
ATOM     99  O   UNL A   1      49.054  37.035  29.321  1.00  0.00    -0.744 OA
ENDBRANCH  95  96
ENDBRANCH  63  88
ENDBRANCH  37  38
ENDBRANCH  29  32
ENDBRANCH  27  28
ENDBRANCH  26  27
ENDBRANCH   1  26
TORSDOF 20
ENDMDL
MODEL 3
REMARK VINA RESULT:     -10.3      4.567     10.259
REMARK SMILES CC[NH+](CC)[C@](C)(C(=O)NCCCCCCNC(=O)c1ccc(-c2c3nc(c(-c4c(F)cc(S(=O)(=O)[O-])cc4F)c4ccc([nH]4)c(-c4c(F)cc(S(=O)(=O)[O-])cc4F)c4nc(c(-c5c(F)cc(S(=O)(=O)[O-])cc5F)c5ccc2[nH]5)C=C4)C=C3)cc1)c1cc(F)c(C)cc1F
REMARK SMILES IDX 14 1 13 2 12 3 11 4 10 5 8 6 9 7 6 9 7 10 3 11 2 13 1 14
REMARK SMILES IDX 4 15 5 16 86 17 87 18 93 19 88 20 92 21 94 22 89 23 90 24
REMARK SMILES IDX 91 25 15 26 16 27 17 28 18 29 19 31 20 32 21 33 85 34 22 35
REMARK SMILES IDX 84 36 23 37 24 38 25 39 78 40 26 41 83 42 77 43 79 44 27 45
REMARK SMILES IDX 82 46 76 47 75 48 28 50 62 51 41 52 61 53 42 54 45 55 60 56
REMARK SMILES IDX 80 57 43 58 44 59 59 61 81 62 46 63 29 64 30 65 39 66 31 67
REMARK SMILES IDX 32 68 38 69 40 70 33 71 34 72 35 73 36 74 37 75 63 76 64 77
REMARK SMILES IDX 73 78 65 79 66 80 72 81 74 82 67 83 68 84 69 85 70 86 71 87
REMARK SMILES IDX 47 88 48 89 57 90 49 91 50 92 56 93 58 94 51 95 52 96 53 97
REMARK SMILES IDX 54 98 55 99
REMARK H PARENT 10 8 3 12 17 30 79 49 45 60
REMARK Flexibility Score: inf
ROOT
ATOM      1  C   UNL A   1      40.536  21.797  26.404  1.00  0.00     0.002 C 
ENDROOT
BRANCH   1   2
ATOM      2  C   UNL A   1      39.034  22.114  26.367  1.00  0.00     0.002 C 
BRANCH   2   3
ATOM      3  C   UNL A   1      38.665  23.590  26.204  1.00  0.00     0.021 C 
BRANCH   3   4
ATOM      4  C   UNL A   1      37.288  23.830  25.604  1.00  0.00     0.116 C 
BRANCH   4   5
ATOM      5  N   UNL A   1      36.221  23.181  26.343  1.00  0.00    -0.350 N 
ATOM      6  C   UNL A   1      34.970  22.736  25.988  1.00  0.00     0.286 C 
ATOM      7  O   UNL A   1      34.532  21.912  26.802  1.00  0.00    -0.267 OA
ATOM      8  H   UNL A   1      36.436  23.028  27.290  1.00  0.00     0.163 HD
BRANCH   6   9
ATOM      9  C   UNL A   1      34.174  23.203  24.652  1.00  0.00     0.202 C 
ATOM     10  C   UNL A   1      35.151  22.876  23.475  1.00  0.00     0.096 C 
BRANCH   9  11
ATOM     11  N   UNL A   1      32.792  22.513  24.589  1.00  0.00    -0.319 N 
ATOM     12  H   UNL A   1      32.226  23.206  24.098  1.00  0.00     0.349 HD
BRANCH  11  13
ATOM     13  C   UNL A   1      32.071  22.323  25.856  1.00  0.00     0.259 C 
ATOM     14  C   UNL A   1      30.652  22.891  25.914  1.00  0.00     0.071 C 
ENDBRANCH  11  13
BRANCH  11  15
ATOM     15  C   UNL A   1      32.842  21.246  23.811  1.00  0.00     0.259 C 
ATOM     16  C   UNL A   1      32.119  21.174  22.462  1.00  0.00     0.071 C 
ENDBRANCH  11  15
ENDBRANCH   9  11
BRANCH   9  17
ATOM     17  C   UNL A   1      33.943  24.783  24.635  1.00  0.00     0.060 A 
ATOM     18  C   UNL A   1      34.045  25.609  25.771  1.00  0.00     0.053 A 
ATOM     19  C   UNL A   1      33.532  25.455  23.456  1.00  0.00     0.133 A 
ATOM     20  C   UNL A   1      33.820  26.993  25.705  1.00  0.00     0.126 A 
ATOM     21  C   UNL A   1      33.280  26.829  23.396  1.00  0.00     0.046 A 
ATOM     22  F   UNL A   1      33.293  24.786  22.318  1.00  0.00    -0.206 F 
ATOM     23  F   UNL A   1      33.979  27.727  26.817  1.00  0.00    -0.207 F 
ATOM     24  C   UNL A   1      33.426  27.619  24.527  1.00  0.00    -0.012 A 
ATOM     25  C   UNL A   1      33.170  29.093  24.481  1.00  0.00     0.047 C 
ENDBRANCH   9  17
ENDBRANCH   6   9
ENDBRANCH   4   5
ENDBRANCH   3   4
ENDBRANCH   2   3
ENDBRANCH   1   2
BRANCH   1  26
ATOM     26  C   UNL A   1      41.247  22.053  27.736  1.00  0.00     0.021 C 
BRANCH  26  27
ATOM     27  C   UNL A   1      42.326  23.128  27.707  1.00  0.00     0.116 C 
BRANCH  27  28
ATOM     28  N   UNL A   1      42.400  23.811  26.429  1.00  0.00    -0.352 N 
ATOM     29  C   UNL A   1      42.147  25.127  26.130  1.00  0.00     0.251 C 
ATOM     30  H   UNL A   1      42.670  23.250  25.667  1.00  0.00     0.163 HD
ATOM     31  O   UNL A   1      42.132  25.491  24.961  1.00  0.00    -0.269 OA
BRANCH  29  32
ATOM     32  C   UNL A   1      41.865  26.091  27.216  1.00  0.00     0.039 A 
ATOM     33  C   UNL A   1      40.768  25.854  28.047  1.00  0.00     0.014 A 
ATOM     34  C   UNL A   1      42.662  27.224  27.415  1.00  0.00     0.014 A 
ATOM     35  C   UNL A   1      40.499  26.722  29.105  1.00  0.00     0.010 A 
ATOM     36  C   UNL A   1      42.439  28.045  28.518  1.00  0.00     0.010 A 
ATOM     37  C   UNL A   1      41.350  27.808  29.370  1.00  0.00    -0.014 A 
BRANCH  37  38
ATOM     38  C   UNL A   1      41.107  28.697  30.536  1.00  0.00     0.031 A 
ATOM     39  C   UNL A   1      41.935  28.559  31.786  1.00  0.00     0.074 A 
ATOM     40  C   UNL A   1      40.114  29.608  30.477  1.00  0.00     0.049 A 
ATOM     41  N   UNL A   1      41.858  29.237  32.902  1.00  0.00    -0.248 NA
ATOM     42  C   UNL A   1      42.965  27.508  31.793  1.00  0.00     0.031 C 
ATOM     43  C   UNL A   1      39.210  29.799  29.340  1.00  0.00     0.029 A 
ATOM     44  N   UNL A   1      39.697  30.542  31.391  1.00  0.00    -0.354 N 
ATOM     45  C   UNL A   1      42.822  28.691  33.744  1.00  0.00     0.074 A 
ATOM     46  C   UNL A   1      43.430  27.589  33.031  1.00  0.00     0.031 C 
ATOM     47  C   UNL A   1      38.365  30.806  29.613  1.00  0.00     0.029 A 
ATOM     48  C   UNL A   1      38.639  31.307  30.956  1.00  0.00     0.049 A 
ATOM     49  H   UNL A   1      40.114  30.654  32.276  1.00  0.00     0.167 HD
ATOM     50  C   UNL A   1      43.183  29.089  34.988  1.00  0.00     0.037 A 
ATOM     51  C   UNL A   1      37.962  32.297  31.572  1.00  0.00     0.037 A 
ATOM     52  C   UNL A   1      42.585  30.201  35.682  1.00  0.00     0.049 A 
ATOM     53  C   UNL A   1      38.384  32.719  32.953  1.00  0.00     0.074 A 
ATOM     54  C   UNL A   1      42.920  30.722  36.920  1.00  0.00     0.029 A 
ATOM     55  N   UNL A   1      41.526  30.959  35.204  1.00  0.00    -0.354 N 
ATOM     56  N   UNL A   1      39.347  32.241  33.704  1.00  0.00    -0.248 NA
ATOM     57  C   UNL A   1      37.634  33.822  33.568  1.00  0.00     0.031 C 
ATOM     58  C   UNL A   1      42.029  31.758  37.215  1.00  0.00     0.029 A 
ATOM     59  C   UNL A   1      41.178  31.926  36.135  1.00  0.00     0.049 A 
ATOM     60  H   UNL A   1      41.087  30.830  34.333  1.00  0.00     0.167 HD
ATOM     61  C   UNL A   1      39.337  33.002  34.868  1.00  0.00     0.074 A 
ATOM     62  C   UNL A   1      38.283  33.984  34.712  1.00  0.00     0.031 C 
ATOM     63  C   UNL A   1      40.127  32.899  35.966  1.00  0.00     0.037 A 
BRANCH  50  64
ATOM     64  C   UNL A   1      44.277  28.321  35.682  1.00  0.00     0.058 A 
ATOM     65  C   UNL A   1      43.999  27.231  36.521  1.00  0.00     0.135 A 
ATOM     66  C   UNL A   1      45.625  28.649  35.464  1.00  0.00     0.135 A 
ATOM     67  F   UNL A   1      42.728  26.882  36.779  1.00  0.00    -0.206 F 
ATOM     68  C   UNL A   1      45.015  26.507  37.138  1.00  0.00     0.059 A 
ATOM     69  C   UNL A   1      46.660  27.920  36.045  1.00  0.00     0.059 A 
ATOM     70  F   UNL A   1      45.951  29.684  34.672  1.00  0.00    -0.206 F 
ATOM     71  C   UNL A   1      46.343  26.858  36.890  1.00  0.00     0.060 A 
BRANCH  71  72
ATOM     72  S   UNL A   1      47.649  25.897  37.684  1.00  0.00     0.124 S 
ATOM     73  O   UNL A   1      47.714  24.723  36.820  1.00  0.00    -0.237 OA
ATOM     74  O   UNL A   1      48.790  26.803  37.610  1.00  0.00    -0.237 OA
ATOM     75  O   UNL A   1      47.128  25.658  39.027  1.00  0.00    -0.744 OA
ENDBRANCH  71  72
ENDBRANCH  50  64
BRANCH  51  76
ATOM     76  C   UNL A   1      36.828  32.965  30.879  1.00  0.00     0.058 A 
ATOM     77  C   UNL A   1      37.048  33.863  29.824  1.00  0.00     0.135 A 
ATOM     78  C   UNL A   1      35.499  32.718  31.257  1.00  0.00     0.135 A 
ATOM     79  F   UNL A   1      38.300  34.138  29.426  1.00  0.00    -0.206 F 
ATOM     80  C   UNL A   1      35.995  34.510  29.184  1.00  0.00     0.059 A 
ATOM     81  C   UNL A   1      34.428  33.327  30.612  1.00  0.00     0.059 A 
ATOM     82  F   UNL A   1      35.231  31.854  32.249  1.00  0.00    -0.206 F 
ATOM     83  C   UNL A   1      34.686  34.233  29.584  1.00  0.00     0.060 A 
BRANCH  83  84
ATOM     84  S   UNL A   1      33.325  35.047  28.722  1.00  0.00     0.124 S 
ATOM     85  O   UNL A   1      34.032  36.064  27.952  1.00  0.00    -0.237 OA
ATOM     86  O   UNL A   1      32.750  33.947  27.954  1.00  0.00    -0.237 OA
ATOM     87  O   UNL A   1      32.490  35.546  29.810  1.00  0.00    -0.744 OA
ENDBRANCH  83  84
ENDBRANCH  51  76
BRANCH  63  88
ATOM     88  C   UNL A   1      39.908  33.895  37.072  1.00  0.00     0.058 A 
ATOM     89  C   UNL A   1      40.430  35.197  37.013  1.00  0.00     0.135 A 
ATOM     90  C   UNL A   1      39.131  33.553  38.192  1.00  0.00     0.135 A 
ATOM     91  F   UNL A   1      41.184  35.576  35.968  1.00  0.00    -0.206 F 
ATOM     92  C   UNL A   1      40.220  36.112  38.038  1.00  0.00     0.059 A 
ATOM     93  C   UNL A   1      38.880  34.463  39.213  1.00  0.00     0.059 A 
ATOM     94  F   UNL A   1      38.596  32.326  38.294  1.00  0.00    -0.206 F 
ATOM     95  C   UNL A   1      39.442  35.735  39.135  1.00  0.00     0.060 A 
BRANCH  95  96
ATOM     96  S   UNL A   1      39.162  36.939  40.451  1.00  0.00     0.124 S 
ATOM     97  O   UNL A   1      38.504  38.020  39.725  1.00  0.00    -0.237 OA
ATOM     98  O   UNL A   1      38.319  36.194  41.381  1.00  0.00    -0.237 OA
ATOM     99  O   UNL A   1      40.508  37.235  40.933  1.00  0.00    -0.744 OA
ENDBRANCH  95  96
ENDBRANCH  63  88
ENDBRANCH  37  38
ENDBRANCH  29  32
ENDBRANCH  27  28
ENDBRANCH  26  27
ENDBRANCH   1  26
TORSDOF 20
ENDMDL
