MODEL 1
REMARK VINA RESULT:     -12.3      0.000      0.000
REMARK SMILES C[C@H](NC(=O)c1cccc(NC(=O)c2ccccc2C(=O)NCCCCCCNC(=O)c2ccc(-c3c4nc(c(-c5c(F)cc(S(=O)(=O)[O-])cc5F)c5ccc([nH]5)c(-c5c(F)cc(S(=O)(=O)[O-])cc5F)c5nc(c(-c6c(F)cc(S(=O)(=O)[O-])cc6F)c6ccc3[nH]6)C=C5)C=C4)cc2)c1)c1ccccc1
REMARK SMILES IDX 24 1 23 2 22 3 20 4 21 5 19 7 14 8 15 9 16 10 18 11 17 12
REMARK SMILES IDX 12 13 11 14 13 16 10 17 6 18 7 19 98 20 8 21 9 22 4 23 3 24
REMARK SMILES IDX 5 26 2 27 1 28 99 29 100 30 104 31 101 32 103 33 102 34
REMARK SMILES IDX 25 35 26 36 27 37 28 38 29 39 30 40 31 42 32 43 33 44 97 45
REMARK SMILES IDX 34 46 96 47 35 48 36 49 37 50 90 51 38 52 95 53 89 54 91 55
REMARK SMILES IDX 39 56 94 57 88 58 87 59 40 61 74 62 53 63 73 64 54 65 57 66
REMARK SMILES IDX 72 67 92 68 55 69 56 70 71 72 93 73 58 74 41 75 42 76 51 77
REMARK SMILES IDX 43 78 44 79 50 80 52 81 45 82 46 83 47 84 48 85 49 86 75 87
REMARK SMILES IDX 76 88 85 89 77 90 78 91 84 92 86 93 79 94 80 95 81 96 82 97
REMARK SMILES IDX 83 98 59 99 60 100 69 101 61 102 62 103 68 104 70 105 63 106
REMARK SMILES IDX 64 107 65 108 66 109 67 110
REMARK H PARENT 22 6 11 15 3 25 29 41 91 60 57 71
REMARK Flexibility Score: inf
ROOT
ATOM      1  C   UNL A   1      37.637  22.820  25.063  1.00  0.00     0.021 C 
ENDROOT
BRANCH   1   2
ATOM      2  C   UNL A   1      36.963  22.188  23.849  1.00  0.00     0.116 C 
BRANCH   2   3
ATOM      3  N   UNL A   1      36.077  23.075  23.126  1.00  0.00    -0.352 N 
ATOM      4  C   UNL A   1      34.708  23.143  23.126  1.00  0.00     0.252 C 
ATOM      5  O   UNL A   1      34.175  23.981  22.395  1.00  0.00    -0.269 OA
ATOM      6  H   UNL A   1      36.528  23.729  22.544  1.00  0.00     0.163 HD
BRANCH   4   7
ATOM      7  C   UNL A   1      33.837  22.200  23.883  1.00  0.00     0.052 A 
ATOM      8  C   UNL A   1      33.573  22.205  25.263  1.00  0.00     0.052 A 
ATOM      9  C   UNL A   1      32.784  21.182  25.827  1.00  0.00     0.014 A 
ATOM     10  C   UNL A   1      32.155  20.233  25.025  1.00  0.00     0.001 A 
ATOM     11  C   UNL A   1      33.151  21.259  23.084  1.00  0.00     0.014 A 
ATOM     12  C   UNL A   1      32.308  20.295  23.647  1.00  0.00     0.001 A 
BRANCH   8  13
ATOM     13  C   UNL A   1      34.030  23.211  26.240  1.00  0.00     0.256 C 
ATOM     14  N   UNL A   1      33.437  24.441  26.420  1.00  0.00    -0.322 N 
ATOM     15  H   UNL A   1      33.898  25.013  27.074  1.00  0.00     0.170 HD
ATOM     16  O   UNL A   1      35.030  22.929  26.905  1.00  0.00    -0.269 OA
BRANCH  14  17
ATOM     17  C   UNL A   1      32.299  25.037  25.851  1.00  0.00     0.042 A 
ATOM     18  C   UNL A   1      31.317  26.046  23.875  1.00  0.00     0.041 A 
ATOM     19  C   UNL A   1      30.049  25.936  24.446  1.00  0.00     0.014 A 
ATOM     20  C   UNL A   1      32.450  25.655  24.601  1.00  0.00     0.040 A 
ATOM     21  C   UNL A   1      29.914  25.447  25.741  1.00  0.00     0.003 A 
ATOM     22  C   UNL A   1      31.039  25.020  26.447  1.00  0.00     0.026 A 
BRANCH  18  23
ATOM     23  C   UNL A   1      31.404  26.739  22.578  1.00  0.00     0.251 C 
ATOM     24  N   UNL A   1      31.436  28.098  22.436  1.00  0.00    -0.346 N 
ATOM     25  H   UNL A   1      31.586  28.365  21.500  1.00  0.00     0.164 HD
ATOM     26  O   UNL A   1      31.502  26.038  21.571  1.00  0.00    -0.269 OA
BRANCH  24  27
ATOM     27  C   UNL A   1      31.303  29.253  23.315  1.00  0.00     0.109 C 
ATOM     28  C   UNL A   1      29.908  29.791  23.511  1.00  0.00     0.036 C 
BRANCH  27  29
ATOM     29  C   UNL A   1      32.084  29.148  24.613  1.00  0.00    -0.026 A 
ATOM     30  C   UNL A   1      33.481  28.996  24.643  1.00  0.00     0.006 A 
ATOM     31  C   UNL A   1      31.380  29.061  25.825  1.00  0.00     0.006 A 
ATOM     32  C   UNL A   1      34.141  28.697  25.838  1.00  0.00     0.000 A 
ATOM     33  C   UNL A   1      32.043  28.774  27.021  1.00  0.00     0.000 A 
ATOM     34  C   UNL A   1      33.421  28.578  27.023  1.00  0.00     0.000 A 
ENDBRANCH  27  29
ENDBRANCH  24  27
ENDBRANCH  18  23
ENDBRANCH  14  17
ENDBRANCH   8  13
ENDBRANCH   4   7
ENDBRANCH   2   3
ENDBRANCH   1   2
BRANCH   1  35
ATOM     35  C   UNL A   1      38.614  21.917  25.821  1.00  0.00     0.002 C 
BRANCH  35  36
ATOM     36  C   UNL A   1      39.445  22.596  26.913  1.00  0.00     0.002 C 
BRANCH  36  37
ATOM     37  C   UNL A   1      40.758  21.955  27.320  1.00  0.00     0.021 C 
BRANCH  37  38
ATOM     38  C   UNL A   1      41.944  22.895  27.348  1.00  0.00     0.116 C 
BRANCH  38  39
ATOM     39  N   UNL A   1      42.028  23.753  26.176  1.00  0.00    -0.352 N 
ATOM     40  C   UNL A   1      41.922  25.123  26.086  1.00  0.00     0.251 C 
ATOM     41  H   UNL A   1      42.182  23.285  25.323  1.00  0.00     0.163 HD
ATOM     42  O   UNL A   1      41.902  25.667  24.994  1.00  0.00    -0.269 OA
BRANCH  40  43
ATOM     43  C   UNL A   1      41.793  25.917  27.329  1.00  0.00     0.039 A 
ATOM     44  C   UNL A   1      42.804  26.820  27.663  1.00  0.00     0.014 A 
ATOM     45  C   UNL A   1      40.655  25.806  28.129  1.00  0.00     0.014 A 
ATOM     46  C   UNL A   1      42.634  27.664  28.762  1.00  0.00     0.010 A 
ATOM     47  C   UNL A   1      40.436  26.725  29.146  1.00  0.00     0.010 A 
ATOM     48  C   UNL A   1      41.430  27.653  29.486  1.00  0.00    -0.014 A 
BRANCH  48  49
ATOM     49  C   UNL A   1      41.195  28.583  30.618  1.00  0.00     0.031 A 
ATOM     50  C   UNL A   1      42.023  28.456  31.870  1.00  0.00     0.074 A 
ATOM     51  C   UNL A   1      40.196  29.485  30.549  1.00  0.00     0.049 A 
ATOM     52  N   UNL A   1      41.927  29.118  32.994  1.00  0.00    -0.248 NA
ATOM     53  C   UNL A   1      43.074  27.424  31.873  1.00  0.00     0.031 C 
ATOM     54  C   UNL A   1      39.282  29.653  29.414  1.00  0.00     0.029 A 
ATOM     55  N   UNL A   1      39.771  30.423  31.454  1.00  0.00    -0.354 N 
ATOM     56  C   UNL A   1      42.885  28.568  33.838  1.00  0.00     0.074 A 
ATOM     57  C   UNL A   1      43.507  27.477  33.123  1.00  0.00     0.031 C 
ATOM     58  C   UNL A   1      38.428  30.655  29.681  1.00  0.00     0.029 A 
ATOM     59  C   UNL A   1      38.703  31.172  31.017  1.00  0.00     0.049 A 
ATOM     60  H   UNL A   1      40.194  30.551  32.335  1.00  0.00     0.167 HD
ATOM     61  C   UNL A   1      43.237  28.958  35.085  1.00  0.00     0.037 A 
ATOM     62  C   UNL A   1      38.019  32.158  31.630  1.00  0.00     0.037 A 
ATOM     63  C   UNL A   1      42.638  30.071  35.772  1.00  0.00     0.049 A 
ATOM     64  C   UNL A   1      38.443  32.588  33.009  1.00  0.00     0.074 A 
ATOM     65  C   UNL A   1      42.970  30.599  37.007  1.00  0.00     0.029 A 
ATOM     66  N   UNL A   1      41.583  30.828  35.282  1.00  0.00    -0.354 N 
ATOM     67  N   UNL A   1      39.405  32.109  33.762  1.00  0.00    -0.248 NA
ATOM     68  C   UNL A   1      37.696  33.696  33.618  1.00  0.00     0.031 C 
ATOM     69  C   UNL A   1      42.082  31.643  37.286  1.00  0.00     0.029 A 
ATOM     70  C   UNL A   1      41.236  31.805  36.201  1.00  0.00     0.049 A 
ATOM     71  H   UNL A   1      41.147  30.691  34.411  1.00  0.00     0.167 HD
ATOM     72  C   UNL A   1      39.398  32.877  34.921  1.00  0.00     0.074 A 
ATOM     73  C   UNL A   1      38.345  33.860  34.762  1.00  0.00     0.031 C 
ATOM     74  C   UNL A   1      40.189  32.780  36.018  1.00  0.00     0.037 A 
BRANCH  61  75
ATOM     75  C   UNL A   1      44.322  28.182  35.782  1.00  0.00     0.058 A 
ATOM     76  C   UNL A   1      44.031  27.093  36.619  1.00  0.00     0.135 A 
ATOM     77  C   UNL A   1      45.672  28.511  35.584  1.00  0.00     0.135 A 
ATOM     78  F   UNL A   1      42.757  26.744  36.860  1.00  0.00    -0.206 F 
ATOM     79  C   UNL A   1      45.038  26.375  37.257  1.00  0.00     0.059 A 
ATOM     80  C   UNL A   1      46.698  27.788  36.187  1.00  0.00     0.059 A 
ATOM     81  F   UNL A   1      46.008  29.545  34.797  1.00  0.00    -0.206 F 
ATOM     82  C   UNL A   1      46.369  26.730  37.033  1.00  0.00     0.060 A 
BRANCH  82  83
ATOM     83  S   UNL A   1      47.663  25.779  37.857  1.00  0.00     0.124 S 
ATOM     84  O   UNL A   1      48.867  26.340  37.252  1.00  0.00    -0.237 OA
ATOM     85  O   UNL A   1      47.447  26.112  39.262  1.00  0.00    -0.237 OA
ATOM     86  O   UNL A   1      47.360  24.400  37.489  1.00  0.00    -0.744 OA
ENDBRANCH  82  83
ENDBRANCH  61  75
BRANCH  62  87
ATOM     87  C   UNL A   1      36.883  32.821  30.935  1.00  0.00     0.058 A 
ATOM     88  C   UNL A   1      37.105  33.769  29.924  1.00  0.00     0.135 A 
ATOM     89  C   UNL A   1      35.551  32.516  31.260  1.00  0.00     0.135 A 
ATOM     90  F   UNL A   1      38.359  34.099  29.579  1.00  0.00    -0.206 F 
ATOM     91  C   UNL A   1      36.053  34.408  29.277  1.00  0.00     0.059 A 
ATOM     92  C   UNL A   1      34.481  33.119  30.606  1.00  0.00     0.059 A 
ATOM     93  F   UNL A   1      35.282  31.602  32.205  1.00  0.00    -0.206 F 
ATOM     94  C   UNL A   1      34.742  34.074  29.625  1.00  0.00     0.060 A 
BRANCH  94  95
ATOM     95  S   UNL A   1      33.383  34.881  28.750  1.00  0.00     0.124 S 
ATOM     96  O   UNL A   1      32.441  35.129  29.836  1.00  0.00    -0.237 OA
ATOM     97  O   UNL A   1      34.036  36.059  28.189  1.00  0.00    -0.237 OA
ATOM     98  O   UNL A   1      32.971  33.876  27.773  1.00  0.00    -0.744 OA
ENDBRANCH  94  95
ENDBRANCH  62  87
BRANCH  74  99
ATOM     99  C   UNL A   1      39.976  33.784  37.117  1.00  0.00     0.058 A 
ATOM    100  C   UNL A   1      40.627  35.027  37.119  1.00  0.00     0.135 A 
ATOM    101  C   UNL A   1      39.067  33.518  38.154  1.00  0.00     0.135 A 
ATOM    102  F   UNL A   1      41.509  35.331  36.153  1.00  0.00    -0.206 F 
ATOM    103  C   UNL A   1      40.407  35.960  38.128  1.00  0.00     0.059 A 
ATOM    104  C   UNL A   1      38.807  34.447  39.154  1.00  0.00     0.059 A 
ATOM    105  F   UNL A   1      38.407  32.349  38.191  1.00  0.00    -0.206 F 
ATOM    106  C   UNL A   1      39.493  35.661  39.140  1.00  0.00     0.060 A 
BRANCH 106 107
ATOM    107  S   UNL A   1      39.194  36.891  40.426  1.00  0.00     0.124 S 
ATOM    108  O   UNL A   1      38.354  36.145  41.357  1.00  0.00    -0.237 OA
ATOM    109  O   UNL A   1      40.545  37.191  40.890  1.00  0.00    -0.237 OA
ATOM    110  O   UNL A   1      38.527  37.976  39.711  1.00  0.00    -0.744 OA
ENDBRANCH 106 107
ENDBRANCH  74  99
ENDBRANCH  48  49
ENDBRANCH  40  43
ENDBRANCH  38  39
ENDBRANCH  37  38
ENDBRANCH  36  37
ENDBRANCH  35  36
ENDBRANCH   1  35
TORSDOF 21
ENDMDL
MODEL 2
REMARK VINA RESULT:     -11.6      4.977     12.874
REMARK SMILES C[C@H](NC(=O)c1cccc(NC(=O)c2ccccc2C(=O)NCCCCCCNC(=O)c2ccc(-c3c4nc(c(-c5c(F)cc(S(=O)(=O)[O-])cc5F)c5ccc([nH]5)c(-c5c(F)cc(S(=O)(=O)[O-])cc5F)c5nc(c(-c6c(F)cc(S(=O)(=O)[O-])cc6F)c6ccc3[nH]6)C=C5)C=C4)cc2)c1)c1ccccc1
REMARK SMILES IDX 24 1 23 2 22 3 20 4 21 5 19 7 14 8 15 9 16 10 18 11 17 12
REMARK SMILES IDX 12 13 11 14 13 16 10 17 6 18 7 19 98 20 8 21 9 22 4 23 3 24
REMARK SMILES IDX 5 26 2 27 1 28 99 29 100 30 104 31 101 32 103 33 102 34
REMARK SMILES IDX 25 35 26 36 27 37 28 38 29 39 30 40 31 42 32 43 33 44 97 45
REMARK SMILES IDX 34 46 96 47 35 48 36 49 37 50 90 51 38 52 95 53 89 54 91 55
REMARK SMILES IDX 39 56 94 57 88 58 87 59 40 61 74 62 53 63 73 64 54 65 57 66
REMARK SMILES IDX 72 67 92 68 55 69 56 70 71 72 93 73 58 74 41 75 42 76 51 77
REMARK SMILES IDX 43 78 44 79 50 80 52 81 45 82 46 83 47 84 48 85 49 86 75 87
REMARK SMILES IDX 76 88 85 89 77 90 78 91 84 92 86 93 79 94 80 95 81 96 82 97
REMARK SMILES IDX 83 98 59 99 60 100 69 101 61 102 62 103 68 104 70 105 63 106
REMARK SMILES IDX 64 107 65 108 66 109 67 110
REMARK H PARENT 22 6 11 15 3 25 29 41 91 60 57 71
REMARK Flexibility Score: inf
ROOT
ATOM      1  C   UNL A   1      36.302  31.370  32.802  1.00  0.00     0.021 C 
ENDROOT
BRANCH   1   2
ATOM      2  C   UNL A   1      37.701  31.010  33.292  1.00  0.00     0.116 C 
BRANCH   2   3
ATOM      3  N   UNL A   1      37.786  30.727  34.708  1.00  0.00    -0.352 N 
ATOM      4  C   UNL A   1      38.372  31.448  35.716  1.00  0.00     0.252 C 
ATOM      5  O   UNL A   1      38.333  30.978  36.856  1.00  0.00    -0.269 OA
ATOM      6  H   UNL A   1      37.358  29.886  34.990  1.00  0.00     0.163 HD
BRANCH   4   7
ATOM      7  C   UNL A   1      39.130  32.712  35.491  1.00  0.00     0.052 A 
ATOM      8  C   UNL A   1      40.138  33.256  36.304  1.00  0.00     0.052 A 
ATOM      9  C   UNL A   1      40.694  34.511  35.980  1.00  0.00     0.014 A 
ATOM     10  C   UNL A   1      40.353  35.166  34.799  1.00  0.00     0.001 A 
ATOM     11  C   UNL A   1      38.835  33.369  34.276  1.00  0.00     0.014 A 
ATOM     12  C   UNL A   1      39.449  34.575  33.926  1.00  0.00     0.001 A 
BRANCH   8  13
ATOM     13  C   UNL A   1      40.727  32.637  37.505  1.00  0.00     0.256 C 
ATOM     14  N   UNL A   1      41.567  31.546  37.481  1.00  0.00    -0.322 N 
ATOM     15  H   UNL A   1      41.828  31.226  38.374  1.00  0.00     0.170 HD
ATOM     16  O   UNL A   1      40.409  33.120  38.595  1.00  0.00    -0.269 OA
BRANCH  14  17
ATOM     17  C   UNL A   1      42.123  30.801  36.428  1.00  0.00     0.042 A 
ATOM     18  C   UNL A   1      41.738  29.149  34.692  1.00  0.00     0.041 A 
ATOM     19  C   UNL A   1      42.957  29.485  34.101  1.00  0.00     0.014 A 
ATOM     20  C   UNL A   1      41.349  29.762  35.891  1.00  0.00     0.040 A 
ATOM     21  C   UNL A   1      43.787  30.421  34.708  1.00  0.00     0.003 A 
ATOM     22  C   UNL A   1      43.379  31.060  35.880  1.00  0.00     0.026 A 
BRANCH  18  23
ATOM     23  C   UNL A   1      40.998  28.024  34.097  1.00  0.00     0.251 C 
ATOM     24  N   UNL A   1      41.164  26.718  34.463  1.00  0.00    -0.346 N 
ATOM     25  H   UNL A   1      40.515  26.127  34.016  1.00  0.00     0.164 HD
ATOM     26  O   UNL A   1      40.145  28.297  33.252  1.00  0.00    -0.269 OA
BRANCH  24  27
ATOM     27  C   UNL A   1      42.054  25.976  35.346  1.00  0.00     0.109 C 
ATOM     28  C   UNL A   1      41.418  25.322  36.547  1.00  0.00     0.036 C 
BRANCH  27  29
ATOM     29  C   UNL A   1      43.036  25.067  34.629  1.00  0.00    -0.026 A 
ATOM     30  C   UNL A   1      44.003  25.557  33.732  1.00  0.00     0.006 A 
ATOM     31  C   UNL A   1      42.890  23.675  34.753  1.00  0.00     0.006 A 
ATOM     32  C   UNL A   1      44.748  24.682  32.938  1.00  0.00     0.000 A 
ATOM     33  C   UNL A   1      43.645  22.802  33.967  1.00  0.00     0.000 A 
ATOM     34  C   UNL A   1      44.562  23.306  33.050  1.00  0.00     0.000 A 
ENDBRANCH  27  29
ENDBRANCH  24  27
ENDBRANCH  18  23
ENDBRANCH  14  17
ENDBRANCH   8  13
ENDBRANCH   4   7
ENDBRANCH   2   3
ENDBRANCH   1   2
BRANCH   1  35
ATOM     35  C   UNL A   1      36.239  32.446  31.715  1.00  0.00     0.002 C 
BRANCH  35  36
ATOM     36  C   UNL A   1      34.866  32.675  31.076  1.00  0.00     0.002 C 
BRANCH  36  37
ATOM     37  C   UNL A   1      34.769  33.631  29.903  1.00  0.00     0.021 C 
BRANCH  37  38
ATOM     38  C   UNL A   1      35.071  33.017  28.553  1.00  0.00     0.116 C 
BRANCH  38  39
ATOM     39  N   UNL A   1      34.149  31.952  28.186  1.00  0.00    -0.352 N 
ATOM     40  C   UNL A   1      34.397  30.615  27.972  1.00  0.00     0.251 C 
ATOM     41  H   UNL A   1      33.211  32.230  28.073  1.00  0.00     0.163 HD
ATOM     42  O   UNL A   1      33.514  29.884  27.554  1.00  0.00    -0.269 OA
BRANCH  40  43
ATOM     43  C   UNL A   1      35.759  30.089  28.219  1.00  0.00     0.039 A 
ATOM     44  C   UNL A   1      36.698  30.130  27.187  1.00  0.00     0.014 A 
ATOM     45  C   UNL A   1      36.117  29.605  29.478  1.00  0.00     0.014 A 
ATOM     46  C   UNL A   1      38.018  29.756  27.446  1.00  0.00     0.010 A 
ATOM     47  C   UNL A   1      37.451  29.349  29.764  1.00  0.00     0.010 A 
ATOM     48  C   UNL A   1      38.414  29.404  28.747  1.00  0.00    -0.014 A 
BRANCH  48  49
ATOM     49  C   UNL A   1      39.823  29.063  29.066  1.00  0.00     0.031 A 
ATOM     50  C   UNL A   1      40.721  30.107  29.677  1.00  0.00     0.074 A 
ATOM     51  C   UNL A   1      40.309  27.850  28.741  1.00  0.00     0.049 A 
ATOM     52  N   UNL A   1      41.995  30.035  29.963  1.00  0.00    -0.248 NA
ATOM     53  C   UNL A   1      40.116  31.417  29.974  1.00  0.00     0.031 C 
ATOM     54  C   UNL A   1      39.552  26.781  28.082  1.00  0.00     0.029 A 
ATOM     55  N   UNL A   1      41.559  27.311  28.909  1.00  0.00    -0.354 N 
ATOM     56  C   UNL A   1      42.344  31.290  30.447  1.00  0.00     0.074 A 
ATOM     57  C   UNL A   1      41.168  32.124  30.358  1.00  0.00     0.031 C 
ATOM     58  C   UNL A   1      40.345  25.707  27.931  1.00  0.00     0.029 A 
ATOM     59  C   UNL A   1      41.674  26.022  28.442  1.00  0.00     0.049 A 
ATOM     60  H   UNL A   1      42.304  27.800  29.327  1.00  0.00     0.167 HD
ATOM     61  C   UNL A   1      43.531  31.702  30.952  1.00  0.00     0.037 A 
ATOM     62  C   UNL A   1      42.736  25.192  28.423  1.00  0.00     0.037 A 
ATOM     63  C   UNL A   1      44.685  30.851  31.074  1.00  0.00     0.049 A 
ATOM     64  C   UNL A   1      44.039  25.665  29.008  1.00  0.00     0.074 A 
ATOM     65  C   UNL A   1      45.913  31.143  31.638  1.00  0.00     0.029 A 
ATOM     66  N   UNL A   1      44.752  29.540  30.623  1.00  0.00    -0.354 N 
ATOM     67  N   UNL A   1      44.331  26.831  29.536  1.00  0.00    -0.248 NA
ATOM     68  C   UNL A   1      45.155  24.710  29.005  1.00  0.00     0.031 C 
ATOM     69  C   UNL A   1      46.740  30.026  31.483  1.00  0.00     0.029 A 
ATOM     70  C   UNL A   1      46.009  29.017  30.876  1.00  0.00     0.049 A 
ATOM     71  H   UNL A   1      44.015  29.054  30.188  1.00  0.00     0.167 HD
ATOM     72  C   UNL A   1      45.653  26.739  29.954  1.00  0.00     0.074 A 
ATOM     73  C   UNL A   1      46.100  25.399  29.630  1.00  0.00     0.031 C 
ATOM     74  C   UNL A   1      46.430  27.676  30.552  1.00  0.00     0.037 A 
BRANCH  61  75
ATOM     75  C   UNL A   1      43.638  33.129  31.416  1.00  0.00     0.058 A 
ATOM     76  C   UNL A   1      44.305  34.105  30.659  1.00  0.00     0.135 A 
ATOM     77  C   UNL A   1      43.037  33.534  32.619  1.00  0.00     0.135 A 
ATOM     78  F   UNL A   1      44.915  33.772  29.509  1.00  0.00    -0.206 F 
ATOM     79  C   UNL A   1      44.397  35.425  31.090  1.00  0.00     0.059 A 
ATOM     80  C   UNL A   1      43.089  34.855  33.055  1.00  0.00     0.059 A 
ATOM     81  F   UNL A   1      42.389  32.642  33.385  1.00  0.00    -0.206 F 
ATOM     82  C   UNL A   1      43.783  35.790  32.289  1.00  0.00     0.060 A 
BRANCH  82  83
ATOM     83  S   UNL A   1      43.900  37.510  32.826  1.00  0.00     0.124 S 
ATOM     84  O   UNL A   1      45.195  37.518  33.498  1.00  0.00    -0.237 OA
ATOM     85  O   UNL A   1      43.838  38.235  31.562  1.00  0.00    -0.237 OA
ATOM     86  O   UNL A   1      42.741  37.674  33.697  1.00  0.00    -0.744 OA
ENDBRANCH  82  83
ENDBRANCH  61  75
BRANCH  62  87
ATOM     87  C   UNL A   1      42.603  23.824  27.852  1.00  0.00     0.058 A 
ATOM     88  C   UNL A   1      42.634  23.612  26.465  1.00  0.00     0.135 A 
ATOM     89  C   UNL A   1      42.450  22.700  28.680  1.00  0.00     0.135 A 
ATOM     90  F   UNL A   1      42.773  24.653  25.631  1.00  0.00    -0.206 F 
ATOM     91  C   UNL A   1      42.494  22.341  25.917  1.00  0.00     0.059 A 
ATOM     92  C   UNL A   1      42.338  21.415  28.157  1.00  0.00     0.059 A 
ATOM     93  F   UNL A   1      42.434  22.845  30.014  1.00  0.00    -0.206 F 
ATOM     94  C   UNL A   1      42.349  21.247  26.773  1.00  0.00     0.060 A 
BRANCH  94  95
ATOM     95  S   UNL A   1      42.208  19.596  26.052  1.00  0.00     0.124 S 
ATOM     96  O   UNL A   1      40.786  19.534  25.736  1.00  0.00    -0.237 OA
ATOM     97  O   UNL A   1      43.113  19.683  24.910  1.00  0.00    -0.237 OA
ATOM     98  O   UNL A   1      42.655  18.721  27.132  1.00  0.00    -0.744 OA
ENDBRANCH  94  95
ENDBRANCH  62  87
BRANCH  74  99
ATOM     99  C   UNL A   1      47.829  27.277  30.931  1.00  0.00     0.058 A 
ATOM    100  C   UNL A   1      48.149  26.842  32.227  1.00  0.00     0.135 A 
ATOM    101  C   UNL A   1      48.852  27.280  29.969  1.00  0.00     0.135 A 
ATOM    102  F   UNL A   1      47.209  26.824  33.185  1.00  0.00    -0.206 F 
ATOM    103  C   UNL A   1      49.441  26.452  32.563  1.00  0.00     0.059 A 
ATOM    104  C   UNL A   1      50.143  26.864  30.273  1.00  0.00     0.059 A 
ATOM    105  F   UNL A   1      48.596  27.674  28.711  1.00  0.00    -0.206 F 
ATOM    106  C   UNL A   1      50.431  26.465  31.578  1.00  0.00     0.060 A 
BRANCH 106 107
ATOM    107  S   UNL A   1      52.097  25.929  32.020  1.00  0.00     0.124 S 
ATOM    108  O   UNL A   1      52.418  26.840  33.114  1.00  0.00    -0.237 OA
ATOM    109  O   UNL A   1      51.886  24.535  32.397  1.00  0.00    -0.237 OA
ATOM    110  O   UNL A   1      52.857  26.132  30.790  1.00  0.00    -0.744 OA
ENDBRANCH 106 107
ENDBRANCH  74  99
ENDBRANCH  48  49
ENDBRANCH  40  43
ENDBRANCH  38  39
ENDBRANCH  37  38
ENDBRANCH  36  37
ENDBRANCH  35  36
ENDBRANCH   1  35
TORSDOF 21
ENDMDL
MODEL 3
REMARK VINA RESULT:     -11.5      1.119      8.001
REMARK SMILES C[C@H](NC(=O)c1cccc(NC(=O)c2ccccc2C(=O)NCCCCCCNC(=O)c2ccc(-c3c4nc(c(-c5c(F)cc(S(=O)(=O)[O-])cc5F)c5ccc([nH]5)c(-c5c(F)cc(S(=O)(=O)[O-])cc5F)c5nc(c(-c6c(F)cc(S(=O)(=O)[O-])cc6F)c6ccc3[nH]6)C=C5)C=C4)cc2)c1)c1ccccc1
REMARK SMILES IDX 24 1 23 2 22 3 20 4 21 5 19 7 14 8 15 9 16 10 18 11 17 12
REMARK SMILES IDX 12 13 11 14 13 16 10 17 6 18 7 19 98 20 8 21 9 22 4 23 3 24
REMARK SMILES IDX 5 26 2 27 1 28 99 29 100 30 104 31 101 32 103 33 102 34
REMARK SMILES IDX 25 35 26 36 27 37 28 38 29 39 30 40 31 42 32 43 33 44 97 45
REMARK SMILES IDX 34 46 96 47 35 48 36 49 37 50 90 51 38 52 95 53 89 54 91 55
REMARK SMILES IDX 39 56 94 57 88 58 87 59 40 61 74 62 53 63 73 64 54 65 57 66
REMARK SMILES IDX 72 67 92 68 55 69 56 70 71 72 93 73 58 74 41 75 42 76 51 77
REMARK SMILES IDX 43 78 44 79 50 80 52 81 45 82 46 83 47 84 48 85 49 86 75 87
REMARK SMILES IDX 76 88 85 89 77 90 78 91 84 92 86 93 79 94 80 95 81 96 82 97
REMARK SMILES IDX 83 98 59 99 60 100 69 101 61 102 62 103 68 104 70 105 63 106
REMARK SMILES IDX 64 107 65 108 66 109 67 110
REMARK H PARENT 22 6 11 15 3 25 29 41 91 60 57 71
REMARK Flexibility Score: inf
ROOT
ATOM      1  C   UNL A   1      38.079  21.215  25.283  1.00  0.00     0.021 C 
ENDROOT
BRANCH   1   2
ATOM      2  C   UNL A   1      37.167  21.874  24.253  1.00  0.00     0.116 C 
BRANCH   2   3
ATOM      3  N   UNL A   1      36.677  23.181  24.635  1.00  0.00    -0.352 N 
ATOM      4  C   UNL A   1      35.404  23.688  24.600  1.00  0.00     0.252 C 
ATOM      5  O   UNL A   1      35.242  24.857  24.960  1.00  0.00    -0.269 OA
ATOM      6  H   UNL A   1      37.365  23.800  24.971  1.00  0.00     0.163 HD
BRANCH   4   7
ATOM      7  C   UNL A   1      34.233  22.938  24.064  1.00  0.00     0.052 A 
ATOM      8  C   UNL A   1      33.321  22.152  24.787  1.00  0.00     0.052 A 
ATOM      9  C   UNL A   1      32.313  21.443  24.102  1.00  0.00     0.014 A 
ATOM     10  C   UNL A   1      32.124  21.604  22.732  1.00  0.00     0.001 A 
ATOM     11  C   UNL A   1      33.993  23.126  22.685  1.00  0.00     0.014 A 
ATOM     12  C   UNL A   1      32.943  22.477  22.028  1.00  0.00     0.001 A 
BRANCH   8  13
ATOM     13  C   UNL A   1      33.276  21.983  26.251  1.00  0.00     0.256 C 
ATOM     14  N   UNL A   1      32.543  22.782  27.101  1.00  0.00    -0.322 N 
ATOM     15  H   UNL A   1      32.667  22.567  28.053  1.00  0.00     0.170 HD
ATOM     16  O   UNL A   1      33.973  21.086  26.731  1.00  0.00    -0.269 OA
BRANCH  14  17
ATOM     17  C   UNL A   1      31.653  23.844  26.871  1.00  0.00     0.042 A 
ATOM     18  C   UNL A   1      31.404  26.220  26.447  1.00  0.00     0.041 A 
ATOM     19  C   UNL A   1      30.075  26.016  26.073  1.00  0.00     0.014 A 
ATOM     20  C   UNL A   1      32.176  25.145  26.906  1.00  0.00     0.040 A 
ATOM     21  C   UNL A   1      29.518  24.745  26.168  1.00  0.00     0.003 A 
ATOM     22  C   UNL A   1      30.300  23.668  26.586  1.00  0.00     0.026 A 
BRANCH  18  23
ATOM     23  C   UNL A   1      31.873  27.615  26.496  1.00  0.00     0.251 C 
ATOM     24  N   UNL A   1      31.564  28.561  25.560  1.00  0.00    -0.346 N 
ATOM     25  H   UNL A   1      31.896  29.453  25.816  1.00  0.00     0.164 HD
ATOM     26  O   UNL A   1      32.545  27.948  27.473  1.00  0.00    -0.269 OA
BRANCH  24  27
ATOM     27  C   UNL A   1      30.870  28.589  24.279  1.00  0.00     0.109 C 
ATOM     28  C   UNL A   1      30.321  29.924  23.842  1.00  0.00     0.036 C 
BRANCH  27  29
ATOM     29  C   UNL A   1      31.582  27.848  23.161  1.00  0.00    -0.026 A 
ATOM     30  C   UNL A   1      31.054  26.686  22.570  1.00  0.00     0.006 A 
ATOM     31  C   UNL A   1      32.877  28.250  22.795  1.00  0.00     0.006 A 
ATOM     32  C   UNL A   1      31.826  25.917  21.695  1.00  0.00     0.000 A 
ATOM     33  C   UNL A   1      33.642  27.487  21.910  1.00  0.00     0.000 A 
ATOM     34  C   UNL A   1      33.121  26.313  21.373  1.00  0.00     0.000 A 
ENDBRANCH  27  29
ENDBRANCH  24  27
ENDBRANCH  18  23
ENDBRANCH  14  17
ENDBRANCH   8  13
ENDBRANCH   4   7
ENDBRANCH   2   3
ENDBRANCH   1   2
BRANCH   1  35
ATOM     35  C   UNL A   1      38.903  22.174  26.146  1.00  0.00     0.002 C 
BRANCH  35  36
ATOM     36  C   UNL A   1      40.287  21.674  26.571  1.00  0.00     0.002 C 
BRANCH  36  37
ATOM     37  C   UNL A   1      41.003  22.406  27.689  1.00  0.00     0.021 C 
BRANCH  37  38
ATOM     38  C   UNL A   1      42.191  23.236  27.249  1.00  0.00     0.116 C 
BRANCH  38  39
ATOM     39  N   UNL A   1      41.898  24.109  26.121  1.00  0.00    -0.352 N 
ATOM     40  C   UNL A   1      41.502  25.427  26.115  1.00  0.00     0.251 C 
ATOM     41  H   UNL A   1      41.997  23.694  25.233  1.00  0.00     0.163 HD
ATOM     42  O   UNL A   1      41.187  25.970  25.068  1.00  0.00    -0.269 OA
BRANCH  40  43
ATOM     43  C   UNL A   1      41.427  26.161  27.399  1.00  0.00     0.039 A 
ATOM     44  C   UNL A   1      42.418  27.096  27.702  1.00  0.00     0.014 A 
ATOM     45  C   UNL A   1      40.356  25.961  28.271  1.00  0.00     0.014 A 
ATOM     46  C   UNL A   1      42.289  27.884  28.848  1.00  0.00     0.010 A 
ATOM     47  C   UNL A   1      40.169  26.824  29.341  1.00  0.00     0.010 A 
ATOM     48  C   UNL A   1      41.142  27.784  29.653  1.00  0.00    -0.014 A 
BRANCH  48  49
ATOM     49  C   UNL A   1      40.947  28.652  30.840  1.00  0.00     0.031 A 
ATOM     50  C   UNL A   1      39.868  29.703  30.825  1.00  0.00     0.074 A 
ATOM     51  C   UNL A   1      41.781  28.545  31.893  1.00  0.00     0.049 A 
ATOM     52  N   UNL A   1      39.582  30.607  31.726  1.00  0.00    -0.248 NA
ATOM     53  C   UNL A   1      39.020  29.772  29.622  1.00  0.00     0.031 C 
ATOM     54  C   UNL A   1      42.906  27.611  31.992  1.00  0.00     0.029 A 
ATOM     55  N   UNL A   1      41.821  29.235  33.079  1.00  0.00    -0.354 N 
ATOM     56  C   UNL A   1      38.544  31.360  31.190  1.00  0.00     0.074 A 
ATOM     57  C   UNL A   1      38.292  30.852  29.862  1.00  0.00     0.031 C 
ATOM     58  C   UNL A   1      43.504  27.766  33.185  1.00  0.00     0.029 A 
ATOM     59  C   UNL A   1      42.835  28.835  33.918  1.00  0.00     0.049 A 
ATOM     60  H   UNL A   1      41.182  29.948  33.308  1.00  0.00     0.167 HD
ATOM     61  C   UNL A   1      37.842  32.363  31.766  1.00  0.00     0.037 A 
ATOM     62  C   UNL A   1      43.187  29.287  35.138  1.00  0.00     0.037 A 
ATOM     63  C   UNL A   1      38.076  32.835  33.106  1.00  0.00     0.049 A 
ATOM     64  C   UNL A   1      42.379  30.390  35.766  1.00  0.00     0.074 A 
ATOM     65  C   UNL A   1      37.375  33.794  33.814  1.00  0.00     0.029 A 
ATOM     66  N   UNL A   1      39.089  32.380  33.938  1.00  0.00    -0.354 N 
ATOM     67  N   UNL A   1      41.348  31.037  35.276  1.00  0.00    -0.248 NA
ATOM     68  C   UNL A   1      42.774  30.819  37.114  1.00  0.00     0.031 C 
ATOM     69  C   UNL A   1      37.995  33.956  35.057  1.00  0.00     0.029 A 
ATOM     70  C   UNL A   1      39.046  33.056  35.146  1.00  0.00     0.049 A 
ATOM     71  H   UNL A   1      39.741  31.681  33.705  1.00  0.00     0.167 HD
ATOM     72  C   UNL A   1      40.953  31.929  36.268  1.00  0.00     0.074 A 
ATOM     73  C   UNL A   1      41.848  31.726  37.389  1.00  0.00     0.031 C 
ATOM     74  C   UNL A   1      39.942  32.833  36.253  1.00  0.00     0.037 A 
BRANCH  61  75
ATOM     75  C   UNL A   1      36.753  33.012  30.956  1.00  0.00     0.058 A 
ATOM     76  C   UNL A   1      37.041  33.876  29.887  1.00  0.00     0.135 A 
ATOM     77  C   UNL A   1      35.403  32.739  31.229  1.00  0.00     0.135 A 
ATOM     78  F   UNL A   1      38.314  34.189  29.592  1.00  0.00    -0.206 F 
ATOM     79  C   UNL A   1      36.030  34.470  29.137  1.00  0.00     0.059 A 
ATOM     80  C   UNL A   1      34.376  33.296  30.472  1.00  0.00     0.059 A 
ATOM     81  F   UNL A   1      35.069  31.923  32.240  1.00  0.00    -0.206 F 
ATOM     82  C   UNL A   1      34.701  34.172  29.437  1.00  0.00     0.060 A 
BRANCH  82  83
ATOM     83  S   UNL A   1      33.402  34.939  28.444  1.00  0.00     0.124 S 
ATOM     84  O   UNL A   1      34.163  35.920  27.677  1.00  0.00    -0.237 OA
ATOM     85  O   UNL A   1      32.883  33.807  27.683  1.00  0.00    -0.237 OA
ATOM     86  O   UNL A   1      32.492  35.492  29.442  1.00  0.00    -0.744 OA
ENDBRANCH  82  83
ENDBRANCH  61  75
BRANCH  62  87
ATOM     87  C   UNL A   1      44.343  28.680  35.852  1.00  0.00     0.058 A 
ATOM     88  C   UNL A   1      44.161  27.627  36.762  1.00  0.00     0.135 A 
ATOM     89  C   UNL A   1      45.655  29.134  35.636  1.00  0.00     0.135 A 
ATOM     90  F   UNL A   1      42.927  27.160  37.008  1.00  0.00    -0.206 F 
ATOM     91  C   UNL A   1      45.230  27.061  37.449  1.00  0.00     0.059 A 
ATOM     92  C   UNL A   1      46.744  28.564  36.288  1.00  0.00     0.059 A 
ATOM     93  F   UNL A   1      45.887  30.125  34.761  1.00  0.00    -0.206 F 
ATOM     94  C   UNL A   1      46.520  27.536  37.203  1.00  0.00     0.060 A 
BRANCH  94  95
ATOM     95  S   UNL A   1      47.905  26.767  38.071  1.00  0.00     0.124 S 
ATOM     96  O   UNL A   1      48.892  27.841  38.059  1.00  0.00    -0.237 OA
ATOM     97  O   UNL A   1      47.317  26.454  39.369  1.00  0.00    -0.237 OA
ATOM     98  O   UNL A   1      48.221  25.610  37.237  1.00  0.00    -0.744 OA
ENDBRANCH  94  95
ENDBRANCH  62  87
BRANCH  74  99
ATOM     99  C   UNL A   1      39.723  33.645  37.500  1.00  0.00     0.058 A 
ATOM    100  C   UNL A   1      38.863  33.214  38.521  1.00  0.00     0.135 A 
ATOM    101  C   UNL A   1      40.424  34.846  37.695  1.00  0.00     0.135 A 
ATOM    102  F   UNL A   1      38.165  32.075  38.384  1.00  0.00    -0.206 F 
ATOM    103  C   UNL A   1      38.683  33.961  39.682  1.00  0.00     0.059 A 
ATOM    104  C   UNL A   1      40.285  35.592  38.860  1.00  0.00     0.059 A 
ATOM    105  F   UNL A   1      41.270  35.296  36.755  1.00  0.00    -0.206 F 
ATOM    106  C   UNL A   1      39.401  35.147  39.842  1.00  0.00     0.060 A 
BRANCH 106 107
ATOM    107  S   UNL A   1      39.181  36.092  41.365  1.00  0.00     0.124 S 
ATOM    108  O   UNL A   1      40.411  35.779  42.085  1.00  0.00    -0.237 OA
ATOM    109  O   UNL A   1      39.066  37.460  40.869  1.00  0.00    -0.237 OA
ATOM    110  O   UNL A   1      37.959  35.534  41.938  1.00  0.00    -0.744 OA
ENDBRANCH 106 107
ENDBRANCH  74  99
ENDBRANCH  48  49
ENDBRANCH  40  43
ENDBRANCH  38  39
ENDBRANCH  37  38
ENDBRANCH  36  37
ENDBRANCH  35  36
ENDBRANCH   1  35
TORSDOF 21
ENDMDL
