MODEL 1
REMARK VINA RESULT:     -11.1      0.000      0.000
REMARK SMILES C[N@H+](CC(=O)NCCCCCCNC(=O)c1ccc(-c2c3nc(c(-c4c(F)cc(S(=O)(=O)[O-])cc4F)c4ccc([nH]4)c(-c4c(F)cc(S(=O)(=O)[O-])cc4F)c4nc(c(-c5c(F)cc(S(=O)(=O)[O-])cc5F)c5ccc2[nH]5)C=C4)C=C3)cc1)Cc1csc(-c2ccco2)n1
REMARK SMILES IDX 9 1 8 2 7 3 6 4 4 5 5 6 3 8 2 9 1 10 82 12 83 13 84 14 92 15
REMARK SMILES IDX 85 16 86 17 87 18 88 19 91 20 89 21 90 22 10 23 11 24 12 25
REMARK SMILES IDX 13 26 14 27 15 29 16 30 17 31 81 32 18 33 80 34 19 35 20 36
REMARK SMILES IDX 21 37 74 38 22 39 79 40 73 41 75 42 23 43 78 44 72 45 71 46
REMARK SMILES IDX 24 48 58 49 37 50 57 51 38 52 41 53 56 54 76 55 39 56 40 57
REMARK SMILES IDX 55 59 77 60 42 61 25 62 26 63 35 64 27 65 28 66 34 67 36 68
REMARK SMILES IDX 29 69 30 70 31 71 32 72 33 73 59 74 60 75 69 76 61 77 62 78
REMARK SMILES IDX 68 79 70 80 63 81 64 82 65 83 66 84 67 85 43 86 44 87 53 88
REMARK SMILES IDX 45 89 46 90 52 91 54 92 47 93 48 94 49 95 50 96 51 97
REMARK H PARENT 6 7 2 11 13 28 75 47 41 58
REMARK Flexibility Score: inf
ROOT
ATOM      1  C   UNL A   1      37.667  20.870  24.946  1.00  0.00     0.002 C 
ENDROOT
BRANCH   1   2
ATOM      2  C   UNL A   1      36.172  20.553  25.013  1.00  0.00     0.021 C 
BRANCH   2   3
ATOM      3  C   UNL A   1      35.248  21.769  25.092  1.00  0.00     0.116 C 
BRANCH   3   4
ATOM      4  N   UNL A   1      34.959  22.370  23.804  1.00  0.00    -0.351 N 
ATOM      5  C   UNL A   1      34.173  23.461  23.548  1.00  0.00     0.275 C 
ATOM      6  O   UNL A   1      34.157  23.938  22.411  1.00  0.00    -0.269 OA
ATOM      7  H   UNL A   1      35.378  21.943  23.021  1.00  0.00     0.163 HD
BRANCH   5   8
ATOM      8  C   UNL A   1      33.362  24.095  24.688  1.00  0.00     0.363 C 
BRANCH   8   9
ATOM      9  N   UNL A   1      32.045  24.545  24.203  1.00  0.00    -0.325 N 
ATOM     10  C   UNL A   1      31.093  23.455  24.048  1.00  0.00     0.333 C 
ATOM     11  H   UNL A   1      32.229  24.912  23.270  1.00  0.00     0.348 HD
BRANCH   9  12
ATOM     12  C   UNL A   1      31.477  25.663  24.972  1.00  0.00     0.320 C 
BRANCH  12  13
ATOM     13  C   UNL A   1      31.548  26.937  24.179  1.00  0.00     0.106 A 
ATOM     14  C   UNL A   1      32.692  27.566  23.718  1.00  0.00     0.097 A 
ATOM     15  N   UNL A   1      30.367  27.617  23.886  1.00  0.00    -0.232 NA
ATOM     16  S   UNL A   1      32.281  28.915  22.750  1.00  0.00    -0.119 S 
ATOM     17  C   UNL A   1      30.629  28.654  23.120  1.00  0.00     0.159 A 
BRANCH  17  18
ATOM     18  C   UNL A   1      29.632  29.582  22.685  1.00  0.00     0.162 A 
ATOM     19  C   UNL A   1      28.992  30.550  23.442  1.00  0.00     0.053 A 
ATOM     20  O   UNL A   1      29.194  29.676  21.389  1.00  0.00    -0.462 OA
ATOM     21  C   UNL A   1      28.147  31.274  22.567  1.00  0.00     0.043 A 
ATOM     22  C   UNL A   1      28.291  30.688  21.334  1.00  0.00     0.196 A 
ENDBRANCH  17  18
ENDBRANCH  12  13
ENDBRANCH   9  12
ENDBRANCH   8   9
ENDBRANCH   5   8
ENDBRANCH   3   4
ENDBRANCH   2   3
ENDBRANCH   1   2
BRANCH   1  23
ATOM     23  C   UNL A   1      38.128  22.082  25.760  1.00  0.00     0.002 C 
BRANCH  23  24
ATOM     24  C   UNL A   1      39.470  21.936  26.485  1.00  0.00     0.021 C 
BRANCH  24  25
ATOM     25  C   UNL A   1      40.051  23.224  27.064  1.00  0.00     0.116 C 
BRANCH  25  26
ATOM     26  N   UNL A   1      40.880  23.934  26.105  1.00  0.00    -0.352 N 
ATOM     27  C   UNL A   1      41.318  25.233  26.103  1.00  0.00     0.251 C 
ATOM     28  H   UNL A   1      41.174  23.396  25.336  1.00  0.00     0.163 HD
ATOM     29  O   UNL A   1      41.858  25.684  25.095  1.00  0.00    -0.269 OA
BRANCH  27  30
ATOM     30  C   UNL A   1      41.137  26.105  27.288  1.00  0.00     0.039 A 
ATOM     31  C   UNL A   1      42.081  27.109  27.527  1.00  0.00     0.014 A 
ATOM     32  C   UNL A   1      40.088  25.912  28.191  1.00  0.00     0.014 A 
ATOM     33  C   UNL A   1      41.945  27.946  28.638  1.00  0.00     0.010 A 
ATOM     34  C   UNL A   1      39.919  26.789  29.267  1.00  0.00     0.010 A 
ATOM     35  C   UNL A   1      40.847  27.812  29.505  1.00  0.00    -0.014 A 
BRANCH  35  36
ATOM     36  C   UNL A   1      40.668  28.744  30.649  1.00  0.00     0.031 A 
ATOM     37  C   UNL A   1      41.508  28.611  31.891  1.00  0.00     0.074 A 
ATOM     38  C   UNL A   1      39.714  29.695  30.583  1.00  0.00     0.049 A 
ATOM     39  N   UNL A   1      41.489  29.334  32.982  1.00  0.00    -0.248 NA
ATOM     40  C   UNL A   1      42.482  27.509  31.921  1.00  0.00     0.031 C 
ATOM     41  C   UNL A   1      38.791  29.889  29.462  1.00  0.00     0.029 A 
ATOM     42  N   UNL A   1      39.359  30.674  31.477  1.00  0.00    -0.354 N 
ATOM     43  C   UNL A   1      42.436  28.772  33.830  1.00  0.00     0.074 A 
ATOM     44  C   UNL A   1      42.980  27.619  33.145  1.00  0.00     0.031 C 
ATOM     45  C   UNL A   1      37.993  30.936  29.725  1.00  0.00     0.029 A 
ATOM     46  C   UNL A   1      38.328  31.473  31.040  1.00  0.00     0.049 A 
ATOM     47  H   UNL A   1      39.801  30.794  32.348  1.00  0.00     0.167 HD
ATOM     48  C   UNL A   1      42.831  29.190  35.058  1.00  0.00     0.037 A 
ATOM     49  C   UNL A   1      37.723  32.522  31.629  1.00  0.00     0.037 A 
ATOM     50  C   UNL A   1      42.308  30.354  35.725  1.00  0.00     0.049 A 
ATOM     51  C   UNL A   1      38.204  32.989  32.975  1.00  0.00     0.074 A 
ATOM     52  C   UNL A   1      42.693  30.897  36.939  1.00  0.00     0.029 A 
ATOM     53  N   UNL A   1      41.286  31.157  35.238  1.00  0.00    -0.354 N 
ATOM     54  N   UNL A   1      39.154  32.488  33.730  1.00  0.00    -0.248 NA
ATOM     55  C   UNL A   1      37.542  34.171  33.544  1.00  0.00     0.031 C 
ATOM     56  C   UNL A   1      41.881  32.007  37.202  1.00  0.00     0.029 A 
ATOM     57  C   UNL A   1      41.017  32.179  36.133  1.00  0.00     0.049 A 
ATOM     58  H   UNL A   1      40.821  31.018  34.381  1.00  0.00     0.167 HD
ATOM     59  C   UNL A   1      39.215  33.304  34.854  1.00  0.00     0.074 A 
ATOM     60  C   UNL A   1      38.221  34.342  34.670  1.00  0.00     0.031 C 
ATOM     61  C   UNL A   1      40.020  33.203  35.941  1.00  0.00     0.037 A 
BRANCH  48  62
ATOM     62  C   UNL A   1      43.891  28.387  35.760  1.00  0.00     0.058 A 
ATOM     63  C   UNL A   1      43.561  27.351  36.651  1.00  0.00     0.135 A 
ATOM     64  C   UNL A   1      45.252  28.623  35.509  1.00  0.00     0.135 A 
ATOM     65  F   UNL A   1      42.276  27.091  36.937  1.00  0.00    -0.206 F 
ATOM     66  C   UNL A   1      44.543  26.599  37.287  1.00  0.00     0.059 A 
ATOM     67  C   UNL A   1      46.251  27.864  36.115  1.00  0.00     0.059 A 
ATOM     68  F   UNL A   1      45.625  29.600  34.666  1.00  0.00    -0.206 F 
ATOM     69  C   UNL A   1      45.886  26.863  37.014  1.00  0.00     0.060 A 
BRANCH  69  70
ATOM     70  S   UNL A   1      47.147  25.871  37.841  1.00  0.00     0.124 S 
ATOM     71  O   UNL A   1      46.333  25.038  38.719  1.00  0.00    -0.237 OA
ATOM     72  O   UNL A   1      47.785  25.180  36.725  1.00  0.00    -0.237 OA
ATOM     73  O   UNL A   1      47.977  26.867  38.512  1.00  0.00    -0.744 OA
ENDBRANCH  69  70
ENDBRANCH  48  62
BRANCH  49  74
ATOM     74  C   UNL A   1      36.613  33.223  30.932  1.00  0.00     0.058 A 
ATOM     75  C   UNL A   1      36.858  34.027  29.810  1.00  0.00     0.135 A 
ATOM     76  C   UNL A   1      35.285  33.093  31.368  1.00  0.00     0.135 A 
ATOM     77  F   UNL A   1      38.112  34.186  29.360  1.00  0.00    -0.206 F 
ATOM     78  C   UNL A   1      35.829  34.691  29.149  1.00  0.00     0.059 A 
ATOM     79  C   UNL A   1      34.236  33.728  30.711  1.00  0.00     0.059 A 
ATOM     80  F   UNL A   1      34.998  32.321  32.427  1.00  0.00    -0.206 F 
ATOM     81  C   UNL A   1      34.519  34.533  29.608  1.00  0.00     0.060 A 
BRANCH  81  82
ATOM     82  S   UNL A   1      33.182  35.356  28.717  1.00  0.00     0.124 S 
ATOM     83  O   UNL A   1      32.572  34.239  28.004  1.00  0.00    -0.237 OA
ATOM     84  O   UNL A   1      32.392  35.928  29.804  1.00  0.00    -0.237 OA
ATOM     85  O   UNL A   1      33.884  36.330  27.886  1.00  0.00    -0.744 OA
ENDBRANCH  81  82
ENDBRANCH  49  74
BRANCH  61  86
ATOM     86  C   UNL A   1      39.869  34.254  37.005  1.00  0.00     0.058 A 
ATOM     87  C   UNL A   1      40.579  35.463  36.950  1.00  0.00     0.135 A 
ATOM     88  C   UNL A   1      38.992  34.056  38.083  1.00  0.00     0.135 A 
ATOM     89  F   UNL A   1      41.435  35.699  35.943  1.00  0.00    -0.206 F 
ATOM     90  C   UNL A   1      40.454  36.425  37.946  1.00  0.00     0.059 A 
ATOM     91  C   UNL A   1      38.830  35.015  39.077  1.00  0.00     0.059 A 
ATOM     92  F   UNL A   1      38.280  32.922  38.176  1.00  0.00    -0.206 F 
ATOM     93  C   UNL A   1      39.580  36.189  39.009  1.00  0.00     0.060 A 
BRANCH  93  94
ATOM     94  S   UNL A   1      39.419  37.445  40.297  1.00  0.00     0.124 S 
ATOM     95  O   UNL A   1      38.518  38.402  39.661  1.00  0.00    -0.237 OA
ATOM     96  O   UNL A   1      38.853  36.687  41.409  1.00  0.00    -0.237 OA
ATOM     97  O   UNL A   1      40.789  37.907  40.494  1.00  0.00    -0.744 OA
ENDBRANCH  93  94
ENDBRANCH  61  86
ENDBRANCH  35  36
ENDBRANCH  27  30
ENDBRANCH  25  26
ENDBRANCH  24  25
ENDBRANCH  23  24
ENDBRANCH   1  23
TORSDOF 20
ENDMDL
MODEL 2
REMARK VINA RESULT:     -11.0      1.544      2.197
REMARK SMILES C[N@H+](CC(=O)NCCCCCCNC(=O)c1ccc(-c2c3nc(c(-c4c(F)cc(S(=O)(=O)[O-])cc4F)c4ccc([nH]4)c(-c4c(F)cc(S(=O)(=O)[O-])cc4F)c4nc(c(-c5c(F)cc(S(=O)(=O)[O-])cc5F)c5ccc2[nH]5)C=C4)C=C3)cc1)Cc1csc(-c2ccco2)n1
REMARK SMILES IDX 9 1 8 2 7 3 6 4 4 5 5 6 3 8 2 9 1 10 82 12 83 13 84 14 92 15
REMARK SMILES IDX 85 16 86 17 87 18 88 19 91 20 89 21 90 22 10 23 11 24 12 25
REMARK SMILES IDX 13 26 14 27 15 29 16 30 17 31 81 32 18 33 80 34 19 35 20 36
REMARK SMILES IDX 21 37 74 38 22 39 79 40 73 41 75 42 23 43 78 44 72 45 71 46
REMARK SMILES IDX 24 48 58 49 37 50 57 51 38 52 41 53 56 54 76 55 39 56 40 57
REMARK SMILES IDX 55 59 77 60 42 61 25 62 26 63 35 64 27 65 28 66 34 67 36 68
REMARK SMILES IDX 29 69 30 70 31 71 32 72 33 73 59 74 60 75 69 76 61 77 62 78
REMARK SMILES IDX 68 79 70 80 63 81 64 82 65 83 66 84 67 85 43 86 44 87 53 88
REMARK SMILES IDX 45 89 46 90 52 91 54 92 47 93 48 94 49 95 50 96 51 97
REMARK H PARENT 6 7 2 11 13 28 75 47 41 58
REMARK Flexibility Score: inf
ROOT
ATOM      1  C   UNL A   1      36.610  23.682  25.465  1.00  0.00     0.002 C 
ENDROOT
BRANCH   1   2
ATOM      2  C   UNL A   1      36.413  22.192  25.179  1.00  0.00     0.021 C 
BRANCH   2   3
ATOM      3  C   UNL A   1      35.489  21.456  26.150  1.00  0.00     0.116 C 
BRANCH   3   4
ATOM      4  N   UNL A   1      34.204  21.100  25.579  1.00  0.00    -0.351 N 
ATOM      5  C   UNL A   1      33.026  21.791  25.678  1.00  0.00     0.275 C 
ATOM      6  O   UNL A   1      32.059  21.432  25.000  1.00  0.00    -0.269 OA
ATOM      7  H   UNL A   1      34.175  20.265  25.058  1.00  0.00     0.163 HD
BRANCH   5   8
ATOM      8  C   UNL A   1      32.942  23.022  26.593  1.00  0.00     0.363 C 
BRANCH   8   9
ATOM      9  N   UNL A   1      32.842  24.257  25.796  1.00  0.00    -0.325 N 
ATOM     10  C   UNL A   1      33.192  24.062  24.396  1.00  0.00     0.333 C 
ATOM     11  H   UNL A   1      33.548  24.876  26.194  1.00  0.00     0.348 HD
BRANCH   9  12
ATOM     12  C   UNL A   1      31.558  24.961  25.946  1.00  0.00     0.320 C 
BRANCH  12  13
ATOM     13  C   UNL A   1      31.743  26.440  25.760  1.00  0.00     0.106 A 
ATOM     14  C   UNL A   1      31.102  27.247  24.837  1.00  0.00     0.097 A 
ATOM     15  N   UNL A   1      32.679  27.108  26.548  1.00  0.00    -0.232 NA
ATOM     16  S   UNL A   1      31.529  28.886  25.080  1.00  0.00    -0.119 S 
ATOM     17  C   UNL A   1      32.634  28.398  26.295  1.00  0.00     0.159 A 
BRANCH  17  18
ATOM     18  C   UNL A   1      33.506  29.350  26.909  1.00  0.00     0.162 A 
ATOM     19  C   UNL A   1      34.868  29.225  27.136  1.00  0.00     0.053 A 
ATOM     20  O   UNL A   1      33.102  30.594  27.325  1.00  0.00    -0.462 OA
ATOM     21  C   UNL A   1      35.312  30.447  27.694  1.00  0.00     0.043 A 
ATOM     22  C   UNL A   1      34.195  31.238  27.808  1.00  0.00     0.196 A 
ENDBRANCH  17  18
ENDBRANCH  12  13
ENDBRANCH   9  12
ENDBRANCH   8   9
ENDBRANCH   5   8
ENDBRANCH   3   4
ENDBRANCH   2   3
ENDBRANCH   1   2
BRANCH   1  23
ATOM     23  C   UNL A   1      37.939  24.065  26.122  1.00  0.00     0.002 C 
BRANCH  23  24
ATOM     24  C   UNL A   1      38.869  22.902  26.486  1.00  0.00     0.021 C 
BRANCH  24  25
ATOM     25  C   UNL A   1      40.238  23.299  27.034  1.00  0.00     0.116 C 
BRANCH  25  26
ATOM     26  N   UNL A   1      41.019  24.053  26.069  1.00  0.00    -0.352 N 
ATOM     27  C   UNL A   1      41.404  25.369  26.074  1.00  0.00     0.251 C 
ATOM     28  H   UNL A   1      41.321  23.536  25.288  1.00  0.00     0.163 HD
ATOM     29  O   UNL A   1      41.907  25.853  25.062  1.00  0.00    -0.269 OA
BRANCH  27  30
ATOM     30  C   UNL A   1      41.209  26.220  27.273  1.00  0.00     0.039 A 
ATOM     31  C   UNL A   1      42.123  27.251  27.514  1.00  0.00     0.014 A 
ATOM     32  C   UNL A   1      40.178  25.981  28.186  1.00  0.00     0.014 A 
ATOM     33  C   UNL A   1      41.973  28.069  28.638  1.00  0.00     0.010 A 
ATOM     34  C   UNL A   1      39.993  26.838  29.275  1.00  0.00     0.010 A 
ATOM     35  C   UNL A   1      40.891  27.888  29.515  1.00  0.00    -0.014 A 
BRANCH  35  36
ATOM     36  C   UNL A   1      40.695  28.800  30.674  1.00  0.00     0.031 A 
ATOM     37  C   UNL A   1      41.529  28.654  31.919  1.00  0.00     0.074 A 
ATOM     38  C   UNL A   1      39.732  29.742  30.617  1.00  0.00     0.049 A 
ATOM     39  N   UNL A   1      41.496  29.359  33.021  1.00  0.00    -0.248 NA
ATOM     40  C   UNL A   1      42.513  27.562  31.937  1.00  0.00     0.031 C 
ATOM     41  C   UNL A   1      38.815  29.946  29.494  1.00  0.00     0.029 A 
ATOM     42  N   UNL A   1      39.362  30.703  31.525  1.00  0.00    -0.354 N 
ATOM     43  C   UNL A   1      42.443  28.793  33.866  1.00  0.00     0.074 A 
ATOM     44  C   UNL A   1      43.003  27.656  33.165  1.00  0.00     0.031 C 
ATOM     45  C   UNL A   1      38.005  30.981  29.769  1.00  0.00     0.029 A 
ATOM     46  C   UNL A   1      38.326  31.499  31.094  1.00  0.00     0.049 A 
ATOM     47  H   UNL A   1      39.797  30.813  32.400  1.00  0.00     0.167 HD
ATOM     48  C   UNL A   1      42.826  29.193  35.103  1.00  0.00     0.037 A 
ATOM     49  C   UNL A   1      37.707  32.532  31.697  1.00  0.00     0.037 A 
ATOM     50  C   UNL A   1      42.288  30.341  35.786  1.00  0.00     0.049 A 
ATOM     51  C   UNL A   1      38.175  32.981  33.053  1.00  0.00     0.074 A 
ATOM     52  C   UNL A   1      42.660  30.868  37.011  1.00  0.00     0.029 A 
ATOM     53  N   UNL A   1      41.261  31.142  35.305  1.00  0.00    -0.354 N 
ATOM     54  N   UNL A   1      39.125  32.477  33.806  1.00  0.00    -0.248 NA
ATOM     55  C   UNL A   1      37.498  34.147  33.638  1.00  0.00     0.031 C 
ATOM     56  C   UNL A   1      41.835  31.965  37.287  1.00  0.00     0.029 A 
ATOM     57  C   UNL A   1      40.976  32.146  36.216  1.00  0.00     0.049 A 
ATOM     58  H   UNL A   1      40.803  31.013  34.443  1.00  0.00     0.167 HD
ATOM     59  C   UNL A   1      39.171  33.274  34.944  1.00  0.00     0.074 A 
ATOM     60  C   UNL A   1      38.168  34.306  34.771  1.00  0.00     0.031 C 
ATOM     61  C   UNL A   1      39.971  33.163  36.034  1.00  0.00     0.037 A 
BRANCH  48  62
ATOM     62  C   UNL A   1      43.890  28.389  35.798  1.00  0.00     0.058 A 
ATOM     63  C   UNL A   1      43.565  27.324  36.655  1.00  0.00     0.135 A 
ATOM     64  C   UNL A   1      45.250  28.655  35.574  1.00  0.00     0.135 A 
ATOM     65  F   UNL A   1      42.280  27.035  36.915  1.00  0.00    -0.206 F 
ATOM     66  C   UNL A   1      44.550  26.571  37.285  1.00  0.00     0.059 A 
ATOM     67  C   UNL A   1      46.253  27.897  36.174  1.00  0.00     0.059 A 
ATOM     68  F   UNL A   1      45.618  29.661  34.764  1.00  0.00    -0.206 F 
ATOM     69  C   UNL A   1      45.892  26.865  37.040  1.00  0.00     0.060 A 
BRANCH  69  70
ATOM     70  S   UNL A   1      47.159  25.872  37.857  1.00  0.00     0.124 S 
ATOM     71  O   UNL A   1      47.190  24.685  37.010  1.00  0.00    -0.237 OA
ATOM     72  O   UNL A   1      48.332  26.736  37.781  1.00  0.00    -0.237 OA
ATOM     73  O   UNL A   1      46.620  25.671  39.199  1.00  0.00    -0.744 OA
ENDBRANCH  69  70
ENDBRANCH  48  62
BRANCH  49  74
ATOM     74  C   UNL A   1      36.595  33.234  31.005  1.00  0.00     0.058 A 
ATOM     75  C   UNL A   1      36.841  34.079  29.913  1.00  0.00     0.135 A 
ATOM     76  C   UNL A   1      35.263  33.062  31.413  1.00  0.00     0.135 A 
ATOM     77  F   UNL A   1      38.099  34.277  29.490  1.00  0.00    -0.206 F 
ATOM     78  C   UNL A   1      35.810  34.743  29.258  1.00  0.00     0.059 A 
ATOM     79  C   UNL A   1      34.211  33.698  30.759  1.00  0.00     0.059 A 
ATOM     80  F   UNL A   1      34.974  32.251  32.441  1.00  0.00    -0.206 F 
ATOM     81  C   UNL A   1      34.497  34.545  29.689  1.00  0.00     0.060 A 
BRANCH  81  82
ATOM     82  S   UNL A   1      33.157  35.370  28.802  1.00  0.00     0.124 S 
ATOM     83  O   UNL A   1      32.394  35.954  29.899  1.00  0.00    -0.237 OA
ATOM     84  O   UNL A   1      33.883  36.313  27.955  1.00  0.00    -0.237 OA
ATOM     85  O   UNL A   1      32.505  34.276  28.089  1.00  0.00    -0.744 OA
ENDBRANCH  81  82
ENDBRANCH  49  74
BRANCH  61  86
ATOM     86  C   UNL A   1      39.802  34.195  37.114  1.00  0.00     0.058 A 
ATOM     87  C   UNL A   1      40.444  35.441  37.047  1.00  0.00     0.135 A 
ATOM     88  C   UNL A   1      38.977  33.941  38.221  1.00  0.00     0.135 A 
ATOM     89  F   UNL A   1      41.249  35.732  36.012  1.00  0.00    -0.206 F 
ATOM     90  C   UNL A   1      40.304  36.386  38.057  1.00  0.00     0.059 A 
ATOM     91  C   UNL A   1      38.801  34.881  39.230  1.00  0.00     0.059 A 
ATOM     92  F   UNL A   1      38.330  32.769  38.327  1.00  0.00    -0.206 F 
ATOM     93  C   UNL A   1      39.484  36.094  39.149  1.00  0.00     0.060 A 
BRANCH  93  94
ATOM     94  S   UNL A   1      39.303  37.328  40.455  1.00  0.00     0.124 S 
ATOM     95  O   UNL A   1      38.888  36.500  41.583  1.00  0.00    -0.237 OA
ATOM     96  O   UNL A   1      40.646  37.893  40.544  1.00  0.00    -0.237 OA
ATOM     97  O   UNL A   1      38.284  38.231  39.930  1.00  0.00    -0.744 OA
ENDBRANCH  93  94
ENDBRANCH  61  86
ENDBRANCH  35  36
ENDBRANCH  27  30
ENDBRANCH  25  26
ENDBRANCH  24  25
ENDBRANCH  23  24
ENDBRANCH   1  23
TORSDOF 20
ENDMDL
MODEL 3
REMARK VINA RESULT:     -10.7      6.518     11.933
REMARK SMILES C[N@H+](CC(=O)NCCCCCCNC(=O)c1ccc(-c2c3nc(c(-c4c(F)cc(S(=O)(=O)[O-])cc4F)c4ccc([nH]4)c(-c4c(F)cc(S(=O)(=O)[O-])cc4F)c4nc(c(-c5c(F)cc(S(=O)(=O)[O-])cc5F)c5ccc2[nH]5)C=C4)C=C3)cc1)Cc1csc(-c2ccco2)n1
REMARK SMILES IDX 9 1 8 2 7 3 6 4 4 5 5 6 3 8 2 9 1 10 82 12 83 13 84 14 92 15
REMARK SMILES IDX 85 16 86 17 87 18 88 19 91 20 89 21 90 22 10 23 11 24 12 25
REMARK SMILES IDX 13 26 14 27 15 29 16 30 17 31 81 32 18 33 80 34 19 35 20 36
REMARK SMILES IDX 21 37 74 38 22 39 79 40 73 41 75 42 23 43 78 44 72 45 71 46
REMARK SMILES IDX 24 48 58 49 37 50 57 51 38 52 41 53 56 54 76 55 39 56 40 57
REMARK SMILES IDX 55 59 77 60 42 61 25 62 26 63 35 64 27 65 28 66 34 67 36 68
REMARK SMILES IDX 29 69 30 70 31 71 32 72 33 73 59 74 60 75 69 76 61 77 62 78
REMARK SMILES IDX 68 79 70 80 63 81 64 82 65 83 66 84 67 85 43 86 44 87 53 88
REMARK SMILES IDX 45 89 46 90 52 91 54 92 47 93 48 94 49 95 50 96 51 97
REMARK H PARENT 6 7 2 11 13 28 75 47 41 58
REMARK Flexibility Score: inf
ROOT
ATOM      1  C   UNL A   1      33.414  30.281  27.259  1.00  0.00     0.002 C 
ENDROOT
BRANCH   1   2
ATOM      2  C   UNL A   1      33.195  28.776  27.097  1.00  0.00     0.021 C 
BRANCH   2   3
ATOM      3  C   UNL A   1      32.167  28.374  26.038  1.00  0.00     0.116 C 
BRANCH   3   4
ATOM      4  N   UNL A   1      31.935  26.944  25.960  1.00  0.00    -0.351 N 
ATOM      5  C   UNL A   1      32.583  26.035  25.167  1.00  0.00     0.275 C 
ATOM      6  O   UNL A   1      32.371  24.832  25.336  1.00  0.00    -0.269 OA
ATOM      7  H   UNL A   1      31.230  26.585  26.546  1.00  0.00     0.163 HD
BRANCH   5   8
ATOM      8  C   UNL A   1      33.589  26.526  24.115  1.00  0.00     0.363 C 
BRANCH   8   9
ATOM      9  N   UNL A   1      32.943  27.456  23.171  1.00  0.00    -0.325 N 
ATOM     10  C   UNL A   1      33.896  28.181  22.344  1.00  0.00     0.333 C 
ATOM     11  H   UNL A   1      32.484  28.145  23.766  1.00  0.00     0.348 HD
BRANCH   9  12
ATOM     12  C   UNL A   1      31.875  26.842  22.367  1.00  0.00     0.320 C 
BRANCH  12  13
ATOM     13  C   UNL A   1      30.582  27.584  22.553  1.00  0.00     0.106 A 
ATOM     14  C   UNL A   1      29.440  27.119  23.181  1.00  0.00     0.097 A 
ATOM     15  N   UNL A   1      30.457  28.866  22.020  1.00  0.00    -0.232 NA
ATOM     16  S   UNL A   1      28.263  28.357  23.272  1.00  0.00    -0.119 S 
ATOM     17  C   UNL A   1      29.293  29.376  22.358  1.00  0.00     0.159 A 
BRANCH  17  18
ATOM     18  C   UNL A   1      28.842  30.662  21.923  1.00  0.00     0.162 A 
ATOM     19  C   UNL A   1      28.026  30.950  20.841  1.00  0.00     0.053 A 
ATOM     20  O   UNL A   1      29.128  31.831  22.583  1.00  0.00    -0.462 OA
ATOM     21  C   UNL A   1      27.791  32.345  20.854  1.00  0.00     0.043 A 
ATOM     22  C   UNL A   1      28.502  32.837  21.922  1.00  0.00     0.196 A 
ENDBRANCH  17  18
ENDBRANCH  12  13
ENDBRANCH   9  12
ENDBRANCH   8   9
ENDBRANCH   5   8
ENDBRANCH   3   4
ENDBRANCH   2   3
ENDBRANCH   1   2
BRANCH   1  23
ATOM     23  C   UNL A   1      34.821  30.707  27.689  1.00  0.00     0.002 C 
BRANCH  23  24
ATOM     24  C   UNL A   1      35.002  32.192  28.022  1.00  0.00     0.021 C 
BRANCH  24  25
ATOM     25  C   UNL A   1      36.172  32.522  28.946  1.00  0.00     0.116 C 
BRANCH  25  26
ATOM     26  N   UNL A   1      35.971  32.016  30.292  1.00  0.00    -0.352 N 
ATOM     27  C   UNL A   1      36.701  31.109  31.018  1.00  0.00     0.251 C 
ATOM     28  H   UNL A   1      35.185  32.382  30.758  1.00  0.00     0.163 HD
ATOM     29  O   UNL A   1      36.247  30.679  32.075  1.00  0.00    -0.269 OA
BRANCH  27  30
ATOM     30  C   UNL A   1      38.020  30.629  30.539  1.00  0.00     0.039 A 
ATOM     31  C   UNL A   1      38.198  30.430  29.166  1.00  0.00     0.014 A 
ATOM     32  C   UNL A   1      39.058  30.322  31.423  1.00  0.00     0.014 A 
ATOM     33  C   UNL A   1      39.426  29.973  28.679  1.00  0.00     0.010 A 
ATOM     34  C   UNL A   1      40.304  29.925  30.930  1.00  0.00     0.010 A 
ATOM     35  C   UNL A   1      40.500  29.742  29.554  1.00  0.00    -0.014 A 
BRANCH  35  36
ATOM     36  C   UNL A   1      41.826  29.319  29.030  1.00  0.00     0.031 A 
ATOM     37  C   UNL A   1      42.957  30.304  28.908  1.00  0.00     0.074 A 
ATOM     38  C   UNL A   1      42.000  28.044  28.625  1.00  0.00     0.049 A 
ATOM     39  N   UNL A   1      44.177  30.111  28.475  1.00  0.00    -0.248 NA
ATOM     40  C   UNL A   1      42.676  31.692  29.305  1.00  0.00     0.031 C 
ATOM     41  C   UNL A   1      40.966  27.007  28.632  1.00  0.00     0.029 A 
ATOM     42  N   UNL A   1      43.107  27.404  28.127  1.00  0.00    -0.354 N 
ATOM     43  C   UNL A   1      44.806  31.349  28.536  1.00  0.00     0.074 A 
ATOM     44  C   UNL A   1      43.818  32.298  29.006  1.00  0.00     0.031 C 
ATOM     45  C   UNL A   1      41.492  25.857  28.183  1.00  0.00     0.029 A 
ATOM     46  C   UNL A   1      42.892  26.077  27.833  1.00  0.00     0.049 A 
ATOM     47  H   UNL A   1      43.973  27.851  27.992  1.00  0.00     0.167 HD
ATOM     48  C   UNL A   1      46.092  31.665  28.247  1.00  0.00     0.037 A 
ATOM     49  C   UNL A   1      43.728  25.142  27.342  1.00  0.00     0.037 A 
ATOM     50  C   UNL A   1      47.080  30.714  27.807  1.00  0.00     0.049 A 
ATOM     51  C   UNL A   1      45.159  25.508  27.065  1.00  0.00     0.074 A 
ATOM     52  C   UNL A   1      48.426  30.923  27.557  1.00  0.00     0.029 A 
ATOM     53  N   UNL A   1      46.833  29.372  27.551  1.00  0.00    -0.354 N 
ATOM     54  N   UNL A   1      45.754  26.669  27.200  1.00  0.00    -0.248 NA
ATOM     55  C   UNL A   1      46.038  24.433  26.581  1.00  0.00     0.031 C 
ATOM     56  C   UNL A   1      48.984  29.717  27.115  1.00  0.00     0.029 A 
ATOM     57  C   UNL A   1      47.995  28.747  27.130  1.00  0.00     0.049 A 
ATOM     58  H   UNL A   1      45.959  28.931  27.655  1.00  0.00     0.167 HD
ATOM     59  C   UNL A   1      47.080  26.462  26.835  1.00  0.00     0.074 A 
ATOM     60  C   UNL A   1      47.204  25.058  26.494  1.00  0.00     0.031 C 
ATOM     61  C   UNL A   1      48.103  27.351  26.787  1.00  0.00     0.037 A 
BRANCH  48  62
ATOM     62  C   UNL A   1      46.511  33.100  28.408  1.00  0.00     0.058 A 
ATOM     63  C   UNL A   1      46.413  34.019  27.349  1.00  0.00     0.135 A 
ATOM     64  C   UNL A   1      46.976  33.576  29.644  1.00  0.00     0.135 A 
ATOM     65  F   UNL A   1      45.987  33.614  26.142  1.00  0.00    -0.206 F 
ATOM     66  C   UNL A   1      46.786  35.350  27.503  1.00  0.00     0.059 A 
ATOM     67  C   UNL A   1      47.330  34.911  29.828  1.00  0.00     0.059 A 
ATOM     68  F   UNL A   1      47.090  32.743  30.691  1.00  0.00    -0.206 F 
ATOM     69  C   UNL A   1      47.244  35.787  28.747  1.00  0.00     0.060 A 
BRANCH  69  70
ATOM     70  S   UNL A   1      47.716  37.520  28.934  1.00  0.00     0.124 S 
ATOM     71  O   UNL A   1      47.418  38.047  27.607  1.00  0.00    -0.237 OA
ATOM     72  O   UNL A   1      46.835  37.970  30.007  1.00  0.00    -0.237 OA
ATOM     73  O   UNL A   1      49.133  37.451  29.279  1.00  0.00    -0.744 OA
ENDBRANCH  69  70
ENDBRANCH  48  62
BRANCH  49  74
ATOM     74  C   UNL A   1      43.236  23.759  27.111  1.00  0.00     0.058 A 
ATOM     75  C   UNL A   1      42.917  23.311  25.821  1.00  0.00     0.135 A 
ATOM     76  C   UNL A   1      43.090  22.853  28.173  1.00  0.00     0.135 A 
ATOM     77  F   UNL A   1      43.036  24.143  24.774  1.00  0.00    -0.206 F 
ATOM     78  C   UNL A   1      42.454  22.020  25.590  1.00  0.00     0.059 A 
ATOM     79  C   UNL A   1      42.651  21.549  27.965  1.00  0.00     0.059 A 
ATOM     80  F   UNL A   1      43.399  23.228  29.423  1.00  0.00    -0.206 F 
ATOM     81  C   UNL A   1      42.326  21.145  26.671  1.00  0.00     0.060 A 
BRANCH  81  82
ATOM     82  S   UNL A   1      41.773  19.454  26.359  1.00  0.00     0.124 S 
ATOM     83  O   UNL A   1      42.222  18.771  27.566  1.00  0.00    -0.237 OA
ATOM     84  O   UNL A   1      40.329  19.623  26.218  1.00  0.00    -0.237 OA
ATOM     85  O   UNL A   1      42.475  19.095  25.130  1.00  0.00    -0.744 OA
ENDBRANCH  81  82
ENDBRANCH  49  74
BRANCH  61  86
ATOM     86  C   UNL A   1      49.447  26.826  26.365  1.00  0.00     0.058 A 
ATOM     87  C   UNL A   1      50.318  26.218  27.281  1.00  0.00     0.135 A 
ATOM     88  C   UNL A   1      49.861  26.919  25.027  1.00  0.00     0.135 A 
ATOM     89  F   UNL A   1      49.972  26.110  28.574  1.00  0.00    -0.206 F 
ATOM     90  C   UNL A   1      51.570  25.751  26.894  1.00  0.00     0.059 A 
ATOM     91  C   UNL A   1      51.097  26.436  24.611  1.00  0.00     0.059 A 
ATOM     92  F   UNL A   1      49.060  27.481  24.108  1.00  0.00    -0.206 F 
ATOM     93  C   UNL A   1      51.953  25.870  25.557  1.00  0.00     0.060 A 
BRANCH  93  94
ATOM     94  S   UNL A   1      53.578  25.259  25.060  1.00  0.00     0.124 S 
ATOM     95  O   UNL A   1      54.456  25.992  25.966  1.00  0.00    -0.237 OA
ATOM     96  O   UNL A   1      53.466  23.825  25.309  1.00  0.00    -0.237 OA
ATOM     97  O   UNL A   1      53.667  25.639  23.654  1.00  0.00    -0.744 OA
ENDBRANCH  93  94
ENDBRANCH  61  86
ENDBRANCH  35  36
ENDBRANCH  27  30
ENDBRANCH  25  26
ENDBRANCH  24  25
ENDBRANCH  23  24
ENDBRANCH   1  23
TORSDOF 20
ENDMDL
