MODEL 1
REMARK VINA RESULT:      -9.1      0.000      0.000
REMARK SMILES CC(C)[C@H](NC(=O)[C@H](Cc1ccccc1)n1c(=O)[nH]c2ccccc2c1=O)C(=O)NCCCCCCNC(=O)c1ccc(-c2c3nc(c(-c4c(F)cc(S(=O)(=O)[O-])cc4F)c4ccc([nH]4)c(-c4c(F)cc(S(=O)(=O)[O-])cc4F)c4nc(c(-c5c(F)cc(S(=O)(=O)[O-])cc5F)c5ccc2[nH]5)C=C4)C=C3)cc1
REMARK SMILES IDX 33 1 32 2 31 3 30 4 28 5 29 6 4 8 2 9 1 10 3 11 5 12 6 13
REMARK SMILES IDX 7 15 8 16 16 17 17 18 26 19 18 20 19 21 25 22 27 23 20 24
REMARK SMILES IDX 24 26 21 27 23 28 22 29 9 30 10 31 11 32 15 33 12 34 14 35
REMARK SMILES IDX 13 36 34 37 35 38 36 39 37 40 38 41 39 43 40 44 41 45 105 46
REMARK SMILES IDX 42 47 104 48 43 49 44 50 45 51 98 52 46 53 103 54 97 55
REMARK SMILES IDX 99 56 47 57 102 58 96 59 95 60 48 62 82 63 61 64 81 65 62 66
REMARK SMILES IDX 65 67 80 68 100 69 63 70 64 71 79 73 101 74 66 75 49 76
REMARK SMILES IDX 50 77 59 78 51 79 52 80 58 81 60 82 53 83 54 84 55 85 56 86
REMARK SMILES IDX 57 87 83 88 84 89 93 90 85 91 86 92 92 93 94 94 87 95 88 96
REMARK SMILES IDX 89 97 90 98 91 99 67 100 68 101 77 102 69 103 70 104 76 105
REMARK SMILES IDX 78 106 71 107 72 108 73 109 74 110 75 111
REMARK H PARENT 30 7 5 14 19 25 37 42 99 61 65 72
REMARK Flexibility Score: inf
ROOT
ATOM      1  C   UNL A   1      42.301  28.684  25.891  1.00  0.00     0.002 C 
ENDROOT
BRANCH   1   2
ATOM      2  C   UNL A   1      42.210  29.416  27.235  1.00  0.00     0.021 C 
BRANCH   2   3
ATOM      3  C   UNL A   1      43.453  30.246  27.545  1.00  0.00     0.116 C 
BRANCH   3   4
ATOM      4  N   UNL A   1      43.601  30.429  28.967  1.00  0.00    -0.354 N 
ATOM      5  C   UNL A   1      44.516  29.884  29.808  1.00  0.00     0.242 C 
ATOM      6  O   UNL A   1      44.406  30.150  31.011  1.00  0.00    -0.273 OA
ATOM      7  H   UNL A   1      42.946  31.032  29.387  1.00  0.00     0.163 HD
BRANCH   5   8
ATOM      8  C   UNL A   1      45.740  29.074  29.297  1.00  0.00     0.173 C 
BRANCH   8   9
ATOM      9  C   UNL A   1      46.671  28.573  30.402  1.00  0.00     0.015 C 
ATOM     10  C   UNL A   1      46.430  27.130  30.855  1.00  0.00     0.010 C 
ATOM     11  C   UNL A   1      48.133  28.737  29.978  1.00  0.00     0.010 C 
ENDBRANCH   8   9
BRANCH   8  12
ATOM     12  N   UNL A   1      46.369  29.640  28.080  1.00  0.00    -0.342 N 
ATOM     13  C   UNL A   1      47.011  29.336  26.935  1.00  0.00     0.244 C 
ATOM     14  H   UNL A   1      46.286  30.620  28.128  1.00  0.00     0.164 HD
ATOM     15  O   UNL A   1      47.597  30.343  26.491  1.00  0.00    -0.273 OA
BRANCH  13  16
ATOM     16  C   UNL A   1      47.295  27.958  26.253  1.00  0.00     0.189 C 
BRANCH  16  17
ATOM     17  N   UNL A   1      48.309  27.739  25.192  1.00  0.00    -0.247 N 
ATOM     18  C   UNL A   1      49.644  27.663  25.523  1.00  0.00     0.329 A 
ATOM     19  C   UNL A   1      47.867  27.580  23.867  1.00  0.00     0.264 A 
ATOM     20  O   UNL A   1      50.131  28.037  26.589  1.00  0.00    -0.248 OA
ATOM     21  N   UNL A   1      50.517  27.239  24.568  1.00  0.00    -0.307 N 
ATOM     22  C   UNL A   1      48.910  27.489  22.819  1.00  0.00     0.064 A 
ATOM     23  O   UNL A   1      46.691  27.592  23.522  1.00  0.00    -0.268 OA
ATOM     24  C   UNL A   1      50.212  27.230  23.215  1.00  0.00     0.055 A 
ATOM     25  H   UNL A   1      51.406  26.925  24.850  1.00  0.00     0.171 HD
ATOM     26  C   UNL A   1      48.627  27.731  21.472  1.00  0.00     0.016 A 
ATOM     27  C   UNL A   1      51.235  27.108  22.275  1.00  0.00     0.027 A 
ATOM     28  C   UNL A   1      49.661  27.684  20.531  1.00  0.00     0.001 A 
ATOM     29  C   UNL A   1      50.957  27.349  20.929  1.00  0.00     0.002 A 
ENDBRANCH  16  17
BRANCH  16  30
ATOM     30  C   UNL A   1      47.243  26.787  27.301  1.00  0.00     0.071 C 
BRANCH  30  31
ATOM     31  C   UNL A   1      46.656  25.421  26.995  1.00  0.00    -0.045 A 
ATOM     32  C   UNL A   1      46.681  24.815  25.735  1.00  0.00     0.004 A 
ATOM     33  C   UNL A   1      46.102  24.682  28.054  1.00  0.00     0.004 A 
ATOM     34  C   UNL A   1      46.049  23.591  25.501  1.00  0.00     0.000 A 
ATOM     35  C   UNL A   1      45.508  23.435  27.834  1.00  0.00     0.000 A 
ATOM     36  C   UNL A   1      45.454  22.902  26.550  1.00  0.00     0.000 A 
ENDBRANCH  30  31
ENDBRANCH  16  30
ENDBRANCH  13  16
ENDBRANCH   8  12
ENDBRANCH   5   8
ENDBRANCH   3   4
ENDBRANCH   2   3
ENDBRANCH   1   2
BRANCH   1  37
ATOM     37  C   UNL A   1      43.614  27.923  25.672  1.00  0.00     0.002 C 
BRANCH  37  38
ATOM     38  C   UNL A   1      43.454  26.506  25.113  1.00  0.00     0.021 C 
BRANCH  38  39
ATOM     39  C   UNL A   1      42.020  25.979  25.123  1.00  0.00     0.116 C 
BRANCH  39  40
ATOM     40  N   UNL A   1      41.942  24.647  25.702  1.00  0.00    -0.352 N 
ATOM     41  C   UNL A   1      41.921  24.264  27.017  1.00  0.00     0.251 C 
ATOM     42  H   UNL A   1      41.897  23.910  25.051  1.00  0.00     0.163 HD
ATOM     43  O   UNL A   1      42.090  23.083  27.309  1.00  0.00    -0.269 OA
BRANCH  41  44
ATOM     44  C   UNL A   1      41.698  25.266  28.080  1.00  0.00     0.039 A 
ATOM     45  C   UNL A   1      42.806  25.862  28.688  1.00  0.00     0.014 A 
ATOM     46  C   UNL A   1      40.405  25.587  28.507  1.00  0.00     0.014 A 
ATOM     47  C   UNL A   1      42.617  26.807  29.695  1.00  0.00     0.010 A 
ATOM     48  C   UNL A   1      40.216  26.578  29.468  1.00  0.00     0.010 A 
ATOM     49  C   UNL A   1      41.320  27.190  30.079  1.00  0.00    -0.014 A 
BRANCH  49  50
ATOM     50  C   UNL A   1      41.111  28.224  31.121  1.00  0.00     0.031 A 
ATOM     51  C   UNL A   1      41.934  28.211  32.380  1.00  0.00     0.074 A 
ATOM     52  C   UNL A   1      40.145  29.149  30.950  1.00  0.00     0.049 A 
ATOM     53  N   UNL A   1      41.879  29.016  33.410  1.00  0.00    -0.248 NA
ATOM     54  C   UNL A   1      42.934  27.138  32.511  1.00  0.00     0.031 C 
ATOM     55  C   UNL A   1      39.243  29.225  29.798  1.00  0.00     0.029 A 
ATOM     56  N   UNL A   1      39.755  30.196  31.745  1.00  0.00    -0.354 N 
ATOM     57  C   UNL A   1      42.822  28.543  34.314  1.00  0.00     0.074 A 
ATOM     58  C   UNL A   1      43.404  27.352  33.733  1.00  0.00     0.031 C 
ATOM     59  C   UNL A   1      38.421  30.275  29.951  1.00  0.00     0.029 A 
ATOM     60  C   UNL A   1      38.717  30.929  31.222  1.00  0.00     0.049 A 
ATOM     61  H   UNL A   1      40.179  30.403  32.609  1.00  0.00     0.167 HD
ATOM     62  C   UNL A   1      43.187  29.066  35.509  1.00  0.00     0.037 A 
ATOM     63  C   UNL A   1      38.075  32.006  31.712  1.00  0.00     0.037 A 
ATOM     64  C   UNL A   1      42.626  30.268  36.066  1.00  0.00     0.049 A 
ATOM     65  C   UNL A   1      38.519  32.586  33.026  1.00  0.00     0.074 A 
ATOM     66  C   UNL A   1      42.973  30.919  37.238  1.00  0.00     0.029 A 
ATOM     67  N   UNL A   1      41.598  31.003  35.492  1.00  0.00    -0.354 N 
ATOM     68  N   UNL A   1      39.464  32.168  33.834  1.00  0.00    -0.248 NA
ATOM     69  C   UNL A   1      37.820  33.792  33.490  1.00  0.00     0.031 C 
ATOM     70  C   UNL A   1      42.131  32.026  37.390  1.00  0.00     0.029 A 
ATOM     71  C   UNL A   1      41.288  32.091  36.292  1.00  0.00     0.049 A 
ATOM     72  H   UNL A   1      41.155  30.783  34.641  1.00  0.00     0.167 HD
ATOM     73  C   UNL A   1      39.488  33.069  34.892  1.00  0.00     0.074 A 
ATOM     74  C   UNL A   1      38.474  34.066  34.612  1.00  0.00     0.031 C 
ATOM     75  C   UNL A   1      40.276  33.073  35.995  1.00  0.00     0.037 A 
BRANCH  62  76
ATOM     76  C   UNL A   1      44.251  28.347  36.292  1.00  0.00     0.058 A 
ATOM     77  C   UNL A   1      45.606  28.706  36.195  1.00  0.00     0.135 A 
ATOM     78  C   UNL A   1      43.911  27.314  37.181  1.00  0.00     0.135 A 
ATOM     79  F   UNL A   1      45.989  29.675  35.349  1.00  0.00    -0.206 F 
ATOM     80  C   UNL A   1      46.587  28.051  36.932  1.00  0.00     0.059 A 
ATOM     81  C   UNL A   1      44.873  26.662  37.947  1.00  0.00     0.059 A 
ATOM     82  F   UNL A   1      42.631  26.930  37.312  1.00  0.00    -0.206 F 
ATOM     83  C   UNL A   1      46.211  27.031  37.806  1.00  0.00     0.060 A 
BRANCH  83  84
ATOM     84  S   UNL A   1      47.495  26.201  38.768  1.00  0.00     0.124 S 
ATOM     85  O   UNL A   1      46.702  25.277  39.573  1.00  0.00    -0.237 OA
ATOM     86  O   UNL A   1      48.317  25.589  37.729  1.00  0.00    -0.237 OA
ATOM     87  O   UNL A   1      48.128  27.290  39.503  1.00  0.00    -0.744 OA
ENDBRANCH  83  84
ENDBRANCH  62  76
BRANCH  63  88
ATOM     88  C   UNL A   1      36.964  32.622  30.940  1.00  0.00     0.058 A 
ATOM     89  C   UNL A   1      35.630  32.256  31.177  1.00  0.00     0.135 A 
ATOM     90  C   UNL A   1      37.212  33.597  29.963  1.00  0.00     0.135 A 
ATOM     91  F   UNL A   1      35.344  31.325  32.099  1.00  0.00    -0.206 F 
ATOM     92  C   UNL A   1      34.582  32.821  30.459  1.00  0.00     0.059 A 
ATOM     93  C   UNL A   1      36.177  34.194  29.247  1.00  0.00     0.059 A 
ATOM     94  F   UNL A   1      38.468  33.996  29.712  1.00  0.00    -0.206 F 
ATOM     95  C   UNL A   1      34.866  33.790  29.495  1.00  0.00     0.060 A 
BRANCH  95  96
ATOM     96  S   UNL A   1      33.495  34.552  28.599  1.00  0.00     0.124 S 
ATOM     97  O   UNL A   1      32.621  34.960  29.691  1.00  0.00    -0.237 OA
ATOM     98  O   UNL A   1      34.161  35.631  27.876  1.00  0.00    -0.237 OA
ATOM     99  O   UNL A   1      32.997  33.464  27.762  1.00  0.00    -0.744 OA
ENDBRANCH  95  96
ENDBRANCH  63  88
BRANCH  75 100
ATOM    100  C   UNL A   1      40.089  34.204  36.968  1.00  0.00     0.058 A 
ATOM    101  C   UNL A   1      39.214  34.098  38.060  1.00  0.00     0.135 A 
ATOM    102  C   UNL A   1      40.820  35.395  36.823  1.00  0.00     0.135 A 
ATOM    103  F   UNL A   1      38.488  32.984  38.240  1.00  0.00    -0.206 F 
ATOM    104  C   UNL A   1      39.046  35.147  38.959  1.00  0.00     0.059 A 
ATOM    105  C   UNL A   1      40.687  36.445  37.724  1.00  0.00     0.059 A 
ATOM    106  F   UNL A   1      41.679  35.541  35.802  1.00  0.00    -0.206 F 
ATOM    107  C   UNL A   1      39.785  36.318  38.781  1.00  0.00     0.060 A 
BRANCH 107 108
ATOM    108  S   UNL A   1      39.571  37.666  39.962  1.00  0.00     0.124 S 
ATOM    109  O   UNL A   1      40.880  38.310  39.911  1.00  0.00    -0.237 OA
ATOM    110  O   UNL A   1      38.469  38.424  39.377  1.00  0.00    -0.237 OA
ATOM    111  O   UNL A   1      39.257  36.977  41.210  1.00  0.00    -0.744 OA
ENDBRANCH 107 108
ENDBRANCH  75 100
ENDBRANCH  49  50
ENDBRANCH  41  44
ENDBRANCH  39  40
ENDBRANCH  38  39
ENDBRANCH  37  38
ENDBRANCH   1  37
TORSDOF 22
ENDMDL
MODEL 2
REMARK VINA RESULT:      -8.9      4.335     12.104
REMARK SMILES CC(C)[C@H](NC(=O)[C@H](Cc1ccccc1)n1c(=O)[nH]c2ccccc2c1=O)C(=O)NCCCCCCNC(=O)c1ccc(-c2c3nc(c(-c4c(F)cc(S(=O)(=O)[O-])cc4F)c4ccc([nH]4)c(-c4c(F)cc(S(=O)(=O)[O-])cc4F)c4nc(c(-c5c(F)cc(S(=O)(=O)[O-])cc5F)c5ccc2[nH]5)C=C4)C=C3)cc1
REMARK SMILES IDX 33 1 32 2 31 3 30 4 28 5 29 6 4 8 2 9 1 10 3 11 5 12 6 13
REMARK SMILES IDX 7 15 8 16 16 17 17 18 26 19 18 20 19 21 25 22 27 23 20 24
REMARK SMILES IDX 24 26 21 27 23 28 22 29 9 30 10 31 11 32 15 33 12 34 14 35
REMARK SMILES IDX 13 36 34 37 35 38 36 39 37 40 38 41 39 43 40 44 41 45 105 46
REMARK SMILES IDX 42 47 104 48 43 49 44 50 45 51 98 52 46 53 103 54 97 55
REMARK SMILES IDX 99 56 47 57 102 58 96 59 95 60 48 62 82 63 61 64 81 65 62 66
REMARK SMILES IDX 65 67 80 68 100 69 63 70 64 71 79 73 101 74 66 75 49 76
REMARK SMILES IDX 50 77 59 78 51 79 52 80 58 81 60 82 53 83 54 84 55 85 56 86
REMARK SMILES IDX 57 87 83 88 84 89 93 90 85 91 86 92 92 93 94 94 87 95 88 96
REMARK SMILES IDX 89 97 90 98 91 99 67 100 68 101 77 102 69 103 70 104 76 105
REMARK SMILES IDX 78 106 71 107 72 108 73 109 74 110 75 111
REMARK H PARENT 30 7 5 14 19 25 37 42 99 61 65 72
REMARK Flexibility Score: inf
ROOT
ATOM      1  C   UNL A   1      36.065  34.151  33.054  1.00  0.00     0.002 C 
ENDROOT
BRANCH   1   2
ATOM      2  C   UNL A   1      37.465  34.456  33.602  1.00  0.00     0.021 C 
BRANCH   2   3
ATOM      3  C   UNL A   1      37.719  33.823  34.968  1.00  0.00     0.116 C 
BRANCH   3   4
ATOM      4  N   UNL A   1      38.727  34.557  35.690  1.00  0.00    -0.354 N 
ATOM      5  C   UNL A   1      39.389  34.211  36.823  1.00  0.00     0.242 C 
ATOM      6  O   UNL A   1      40.178  35.040  37.290  1.00  0.00    -0.273 OA
ATOM      7  H   UNL A   1      38.967  35.432  35.308  1.00  0.00     0.163 HD
BRANCH   5   8
ATOM      8  C   UNL A   1      39.287  32.792  37.447  1.00  0.00     0.173 C 
BRANCH   8   9
ATOM      9  C   UNL A   1      38.600  32.752  38.812  1.00  0.00     0.015 C 
ATOM     10  C   UNL A   1      39.441  33.266  39.984  1.00  0.00     0.010 C 
ATOM     11  C   UNL A   1      37.275  33.518  38.761  1.00  0.00     0.010 C 
ENDBRANCH   8   9
BRANCH   8  12
ATOM     12  N   UNL A   1      40.508  31.970  37.273  1.00  0.00    -0.342 N 
ATOM     13  C   UNL A   1      41.096  31.028  36.509  1.00  0.00     0.244 C 
ATOM     14  H   UNL A   1      41.131  32.202  37.999  1.00  0.00     0.164 HD
ATOM     15  O   UNL A   1      42.041  30.502  37.128  1.00  0.00    -0.273 OA
BRANCH  13  16
ATOM     16  C   UNL A   1      40.660  30.390  35.149  1.00  0.00     0.189 C 
BRANCH  16  17
ATOM     17  N   UNL A   1      40.353  31.161  33.919  1.00  0.00    -0.247 N 
ATOM     18  C   UNL A   1      39.410  30.692  33.032  1.00  0.00     0.329 A 
ATOM     19  C   UNL A   1      41.021  32.381  33.711  1.00  0.00     0.264 A 
ATOM     20  O   UNL A   1      38.976  29.541  33.003  1.00  0.00    -0.248 OA
ATOM     21  N   UNL A   1      38.994  31.527  32.040  1.00  0.00    -0.307 N 
ATOM     22  C   UNL A   1      40.785  33.061  32.416  1.00  0.00     0.064 A 
ATOM     23  O   UNL A   1      41.834  32.868  34.488  1.00  0.00    -0.268 OA
ATOM     24  C   UNL A   1      39.702  32.654  31.654  1.00  0.00     0.055 A 
ATOM     25  H   UNL A   1      38.151  31.321  31.575  1.00  0.00     0.171 HD
ATOM     26  C   UNL A   1      41.659  34.032  31.921  1.00  0.00     0.016 A 
ATOM     27  C   UNL A   1      39.412  33.271  30.437  1.00  0.00     0.027 A 
ATOM     28  C   UNL A   1      41.417  34.604  30.667  1.00  0.00     0.001 A 
ATOM     29  C   UNL A   1      40.283  34.241  29.939  1.00  0.00     0.002 A 
ENDBRANCH  16  17
BRANCH  16  30
ATOM     30  C   UNL A   1      41.467  29.072  34.860  1.00  0.00     0.071 C 
BRANCH  30  31
ATOM     31  C   UNL A   1      42.591  28.990  33.841  1.00  0.00    -0.045 A 
ATOM     32  C   UNL A   1      42.473  28.394  32.582  1.00  0.00     0.004 A 
ATOM     33  C   UNL A   1      43.816  29.603  34.152  1.00  0.00     0.004 A 
ATOM     34  C   UNL A   1      43.569  28.280  31.723  1.00  0.00     0.000 A 
ATOM     35  C   UNL A   1      44.905  29.530  33.277  1.00  0.00     0.000 A 
ATOM     36  C   UNL A   1      44.790  28.840  32.074  1.00  0.00     0.000 A 
ENDBRANCH  30  31
ENDBRANCH  16  30
ENDBRANCH  13  16
ENDBRANCH   8  12
ENDBRANCH   5   8
ENDBRANCH   3   4
ENDBRANCH   2   3
ENDBRANCH   1   2
BRANCH   1  37
ATOM     37  C   UNL A   1      35.831  32.678  32.699  1.00  0.00     0.002 C 
BRANCH  37  38
ATOM     38  C   UNL A   1      35.106  32.441  31.371  1.00  0.00     0.021 C 
BRANCH  38  39
ATOM     39  C   UNL A   1      35.971  31.811  30.281  1.00  0.00     0.116 C 
BRANCH  39  40
ATOM     40  N   UNL A   1      35.236  30.808  29.526  1.00  0.00    -0.352 N 
ATOM     41  C   UNL A   1      35.700  29.844  28.669  1.00  0.00     0.251 C 
ATOM     42  H   UNL A   1      34.260  30.823  29.649  1.00  0.00     0.163 HD
ATOM     43  O   UNL A   1      34.911  29.245  27.944  1.00  0.00    -0.269 OA
BRANCH  41  44
ATOM     44  C   UNL A   1      37.143  29.529  28.615  1.00  0.00     0.039 A 
ATOM     45  C   UNL A   1      37.842  29.778  27.431  1.00  0.00     0.014 A 
ATOM     46  C   UNL A   1      37.795  28.953  29.710  1.00  0.00     0.014 A 
ATOM     47  C   UNL A   1      39.204  29.485  27.358  1.00  0.00     0.010 A 
ATOM     48  C   UNL A   1      39.168  28.721  29.657  1.00  0.00     0.010 A 
ATOM     49  C   UNL A   1      39.883  28.974  28.478  1.00  0.00    -0.014 A 
BRANCH  49  50
ATOM     50  C   UNL A   1      41.340  28.698  28.421  1.00  0.00     0.031 A 
ATOM     51  C   UNL A   1      41.838  27.322  28.072  1.00  0.00     0.074 A 
ATOM     52  C   UNL A   1      42.211  29.679  28.729  1.00  0.00     0.049 A 
ATOM     53  N   UNL A   1      43.070  26.886  27.996  1.00  0.00    -0.248 NA
ATOM     54  C   UNL A   1      40.821  26.294  27.797  1.00  0.00     0.031 C 
ATOM     55  C   UNL A   1      41.843  31.036  29.140  1.00  0.00     0.029 A 
ATOM     56  N   UNL A   1      43.582  29.686  28.752  1.00  0.00    -0.354 N 
ATOM     57  C   UNL A   1      42.977  25.536  27.679  1.00  0.00     0.074 A 
ATOM     58  C   UNL A   1      41.568  25.212  27.623  1.00  0.00     0.031 C 
ATOM     59  C   UNL A   1      42.960  31.749  29.353  1.00  0.00     0.029 A 
ATOM     60  C   UNL A   1      44.121  30.895  29.122  1.00  0.00     0.049 A 
ATOM     61  H   UNL A   1      44.128  28.899  28.525  1.00  0.00     0.167 HD
ATOM     62  C   UNL A   1      43.974  24.653  27.434  1.00  0.00     0.037 A 
ATOM     63  C   UNL A   1      45.407  31.272  29.259  1.00  0.00     0.037 A 
ATOM     64  C   UNL A   1      45.373  24.991  27.461  1.00  0.00     0.049 A 
ATOM     65  C   UNL A   1      46.495  30.282  28.952  1.00  0.00     0.074 A 
ATOM     66  C   UNL A   1      46.460  24.187  27.162  1.00  0.00     0.029 A 
ATOM     67  N   UNL A   1      45.881  26.235  27.807  1.00  0.00    -0.354 N 
ATOM     68  N   UNL A   1      46.388  29.028  28.582  1.00  0.00    -0.248 NA
ATOM     69  C   UNL A   1      47.879  30.760  29.068  1.00  0.00     0.031 C 
ATOM     70  C   UNL A   1      47.625  24.934  27.363  1.00  0.00     0.029 A 
ATOM     71  C   UNL A   1      47.265  26.217  27.746  1.00  0.00     0.049 A 
ATOM     72  H   UNL A   1      45.337  27.016  28.060  1.00  0.00     0.167 HD
ATOM     73  C   UNL A   1      47.689  28.572  28.400  1.00  0.00     0.074 A 
ATOM     74  C   UNL A   1      48.566  29.691  28.684  1.00  0.00     0.031 C 
ATOM     75  C   UNL A   1      48.120  27.341  28.031  1.00  0.00     0.037 A 
BRANCH  62  76
ATOM     76  C   UNL A   1      43.589  23.237  27.104  1.00  0.00     0.058 A 
ATOM     77  C   UNL A   1      43.114  22.355  28.088  1.00  0.00     0.135 A 
ATOM     78  C   UNL A   1      43.657  22.766  25.783  1.00  0.00     0.135 A 
ATOM     79  F   UNL A   1      43.043  22.747  29.370  1.00  0.00    -0.206 F 
ATOM     80  C   UNL A   1      42.743  21.051  27.779  1.00  0.00     0.059 A 
ATOM     81  C   UNL A   1      43.267  21.473  25.446  1.00  0.00     0.059 A 
ATOM     82  F   UNL A   1      44.106  23.567  24.802  1.00  0.00    -0.206 F 
ATOM     83  C   UNL A   1      42.822  20.618  26.455  1.00  0.00     0.060 A 
BRANCH  83  84
ATOM     84  S   UNL A   1      42.322  18.927  26.066  1.00  0.00     0.124 S 
ATOM     85  O   UNL A   1      43.213  18.609  24.955  1.00  0.00    -0.237 OA
ATOM     86  O   UNL A   1      42.594  18.225  27.317  1.00  0.00    -0.237 OA
ATOM     87  O   UNL A   1      40.911  19.061  25.721  1.00  0.00    -0.744 OA
ENDBRANCH  83  84
ENDBRANCH  62  76
BRANCH  63  88
ATOM     88  C   UNL A   1      45.731  32.660  29.682  1.00  0.00     0.058 A 
ATOM     89  C   UNL A   1      46.146  33.621  28.747  1.00  0.00     0.135 A 
ATOM     90  C   UNL A   1      45.618  33.057  31.022  1.00  0.00     0.135 A 
ATOM     91  F   UNL A   1      46.272  33.288  27.454  1.00  0.00    -0.206 F 
ATOM     92  C   UNL A   1      46.456  34.922  29.129  1.00  0.00     0.059 A 
ATOM     93  C   UNL A   1      45.901  34.359  31.425  1.00  0.00     0.059 A 
ATOM     94  F   UNL A   1      45.206  32.181  31.951  1.00  0.00    -0.206 F 
ATOM     95  C   UNL A   1      46.331  35.281  30.471  1.00  0.00     0.060 A 
BRANCH  95  96
ATOM     96  S   UNL A   1      46.692  36.984  30.952  1.00  0.00     0.124 S 
ATOM     97  O   UNL A   1      46.330  36.973  32.364  1.00  0.00    -0.237 OA
ATOM     98  O   UNL A   1      48.118  37.092  30.659  1.00  0.00    -0.237 OA
ATOM     99  O   UNL A   1      45.821  37.770  30.082  1.00  0.00    -0.744 OA
ENDBRANCH  95  96
ENDBRANCH  63  88
BRANCH  75 100
ATOM    100  C   UNL A   1      49.604  27.147  27.891  1.00  0.00     0.058 A 
ATOM    101  C   UNL A   1      50.292  27.547  26.734  1.00  0.00     0.135 A 
ATOM    102  C   UNL A   1      50.351  26.586  28.940  1.00  0.00     0.135 A 
ATOM    103  F   UNL A   1      49.623  28.084  25.702  1.00  0.00    -0.206 F 
ATOM    104  C   UNL A   1      51.666  27.368  26.610  1.00  0.00     0.059 A 
ATOM    105  C   UNL A   1      51.729  26.422  28.846  1.00  0.00     0.059 A 
ATOM    106  F   UNL A   1      49.741  26.198  30.071  1.00  0.00    -0.206 F 
ATOM    107  C   UNL A   1      52.375  26.802  27.670  1.00  0.00     0.060 A 
BRANCH 107 108
ATOM    108  S   UNL A   1      54.161  26.589  27.504  1.00  0.00     0.124 S 
ATOM    109  O   UNL A   1      54.620  26.912  28.850  1.00  0.00    -0.237 OA
ATOM    110  O   UNL A   1      54.274  25.187  27.115  1.00  0.00    -0.237 OA
ATOM    111  O   UNL A   1      54.522  27.552  26.468  1.00  0.00    -0.744 OA
ENDBRANCH 107 108
ENDBRANCH  75 100
ENDBRANCH  49  50
ENDBRANCH  41  44
ENDBRANCH  39  40
ENDBRANCH  38  39
ENDBRANCH  37  38
ENDBRANCH   1  37
TORSDOF 22
ENDMDL
MODEL 3
REMARK VINA RESULT:      -8.5      4.459     13.107
REMARK SMILES CC(C)[C@H](NC(=O)[C@H](Cc1ccccc1)n1c(=O)[nH]c2ccccc2c1=O)C(=O)NCCCCCCNC(=O)c1ccc(-c2c3nc(c(-c4c(F)cc(S(=O)(=O)[O-])cc4F)c4ccc([nH]4)c(-c4c(F)cc(S(=O)(=O)[O-])cc4F)c4nc(c(-c5c(F)cc(S(=O)(=O)[O-])cc5F)c5ccc2[nH]5)C=C4)C=C3)cc1
REMARK SMILES IDX 33 1 32 2 31 3 30 4 28 5 29 6 4 8 2 9 1 10 3 11 5 12 6 13
REMARK SMILES IDX 7 15 8 16 16 17 17 18 26 19 18 20 19 21 25 22 27 23 20 24
REMARK SMILES IDX 24 26 21 27 23 28 22 29 9 30 10 31 11 32 15 33 12 34 14 35
REMARK SMILES IDX 13 36 34 37 35 38 36 39 37 40 38 41 39 43 40 44 41 45 105 46
REMARK SMILES IDX 42 47 104 48 43 49 44 50 45 51 98 52 46 53 103 54 97 55
REMARK SMILES IDX 99 56 47 57 102 58 96 59 95 60 48 62 82 63 61 64 81 65 62 66
REMARK SMILES IDX 65 67 80 68 100 69 63 70 64 71 79 73 101 74 66 75 49 76
REMARK SMILES IDX 50 77 59 78 51 79 52 80 58 81 60 82 53 83 54 84 55 85 56 86
REMARK SMILES IDX 57 87 83 88 84 89 93 90 85 91 86 92 92 93 94 94 87 95 88 96
REMARK SMILES IDX 89 97 90 98 91 99 67 100 68 101 77 102 69 103 70 104 76 105
REMARK SMILES IDX 78 106 71 107 72 108 73 109 74 110 75 111
REMARK H PARENT 30 7 5 14 19 25 37 42 99 61 65 72
REMARK Flexibility Score: inf
ROOT
ATOM      1  C   UNL A   1      41.632  34.447  29.676  1.00  0.00     0.002 C 
ENDROOT
BRANCH   1   2
ATOM      2  C   UNL A   1      40.331  35.137  29.248  1.00  0.00     0.021 C 
BRANCH   2   3
ATOM      3  C   UNL A   1      39.093  34.281  29.503  1.00  0.00     0.116 C 
BRANCH   3   4
ATOM      4  N   UNL A   1      38.362  34.771  30.644  1.00  0.00    -0.354 N 
ATOM      5  C   UNL A   1      37.760  34.070  31.639  1.00  0.00     0.242 C 
ATOM      6  O   UNL A   1      37.139  34.718  32.488  1.00  0.00    -0.273 OA
ATOM      7  H   UNL A   1      38.287  35.751  30.710  1.00  0.00     0.163 HD
BRANCH   5   8
ATOM      8  C   UNL A   1      37.946  32.537  31.807  1.00  0.00     0.173 C 
BRANCH   8   9
ATOM      9  C   UNL A   1      39.022  32.140  32.818  1.00  0.00     0.015 C 
ATOM     10  C   UNL A   1      38.581  31.130  33.881  1.00  0.00     0.010 C 
ATOM     11  C   UNL A   1      40.260  31.607  32.091  1.00  0.00     0.010 C 
ENDBRANCH   8   9
BRANCH   8  12
ATOM     12  N   UNL A   1      37.894  31.782  30.534  1.00  0.00    -0.342 N 
ATOM     13  C   UNL A   1      37.098  31.408  29.512  1.00  0.00     0.244 C 
ATOM     14  H   UNL A   1      38.789  31.406  30.371  1.00  0.00     0.164 HD
ATOM     15  O   UNL A   1      37.609  30.451  28.898  1.00  0.00    -0.273 OA
BRANCH  13  16
ATOM     16  C   UNL A   1      35.634  31.819  29.148  1.00  0.00     0.189 C 
BRANCH  16  17
ATOM     17  N   UNL A   1      35.008  33.112  29.518  1.00  0.00    -0.247 N 
ATOM     18  C   UNL A   1      34.981  34.148  28.609  1.00  0.00     0.329 A 
ATOM     19  C   UNL A   1      34.424  33.232  30.791  1.00  0.00     0.264 A 
ATOM     20  O   UNL A   1      35.675  34.218  27.596  1.00  0.00    -0.248 OA
ATOM     21  N   UNL A   1      34.208  35.230  28.897  1.00  0.00    -0.307 N 
ATOM     22  C   UNL A   1      33.920  34.572  31.174  1.00  0.00     0.064 A 
ATOM     23  O   UNL A   1      34.377  32.331  31.621  1.00  0.00    -0.268 OA
ATOM     24  C   UNL A   1      33.746  35.514  30.173  1.00  0.00     0.055 A 
ATOM     25  H   UNL A   1      33.964  35.842  28.165  1.00  0.00     0.171 HD
ATOM     26  C   UNL A   1      33.695  34.924  32.508  1.00  0.00     0.016 A 
ATOM     27  C   UNL A   1      33.253  36.785  30.465  1.00  0.00     0.027 A 
ATOM     28  C   UNL A   1      33.271  36.220  32.817  1.00  0.00     0.001 A 
ATOM     29  C   UNL A   1      33.027  37.140  31.796  1.00  0.00     0.002 A 
ENDBRANCH  16  17
BRANCH  16  30
ATOM     30  C   UNL A   1      35.261  31.353  27.694  1.00  0.00     0.071 C 
BRANCH  30  31
ATOM     31  C   UNL A   1      34.163  30.345  27.398  1.00  0.00    -0.045 A 
ATOM     32  C   UNL A   1      32.807  30.667  27.282  1.00  0.00     0.004 A 
ATOM     33  C   UNL A   1      34.531  29.010  27.165  1.00  0.00     0.004 A 
ATOM     34  C   UNL A   1      31.837  29.679  27.090  1.00  0.00     0.000 A 
ATOM     35  C   UNL A   1      33.568  28.024  26.927  1.00  0.00     0.000 A 
ATOM     36  C   UNL A   1      32.216  28.355  26.921  1.00  0.00     0.000 A 
ENDBRANCH  30  31
ENDBRANCH  16  30
ENDBRANCH  13  16
ENDBRANCH   8  12
ENDBRANCH   5   8
ENDBRANCH   3   4
ENDBRANCH   2   3
ENDBRANCH   1   2
BRANCH   1  37
ATOM     37  C   UNL A   1      42.843  34.778  28.795  1.00  0.00     0.002 C 
BRANCH  37  38
ATOM     38  C   UNL A   1      42.508  35.462  27.466  1.00  0.00     0.021 C 
BRANCH  38  39
ATOM     39  C   UNL A   1      43.722  35.973  26.693  1.00  0.00     0.116 C 
BRANCH  39  40
ATOM     40  N   UNL A   1      43.843  35.328  25.395  1.00  0.00    -0.352 N 
ATOM     41  C   UNL A   1      44.495  34.175  25.048  1.00  0.00     0.251 C 
ATOM     42  H   UNL A   1      43.387  35.790  24.655  1.00  0.00     0.163 HD
ATOM     43  O   UNL A   1      44.684  33.916  23.863  1.00  0.00    -0.269 OA
BRANCH  41  44
ATOM     44  C   UNL A   1      44.972  33.246  26.094  1.00  0.00     0.039 A 
ATOM     45  C   UNL A   1      44.243  32.081  26.344  1.00  0.00     0.014 A 
ATOM     46  C   UNL A   1      46.108  33.541  26.854  1.00  0.00     0.014 A 
ATOM     47  C   UNL A   1      44.675  31.193  27.330  1.00  0.00     0.010 A 
ATOM     48  C   UNL A   1      46.574  32.623  27.793  1.00  0.00     0.010 A 
ATOM     49  C   UNL A   1      45.856  31.446  28.047  1.00  0.00    -0.014 A 
BRANCH  49  50
ATOM     50  C   UNL A   1      46.344  30.487  29.068  1.00  0.00     0.031 A 
ATOM     51  C   UNL A   1      45.759  30.490  30.454  1.00  0.00     0.074 A 
ATOM     52  C   UNL A   1      47.348  29.643  28.756  1.00  0.00     0.049 A 
ATOM     53  N   UNL A   1      46.071  29.745  31.484  1.00  0.00    -0.248 NA
ATOM     54  C   UNL A   1      44.700  31.476  30.729  1.00  0.00     0.031 C 
ATOM     55  C   UNL A   1      48.034  29.589  27.463  1.00  0.00     0.029 A 
ATOM     56  N   UNL A   1      47.970  28.675  29.502  1.00  0.00    -0.354 N 
ATOM     57  C   UNL A   1      45.262  30.178  32.526  1.00  0.00     0.074 A 
ATOM     58  C   UNL A   1      44.477  31.283  32.021  1.00  0.00     0.031 C 
ATOM     59  C   UNL A   1      48.967  28.625  27.500  1.00  0.00     0.029 A 
ATOM     60  C   UNL A   1      48.964  28.011  28.824  1.00  0.00     0.049 A 
ATOM     61  H   UNL A   1      47.727  28.475  30.435  1.00  0.00     0.167 HD
ATOM     62  C   UNL A   1      45.166  29.685  33.785  1.00  0.00     0.037 A 
ATOM     63  C   UNL A   1      49.783  27.019  29.226  1.00  0.00     0.037 A 
ATOM     64  C   UNL A   1      45.930  28.566  34.271  1.00  0.00     0.049 A 
ATOM     65  C   UNL A   1      49.635  26.469  30.617  1.00  0.00     0.074 A 
ATOM     66  C   UNL A   1      45.859  27.946  35.507  1.00  0.00     0.029 A 
ATOM     67  N   UNL A   1      46.904  27.896  33.545  1.00  0.00    -0.354 N 
ATOM     68  N   UNL A   1      48.813  26.843  31.568  1.00  0.00    -0.248 NA
ATOM     69  C   UNL A   1      50.517  25.354  30.987  1.00  0.00     0.031 C 
ATOM     70  C   UNL A   1      46.816  26.926  35.540  1.00  0.00     0.029 A 
ATOM     71  C   UNL A   1      47.454  26.881  34.311  1.00  0.00     0.049 A 
ATOM     72  H   UNL A   1      47.167  28.111  32.621  1.00  0.00     0.167 HD
ATOM     73  C   UNL A   1      49.062  25.996  32.642  1.00  0.00     0.074 A 
ATOM     74  C   UNL A   1      50.101  25.079  32.216  1.00  0.00     0.031 C 
ATOM     75  C   UNL A   1      48.486  25.978  33.869  1.00  0.00     0.037 A 
BRANCH  62  76
ATOM     76  C   UNL A   1      44.194  30.346  34.723  1.00  0.00     0.058 A 
ATOM     77  C   UNL A   1      42.867  29.899  34.843  1.00  0.00     0.135 A 
ATOM     78  C   UNL A   1      44.602  31.411  35.542  1.00  0.00     0.135 A 
ATOM     79  F   UNL A   1      42.420  28.895  34.073  1.00  0.00    -0.206 F 
ATOM     80  C   UNL A   1      41.974  30.501  35.723  1.00  0.00     0.059 A 
ATOM     81  C   UNL A   1      43.732  32.011  36.448  1.00  0.00     0.059 A 
ATOM     82  F   UNL A   1      45.858  31.879  35.467  1.00  0.00    -0.206 F 
ATOM     83  C   UNL A   1      42.415  31.556  36.522  1.00  0.00     0.060 A 
BRANCH  83  84
ATOM     84  S   UNL A   1      41.248  32.316  37.671  1.00  0.00     0.124 S 
ATOM     85  O   UNL A   1      41.430  33.733  37.375  1.00  0.00    -0.237 OA
ATOM     86  O   UNL A   1      39.974  31.741  37.249  1.00  0.00    -0.237 OA
ATOM     87  O   UNL A   1      41.725  31.881  38.979  1.00  0.00    -0.744 OA
ENDBRANCH  83  84
ENDBRANCH  62  76
BRANCH  63  88
ATOM     88  C   UNL A   1      50.793  26.466  28.286  1.00  0.00     0.058 A 
ATOM     89  C   UNL A   1      50.453  25.456  27.373  1.00  0.00     0.135 A 
ATOM     90  C   UNL A   1      52.111  26.945  28.273  1.00  0.00     0.135 A 
ATOM     91  F   UNL A   1      49.206  24.963  27.351  1.00  0.00    -0.206 F 
ATOM     92  C   UNL A   1      51.390  24.926  26.492  1.00  0.00     0.059 A 
ATOM     93  C   UNL A   1      53.060  26.447  27.384  1.00  0.00     0.059 A 
ATOM     94  F   UNL A   1      52.481  27.923  29.112  1.00  0.00    -0.206 F 
ATOM     95  C   UNL A   1      52.692  25.429  26.505  1.00  0.00     0.060 A 
BRANCH  95  96
ATOM     96  S   UNL A   1      53.890  24.768  25.327  1.00  0.00     0.124 S 
ATOM     97  O   UNL A   1      53.788  25.728  24.234  1.00  0.00    -0.237 OA
ATOM     98  O   UNL A   1      55.131  24.803  26.095  1.00  0.00    -0.237 OA
ATOM     99  O   UNL A   1      53.378  23.429  25.043  1.00  0.00    -0.744 OA
ENDBRANCH  95  96
ENDBRANCH  63  88
BRANCH  75 100
ATOM    100  C   UNL A   1      48.949  24.917  34.829  1.00  0.00     0.058 A 
ATOM    101  C   UNL A   1      50.030  25.132  35.697  1.00  0.00     0.135 A 
ATOM    102  C   UNL A   1      48.280  23.684  34.902  1.00  0.00     0.135 A 
ATOM    103  F   UNL A   1      50.706  26.291  35.662  1.00  0.00    -0.206 F 
ATOM    104  C   UNL A   1      50.454  24.148  36.585  1.00  0.00     0.059 A 
ATOM    105  C   UNL A   1      48.671  22.697  35.801  1.00  0.00     0.059 A 
ATOM    106  F   UNL A   1      47.233  23.434  34.102  1.00  0.00    -0.206 F 
ATOM    107  C   UNL A   1      49.769  22.933  36.627  1.00  0.00     0.060 A 
BRANCH 107 108
ATOM    108  S   UNL A   1      50.317  21.669  37.795  1.00  0.00     0.124 S 
ATOM    109  O   UNL A   1      49.950  20.444  37.093  1.00  0.00    -0.237 OA
ATOM    110  O   UNL A   1      51.748  21.936  37.898  1.00  0.00    -0.237 OA
ATOM    111  O   UNL A   1      49.543  21.961  38.998  1.00  0.00    -0.744 OA
ENDBRANCH 107 108
ENDBRANCH  75 100
ENDBRANCH  49  50
ENDBRANCH  41  44
ENDBRANCH  39  40
ENDBRANCH  38  39
ENDBRANCH  37  38
ENDBRANCH   1  37
TORSDOF 22
ENDMDL
