MODEL 1
REMARK VINA RESULT:     -13.1      0.000      0.000
REMARK SMILES O=C(NCCCCCCNC(=O)[C@H]1CC[C@@H]2CCCC[C@H]2N1C(=O)Cn1cnnn1)c1ccc(-c2c3nc(c(-c4c(F)cc(S(=O)(=O)[O-])cc4F)c4ccc([nH]4)c(-c4c(F)cc(S(=O)(=O)[O-])cc4F)c4nc(c(-c5c(F)cc(S(=O)(=O)[O-])cc5F)c5ccc2[nH]5)C=C4)C=C3)cc1
REMARK SMILES IDX 6 1 5 2 4 3 3 4 1 5 2 6 31 8 32 9 96 10 33 11 95 12 34 13
REMARK SMILES IDX 35 14 36 15 89 16 37 17 94 18 88 19 90 20 38 21 93 22 87 23
REMARK SMILES IDX 86 24 39 26 73 27 52 28 72 29 53 30 56 31 71 32 91 33 54 34
REMARK SMILES IDX 55 35 70 37 92 38 57 39 40 40 41 41 50 42 42 43 43 44 49 45
REMARK SMILES IDX 51 46 44 47 45 48 46 49 47 50 48 51 74 52 75 53 84 54 76 55
REMARK SMILES IDX 77 56 83 57 85 58 78 59 79 60 80 61 81 62 82 63 58 64 59 65
REMARK SMILES IDX 68 66 60 67 61 68 67 69 69 70 62 71 63 72 64 73 65 74 66 75
REMARK SMILES IDX 7 76 8 77 9 78 10 79 11 80 12 82 13 83 14 84 22 85 15 86
REMARK SMILES IDX 21 87 16 88 20 89 17 90 19 91 18 92 23 93 24 94 25 95 26 96
REMARK SMILES IDX 27 97 30 98 28 99 29 100
REMARK H PARENT 3 7 90 25 56 36 10 81
REMARK Flexibility Score: inf
ROOT
ATOM      1  C   UNL A   1      41.496  20.055  27.541  1.00  0.00     0.002 C 
ENDROOT
BRANCH   1   2
ATOM      2  C   UNL A   1      41.833  19.401  26.200  1.00  0.00     0.021 C 
BRANCH   2   3
ATOM      3  C   UNL A   1      43.312  19.035  26.045  1.00  0.00     0.116 C 
BRANCH   3   4
ATOM      4  N   UNL A   1      43.918  19.560  24.842  1.00  0.00    -0.352 N 
ATOM      5  O   UNL A   1      44.717  20.912  23.286  1.00  0.00    -0.269 OA
ATOM      6  C   UNL A   1      44.273  20.812  24.432  1.00  0.00     0.251 C 
ATOM      7  H   UNL A   1      44.118  18.865  24.174  1.00  0.00     0.163 HD
BRANCH   6   8
ATOM      8  C   UNL A   1      44.094  22.036  25.252  1.00  0.00     0.039 A 
ATOM      9  C   UNL A   1      44.649  22.247  26.517  1.00  0.00     0.014 A 
ATOM     10  C   UNL A   1      43.295  23.042  24.686  1.00  0.00     0.014 A 
ATOM     11  C   UNL A   1      44.319  23.373  27.252  1.00  0.00     0.010 A 
ATOM     12  C   UNL A   1      43.005  24.198  25.393  1.00  0.00     0.010 A 
ATOM     13  C   UNL A   1      43.489  24.340  26.689  1.00  0.00    -0.014 A 
BRANCH  13  14
ATOM     14  C   UNL A   1      43.345  25.597  27.411  1.00  0.00     0.031 A 
ATOM     15  C   UNL A   1      44.431  26.575  27.100  1.00  0.00     0.074 A 
ATOM     16  C   UNL A   1      42.257  25.893  28.147  1.00  0.00     0.049 A 
ATOM     17  N   UNL A   1      45.318  27.076  27.898  1.00  0.00    -0.248 NA
ATOM     18  C   UNL A   1      44.675  26.889  25.678  1.00  0.00     0.031 C 
ATOM     19  C   UNL A   1      41.023  25.114  28.276  1.00  0.00     0.029 A 
ATOM     20  N   UNL A   1      41.974  27.019  28.853  1.00  0.00    -0.354 N 
ATOM     21  C   UNL A   1      46.075  27.955  27.121  1.00  0.00     0.074 A 
ATOM     22  C   UNL A   1      45.775  27.639  25.753  1.00  0.00     0.031 C 
ATOM     23  C   UNL A   1      40.053  25.900  28.794  1.00  0.00     0.029 A 
ATOM     24  C   UNL A   1      40.625  27.187  29.150  1.00  0.00     0.049 A 
ATOM     25  H   UNL A   1      42.666  27.662  29.130  1.00  0.00     0.167 HD
ATOM     26  C   UNL A   1      46.683  29.043  27.672  1.00  0.00     0.037 A 
ATOM     27  C   UNL A   1      40.027  28.333  29.571  1.00  0.00     0.037 A 
ATOM     28  C   UNL A   1      46.822  28.882  29.098  1.00  0.00     0.049 A 
ATOM     29  C   UNL A   1      41.103  29.214  30.103  1.00  0.00     0.074 A 
ATOM     30  C   UNL A   1      47.456  27.969  29.919  1.00  0.00     0.029 A 
ATOM     31  N   UNL A   1      45.934  29.553  29.903  1.00  0.00    -0.354 N 
ATOM     32  N   UNL A   1      41.803  28.939  31.171  1.00  0.00    -0.248 NA
ATOM     33  C   UNL A   1      41.723  30.152  29.178  1.00  0.00     0.031 C 
ATOM     34  C   UNL A   1      46.581  27.806  31.032  1.00  0.00     0.029 A 
ATOM     35  C   UNL A   1      45.504  28.676  30.862  1.00  0.00     0.049 A 
ATOM     36  H   UNL A   1      45.659  30.494  29.810  1.00  0.00     0.167 HD
ATOM     37  C   UNL A   1      43.101  29.315  30.853  1.00  0.00     0.074 A 
ATOM     38  C   UNL A   1      42.977  30.121  29.639  1.00  0.00     0.031 C 
ATOM     39  C   UNL A   1      44.177  28.706  31.433  1.00  0.00     0.037 A 
BRANCH  26  40
ATOM     40  C   UNL A   1      46.746  30.411  27.012  1.00  0.00     0.058 A 
ATOM     41  C   UNL A   1      47.974  31.111  27.029  1.00  0.00     0.135 A 
ATOM     42  C   UNL A   1      45.618  31.189  26.664  1.00  0.00     0.135 A 
ATOM     43  F   UNL A   1      49.124  30.475  27.306  1.00  0.00    -0.206 F 
ATOM     44  C   UNL A   1      48.050  32.495  26.863  1.00  0.00     0.059 A 
ATOM     45  C   UNL A   1      45.681  32.561  26.448  1.00  0.00     0.059 A 
ATOM     46  F   UNL A   1      44.381  30.688  26.601  1.00  0.00    -0.206 F 
ATOM     47  C   UNL A   1      46.890  33.213  26.603  1.00  0.00     0.060 A 
BRANCH  47  48
ATOM     48  S   UNL A   1      46.959  35.010  26.529  1.00  0.00     0.124 S 
ATOM     49  O   UNL A   1      45.705  35.318  25.852  1.00  0.00    -0.237 OA
ATOM     50  O   UNL A   1      47.027  35.365  27.943  1.00  0.00    -0.237 OA
ATOM     51  O   UNL A   1      48.173  35.268  25.763  1.00  0.00    -0.744 OA
ENDBRANCH  47  48
ENDBRANCH  26  40
BRANCH  27  52
ATOM     52  C   UNL A   1      38.686  28.855  29.181  1.00  0.00     0.058 A 
ATOM     53  C   UNL A   1      37.673  29.065  30.134  1.00  0.00     0.135 A 
ATOM     54  C   UNL A   1      38.461  29.422  27.909  1.00  0.00     0.135 A 
ATOM     55  F   UNL A   1      37.810  28.584  31.379  1.00  0.00    -0.206 F 
ATOM     56  C   UNL A   1      36.528  29.826  29.857  1.00  0.00     0.059 A 
ATOM     57  C   UNL A   1      37.325  30.172  27.606  1.00  0.00     0.059 A 
ATOM     58  F   UNL A   1      39.385  29.342  26.941  1.00  0.00    -0.206 F 
ATOM     59  C   UNL A   1      36.372  30.391  28.592  1.00  0.00     0.060 A 
BRANCH  59  60
ATOM     60  S   UNL A   1      34.985  31.509  28.272  1.00  0.00     0.124 S 
ATOM     61  O   UNL A   1      34.575  31.875  29.624  1.00  0.00    -0.237 OA
ATOM     62  O   UNL A   1      35.612  32.566  27.488  1.00  0.00    -0.237 OA
ATOM     63  O   UNL A   1      34.037  30.672  27.540  1.00  0.00    -0.744 OA
ENDBRANCH  59  60
ENDBRANCH  27  52
BRANCH  39  64
ATOM     64  C   UNL A   1      43.945  27.827  32.632  1.00  0.00     0.058 A 
ATOM     65  C   UNL A   1      43.712  28.299  33.937  1.00  0.00     0.135 A 
ATOM     66  C   UNL A   1      43.783  26.451  32.410  1.00  0.00     0.135 A 
ATOM     67  F   UNL A   1      43.743  29.611  34.212  1.00  0.00    -0.206 F 
ATOM     68  C   UNL A   1      43.370  27.435  34.979  1.00  0.00     0.059 A 
ATOM     69  C   UNL A   1      43.410  25.577  33.427  1.00  0.00     0.059 A 
ATOM     70  F   UNL A   1      43.928  25.948  31.173  1.00  0.00    -0.206 F 
ATOM     71  C   UNL A   1      43.217  26.075  34.712  1.00  0.00     0.060 A 
BRANCH  71  72
ATOM     72  S   UNL A   1      42.692  24.969  36.040  1.00  0.00     0.124 S 
ATOM     73  O   UNL A   1      42.980  23.654  35.477  1.00  0.00    -0.237 OA
ATOM     74  O   UNL A   1      43.544  25.382  37.152  1.00  0.00    -0.237 OA
ATOM     75  O   UNL A   1      41.275  25.281  36.204  1.00  0.00    -0.744 OA
ENDBRANCH  71  72
ENDBRANCH  39  64
ENDBRANCH  13  14
ENDBRANCH   6   8
ENDBRANCH   3   4
ENDBRANCH   2   3
ENDBRANCH   1   2
BRANCH   1  76
ATOM     76  C   UNL A   1      40.904  21.457  27.423  1.00  0.00     0.002 C 
BRANCH  76  77
ATOM     77  C   UNL A   1      40.287  21.786  26.062  1.00  0.00     0.021 C 
BRANCH  77  78
ATOM     78  C   UNL A   1      39.107  23.046  26.094  1.00  0.00     0.116 C 
BRANCH  78  79
ATOM     79  N   UNL A   1      37.537  23.168  24.633  1.00  0.00    -0.354 N 
ATOM     80  C   UNL A   1      36.207  23.304  24.232  1.00  0.00     0.242 C 
ATOM     81  H   UNL A   1      38.019  23.079  23.780  1.00  0.00     0.163 HD
ATOM     82  O   UNL A   1      35.998  23.179  23.017  1.00  0.00    -0.273 OA
BRANCH  80  83
ATOM     83  C   UNL A   1      34.987  23.466  25.189  1.00  0.00     0.174 C 
ATOM     84  C   UNL A   1      34.805  25.006  25.314  1.00  0.00     0.036 C 
ATOM     85  N   UNL A   1      33.705  22.711  24.994  1.00  0.00    -0.326 N 
ATOM     86  C   UNL A   1      33.572  25.461  26.063  1.00  0.00     0.008 C 
ATOM     87  C   UNL A   1      32.588  23.153  25.884  1.00  0.00     0.089 C 
ATOM     88  C   UNL A   1      32.335  24.664  25.651  1.00  0.00     0.012 C 
ATOM     89  C   UNL A   1      31.265  22.367  25.763  1.00  0.00     0.025 C 
ATOM     90  C   UNL A   1      31.126  25.226  26.408  1.00  0.00     0.006 C 
ATOM     91  C   UNL A   1      30.124  22.958  26.581  1.00  0.00     0.002 C 
ATOM     92  C   UNL A   1      29.868  24.402  26.196  1.00  0.00     0.000 C 
BRANCH  85  93
ATOM     93  C   UNL A   1      33.691  21.439  24.413  1.00  0.00     0.245 C 
ATOM     94  O   UNL A   1      33.068  21.174  23.381  1.00  0.00    -0.273 OA
BRANCH  93  95
ATOM     95  C   UNL A   1      34.439  20.296  25.042  1.00  0.00     0.248 C 
BRANCH  95  96
ATOM     96  N   UNL A   1      33.976  18.969  24.646  1.00  0.00    -0.223 N 
ATOM     97  C   UNL A   1      32.562  18.342  25.621  1.00  0.00     0.246 A 
ATOM     98  N   UNL A   1      35.188  17.616  24.385  1.00  0.00    -0.045 NA
ATOM     99  N   UNL A   1      32.819  16.740  25.977  1.00  0.00    -0.117 NA
ATOM    100  N   UNL A   1      34.557  16.211  25.214  1.00  0.00    -0.024 NA
ENDBRANCH  95  96
ENDBRANCH  93  95
ENDBRANCH  85  93
ENDBRANCH  80  83
ENDBRANCH  78  79
ENDBRANCH  77  78
ENDBRANCH  76  77
ENDBRANCH   1  76
TORSDOF 19
ENDMDL
MODEL 2
REMARK VINA RESULT:     -12.9      3.613      9.743
REMARK SMILES O=C(NCCCCCCNC(=O)[C@H]1CC[C@@H]2CCCC[C@H]2N1C(=O)Cn1cnnn1)c1ccc(-c2c3nc(c(-c4c(F)cc(S(=O)(=O)[O-])cc4F)c4ccc([nH]4)c(-c4c(F)cc(S(=O)(=O)[O-])cc4F)c4nc(c(-c5c(F)cc(S(=O)(=O)[O-])cc5F)c5ccc2[nH]5)C=C4)C=C3)cc1
REMARK SMILES IDX 6 1 5 2 4 3 3 4 1 5 2 6 31 8 32 9 96 10 33 11 95 12 34 13
REMARK SMILES IDX 35 14 36 15 89 16 37 17 94 18 88 19 90 20 38 21 93 22 87 23
REMARK SMILES IDX 86 24 39 26 73 27 52 28 72 29 53 30 56 31 71 32 91 33 54 34
REMARK SMILES IDX 55 35 70 37 92 38 57 39 40 40 41 41 50 42 42 43 43 44 49 45
REMARK SMILES IDX 51 46 44 47 45 48 46 49 47 50 48 51 74 52 75 53 84 54 76 55
REMARK SMILES IDX 77 56 83 57 85 58 78 59 79 60 80 61 81 62 82 63 58 64 59 65
REMARK SMILES IDX 68 66 60 67 61 68 67 69 69 70 62 71 63 72 64 73 65 74 66 75
REMARK SMILES IDX 7 76 8 77 9 78 10 79 11 80 12 82 13 83 14 84 22 85 15 86
REMARK SMILES IDX 21 87 16 88 20 89 17 90 19 91 18 92 23 93 24 94 25 95 26 96
REMARK SMILES IDX 27 97 30 98 28 99 29 100
REMARK H PARENT 3 7 90 25 56 36 10 81
REMARK Flexibility Score: inf
ROOT
ATOM      1  C   UNL A   1      35.219  32.896  28.025  1.00  0.00     0.002 C 
ENDROOT
BRANCH   1   2
ATOM      2  C   UNL A   1      33.847  33.409  28.464  1.00  0.00     0.021 C 
BRANCH   2   3
ATOM      3  C   UNL A   1      33.903  34.704  29.279  1.00  0.00     0.116 C 
BRANCH   3   4
ATOM      4  N   UNL A   1      33.624  34.519  30.686  1.00  0.00    -0.352 N 
ATOM      5  O   UNL A   1      33.702  33.858  32.794  1.00  0.00    -0.269 OA
ATOM      6  C   UNL A   1      34.271  33.876  31.700  1.00  0.00     0.251 C 
ATOM      7  H   UNL A   1      32.787  34.948  30.974  1.00  0.00     0.163 HD
BRANCH   6   8
ATOM      8  C   UNL A   1      35.561  33.159  31.540  1.00  0.00     0.039 A 
ATOM      9  C   UNL A   1      36.815  33.768  31.446  1.00  0.00     0.014 A 
ATOM     10  C   UNL A   1      35.481  31.759  31.476  1.00  0.00     0.014 A 
ATOM     11  C   UNL A   1      37.945  33.015  31.173  1.00  0.00     0.010 A 
ATOM     12  C   UNL A   1      36.615  30.993  31.260  1.00  0.00     0.010 A 
ATOM     13  C   UNL A   1      37.837  31.630  31.071  1.00  0.00    -0.014 A 
BRANCH  13  14
ATOM     14  C   UNL A   1      39.077  30.869  30.997  1.00  0.00     0.031 A 
ATOM     15  C   UNL A   1      39.719  30.670  32.332  1.00  0.00     0.074 A 
ATOM     16  C   UNL A   1      39.499  30.274  29.865  1.00  0.00     0.049 A 
ATOM     17  N   UNL A   1      40.871  31.091  32.743  1.00  0.00    -0.248 NA
ATOM     18  C   UNL A   1      38.888  30.089  33.405  1.00  0.00     0.031 C 
ATOM     19  C   UNL A   1      38.792  30.176  28.587  1.00  0.00     0.029 A 
ATOM     20  N   UNL A   1      40.611  29.522  29.650  1.00  0.00    -0.354 N 
ATOM     21  C   UNL A   1      41.007  30.613  34.048  1.00  0.00     0.074 A 
ATOM     22  C   UNL A   1      39.695  30.200  34.461  1.00  0.00     0.031 C 
ATOM     23  C   UNL A   1      39.366  29.212  27.833  1.00  0.00     0.029 A 
ATOM     24  C   UNL A   1      40.549  28.719  28.516  1.00  0.00     0.049 A 
ATOM     25  H   UNL A   1      41.393  29.545  30.247  1.00  0.00     0.167 HD
ATOM     26  C   UNL A   1      42.233  30.354  34.583  1.00  0.00     0.037 A 
ATOM     27  C   UNL A   1      41.366  27.672  28.223  1.00  0.00     0.037 A 
ATOM     28  C   UNL A   1      43.265  31.047  33.852  1.00  0.00     0.049 A 
ATOM     29  C   UNL A   1      42.591  27.830  29.054  1.00  0.00     0.074 A 
ATOM     30  C   UNL A   1      43.541  32.372  33.573  1.00  0.00     0.029 A 
ATOM     31  N   UNL A   1      44.016  30.314  32.965  1.00  0.00    -0.354 N 
ATOM     32  N   UNL A   1      43.444  28.808  28.908  1.00  0.00    -0.248 NA
ATOM     33  C   UNL A   1      42.608  27.178  30.356  1.00  0.00     0.031 C 
ATOM     34  C   UNL A   1      44.044  32.369  32.240  1.00  0.00     0.029 A 
ATOM     35  C   UNL A   1      44.112  31.043  31.810  1.00  0.00     0.049 A 
ATOM     36  H   UNL A   1      44.412  29.429  33.129  1.00  0.00     0.167 HD
ATOM     37  C   UNL A   1      43.791  29.174  30.202  1.00  0.00     0.074 A 
ATOM     38  C   UNL A   1      43.300  28.088  31.049  1.00  0.00     0.031 C 
ATOM     39  C   UNL A   1      44.186  30.448  30.495  1.00  0.00     0.037 A 
BRANCH  26  40
ATOM     40  C   UNL A   1      42.543  29.154  35.463  1.00  0.00     0.058 A 
ATOM     41  C   UNL A   1      43.382  29.340  36.586  1.00  0.00     0.135 A 
ATOM     42  C   UNL A   1      42.336  27.807  35.088  1.00  0.00     0.135 A 
ATOM     43  F   UNL A   1      43.625  30.571  37.065  1.00  0.00    -0.206 F 
ATOM     44  C   UNL A   1      44.074  28.288  37.188  1.00  0.00     0.059 A 
ATOM     45  C   UNL A   1      42.979  26.741  35.706  1.00  0.00     0.059 A 
ATOM     46  F   UNL A   1      41.573  27.451  34.051  1.00  0.00    -0.206 F 
ATOM     47  C   UNL A   1      43.887  26.995  36.717  1.00  0.00     0.060 A 
BRANCH  47  48
ATOM     48  S   UNL A   1      44.880  25.654  37.392  1.00  0.00     0.124 S 
ATOM     49  O   UNL A   1      44.230  24.490  36.803  1.00  0.00    -0.237 OA
ATOM     50  O   UNL A   1      46.207  25.976  36.877  1.00  0.00    -0.237 OA
ATOM     51  O   UNL A   1      44.718  25.810  38.834  1.00  0.00    -0.744 OA
ENDBRANCH  47  48
ENDBRANCH  26  40
BRANCH  27  52
ATOM     52  C   UNL A   1      40.990  26.374  27.593  1.00  0.00     0.058 A 
ATOM     53  C   UNL A   1      41.815  25.754  26.637  1.00  0.00     0.135 A 
ATOM     54  C   UNL A   1      39.951  25.578  28.118  1.00  0.00     0.135 A 
ATOM     55  F   UNL A   1      42.844  26.425  26.099  1.00  0.00    -0.206 F 
ATOM     56  C   UNL A   1      41.648  24.414  26.257  1.00  0.00     0.059 A 
ATOM     57  C   UNL A   1      39.758  24.247  27.748  1.00  0.00     0.059 A 
ATOM     58  F   UNL A   1      39.142  26.040  29.082  1.00  0.00    -0.206 F 
ATOM     59  C   UNL A   1      40.625  23.663  26.834  1.00  0.00     0.060 A 
BRANCH  59  60
ATOM     60  S   UNL A   1      40.500  21.892  26.478  1.00  0.00     0.124 S 
ATOM     61  O   UNL A   1      40.566  21.310  27.814  1.00  0.00    -0.237 OA
ATOM     62  O   UNL A   1      39.209  21.800  25.806  1.00  0.00    -0.237 OA
ATOM     63  O   UNL A   1      41.661  21.634  25.628  1.00  0.00    -0.744 OA
ENDBRANCH  59  60
ENDBRANCH  27  52
BRANCH  39  64
ATOM     64  C   UNL A   1      44.523  31.376  29.359  1.00  0.00     0.058 A 
ATOM     65  C   UNL A   1      45.724  31.343  28.628  1.00  0.00     0.135 A 
ATOM     66  C   UNL A   1      43.508  32.221  28.886  1.00  0.00     0.135 A 
ATOM     67  F   UNL A   1      46.705  30.487  28.951  1.00  0.00    -0.206 F 
ATOM     68  C   UNL A   1      45.918  32.141  27.500  1.00  0.00     0.059 A 
ATOM     69  C   UNL A   1      43.667  33.000  27.744  1.00  0.00     0.059 A 
ATOM     70  F   UNL A   1      42.314  32.249  29.502  1.00  0.00    -0.206 F 
ATOM     71  C   UNL A   1      44.880  32.965  27.063  1.00  0.00     0.060 A 
BRANCH  71  72
ATOM     72  S   UNL A   1      45.098  33.934  25.555  1.00  0.00     0.124 S 
ATOM     73  O   UNL A   1      46.546  34.110  25.510  1.00  0.00    -0.237 OA
ATOM     74  O   UNL A   1      44.536  33.057  24.530  1.00  0.00    -0.237 OA
ATOM     75  O   UNL A   1      44.329  35.147  25.813  1.00  0.00    -0.744 OA
ENDBRANCH  71  72
ENDBRANCH  39  64
ENDBRANCH  13  14
ENDBRANCH   6   8
ENDBRANCH   3   4
ENDBRANCH   2   3
ENDBRANCH   1   2
BRANCH   1  76
ATOM     76  C   UNL A   1      35.236  31.427  27.610  1.00  0.00     0.002 C 
BRANCH  76  77
ATOM     77  C   UNL A   1      33.968  30.642  27.956  1.00  0.00     0.021 C 
BRANCH  77  78
ATOM     78  C   UNL A   1      32.827  30.518  26.667  1.00  0.00     0.116 C 
BRANCH  78  79
ATOM     79  N   UNL A   1      33.352  29.666  24.766  1.00  0.00    -0.354 N 
ATOM     80  C   UNL A   1      33.637  28.605  23.905  1.00  0.00     0.242 C 
ATOM     81  H   UNL A   1      33.438  30.454  24.184  1.00  0.00     0.163 HD
ATOM     82  O   UNL A   1      33.997  28.924  22.762  1.00  0.00    -0.273 OA
BRANCH  80  83
ATOM     83  C   UNL A   1      33.662  27.099  24.304  1.00  0.00     0.174 C 
ATOM     84  C   UNL A   1      33.371  27.108  25.833  1.00  0.00     0.036 C 
ATOM     85  N   UNL A   1      32.904  26.051  23.543  1.00  0.00    -0.326 N 
ATOM     86  C   UNL A   1      33.169  25.750  26.469  1.00  0.00     0.008 C 
ATOM     87  C   UNL A   1      32.883  24.707  24.198  1.00  0.00     0.089 C 
ATOM     88  C   UNL A   1      32.273  24.855  25.615  1.00  0.00     0.012 C 
ATOM     89  C   UNL A   1      32.166  23.580  23.424  1.00  0.00     0.025 C 
ATOM     90  C   UNL A   1      32.072  23.527  26.357  1.00  0.00     0.006 C 
ATOM     91  C   UNL A   1      32.047  22.279  24.208  1.00  0.00     0.002 C 
ATOM     92  C   UNL A   1      31.328  22.499  25.523  1.00  0.00     0.000 C 
BRANCH  85  93
ATOM     93  C   UNL A   1      32.669  26.177  22.170  1.00  0.00     0.245 C 
ATOM     94  O   UNL A   1      33.544  26.010  21.316  1.00  0.00    -0.273 OA
BRANCH  93  95
ATOM     95  C   UNL A   1      31.307  26.552  21.653  1.00  0.00     0.248 C 
BRANCH  95  96
ATOM     96  N   UNL A   1      30.624  27.587  22.424  1.00  0.00    -0.223 N 
ATOM     97  C   UNL A   1      29.221  26.978  23.426  1.00  0.00     0.246 A 
ATOM     98  N   UNL A   1      30.160  29.171  21.621  1.00  0.00    -0.045 NA
ATOM     99  N   UNL A   1      27.955  28.045  23.290  1.00  0.00    -0.117 NA
ATOM    100  N   UNL A   1      28.505  29.501  22.081  1.00  0.00    -0.024 NA
ENDBRANCH  95  96
ENDBRANCH  93  95
ENDBRANCH  85  93
ENDBRANCH  80  83
ENDBRANCH  78  79
ENDBRANCH  77  78
ENDBRANCH  76  77
ENDBRANCH   1  76
TORSDOF 19
ENDMDL
MODEL 3
REMARK VINA RESULT:     -12.7      3.436      5.386
REMARK SMILES O=C(NCCCCCCNC(=O)[C@H]1CC[C@@H]2CCCC[C@H]2N1C(=O)Cn1cnnn1)c1ccc(-c2c3nc(c(-c4c(F)cc(S(=O)(=O)[O-])cc4F)c4ccc([nH]4)c(-c4c(F)cc(S(=O)(=O)[O-])cc4F)c4nc(c(-c5c(F)cc(S(=O)(=O)[O-])cc5F)c5ccc2[nH]5)C=C4)C=C3)cc1
REMARK SMILES IDX 6 1 5 2 4 3 3 4 1 5 2 6 31 8 32 9 96 10 33 11 95 12 34 13
REMARK SMILES IDX 35 14 36 15 89 16 37 17 94 18 88 19 90 20 38 21 93 22 87 23
REMARK SMILES IDX 86 24 39 26 73 27 52 28 72 29 53 30 56 31 71 32 91 33 54 34
REMARK SMILES IDX 55 35 70 37 92 38 57 39 40 40 41 41 50 42 42 43 43 44 49 45
REMARK SMILES IDX 51 46 44 47 45 48 46 49 47 50 48 51 74 52 75 53 84 54 76 55
REMARK SMILES IDX 77 56 83 57 85 58 78 59 79 60 80 61 81 62 82 63 58 64 59 65
REMARK SMILES IDX 68 66 60 67 61 68 67 69 69 70 62 71 63 72 64 73 65 74 66 75
REMARK SMILES IDX 7 76 8 77 9 78 10 79 11 80 12 82 13 83 14 84 22 85 15 86
REMARK SMILES IDX 21 87 16 88 20 89 17 90 19 91 18 92 23 93 24 94 25 95 26 96
REMARK SMILES IDX 27 97 30 98 28 99 29 100
REMARK H PARENT 3 7 90 25 56 36 10 81
REMARK Flexibility Score: inf
ROOT
ATOM      1  C   UNL A   1      35.646  21.239  24.985  1.00  0.00     0.002 C 
ENDROOT
BRANCH   1   2
ATOM      2  C   UNL A   1      35.984  22.530  24.238  1.00  0.00     0.021 C 
BRANCH   2   3
ATOM      3  C   UNL A   1      37.309  23.165  24.671  1.00  0.00     0.116 C 
BRANCH   3   4
ATOM      4  N   UNL A   1      38.220  22.237  25.302  1.00  0.00    -0.352 N 
ATOM      5  O   UNL A   1      39.842  21.350  26.515  1.00  0.00    -0.269 OA
ATOM      6  C   UNL A   1      39.192  22.364  26.251  1.00  0.00     0.251 C 
ATOM      7  H   UNL A   1      38.117  21.313  24.978  1.00  0.00     0.163 HD
BRANCH   6   8
ATOM      8  C   UNL A   1      39.542  23.645  26.914  1.00  0.00     0.039 A 
ATOM      9  C   UNL A   1      38.780  24.815  26.858  1.00  0.00     0.014 A 
ATOM     10  C   UNL A   1      40.740  23.651  27.645  1.00  0.00     0.014 A 
ATOM     11  C   UNL A   1      39.256  25.993  27.410  1.00  0.00     0.010 A 
ATOM     12  C   UNL A   1      41.197  24.812  28.248  1.00  0.00     0.010 A 
ATOM     13  C   UNL A   1      40.470  25.988  28.094  1.00  0.00    -0.014 A 
BRANCH  13  14
ATOM     14  C   UNL A   1      40.822  27.191  28.835  1.00  0.00     0.031 A 
ATOM     15  C   UNL A   1      41.964  27.938  28.225  1.00  0.00     0.074 A 
ATOM     16  C   UNL A   1      40.084  27.655  29.862  1.00  0.00     0.049 A 
ATOM     17  N   UNL A   1      43.130  28.181  28.730  1.00  0.00    -0.248 NA
ATOM     18  C   UNL A   1      41.855  28.295  26.797  1.00  0.00     0.031 C 
ATOM     19  C   UNL A   1      38.798  27.147  30.343  1.00  0.00     0.029 A 
ATOM     20  N   UNL A   1      40.274  28.761  30.628  1.00  0.00    -0.354 N 
ATOM     21  C   UNL A   1      43.809  28.935  27.771  1.00  0.00     0.074 A 
ATOM     22  C   UNL A   1      43.068  28.789  26.550  1.00  0.00     0.031 C 
ATOM     23  C   UNL A   1      38.217  28.080  31.130  1.00  0.00     0.029 A 
ATOM     24  C   UNL A   1      39.139  29.188  31.311  1.00  0.00     0.049 A 
ATOM     25  H   UNL A   1      41.141  29.222  30.693  1.00  0.00     0.167 HD
ATOM     26  C   UNL A   1      44.776  29.827  28.127  1.00  0.00     0.037 A 
ATOM     27  C   UNL A   1      38.958  30.400  31.898  1.00  0.00     0.037 A 
ATOM     28  C   UNL A   1      45.277  29.537  29.447  1.00  0.00     0.049 A 
ATOM     29  C   UNL A   1      40.309  30.994  32.096  1.00  0.00     0.074 A 
ATOM     30  C   UNL A   1      45.900  28.453  30.038  1.00  0.00     0.029 A 
ATOM     31  N   UNL A   1      44.830  30.320  30.483  1.00  0.00    -0.354 N 
ATOM     32  N   UNL A   1      41.206  30.500  32.908  1.00  0.00    -0.248 NA
ATOM     33  C   UNL A   1      40.832  31.845  31.036  1.00  0.00     0.031 C 
ATOM     34  C   UNL A   1      45.366  28.398  31.358  1.00  0.00     0.029 A 
ATOM     35  C   UNL A   1      44.507  29.485  31.519  1.00  0.00     0.049 A 
ATOM     36  H   UNL A   1      44.757  31.301  30.482  1.00  0.00     0.167 HD
ATOM     37  C   UNL A   1      42.408  30.616  32.224  1.00  0.00     0.074 A 
ATOM     38  C   UNL A   1      42.125  31.516  31.107  1.00  0.00     0.031 C 
ATOM     39  C   UNL A   1      43.440  29.754  32.457  1.00  0.00     0.037 A 
BRANCH  26  40
ATOM     40  C   UNL A   1      44.951  31.195  27.487  1.00  0.00     0.058 A 
ATOM     41  C   UNL A   1      46.150  31.463  26.788  1.00  0.00     0.135 A 
ATOM     42  C   UNL A   1      44.171  32.332  27.795  1.00  0.00     0.135 A 
ATOM     43  F   UNL A   1      46.959  30.463  26.403  1.00  0.00    -0.206 F 
ATOM     44  C   UNL A   1      46.606  32.761  26.551  1.00  0.00     0.059 A 
ATOM     45  C   UNL A   1      44.585  33.632  27.524  1.00  0.00     0.059 A 
ATOM     46  F   UNL A   1      43.010  32.261  28.454  1.00  0.00    -0.206 F 
ATOM     47  C   UNL A   1      45.827  33.839  26.952  1.00  0.00     0.060 A 
BRANCH  47  48
ATOM     48  S   UNL A   1      46.470  35.511  26.779  1.00  0.00     0.124 S 
ATOM     49  O   UNL A   1      47.304  35.376  25.591  1.00  0.00    -0.237 OA
ATOM     50  O   UNL A   1      45.245  36.287  26.617  1.00  0.00    -0.237 OA
ATOM     51  O   UNL A   1      47.183  35.727  28.033  1.00  0.00    -0.744 OA
ENDBRANCH  47  48
ENDBRANCH  26  40
BRANCH  27  52
ATOM     52  C   UNL A   1      37.713  31.221  31.925  1.00  0.00     0.058 A 
ATOM     53  C   UNL A   1      37.091  31.574  33.137  1.00  0.00     0.135 A 
ATOM     54  C   UNL A   1      37.263  31.909  30.779  1.00  0.00     0.135 A 
ATOM     55  F   UNL A   1      37.470  30.990  34.283  1.00  0.00    -0.206 F 
ATOM     56  C   UNL A   1      36.114  32.577  33.214  1.00  0.00     0.059 A 
ATOM     57  C   UNL A   1      36.285  32.902  30.829  1.00  0.00     0.059 A 
ATOM     58  F   UNL A   1      37.827  31.702  29.580  1.00  0.00    -0.206 F 
ATOM     59  C   UNL A   1      35.731  33.249  32.054  1.00  0.00     0.060 A 
BRANCH  59  60
ATOM     60  S   UNL A   1      34.596  34.655  32.163  1.00  0.00     0.124 S 
ATOM     61  O   UNL A   1      34.346  34.952  30.757  1.00  0.00    -0.237 OA
ATOM     62  O   UNL A   1      33.474  34.091  32.905  1.00  0.00    -0.237 OA
ATOM     63  O   UNL A   1      35.372  35.662  32.884  1.00  0.00    -0.744 OA
ENDBRANCH  59  60
ENDBRANCH  27  52
BRANCH  39  64
ATOM     64  C   UNL A   1      43.371  28.858  33.664  1.00  0.00     0.058 A 
ATOM     65  C   UNL A   1      43.625  29.274  34.984  1.00  0.00     0.135 A 
ATOM     66  C   UNL A   1      42.858  27.564  33.488  1.00  0.00     0.135 A 
ATOM     67  F   UNL A   1      44.016  30.529  35.249  1.00  0.00    -0.206 F 
ATOM     68  C   UNL A   1      43.412  28.428  36.074  1.00  0.00     0.059 A 
ATOM     69  C   UNL A   1      42.606  26.716  34.562  1.00  0.00     0.059 A 
ATOM     70  F   UNL A   1      42.535  27.132  32.258  1.00  0.00    -0.206 F 
ATOM     71  C   UNL A   1      42.897  27.150  35.851  1.00  0.00     0.060 A 
BRANCH  71  72
ATOM     72  S   UNL A   1      42.541  26.085  37.266  1.00  0.00     0.124 S 
ATOM     73  O   UNL A   1      42.671  24.752  36.687  1.00  0.00    -0.237 OA
ATOM     74  O   UNL A   1      43.580  26.466  38.219  1.00  0.00    -0.237 OA
ATOM     75  O   UNL A   1      41.185  26.470  37.650  1.00  0.00    -0.744 OA
ENDBRANCH  71  72
ENDBRANCH  39  64
ENDBRANCH  13  14
ENDBRANCH   6   8
ENDBRANCH   3   4
ENDBRANCH   2   3
ENDBRANCH   1   2
BRANCH   1  76
ATOM     76  C   UNL A   1      34.285  20.646  24.627  1.00  0.00     0.002 C 
BRANCH  76  77
ATOM     77  C   UNL A   1      33.120  21.640  24.652  1.00  0.00     0.021 C 
BRANCH  77  78
ATOM     78  C   UNL A   1      32.430  21.975  23.106  1.00  0.00     0.116 C 
BRANCH  78  79
ATOM     79  N   UNL A   1      32.015  23.981  22.461  1.00  0.00    -0.354 N 
ATOM     80  C   UNL A   1      31.884  25.357  22.653  1.00  0.00     0.242 C 
ATOM     81  H   UNL A   1      31.799  23.868  21.507  1.00  0.00     0.163 HD
ATOM     82  O   UNL A   1      31.462  25.998  21.679  1.00  0.00    -0.273 OA
BRANCH  80  83
ATOM     83  C   UNL A   1      32.099  26.104  24.004  1.00  0.00     0.174 C 
ATOM     84  C   UNL A   1      33.619  25.934  24.293  1.00  0.00     0.036 C 
ATOM     85  N   UNL A   1      31.580  27.491  24.249  1.00  0.00    -0.326 N 
ATOM     86  C   UNL A   1      34.150  26.711  25.477  1.00  0.00     0.008 C 
ATOM     87  C   UNL A   1      32.063  28.115  25.519  1.00  0.00     0.089 C 
ATOM     88  C   UNL A   1      33.612  28.141  25.502  1.00  0.00     0.012 C 
ATOM     89  C   UNL A   1      31.510  29.518  25.846  1.00  0.00     0.025 C 
ATOM     90  C   UNL A   1      34.244  28.873  26.692  1.00  0.00     0.006 C 
ATOM     91  C   UNL A   1      32.152  30.160  27.068  1.00  0.00     0.002 C 
ATOM     92  C   UNL A   1      33.656  30.256  26.907  1.00  0.00     0.000 C 
BRANCH  85  93
ATOM     93  C   UNL A   1      30.414  27.951  23.629  1.00  0.00     0.245 C 
ATOM     94  O   UNL A   1      29.326  27.377  23.723  1.00  0.00    -0.273 OA
BRANCH  93  95
ATOM     95  C   UNL A   1      30.433  29.190  22.777  1.00  0.00     0.248 C 
BRANCH  95  96
ATOM     96  N   UNL A   1      29.222  30.003  22.853  1.00  0.00    -0.223 N 
ATOM     97  C   UNL A   1      28.488  30.419  21.231  1.00  0.00     0.246 A 
ATOM     98  N   UNL A   1      29.180  31.482  23.941  1.00  0.00    -0.045 NA
ATOM     99  N   UNL A   1      28.019  32.012  21.241  1.00  0.00    -0.117 NA
ATOM    100  N   UNL A   1      28.481  32.778  22.997  1.00  0.00    -0.024 NA
ENDBRANCH  95  96
ENDBRANCH  93  95
ENDBRANCH  85  93
ENDBRANCH  80  83
ENDBRANCH  78  79
ENDBRANCH  77  78
ENDBRANCH  76  77
ENDBRANCH   1  76
TORSDOF 19
ENDMDL
