MODEL 1
REMARK VINA RESULT:     -10.6      0.000      0.000
REMARK SMILES NS(=O)(=O)c1ccc(-n2nc(C(=O)NCCCC(=O)NCCCCCCNC(=O)c3ccc(-c4c5nc(c(-c6c(F)cc(S(=O)(=O)[O-])cc6F)c6ccc([nH]6)c(-c6c(F)cc(S(=O)(=O)[O-])cc6F)c6nc(c(-c7c(F)cc(S(=O)(=O)[O-])cc7F)c7ccc4[nH]7)C=C6)C=C5)cc3)cc2-c2ccccc2)cc1
REMARK SMILES IDX 21 1 20 2 18 3 19 4 17 6 16 7 15 8 14 9 12 10 13 11 11 13
REMARK SMILES IDX 9 14 10 15 97 16 96 17 8 18 5 19 6 20 105 21 7 22 104 23
REMARK SMILES IDX 2 24 3 25 4 26 1 27 98 30 99 31 103 32 100 33 102 34 101 35
REMARK SMILES IDX 22 36 23 37 24 38 25 39 26 40 27 41 28 42 29 44 30 45 31 46
REMARK SMILES IDX 95 47 32 48 94 49 33 50 34 51 35 52 88 53 36 54 93 55 87 56
REMARK SMILES IDX 89 57 37 58 92 59 86 60 85 61 38 63 72 64 51 65 71 66 52 67
REMARK SMILES IDX 55 68 70 69 90 70 53 71 54 72 69 74 91 75 56 76 39 77 40 78
REMARK SMILES IDX 49 79 41 80 42 81 48 82 50 83 43 84 44 85 45 86 46 87 47 88
REMARK SMILES IDX 73 89 74 90 83 91 75 92 76 93 82 94 84 95 77 96 78 97 79 98
REMARK SMILES IDX 80 99 81 100 57 101 58 102 67 103 59 104 60 105 66 106
REMARK SMILES IDX 68 107 61 108 62 109 63 110 64 111 65 112
REMARK H PARENT 20 5 14 12 1 28 1 29 27 43 89 62 55 73
REMARK Flexibility Score: inf
ROOT
ATOM      1  C   UNL A   1      34.993  30.301  27.495  1.00  0.00     0.116 C 
ENDROOT
BRANCH   1   2
ATOM      2  N   UNL A   1      33.853  29.476  27.844  1.00  0.00    -0.356 N 
ATOM      3  C   UNL A   1      33.088  28.658  27.073  1.00  0.00     0.220 C 
ATOM      4  O   UNL A   1      32.139  28.078  27.603  1.00  0.00    -0.275 OA
ATOM      5  H   UNL A   1      33.591  29.515  28.793  1.00  0.00     0.163 HD
BRANCH   3   6
ATOM      6  C   UNL A   1      33.422  28.424  25.614  1.00  0.00     0.102 C 
BRANCH   6   7
ATOM      7  C   UNL A   1      32.232  28.506  24.658  1.00  0.00     0.031 C 
BRANCH   7   8
ATOM      8  C   UNL A   1      31.620  27.171  24.247  1.00  0.00     0.116 C 
BRANCH   8   9
ATOM      9  N   UNL A   1      30.501  26.756  25.081  1.00  0.00    -0.351 N 
ATOM     10  C   UNL A   1      30.377  25.664  25.913  1.00  0.00     0.271 C 
ATOM     11  O   UNL A   1      29.367  25.592  26.615  1.00  0.00    -0.267 OA
ATOM     12  H   UNL A   1      29.712  27.346  25.047  1.00  0.00     0.163 HD
BRANCH  10  13
ATOM     13  C   UNL A   1      31.416  24.632  25.886  1.00  0.00     0.151 A 
ATOM     14  N   UNL A   1      32.319  22.742  25.471  1.00  0.00    -0.232 N 
ATOM     15  N   UNL A   1      31.119  23.364  25.532  1.00  0.00    -0.162 NA
ATOM     16  C   UNL A   1      33.355  23.647  25.590  1.00  0.00     0.075 A 
ATOM     17  C   UNL A   1      32.804  24.790  26.102  1.00  0.00     0.065 A 
BRANCH  14  18
ATOM     18  C   UNL A   1      32.453  21.365  25.163  1.00  0.00     0.065 A 
ATOM     19  C   UNL A   1      33.144  18.774  24.482  1.00  0.00     0.082 A 
ATOM     20  C   UNL A   1      33.225  19.167  25.818  1.00  0.00     0.024 A 
ATOM     21  C   UNL A   1      32.699  19.650  23.488  1.00  0.00     0.024 A 
ATOM     22  C   UNL A   1      32.866  20.462  26.161  1.00  0.00     0.030 A 
ATOM     23  C   UNL A   1      32.330  20.950  23.834  1.00  0.00     0.030 A 
BRANCH  19  24
ATOM     24  S   UNL A   1      33.496  17.093  24.092  1.00  0.00     0.238 S 
ATOM     25  O   UNL A   1      33.693  17.062  22.665  1.00  0.00    -0.207 OA
ATOM     26  O   UNL A   1      32.566  16.280  24.840  1.00  0.00    -0.207 OA
BRANCH  24  27
ATOM     27  N   UNL A   1      35.005  16.777  24.771  1.00  0.00    -0.225 NA
ATOM     28  H   UNL A   1      35.359  17.622  25.221  1.00  0.00     0.137 HD
ATOM     29  H   UNL A   1      35.652  16.485  24.040  1.00  0.00     0.137 HD
ENDBRANCH  24  27
ENDBRANCH  19  24
ENDBRANCH  14  18
BRANCH  16  30
ATOM     30  C   UNL A   1      34.702  23.383  25.140  1.00  0.00     0.000 A 
ATOM     31  C   UNL A   1      35.011  23.439  23.768  1.00  0.00     0.010 A 
ATOM     32  C   UNL A   1      35.626  22.917  26.055  1.00  0.00     0.010 A 
ATOM     33  C   UNL A   1      36.203  22.914  23.298  1.00  0.00     0.001 A 
ATOM     34  C   UNL A   1      36.787  22.361  25.567  1.00  0.00     0.001 A 
ATOM     35  C   UNL A   1      37.073  22.338  24.202  1.00  0.00     0.000 A 
ENDBRANCH  16  30
ENDBRANCH  10  13
ENDBRANCH   8   9
ENDBRANCH   7   8
ENDBRANCH   6   7
ENDBRANCH   3   6
ENDBRANCH   1   2
BRANCH   1  36
ATOM     36  C   UNL A   1      36.177  30.027  28.425  1.00  0.00     0.021 C 
BRANCH  36  37
ATOM     37  C   UNL A   1      36.433  31.139  29.448  1.00  0.00     0.002 C 
BRANCH  37  38
ATOM     38  C   UNL A   1      36.850  32.497  28.862  1.00  0.00     0.002 C 
BRANCH  38  39
ATOM     39  C   UNL A   1      35.787  33.606  28.866  1.00  0.00     0.021 C 
BRANCH  39  40
ATOM     40  C   UNL A   1      34.430  33.157  29.386  1.00  0.00     0.116 C 
BRANCH  40  41
ATOM     41  N   UNL A   1      33.753  34.209  30.154  1.00  0.00    -0.352 N 
ATOM     42  C   UNL A   1      33.841  34.514  31.499  1.00  0.00     0.251 C 
ATOM     43  H   UNL A   1      33.146  34.783  29.634  1.00  0.00     0.163 HD
ATOM     44  O   UNL A   1      32.964  35.177  32.041  1.00  0.00    -0.269 OA
BRANCH  42  45
ATOM     45  C   UNL A   1      35.006  34.044  32.271  1.00  0.00     0.039 A 
ATOM     46  C   UNL A   1      35.111  32.735  32.755  1.00  0.00     0.014 A 
ATOM     47  C   UNL A   1      36.010  34.968  32.533  1.00  0.00     0.014 A 
ATOM     48  C   UNL A   1      36.256  32.370  33.463  1.00  0.00     0.010 A 
ATOM     49  C   UNL A   1      37.217  34.555  33.010  1.00  0.00     0.010 A 
ATOM     50  C   UNL A   1      37.300  33.296  33.585  1.00  0.00    -0.014 A 
BRANCH  50  51
ATOM     51  C   UNL A   1      38.525  33.032  34.324  1.00  0.00     0.031 A 
ATOM     52  C   UNL A   1      38.467  33.397  35.758  1.00  0.00     0.074 A 
ATOM     53  C   UNL A   1      39.505  32.284  33.766  1.00  0.00     0.049 A 
ATOM     54  N   UNL A   1      39.086  34.369  36.334  1.00  0.00    -0.248 NA
ATOM     55  C   UNL A   1      37.466  32.745  36.615  1.00  0.00     0.031 C 
ATOM     56  C   UNL A   1      39.505  31.666  32.436  1.00  0.00     0.029 A 
ATOM     57  N   UNL A   1      40.671  31.826  34.297  1.00  0.00    -0.354 N 
ATOM     58  C   UNL A   1      38.735  34.314  37.681  1.00  0.00     0.074 A 
ATOM     59  C   UNL A   1      37.577  33.461  37.737  1.00  0.00     0.031 C 
ATOM     60  C   UNL A   1      40.514  30.777  32.347  1.00  0.00     0.029 A 
ATOM     61  C   UNL A   1      41.306  30.814  33.563  1.00  0.00     0.049 A 
ATOM     62  H   UNL A   1      41.043  32.181  35.136  1.00  0.00     0.167 HD
ATOM     63  C   UNL A   1      39.577  34.792  38.644  1.00  0.00     0.037 A 
ATOM     64  C   UNL A   1      42.333  30.023  34.000  1.00  0.00     0.037 A 
ATOM     65  C   UNL A   1      40.696  35.461  38.019  1.00  0.00     0.049 A 
ATOM     66  C   UNL A   1      42.934  30.773  35.161  1.00  0.00     0.074 A 
ATOM     67  C   UNL A   1      40.840  36.585  37.232  1.00  0.00     0.029 A 
ATOM     68  N   UNL A   1      41.852  34.723  37.871  1.00  0.00    -0.354 N 
ATOM     69  N   UNL A   1      43.617  31.879  34.999  1.00  0.00    -0.248 NA
ATOM     70  C   UNL A   1      42.384  30.612  36.509  1.00  0.00     0.031 C 
ATOM     71  C   UNL A   1      41.879  36.262  36.317  1.00  0.00     0.029 A 
ATOM     72  C   UNL A   1      42.370  34.993  36.634  1.00  0.00     0.049 A 
ATOM     73  H   UNL A   1      42.235  34.111  38.538  1.00  0.00     0.167 HD
ATOM     74  C   UNL A   1      43.217  32.715  36.037  1.00  0.00     0.074 A 
ATOM     75  C   UNL A   1      42.546  31.847  36.996  1.00  0.00     0.031 C 
ATOM     76  C   UNL A   1      43.185  34.070  35.875  1.00  0.00     0.037 A 
BRANCH  63  77
ATOM     77  C   UNL A   1      39.662  34.370  40.096  1.00  0.00     0.058 A 
ATOM     78  C   UNL A   1      40.135  33.067  40.385  1.00  0.00     0.135 A 
ATOM     79  C   UNL A   1      39.064  35.035  41.179  1.00  0.00     0.135 A 
ATOM     80  F   UNL A   1      40.807  32.359  39.465  1.00  0.00    -0.206 F 
ATOM     81  C   UNL A   1      39.864  32.414  41.586  1.00  0.00     0.059 A 
ATOM     82  C   UNL A   1      38.857  34.423  42.412  1.00  0.00     0.059 A 
ATOM     83  F   UNL A   1      38.574  36.274  41.088  1.00  0.00    -0.206 F 
ATOM     84  C   UNL A   1      39.181  33.089  42.584  1.00  0.00     0.060 A 
BRANCH  84  85
ATOM     85  S   UNL A   1      38.684  32.188  44.065  1.00  0.00     0.124 S 
ATOM     86  O   UNL A   1      37.732  31.228  43.519  1.00  0.00    -0.237 OA
ATOM     87  O   UNL A   1      39.955  31.630  44.519  1.00  0.00    -0.237 OA
ATOM     88  O   UNL A   1      38.122  33.212  44.939  1.00  0.00    -0.744 OA
ENDBRANCH  84  85
ENDBRANCH  63  77
BRANCH  64  89
ATOM     89  C   UNL A   1      42.564  28.540  33.735  1.00  0.00     0.058 A 
ATOM     90  C   UNL A   1      43.522  28.138  32.775  1.00  0.00     0.135 A 
ATOM     91  C   UNL A   1      42.154  27.502  34.607  1.00  0.00     0.135 A 
ATOM     92  F   UNL A   1      43.973  29.014  31.865  1.00  0.00    -0.206 F 
ATOM     93  C   UNL A   1      44.164  26.884  32.812  1.00  0.00     0.059 A 
ATOM     94  C   UNL A   1      42.783  26.253  34.670  1.00  0.00     0.059 A 
ATOM     95  F   UNL A   1      41.218  27.686  35.542  1.00  0.00    -0.206 F 
ATOM     96  C   UNL A   1      43.837  25.975  33.815  1.00  0.00     0.060 A 
BRANCH  96  97
ATOM     97  S   UNL A   1      44.938  24.584  34.202  1.00  0.00     0.124 S 
ATOM     98  O   UNL A   1      45.926  24.673  33.134  1.00  0.00    -0.237 OA
ATOM     99  O   UNL A   1      45.416  24.912  35.542  1.00  0.00    -0.237 OA
ATOM    100  O   UNL A   1      44.048  23.426  34.135  1.00  0.00    -0.744 OA
ENDBRANCH  96  97
ENDBRANCH  64  89
BRANCH  76 101
ATOM    101  C   UNL A   1      43.855  34.643  34.661  1.00  0.00     0.058 A 
ATOM    102  C   UNL A   1      43.194  34.885  33.444  1.00  0.00     0.135 A 
ATOM    103  C   UNL A   1      45.153  35.148  34.806  1.00  0.00     0.135 A 
ATOM    104  F   UNL A   1      41.915  34.530  33.270  1.00  0.00    -0.206 F 
ATOM    105  C   UNL A   1      43.810  35.571  32.402  1.00  0.00     0.059 A 
ATOM    106  C   UNL A   1      45.773  35.869  33.793  1.00  0.00     0.059 A 
ATOM    107  F   UNL A   1      45.805  35.005  35.972  1.00  0.00    -0.206 F 
ATOM    108  C   UNL A   1      45.098  36.067  32.591  1.00  0.00     0.060 A 
BRANCH 108 109
ATOM    109  S   UNL A   1      45.855  37.042  31.276  1.00  0.00     0.124 S 
ATOM    110  O   UNL A   1      46.811  36.096  30.711  1.00  0.00    -0.237 OA
ATOM    111  O   UNL A   1      44.712  37.371  30.429  1.00  0.00    -0.237 OA
ATOM    112  O   UNL A   1      46.440  38.176  31.988  1.00  0.00    -0.744 OA
ENDBRANCH 108 109
ENDBRANCH  76 101
ENDBRANCH  50  51
ENDBRANCH  42  45
ENDBRANCH  40  41
ENDBRANCH  39  40
ENDBRANCH  38  39
ENDBRANCH  37  38
ENDBRANCH  36  37
ENDBRANCH   1  36
TORSDOF 24
ENDMDL
MODEL 2
REMARK VINA RESULT:     -10.5      4.763      8.721
REMARK SMILES NS(=O)(=O)c1ccc(-n2nc(C(=O)NCCCC(=O)NCCCCCCNC(=O)c3ccc(-c4c5nc(c(-c6c(F)cc(S(=O)(=O)[O-])cc6F)c6ccc([nH]6)c(-c6c(F)cc(S(=O)(=O)[O-])cc6F)c6nc(c(-c7c(F)cc(S(=O)(=O)[O-])cc7F)c7ccc4[nH]7)C=C6)C=C5)cc3)cc2-c2ccccc2)cc1
REMARK SMILES IDX 21 1 20 2 18 3 19 4 17 6 16 7 15 8 14 9 12 10 13 11 11 13
REMARK SMILES IDX 9 14 10 15 97 16 96 17 8 18 5 19 6 20 105 21 7 22 104 23
REMARK SMILES IDX 2 24 3 25 4 26 1 27 98 30 99 31 103 32 100 33 102 34 101 35
REMARK SMILES IDX 22 36 23 37 24 38 25 39 26 40 27 41 28 42 29 44 30 45 31 46
REMARK SMILES IDX 95 47 32 48 94 49 33 50 34 51 35 52 88 53 36 54 93 55 87 56
REMARK SMILES IDX 89 57 37 58 92 59 86 60 85 61 38 63 72 64 51 65 71 66 52 67
REMARK SMILES IDX 55 68 70 69 90 70 53 71 54 72 69 74 91 75 56 76 39 77 40 78
REMARK SMILES IDX 49 79 41 80 42 81 48 82 50 83 43 84 44 85 45 86 46 87 47 88
REMARK SMILES IDX 73 89 74 90 83 91 75 92 76 93 82 94 84 95 77 96 78 97 79 98
REMARK SMILES IDX 80 99 81 100 57 101 58 102 67 103 59 104 60 105 66 106
REMARK SMILES IDX 68 107 61 108 62 109 63 110 64 111 65 112
REMARK H PARENT 20 5 14 12 1 28 1 29 27 43 89 62 55 73
REMARK Flexibility Score: inf
ROOT
ATOM      1  C   UNL A   1      34.857  30.746  27.499  1.00  0.00     0.116 C 
ENDROOT
BRANCH   1   2
ATOM      2  N   UNL A   1      33.767  29.857  27.849  1.00  0.00    -0.356 N 
ATOM      3  C   UNL A   1      33.117  28.924  27.103  1.00  0.00     0.220 C 
ATOM      4  O   UNL A   1      32.187  28.306  27.624  1.00  0.00    -0.275 OA
ATOM      5  H   UNL A   1      33.447  29.943  28.776  1.00  0.00     0.163 HD
BRANCH   3   6
ATOM      6  C   UNL A   1      33.556  28.613  25.686  1.00  0.00     0.102 C 
BRANCH   6   7
ATOM      7  C   UNL A   1      32.462  28.750  24.627  1.00  0.00     0.031 C 
BRANCH   7   8
ATOM      8  C   UNL A   1      31.811  27.448  24.175  1.00  0.00     0.116 C 
BRANCH   8   9
ATOM      9  N   UNL A   1      30.666  27.052  24.984  1.00  0.00    -0.351 N 
ATOM     10  C   UNL A   1      30.500  25.958  25.806  1.00  0.00     0.271 C 
ATOM     11  O   UNL A   1      29.475  25.905  26.486  1.00  0.00    -0.267 OA
ATOM     12  H   UNL A   1      29.891  27.660  24.936  1.00  0.00     0.163 HD
BRANCH  10  13
ATOM     13  C   UNL A   1      31.517  24.904  25.794  1.00  0.00     0.151 A 
ATOM     14  N   UNL A   1      32.365  22.975  25.448  1.00  0.00    -0.232 N 
ATOM     15  N   UNL A   1      31.181  23.626  25.522  1.00  0.00    -0.162 NA
ATOM     16  C   UNL A   1      33.423  23.863  25.476  1.00  0.00     0.075 A 
ATOM     17  C   UNL A   1      32.916  25.044  25.947  1.00  0.00     0.065 A 
BRANCH  14  18
ATOM     18  C   UNL A   1      32.460  21.581  25.211  1.00  0.00     0.065 A 
ATOM     19  C   UNL A   1      33.064  18.947  24.619  1.00  0.00     0.082 A 
ATOM     20  C   UNL A   1      33.283  19.417  25.915  1.00  0.00     0.024 A 
ATOM     21  C   UNL A   1      32.525  19.768  23.625  1.00  0.00     0.024 A 
ATOM     22  C   UNL A   1      32.967  20.734  26.214  1.00  0.00     0.030 A 
ATOM     23  C   UNL A   1      32.200  21.091  23.928  1.00  0.00     0.030 A 
BRANCH  19  24
ATOM     24  S   UNL A   1      33.365  17.242  24.297  1.00  0.00     0.238 S 
ATOM     25  O   UNL A   1      32.504  16.521  25.200  1.00  0.00    -0.207 OA
ATOM     26  O   UNL A   1      34.795  17.080  24.173  1.00  0.00    -0.207 OA
BRANCH  24  27
ATOM     27  N   UNL A   1      32.753  16.958  22.754  1.00  0.00    -0.225 NA
ATOM     28  H   UNL A   1      32.922  17.774  22.165  1.00  0.00     0.137 HD
ATOM     29  H   UNL A   1      31.750  16.783  22.813  1.00  0.00     0.137 HD
ENDBRANCH  24  27
ENDBRANCH  19  24
ENDBRANCH  14  18
BRANCH  16  30
ATOM     30  C   UNL A   1      34.746  23.546  24.990  1.00  0.00     0.000 A 
ATOM     31  C   UNL A   1      35.001  23.527  23.605  1.00  0.00     0.010 A 
ATOM     32  C   UNL A   1      35.695  23.104  25.891  1.00  0.00     0.010 A 
ATOM     33  C   UNL A   1      36.162  22.951  23.117  1.00  0.00     0.001 A 
ATOM     34  C   UNL A   1      36.824  22.498  25.387  1.00  0.00     0.001 A 
ATOM     35  C   UNL A   1      37.055  22.400  24.015  1.00  0.00     0.000 A 
ENDBRANCH  16  30
ENDBRANCH  10  13
ENDBRANCH   8   9
ENDBRANCH   7   8
ENDBRANCH   6   7
ENDBRANCH   3   6
ENDBRANCH   1   2
BRANCH   1  36
ATOM     36  C   UNL A   1      36.205  30.159  27.921  1.00  0.00     0.021 C 
BRANCH  36  37
ATOM     37  C   UNL A   1      36.924  30.969  29.005  1.00  0.00     0.002 C 
BRANCH  37  38
ATOM     38  C   UNL A   1      36.916  32.494  28.810  1.00  0.00     0.002 C 
BRANCH  38  39
ATOM     39  C   UNL A   1      35.947  33.297  29.691  1.00  0.00     0.021 C 
BRANCH  39  40
ATOM     40  C   UNL A   1      35.138  32.443  30.655  1.00  0.00     0.116 C 
BRANCH  40  41
ATOM     41  N   UNL A   1      35.263  32.903  32.043  1.00  0.00    -0.352 N 
ATOM     42  C   UNL A   1      36.111  32.467  33.043  1.00  0.00     0.251 C 
ATOM     43  H   UNL A   1      34.651  33.629  32.300  1.00  0.00     0.163 HD
ATOM     44  O   UNL A   1      35.852  32.703  34.219  1.00  0.00    -0.269 OA
BRANCH  42  45
ATOM     45  C   UNL A   1      37.335  31.729  32.681  1.00  0.00     0.039 A 
ATOM     46  C   UNL A   1      37.368  30.334  32.569  1.00  0.00     0.014 A 
ATOM     47  C   UNL A   1      38.489  32.474  32.476  1.00  0.00     0.014 A 
ATOM     48  C   UNL A   1      38.565  29.717  32.206  1.00  0.00     0.010 A 
ATOM     49  C   UNL A   1      39.582  31.902  31.897  1.00  0.00     0.010 A 
ATOM     50  C   UNL A   1      39.665  30.518  31.877  1.00  0.00    -0.014 A 
BRANCH  50  51
ATOM     51  C   UNL A   1      40.968  29.981  31.513  1.00  0.00     0.031 A 
ATOM     52  C   UNL A   1      41.798  30.890  30.690  1.00  0.00     0.074 A 
ATOM     53  C   UNL A   1      41.430  28.860  32.113  1.00  0.00     0.049 A 
ATOM     54  N   UNL A   1      42.103  30.745  29.446  1.00  0.00    -0.248 NA
ATOM     55  C   UNL A   1      42.168  32.203  31.238  1.00  0.00     0.031 C 
ATOM     56  C   UNL A   1      40.758  28.059  33.141  1.00  0.00     0.029 A 
ATOM     57  N   UNL A   1      42.640  28.245  32.013  1.00  0.00    -0.354 N 
ATOM     58  C   UNL A   1      42.904  31.835  29.109  1.00  0.00     0.074 A 
ATOM     59  C   UNL A   1      42.708  32.791  30.167  1.00  0.00     0.031 C 
ATOM     60  C   UNL A   1      41.635  27.195  33.691  1.00  0.00     0.029 A 
ATOM     61  C   UNL A   1      42.911  27.292  33.006  1.00  0.00     0.049 A 
ATOM     62  H   UNL A   1      43.279  28.453  31.294  1.00  0.00     0.167 HD
ATOM     63  C   UNL A   1      43.827  31.741  28.108  1.00  0.00     0.037 A 
ATOM     64  C   UNL A   1      44.129  26.731  33.275  1.00  0.00     0.037 A 
ATOM     65  C   UNL A   1      43.677  30.475  27.429  1.00  0.00     0.049 A 
ATOM     66  C   UNL A   1      44.942  26.951  32.026  1.00  0.00     0.074 A 
ATOM     67  C   UNL A   1      42.685  29.891  26.667  1.00  0.00     0.029 A 
ATOM     68  N   UNL A   1      44.521  29.459  27.824  1.00  0.00    -0.354 N 
ATOM     69  N   UNL A   1      44.694  26.312  30.910  1.00  0.00    -0.248 NA
ATOM     70  C   UNL A   1      45.684  28.200  31.837  1.00  0.00     0.031 C 
ATOM     71  C   UNL A   1      42.732  28.509  26.999  1.00  0.00     0.029 A 
ATOM     72  C   UNL A   1      43.794  28.302  27.885  1.00  0.00     0.049 A 
ATOM     73  H   UNL A   1      45.480  29.551  28.028  1.00  0.00     0.167 HD
ATOM     74  C   UNL A   1      44.846  27.258  29.901  1.00  0.00     0.074 A 
ATOM     75  C   UNL A   1      45.563  28.367  30.516  1.00  0.00     0.031 C 
ATOM     76  C   UNL A   1      44.103  27.192  28.758  1.00  0.00     0.037 A 
BRANCH  63  77
ATOM     77  C   UNL A   1      45.100  32.545  27.942  1.00  0.00     0.058 A 
ATOM     78  C   UNL A   1      45.204  33.404  26.822  1.00  0.00     0.135 A 
ATOM     79  C   UNL A   1      46.302  32.328  28.633  1.00  0.00     0.135 A 
ATOM     80  F   UNL A   1      44.114  33.768  26.128  1.00  0.00    -0.206 F 
ATOM     81  C   UNL A   1      46.426  33.849  26.322  1.00  0.00     0.059 A 
ATOM     82  C   UNL A   1      47.523  32.832  28.191  1.00  0.00     0.059 A 
ATOM     83  F   UNL A   1      46.385  31.555  29.719  1.00  0.00    -0.206 F 
ATOM     84  C   UNL A   1      47.592  33.518  26.992  1.00  0.00     0.060 A 
BRANCH  84  85
ATOM     85  S   UNL A   1      49.179  33.950  26.251  1.00  0.00     0.124 S 
ATOM     86  O   UNL A   1      49.809  32.641  26.124  1.00  0.00    -0.237 OA
ATOM     87  O   UNL A   1      48.766  34.576  24.998  1.00  0.00    -0.237 OA
ATOM     88  O   UNL A   1      49.792  34.858  27.214  1.00  0.00    -0.744 OA
ENDBRANCH  84  85
ENDBRANCH  63  77
BRANCH  64  89
ATOM     89  C   UNL A   1      44.731  26.381  34.631  1.00  0.00     0.058 A 
ATOM     90  C   UNL A   1      44.700  25.044  35.090  1.00  0.00     0.135 A 
ATOM     91  C   UNL A   1      45.634  27.212  35.339  1.00  0.00     0.135 A 
ATOM     92  F   UNL A   1      43.865  24.157  34.529  1.00  0.00    -0.206 F 
ATOM     93  C   UNL A   1      45.627  24.532  36.020  1.00  0.00     0.059 A 
ATOM     94  C   UNL A   1      46.570  26.726  36.259  1.00  0.00     0.059 A 
ATOM     95  F   UNL A   1      45.756  28.516  35.077  1.00  0.00    -0.206 F 
ATOM     96  C   UNL A   1      46.608  25.370  36.544  1.00  0.00     0.060 A 
BRANCH  96  97
ATOM     97  S   UNL A   1      48.087  24.683  37.344  1.00  0.00     0.124 S 
ATOM     98  O   UNL A   1      48.355  25.668  38.384  1.00  0.00    -0.237 OA
ATOM     99  O   UNL A   1      47.627  23.377  37.807  1.00  0.00    -0.237 OA
ATOM    100  O   UNL A   1      49.063  24.639  36.257  1.00  0.00    -0.744 OA
ENDBRANCH  96  97
ENDBRANCH  64  89
BRANCH  76 101
ATOM    101  C   UNL A   1      43.335  25.929  28.498  1.00  0.00     0.058 A 
ATOM    102  C   UNL A   1      41.969  25.770  28.789  1.00  0.00     0.135 A 
ATOM    103  C   UNL A   1      43.959  24.926  27.745  1.00  0.00     0.135 A 
ATOM    104  F   UNL A   1      41.278  26.735  29.408  1.00  0.00    -0.206 F 
ATOM    105  C   UNL A   1      41.261  24.645  28.377  1.00  0.00     0.059 A 
ATOM    106  C   UNL A   1      43.262  23.814  27.291  1.00  0.00     0.059 A 
ATOM    107  F   UNL A   1      45.245  25.060  27.381  1.00  0.00    -0.206 F 
ATOM    108  C   UNL A   1      41.915  23.676  27.621  1.00  0.00     0.060 A 
BRANCH 108 109
ATOM    109  S   UNL A   1      40.970  22.270  27.005  1.00  0.00     0.124 S 
ATOM    110  O   UNL A   1      41.622  22.004  25.727  1.00  0.00    -0.237 OA
ATOM    111  O   UNL A   1      41.179  21.267  28.045  1.00  0.00    -0.237 OA
ATOM    112  O   UNL A   1      39.607  22.789  26.916  1.00  0.00    -0.744 OA
ENDBRANCH 108 109
ENDBRANCH  76 101
ENDBRANCH  50  51
ENDBRANCH  42  45
ENDBRANCH  40  41
ENDBRANCH  39  40
ENDBRANCH  38  39
ENDBRANCH  37  38
ENDBRANCH  36  37
ENDBRANCH   1  36
TORSDOF 24
ENDMDL
MODEL 3
REMARK VINA RESULT:     -10.4      4.218      7.906
REMARK SMILES NS(=O)(=O)c1ccc(-n2nc(C(=O)NCCCC(=O)NCCCCCCNC(=O)c3ccc(-c4c5nc(c(-c6c(F)cc(S(=O)(=O)[O-])cc6F)c6ccc([nH]6)c(-c6c(F)cc(S(=O)(=O)[O-])cc6F)c6nc(c(-c7c(F)cc(S(=O)(=O)[O-])cc7F)c7ccc4[nH]7)C=C6)C=C5)cc3)cc2-c2ccccc2)cc1
REMARK SMILES IDX 21 1 20 2 18 3 19 4 17 6 16 7 15 8 14 9 12 10 13 11 11 13
REMARK SMILES IDX 9 14 10 15 97 16 96 17 8 18 5 19 6 20 105 21 7 22 104 23
REMARK SMILES IDX 2 24 3 25 4 26 1 27 98 30 99 31 103 32 100 33 102 34 101 35
REMARK SMILES IDX 22 36 23 37 24 38 25 39 26 40 27 41 28 42 29 44 30 45 31 46
REMARK SMILES IDX 95 47 32 48 94 49 33 50 34 51 35 52 88 53 36 54 93 55 87 56
REMARK SMILES IDX 89 57 37 58 92 59 86 60 85 61 38 63 72 64 51 65 71 66 52 67
REMARK SMILES IDX 55 68 70 69 90 70 53 71 54 72 69 74 91 75 56 76 39 77 40 78
REMARK SMILES IDX 49 79 41 80 42 81 48 82 50 83 43 84 44 85 45 86 46 87 47 88
REMARK SMILES IDX 73 89 74 90 83 91 75 92 76 93 82 94 84 95 77 96 78 97 79 98
REMARK SMILES IDX 80 99 81 100 57 101 58 102 67 103 59 104 60 105 66 106
REMARK SMILES IDX 68 107 61 108 62 109 63 110 64 111 65 112
REMARK H PARENT 20 5 14 12 1 28 1 29 27 43 89 62 55 73
REMARK Flexibility Score: inf
ROOT
ATOM      1  C   UNL A   1      39.072  22.583  26.445  1.00  0.00     0.116 C 
ENDROOT
BRANCH   1   2
ATOM      2  N   UNL A   1      38.194  23.374  25.605  1.00  0.00    -0.356 N 
ATOM      3  C   UNL A   1      36.895  23.175  25.255  1.00  0.00     0.220 C 
ATOM      4  O   UNL A   1      36.367  23.985  24.491  1.00  0.00    -0.275 OA
ATOM      5  H   UNL A   1      38.605  24.184  25.227  1.00  0.00     0.163 HD
BRANCH   3   6
ATOM      6  C   UNL A   1      36.100  22.020  25.829  1.00  0.00     0.102 C 
BRANCH   6   7
ATOM      7  C   UNL A   1      35.456  21.100  24.791  1.00  0.00     0.031 C 
BRANCH   7   8
ATOM      8  C   UNL A   1      34.189  21.632  24.131  1.00  0.00     0.116 C 
BRANCH   8   9
ATOM      9  N   UNL A   1      32.965  21.277  24.837  1.00  0.00    -0.351 N 
ATOM     10  C   UNL A   1      31.886  22.061  25.184  1.00  0.00     0.271 C 
ATOM     11  O   UNL A   1      30.907  21.500  25.676  1.00  0.00    -0.267 OA
ATOM     12  H   UNL A   1      32.898  20.332  25.108  1.00  0.00     0.163 HD
BRANCH  10  13
ATOM     13  C   UNL A   1      31.975  23.511  24.995  1.00  0.00     0.151 A 
ATOM     14  N   UNL A   1      31.354  25.477  24.439  1.00  0.00    -0.232 N 
ATOM     15  N   UNL A   1      31.044  24.170  24.274  1.00  0.00    -0.162 NA
ATOM     16  C   UNL A   1      32.333  25.638  25.400  1.00  0.00     0.075 A 
ATOM     17  C   UNL A   1      32.905  24.407  25.569  1.00  0.00     0.065 A 
BRANCH  14  18
ATOM     18  C   UNL A   1      30.632  26.522  23.809  1.00  0.00     0.065 A 
ATOM     19  C   UNL A   1      29.271  28.778  22.965  1.00  0.00     0.082 A 
ATOM     20  C   UNL A   1      30.648  28.699  22.752  1.00  0.00     0.024 A 
ATOM     21  C   UNL A   1      28.564  27.735  23.570  1.00  0.00     0.024 A 
ATOM     22  C   UNL A   1      31.327  27.561  23.163  1.00  0.00     0.030 A 
ATOM     23  C   UNL A   1      29.246  26.588  23.977  1.00  0.00     0.030 A 
BRANCH  19  24
ATOM     24  S   UNL A   1      28.416  30.181  22.331  1.00  0.00     0.238 S 
ATOM     25  O   UNL A   1      27.445  30.527  23.338  1.00  0.00    -0.207 OA
ATOM     26  O   UNL A   1      28.141  29.917  20.939  1.00  0.00    -0.207 OA
BRANCH  24  27
ATOM     27  N   UNL A   1      29.541  31.434  22.329  1.00  0.00    -0.225 NA
ATOM     28  H   UNL A   1      29.781  31.674  21.367  1.00  0.00     0.137 HD
ATOM     29  H   UNL A   1      30.382  31.138  22.825  1.00  0.00     0.137 HD
ENDBRANCH  24  27
ENDBRANCH  19  24
ENDBRANCH  14  18
BRANCH  16  30
ATOM     30  C   UNL A   1      32.565  26.878  26.104  1.00  0.00     0.000 A 
ATOM     31  C   UNL A   1      31.558  27.421  26.926  1.00  0.00     0.010 A 
ATOM     32  C   UNL A   1      33.713  27.594  25.826  1.00  0.00     0.010 A 
ATOM     33  C   UNL A   1      31.648  28.729  27.369  1.00  0.00     0.001 A 
ATOM     34  C   UNL A   1      33.767  28.905  26.239  1.00  0.00     0.001 A 
ATOM     35  C   UNL A   1      32.741  29.483  26.988  1.00  0.00     0.000 A 
ENDBRANCH  16  30
ENDBRANCH  10  13
ENDBRANCH   8   9
ENDBRANCH   7   8
ENDBRANCH   6   7
ENDBRANCH   3   6
ENDBRANCH   1   2
BRANCH   1  36
ATOM     36  C   UNL A   1      40.053  23.473  27.210  1.00  0.00     0.021 C 
BRANCH  36  37
ATOM     37  C   UNL A   1      39.614  24.938  27.309  1.00  0.00     0.002 C 
BRANCH  37  38
ATOM     38  C   UNL A   1      40.553  25.959  26.648  1.00  0.00     0.002 C 
BRANCH  38  39
ATOM     39  C   UNL A   1      41.554  25.411  25.619  1.00  0.00     0.021 C 
BRANCH  39  40
ATOM     40  C   UNL A   1      42.412  26.482  24.962  1.00  0.00     0.116 C 
BRANCH  40  41
ATOM     41  N   UNL A   1      43.847  26.229  25.137  1.00  0.00    -0.352 N 
ATOM     42  C   UNL A   1      44.739  26.790  26.032  1.00  0.00     0.251 C 
ATOM     43  H   UNL A   1      44.232  25.561  24.527  1.00  0.00     0.163 HD
ATOM     44  O   UNL A   1      45.945  26.735  25.818  1.00  0.00    -0.269 OA
BRANCH  42  45
ATOM     45  C   UNL A   1      44.225  27.442  27.250  1.00  0.00     0.039 A 
ATOM     46  C   UNL A   1      43.808  26.719  28.374  1.00  0.00     0.014 A 
ATOM     47  C   UNL A   1      44.138  28.829  27.241  1.00  0.00     0.014 A 
ATOM     48  C   UNL A   1      43.350  27.417  29.491  1.00  0.00     0.010 A 
ATOM     49  C   UNL A   1      43.920  29.512  28.399  1.00  0.00     0.010 A 
ATOM     50  C   UNL A   1      43.409  28.816  29.485  1.00  0.00    -0.014 A 
BRANCH  50  51
ATOM     51  C   UNL A   1      42.933  29.645  30.582  1.00  0.00     0.031 A 
ATOM     52  C   UNL A   1      41.567  30.184  30.396  1.00  0.00     0.074 A 
ATOM     53  C   UNL A   1      43.612  29.673  31.753  1.00  0.00     0.049 A 
ATOM     54  N   UNL A   1      41.245  31.412  30.174  1.00  0.00    -0.248 NA
ATOM     55  C   UNL A   1      40.449  29.243  30.237  1.00  0.00     0.031 C 
ATOM     56  C   UNL A   1      44.838  28.943  32.089  1.00  0.00     0.029 A 
ATOM     57  N   UNL A   1      43.305  30.280  32.931  1.00  0.00    -0.354 N 
ATOM     58  C   UNL A   1      39.855  31.441  30.079  1.00  0.00     0.074 A 
ATOM     59  C   UNL A   1      39.458  30.070  29.891  1.00  0.00     0.031 C 
ATOM     60  C   UNL A   1      45.053  29.002  33.418  1.00  0.00     0.029 A 
ATOM     61  C   UNL A   1      44.051  29.850  34.038  1.00  0.00     0.049 A 
ATOM     62  H   UNL A   1      42.609  30.972  33.002  1.00  0.00     0.167 HD
ATOM     63  C   UNL A   1      39.155  32.569  30.397  1.00  0.00     0.037 A 
ATOM     64  C   UNL A   1      43.770  30.109  35.351  1.00  0.00     0.037 A 
ATOM     65  C   UNL A   1      40.075  33.656  30.643  1.00  0.00     0.049 A 
ATOM     66  C   UNL A   1      42.853  31.305  35.323  1.00  0.00     0.074 A 
ATOM     67  C   UNL A   1      40.987  34.351  29.875  1.00  0.00     0.029 A 
ATOM     68  N   UNL A   1      40.396  33.907  31.960  1.00  0.00    -0.354 N 
ATOM     69  N   UNL A   1      43.275  32.500  34.992  1.00  0.00    -0.248 NA
ATOM     70  C   UNL A   1      41.408  31.124  35.165  1.00  0.00     0.031 C 
ATOM     71  C   UNL A   1      42.069  34.632  30.753  1.00  0.00     0.029 A 
ATOM     72  C   UNL A   1      41.737  34.166  32.028  1.00  0.00     0.049 A 
ATOM     73  H   UNL A   1      39.769  33.900  32.719  1.00  0.00     0.167 HD
ATOM     74  C   UNL A   1      42.266  33.040  34.199  1.00  0.00     0.074 A 
ATOM     75  C   UNL A   1      41.099  32.199  34.433  1.00  0.00     0.031 C 
ATOM     76  C   UNL A   1      42.557  33.916  33.193  1.00  0.00     0.037 A 
BRANCH  63  77
ATOM     77  C   UNL A   1      37.721  32.668  30.874  1.00  0.00     0.058 A 
ATOM     78  C   UNL A   1      36.805  33.404  30.084  1.00  0.00     0.135 A 
ATOM     79  C   UNL A   1      37.259  32.335  32.158  1.00  0.00     0.135 A 
ATOM     80  F   UNL A   1      37.085  33.706  28.807  1.00  0.00    -0.206 F 
ATOM     81  C   UNL A   1      35.618  33.927  30.593  1.00  0.00     0.059 A 
ATOM     82  C   UNL A   1      36.038  32.785  32.655  1.00  0.00     0.059 A 
ATOM     83  F   UNL A   1      37.987  31.634  33.031  1.00  0.00    -0.206 F 
ATOM     84  C   UNL A   1      35.262  33.648  31.903  1.00  0.00     0.060 A 
BRANCH  84  85
ATOM     85  S   UNL A   1      33.817  34.464  32.608  1.00  0.00     0.124 S 
ATOM     86  O   UNL A   1      33.121  33.343  33.229  1.00  0.00    -0.237 OA
ATOM     87  O   UNL A   1      34.429  35.416  33.530  1.00  0.00    -0.237 OA
ATOM     88  O   UNL A   1      33.148  35.069  31.462  1.00  0.00    -0.744 OA
ENDBRANCH  84  85
ENDBRANCH  63  77
BRANCH  64  89
ATOM     89  C   UNL A   1      43.925  29.184  36.553  1.00  0.00     0.058 A 
ATOM     90  C   UNL A   1      43.272  27.930  36.563  1.00  0.00     0.135 A 
ATOM     91  C   UNL A   1      44.944  29.310  37.528  1.00  0.00     0.135 A 
ATOM     92  F   UNL A   1      42.263  27.687  35.712  1.00  0.00    -0.206 F 
ATOM     93  C   UNL A   1      43.727  26.836  37.325  1.00  0.00     0.059 A 
ATOM     94  C   UNL A   1      45.421  28.235  38.289  1.00  0.00     0.059 A 
ATOM     95  F   UNL A   1      45.631  30.443  37.698  1.00  0.00    -0.206 F 
ATOM     96  C   UNL A   1      44.853  26.982  38.131  1.00  0.00     0.060 A 
BRANCH  96  97
ATOM     97  S   UNL A   1      45.755  25.527  38.739  1.00  0.00     0.124 S 
ATOM     98  O   UNL A   1      46.957  25.550  37.916  1.00  0.00    -0.237 OA
ATOM     99  O   UNL A   1      45.946  25.832  40.154  1.00  0.00    -0.237 OA
ATOM    100  O   UNL A   1      44.832  24.427  38.468  1.00  0.00    -0.744 OA
ENDBRANCH  96  97
ENDBRANCH  64  89
BRANCH  76 101
ATOM    101  C   UNL A   1      43.940  34.493  33.150  1.00  0.00     0.058 A 
ATOM    102  C   UNL A   1      44.353  35.593  33.922  1.00  0.00     0.135 A 
ATOM    103  C   UNL A   1      44.927  33.780  32.458  1.00  0.00     0.135 A 
ATOM    104  F   UNL A   1      43.487  36.257  34.698  1.00  0.00    -0.206 F 
ATOM    105  C   UNL A   1      45.686  35.988  33.977  1.00  0.00     0.059 A 
ATOM    106  C   UNL A   1      46.269  34.133  32.529  1.00  0.00     0.059 A 
ATOM    107  F   UNL A   1      44.598  32.681  31.760  1.00  0.00    -0.206 F 
ATOM    108  C   UNL A   1      46.638  35.246  33.282  1.00  0.00     0.060 A 
BRANCH 108 109
ATOM    109  S   UNL A   1      48.376  35.700  33.437  1.00  0.00     0.124 S 
ATOM    110  O   UNL A   1      48.819  35.677  32.047  1.00  0.00    -0.237 OA
ATOM    111  O   UNL A   1      48.304  37.018  34.059  1.00  0.00    -0.237 OA
ATOM    112  O   UNL A   1      48.928  34.648  34.287  1.00  0.00    -0.744 OA
ENDBRANCH 108 109
ENDBRANCH  76 101
ENDBRANCH  50  51
ENDBRANCH  42  45
ENDBRANCH  40  41
ENDBRANCH  39  40
ENDBRANCH  38  39
ENDBRANCH  37  38
ENDBRANCH  36  37
ENDBRANCH   1  36
TORSDOF 24
ENDMDL
