MODEL 1
REMARK VINA RESULT:     -10.6      0.000      0.000
REMARK SMILES CCc1c([N+](=O)[O-])cc(C(=O)NCCCCCCNC(=O)c2ccc(-c3c4nc(c(-c5c(F)cc(S(=O)(=O)[O-])cc5F)c5ccc([nH]5)c(-c5c(F)cc(S(=O)(=O)[O-])cc5F)c5nc(c(-c6c(F)cc(S(=O)(=O)[O-])cc6F)c6ccc3[nH]6)C=C5)C=C4)cc2)n1C
REMARK SMILES IDX 16 1 15 2 14 3 13 4 12 5 10 6 11 7 9 9 3 10 4 11 88 12 8 13
REMARK SMILES IDX 89 14 2 15 1 16 5 17 6 18 7 19 17 20 18 21 19 22 20 23 21 25
REMARK SMILES IDX 22 26 23 27 87 28 24 29 86 30 25 31 26 32 27 33 80 34 28 35
REMARK SMILES IDX 85 36 79 37 81 38 29 39 84 40 78 41 77 42 30 44 64 45 43 46
REMARK SMILES IDX 63 47 44 48 47 49 62 50 82 51 45 52 46 53 61 55 83 56 48 57
REMARK SMILES IDX 31 58 32 59 41 60 33 61 34 62 40 63 42 64 35 65 36 66 37 67
REMARK SMILES IDX 38 68 39 69 65 70 66 71 75 72 67 73 68 74 74 75 76 76 69 77
REMARK SMILES IDX 70 78 71 79 72 80 73 81 49 82 50 83 59 84 51 85 52 86 58 87
REMARK SMILES IDX 60 88 53 89 54 90 55 91 56 92 57 93
REMARK H PARENT 12 8 19 24 81 43 47 54
REMARK Flexibility Score: inf
ROOT
ATOM      1  C   UNL A   1      33.402  28.252  25.978  1.00  0.00     0.002 C 
ENDROOT
BRANCH   1   2
ATOM      2  C   UNL A   1      32.348  28.488  24.893  1.00  0.00     0.002 C 
BRANCH   2   3
ATOM      3  C   UNL A   1      32.829  29.024  23.539  1.00  0.00     0.021 C 
BRANCH   3   4
ATOM      4  C   UNL A   1      34.000  28.295  22.883  1.00  0.00     0.116 C 
BRANCH   4   5
ATOM      5  N   UNL A   1      33.617  27.451  21.772  1.00  0.00    -0.351 N 
ATOM      6  C   UNL A   1      33.232  26.135  21.753  1.00  0.00     0.268 C 
ATOM      7  O   UNL A   1      33.015  25.632  20.650  1.00  0.00    -0.268 OA
ATOM      8  H   UNL A   1      33.637  27.891  20.892  1.00  0.00     0.163 HD
BRANCH   6   9
ATOM      9  C   UNL A   1      33.162  25.363  22.980  1.00  0.00     0.114 A 
ATOM     10  C   UNL A   1      32.493  24.469  24.970  1.00  0.00     0.096 A 
ATOM     11  C   UNL A   1      33.783  23.999  24.692  1.00  0.00     0.290 A 
ATOM     12  N   UNL A   1      32.080  25.144  23.823  1.00  0.00    -0.338 N 
ATOM     13  C   UNL A   1      34.179  24.548  23.450  1.00  0.00     0.119 A 
ATOM     14  C   UNL A   1      30.708  25.414  23.440  1.00  0.00     0.150 C 
BRANCH  10  15
ATOM     15  C   UNL A   1      31.722  24.261  26.257  1.00  0.00     0.058 C 
ATOM     16  C   UNL A   1      31.064  22.927  26.538  1.00  0.00     0.011 C 
ENDBRANCH  10  15
BRANCH  11  17
ATOM     17  N   UNL A   1      34.605  23.126  25.509  1.00  0.00     0.064 N 
ATOM     18  O   UNL A   1      35.432  23.645  26.269  1.00  0.00    -0.258 OA
ATOM     19  O   UNL A   1      34.418  21.909  25.378  1.00  0.00    -0.258 OA
ENDBRANCH  11  17
ENDBRANCH   6   9
ENDBRANCH   4   5
ENDBRANCH   3   4
ENDBRANCH   2   3
ENDBRANCH   1   2
BRANCH   1  20
ATOM     20  C   UNL A   1      33.748  29.432  26.888  1.00  0.00     0.021 C 
BRANCH  20  21
ATOM     21  C   UNL A   1      35.048  29.333  27.677  1.00  0.00     0.116 C 
BRANCH  21  22
ATOM     22  N   UNL A   1      35.130  30.269  28.783  1.00  0.00    -0.352 N 
ATOM     23  C   UNL A   1      36.207  30.615  29.567  1.00  0.00     0.251 C 
ATOM     24  H   UNL A   1      34.287  30.725  29.007  1.00  0.00     0.163 HD
ATOM     25  O   UNL A   1      36.043  31.381  30.511  1.00  0.00    -0.269 OA
BRANCH  23  26
ATOM     26  C   UNL A   1      37.551  30.040  29.308  1.00  0.00     0.039 A 
ATOM     27  C   UNL A   1      37.982  29.929  27.981  1.00  0.00     0.014 A 
ATOM     28  C   UNL A   1      38.381  29.602  30.344  1.00  0.00     0.014 A 
ATOM     29  C   UNL A   1      39.267  29.456  27.700  1.00  0.00     0.010 A 
ATOM     30  C   UNL A   1      39.683  29.183  30.066  1.00  0.00     0.010 A 
ATOM     31  C   UNL A   1      40.143  29.116  28.743  1.00  0.00    -0.014 A 
BRANCH  31  32
ATOM     32  C   UNL A   1      41.547  28.711  28.469  1.00  0.00     0.031 A 
ATOM     33  C   UNL A   1      42.649  29.733  28.465  1.00  0.00     0.074 A 
ATOM     34  C   UNL A   1      41.819  27.429  28.150  1.00  0.00     0.049 A 
ATOM     35  N   UNL A   1      43.910  29.585  28.149  1.00  0.00    -0.248 NA
ATOM     36  C   UNL A   1      42.279  31.105  28.846  1.00  0.00     0.031 C 
ATOM     37  C   UNL A   1      40.836  26.346  28.081  1.00  0.00     0.029 A 
ATOM     38  N   UNL A   1      43.003  26.823  27.809  1.00  0.00    -0.354 N 
ATOM     39  C   UNL A   1      44.482  30.846  28.271  1.00  0.00     0.074 A 
ATOM     40  C   UNL A   1      43.422  31.753  28.662  1.00  0.00     0.031 C 
ATOM     41  C   UNL A   1      41.457  25.209  27.730  1.00  0.00     0.029 A 
ATOM     42  C   UNL A   1      42.875  25.486  27.519  1.00  0.00     0.049 A 
ATOM     43  H   UNL A   1      43.863  27.302  27.776  1.00  0.00     0.167 HD
ATOM     44  C   UNL A   1      45.773  31.213  28.088  1.00  0.00     0.037 A 
ATOM     45  C   UNL A   1      43.791  24.585  27.116  1.00  0.00     0.037 A 
ATOM     46  C   UNL A   1      46.834  30.308  27.732  1.00  0.00     0.049 A 
ATOM     47  C   UNL A   1      45.221  25.011  26.936  1.00  0.00     0.074 A 
ATOM     48  C   UNL A   1      48.183  30.579  27.580  1.00  0.00     0.029 A 
ATOM     49  N   UNL A   1      46.668  28.955  27.476  1.00  0.00    -0.354 N 
ATOM     50  N   UNL A   1      45.750  26.201  27.095  1.00  0.00    -0.248 NA
ATOM     51  C   UNL A   1      46.179  23.975  26.523  1.00  0.00     0.031 C 
ATOM     52  C   UNL A   1      48.831  29.394  27.211  1.00  0.00     0.029 A 
ATOM     53  C   UNL A   1      47.888  28.380  27.157  1.00  0.00     0.049 A 
ATOM     54  H   UNL A   1      45.810  28.474  27.516  1.00  0.00     0.167 HD
ATOM     55  C   UNL A   1      47.104  26.053  26.818  1.00  0.00     0.074 A 
ATOM     56  C   UNL A   1      47.316  24.658  26.490  1.00  0.00     0.031 C 
ATOM     57  C   UNL A   1      48.084  26.989  26.836  1.00  0.00     0.037 A 
BRANCH  44  58
ATOM     58  C   UNL A   1      46.109  32.664  28.274  1.00  0.00     0.058 A 
ATOM     59  C   UNL A   1      46.046  33.574  27.206  1.00  0.00     0.135 A 
ATOM     60  C   UNL A   1      46.479  33.157  29.536  1.00  0.00     0.135 A 
ATOM     61  F   UNL A   1      45.712  33.149  25.978  1.00  0.00    -0.206 F 
ATOM     62  C   UNL A   1      46.369  34.916  27.375  1.00  0.00     0.059 A 
ATOM     63  C   UNL A   1      46.786  34.500  29.732  1.00  0.00     0.059 A 
ATOM     64  F   UNL A   1      46.555  32.329  30.589  1.00  0.00    -0.206 F 
ATOM     65  C   UNL A   1      46.745  35.368  28.641  1.00  0.00     0.060 A 
BRANCH  65  66
ATOM     66  S   UNL A   1      47.176  37.109  28.849  1.00  0.00     0.124 S 
ATOM     67  O   UNL A   1      48.613  37.023  29.094  1.00  0.00    -0.237 OA
ATOM     68  O   UNL A   1      46.787  37.687  27.566  1.00  0.00    -0.237 OA
ATOM     69  O   UNL A   1      46.367  37.523  29.991  1.00  0.00    -0.744 OA
ENDBRANCH  65  66
ENDBRANCH  44  58
BRANCH  45  70
ATOM     70  C   UNL A   1      43.382  23.179  26.869  1.00  0.00     0.058 A 
ATOM     71  C   UNL A   1      43.313  22.672  25.563  1.00  0.00     0.135 A 
ATOM     72  C   UNL A   1      43.078  22.313  27.928  1.00  0.00     0.135 A 
ATOM     73  F   UNL A   1      43.589  23.468  24.520  1.00  0.00    -0.206 F 
ATOM     74  C   UNL A   1      42.952  21.352  25.314  1.00  0.00     0.059 A 
ATOM     75  C   UNL A   1      42.732  20.985  27.706  1.00  0.00     0.059 A 
ATOM     76  F   UNL A   1      43.146  22.750  29.195  1.00  0.00    -0.206 F 
ATOM     77  C   UNL A   1      42.666  20.515  26.394  1.00  0.00     0.060 A 
BRANCH  77  78
ATOM     78  S   UNL A   1      42.265  18.783  26.072  1.00  0.00     0.124 S 
ATOM     79  O   UNL A   1      43.193  18.463  24.994  1.00  0.00    -0.237 OA
ATOM     80  O   UNL A   1      42.541  18.155  27.362  1.00  0.00    -0.237 OA
ATOM     81  O   UNL A   1      40.853  18.834  25.701  1.00  0.00    -0.744 OA
ENDBRANCH  77  78
ENDBRANCH  45  70
BRANCH  57  82
ATOM     82  C   UNL A   1      49.477  26.536  26.511  1.00  0.00     0.058 A 
ATOM     83  C   UNL A   1      49.998  26.649  25.214  1.00  0.00     0.135 A 
ATOM     84  C   UNL A   1      50.315  26.032  27.518  1.00  0.00     0.135 A 
ATOM     85  F   UNL A   1      49.231  27.117  24.217  1.00  0.00    -0.206 F 
ATOM     86  C   UNL A   1      51.303  26.265  24.922  1.00  0.00     0.059 A 
ATOM     87  C   UNL A   1      51.628  25.657  27.252  1.00  0.00     0.059 A 
ATOM     88  F   UNL A   1      49.863  25.910  28.776  1.00  0.00    -0.206 F 
ATOM     89  C   UNL A   1      52.111  25.770  25.947  1.00  0.00     0.060 A 
BRANCH  89  90
ATOM     90  S   UNL A   1      53.816  25.312  25.570  1.00  0.00     0.124 S 
ATOM     91  O   UNL A   1      53.624  24.149  24.710  1.00  0.00    -0.237 OA
ATOM     92  O   UNL A   1      54.327  26.511  24.910  1.00  0.00    -0.237 OA
ATOM     93  O   UNL A   1      54.390  25.037  26.883  1.00  0.00    -0.744 OA
ENDBRANCH  89  90
ENDBRANCH  57  82
ENDBRANCH  31  32
ENDBRANCH  23  26
ENDBRANCH  21  22
ENDBRANCH  20  21
ENDBRANCH   1  20
TORSDOF 18
ENDMDL
MODEL 2
REMARK VINA RESULT:     -10.5      4.697     10.407
REMARK SMILES CCc1c([N+](=O)[O-])cc(C(=O)NCCCCCCNC(=O)c2ccc(-c3c4nc(c(-c5c(F)cc(S(=O)(=O)[O-])cc5F)c5ccc([nH]5)c(-c5c(F)cc(S(=O)(=O)[O-])cc5F)c5nc(c(-c6c(F)cc(S(=O)(=O)[O-])cc6F)c6ccc3[nH]6)C=C5)C=C4)cc2)n1C
REMARK SMILES IDX 16 1 15 2 14 3 13 4 12 5 10 6 11 7 9 9 3 10 4 11 88 12 8 13
REMARK SMILES IDX 89 14 2 15 1 16 5 17 6 18 7 19 17 20 18 21 19 22 20 23 21 25
REMARK SMILES IDX 22 26 23 27 87 28 24 29 86 30 25 31 26 32 27 33 80 34 28 35
REMARK SMILES IDX 85 36 79 37 81 38 29 39 84 40 78 41 77 42 30 44 64 45 43 46
REMARK SMILES IDX 63 47 44 48 47 49 62 50 82 51 45 52 46 53 61 55 83 56 48 57
REMARK SMILES IDX 31 58 32 59 41 60 33 61 34 62 40 63 42 64 35 65 36 66 37 67
REMARK SMILES IDX 38 68 39 69 65 70 66 71 75 72 67 73 68 74 74 75 76 76 69 77
REMARK SMILES IDX 70 78 71 79 72 80 73 81 49 82 50 83 59 84 51 85 52 86 58 87
REMARK SMILES IDX 60 88 53 89 54 90 55 91 56 92 57 93
REMARK H PARENT 12 8 19 24 81 43 47 54
REMARK Flexibility Score: inf
ROOT
ATOM      1  C   UNL A   1      34.711  24.024  23.679  1.00  0.00     0.002 C 
ENDROOT
BRANCH   1   2
ATOM      2  C   UNL A   1      34.096  24.611  24.953  1.00  0.00     0.002 C 
BRANCH   2   3
ATOM      3  C   UNL A   1      32.973  23.817  25.631  1.00  0.00     0.021 C 
BRANCH   3   4
ATOM      4  C   UNL A   1      31.670  23.658  24.850  1.00  0.00     0.116 C 
BRANCH   4   5
ATOM      5  N   UNL A   1      30.490  24.044  25.594  1.00  0.00    -0.351 N 
ATOM      6  C   UNL A   1      30.102  25.273  26.062  1.00  0.00     0.268 C 
ATOM      7  O   UNL A   1      29.067  25.317  26.729  1.00  0.00    -0.268 OA
ATOM      8  H   UNL A   1      29.869  23.307  25.796  1.00  0.00     0.163 HD
BRANCH   6   9
ATOM      9  C   UNL A   1      30.926  26.446  25.839  1.00  0.00     0.114 A 
ATOM     10  C   UNL A   1      32.097  28.149  24.869  1.00  0.00     0.096 A 
ATOM     11  C   UNL A   1      32.332  28.188  26.250  1.00  0.00     0.290 A 
ATOM     12  N   UNL A   1      31.097  27.196  24.682  1.00  0.00    -0.338 N 
ATOM     13  C   UNL A   1      31.589  27.139  26.839  1.00  0.00     0.119 A 
ATOM     14  C   UNL A   1      30.210  27.104  23.539  1.00  0.00     0.150 C 
BRANCH  10  15
ATOM     15  C   UNL A   1      32.792  28.988  23.818  1.00  0.00     0.058 C 
ATOM     16  C   UNL A   1      34.095  28.513  23.209  1.00  0.00     0.011 C 
ENDBRANCH  10  15
BRANCH  11  17
ATOM     17  N   UNL A   1      33.188  29.104  26.978  1.00  0.00     0.064 N 
ATOM     18  O   UNL A   1      34.373  28.792  27.144  1.00  0.00    -0.258 OA
ATOM     19  O   UNL A   1      32.659  30.145  27.391  1.00  0.00    -0.258 OA
ENDBRANCH  11  17
ENDBRANCH   6   9
ENDBRANCH   4   5
ENDBRANCH   3   4
ENDBRANCH   2   3
ENDBRANCH   1   2
BRANCH   1  20
ATOM     20  C   UNL A   1      36.132  23.466  23.780  1.00  0.00     0.021 C 
BRANCH  20  21
ATOM     21  C   UNL A   1      36.881  23.723  25.082  1.00  0.00     0.116 C 
BRANCH  21  22
ATOM     22  N   UNL A   1      37.940  22.766  25.343  1.00  0.00    -0.352 N 
ATOM     23  C   UNL A   1      39.107  22.916  26.057  1.00  0.00     0.251 C 
ATOM     24  H   UNL A   1      37.803  21.874  24.950  1.00  0.00     0.163 HD
ATOM     25  O   UNL A   1      39.914  21.992  26.092  1.00  0.00    -0.269 OA
BRANCH  23  26
ATOM     26  C   UNL A   1      39.419  24.194  26.745  1.00  0.00     0.039 A 
ATOM     27  C   UNL A   1      38.939  24.381  28.046  1.00  0.00     0.014 A 
ATOM     28  C   UNL A   1      40.159  25.206  26.127  1.00  0.00     0.014 A 
ATOM     29  C   UNL A   1      39.268  25.542  28.754  1.00  0.00     0.010 A 
ATOM     30  C   UNL A   1      40.533  26.339  26.853  1.00  0.00     0.010 A 
ATOM     31  C   UNL A   1      40.100  26.513  28.176  1.00  0.00    -0.014 A 
BRANCH  31  32
ATOM     32  C   UNL A   1      40.546  27.703  28.947  1.00  0.00     0.031 A 
ATOM     33  C   UNL A   1      41.877  27.705  29.645  1.00  0.00     0.074 A 
ATOM     34  C   UNL A   1      39.717  28.758  29.080  1.00  0.00     0.049 A 
ATOM     35  N   UNL A   1      42.388  28.607  30.444  1.00  0.00    -0.248 NA
ATOM     36  C   UNL A   1      42.736  26.530  29.434  1.00  0.00     0.031 C 
ATOM     37  C   UNL A   1      38.383  28.867  28.486  1.00  0.00     0.029 A 
ATOM     38  N   UNL A   1      39.868  29.934  29.772  1.00  0.00    -0.354 N 
ATOM     39  C   UNL A   1      43.618  28.101  30.849  1.00  0.00     0.074 A 
ATOM     40  C   UNL A   1      43.763  26.800  30.229  1.00  0.00     0.031 C 
ATOM     41  C   UNL A   1      37.843  30.048  28.830  1.00  0.00     0.029 A 
ATOM     42  C   UNL A   1      38.775  30.765  29.694  1.00  0.00     0.049 A 
ATOM     43  H   UNL A   1      40.682  30.161  30.277  1.00  0.00     0.167 HD
ATOM     44  C   UNL A   1      44.548  28.674  31.650  1.00  0.00     0.037 A 
ATOM     45  C   UNL A   1      38.544  31.964  30.262  1.00  0.00     0.037 A 
ATOM     46  C   UNL A   1      44.421  29.981  32.240  1.00  0.00     0.049 A 
ATOM     47  C   UNL A   1      39.597  32.587  31.134  1.00  0.00     0.074 A 
ATOM     48  C   UNL A   1      45.336  30.667  33.021  1.00  0.00     0.029 A 
ATOM     49  N   UNL A   1      43.312  30.803  32.112  1.00  0.00    -0.354 N 
ATOM     50  N   UNL A   1      40.770  32.111  31.473  1.00  0.00    -0.248 NA
ATOM     51  C   UNL A   1      39.296  33.911  31.701  1.00  0.00     0.031 C 
ATOM     52  C   UNL A   1      44.772  31.895  33.383  1.00  0.00     0.029 A 
ATOM     53  C   UNL A   1      43.515  31.985  32.806  1.00  0.00     0.049 A 
ATOM     54  H   UNL A   1      42.500  30.580  31.601  1.00  0.00     0.167 HD
ATOM     55  C   UNL A   1      41.355  33.081  32.278  1.00  0.00     0.074 A 
ATOM     56  C   UNL A   1      40.411  34.176  32.370  1.00  0.00     0.031 C 
ATOM     57  C   UNL A   1      42.567  33.067  32.885  1.00  0.00     0.037 A 
BRANCH  44  58
ATOM     58  C   UNL A   1      45.792  27.883  31.936  1.00  0.00     0.058 A 
ATOM     59  C   UNL A   1      46.904  27.933  31.081  1.00  0.00     0.135 A 
ATOM     60  C   UNL A   1      45.882  27.082  33.086  1.00  0.00     0.135 A 
ATOM     61  F   UNL A   1      46.862  28.672  29.962  1.00  0.00    -0.206 F 
ATOM     62  C   UNL A   1      48.051  27.190  31.339  1.00  0.00     0.059 A 
ATOM     63  C   UNL A   1      47.027  26.348  33.374  1.00  0.00     0.059 A 
ATOM     64  F   UNL A   1      44.846  27.000  33.936  1.00  0.00    -0.206 F 
ATOM     65  C   UNL A   1      48.101  26.394  32.485  1.00  0.00     0.060 A 
BRANCH  65  66
ATOM     66  S   UNL A   1      49.589  25.423  32.804  1.00  0.00     0.124 S 
ATOM     67  O   UNL A   1      50.037  25.129  31.447  1.00  0.00    -0.237 OA
ATOM     68  O   UNL A   1      50.421  26.358  33.556  1.00  0.00    -0.237 OA
ATOM     69  O   UNL A   1      49.090  24.282  33.564  1.00  0.00    -0.744 OA
ENDBRANCH  65  66
ENDBRANCH  44  58
BRANCH  45  70
ATOM     70  C   UNL A   1      37.259  32.663  30.008  1.00  0.00     0.058 A 
ATOM     71  C   UNL A   1      36.143  32.432  30.826  1.00  0.00     0.135 A 
ATOM     72  C   UNL A   1      37.127  33.589  28.963  1.00  0.00     0.135 A 
ATOM     73  F   UNL A   1      36.223  31.549  31.833  1.00  0.00    -0.206 F 
ATOM     74  C   UNL A   1      34.938  33.092  30.616  1.00  0.00     0.059 A 
ATOM     75  C   UNL A   1      35.938  34.275  28.744  1.00  0.00     0.059 A 
ATOM     76  F   UNL A   1      38.172  33.854  28.164  1.00  0.00    -0.206 F 
ATOM     77  C   UNL A   1      34.846  34.016  29.572  1.00  0.00     0.060 A 
BRANCH  77  78
ATOM     78  S   UNL A   1      33.301  34.923  29.344  1.00  0.00     0.124 S 
ATOM     79  O   UNL A   1      33.790  36.233  28.927  1.00  0.00    -0.237 OA
ATOM     80  O   UNL A   1      32.627  34.135  28.316  1.00  0.00    -0.237 OA
ATOM     81  O   UNL A   1      32.686  34.867  30.667  1.00  0.00    -0.744 OA
ENDBRANCH  77  78
ENDBRANCH  45  70
BRANCH  57  82
ATOM     82  C   UNL A   1      42.951  34.276  33.687  1.00  0.00     0.058 A 
ATOM     83  C   UNL A   1      42.596  34.400  35.038  1.00  0.00     0.135 A 
ATOM     84  C   UNL A   1      43.724  35.296  33.111  1.00  0.00     0.135 A 
ATOM     85  F   UNL A   1      41.850  33.454  35.630  1.00  0.00    -0.206 F 
ATOM     86  C   UNL A   1      42.986  35.502  35.791  1.00  0.00     0.059 A 
ATOM     87  C   UNL A   1      44.139  36.400  33.850  1.00  0.00     0.059 A 
ATOM     88  F   UNL A   1      44.092  35.220  31.822  1.00  0.00    -0.206 F 
ATOM     89  C   UNL A   1      43.758  36.498  35.188  1.00  0.00     0.060 A 
BRANCH  89  90
ATOM     90  S   UNL A   1      44.295  37.906  36.182  1.00  0.00     0.124 S 
ATOM     91  O   UNL A   1      43.497  37.733  37.391  1.00  0.00    -0.237 OA
ATOM     92  O   UNL A   1      45.728  37.662  36.328  1.00  0.00    -0.237 OA
ATOM     93  O   UNL A   1      43.945  39.056  35.354  1.00  0.00    -0.744 OA
ENDBRANCH  89  90
ENDBRANCH  57  82
ENDBRANCH  31  32
ENDBRANCH  23  26
ENDBRANCH  21  22
ENDBRANCH  20  21
ENDBRANCH   1  20
TORSDOF 18
ENDMDL
MODEL 3
REMARK VINA RESULT:     -10.3      4.935     10.359
REMARK SMILES CCc1c([N+](=O)[O-])cc(C(=O)NCCCCCCNC(=O)c2ccc(-c3c4nc(c(-c5c(F)cc(S(=O)(=O)[O-])cc5F)c5ccc([nH]5)c(-c5c(F)cc(S(=O)(=O)[O-])cc5F)c5nc(c(-c6c(F)cc(S(=O)(=O)[O-])cc6F)c6ccc3[nH]6)C=C5)C=C4)cc2)n1C
REMARK SMILES IDX 16 1 15 2 14 3 13 4 12 5 10 6 11 7 9 9 3 10 4 11 88 12 8 13
REMARK SMILES IDX 89 14 2 15 1 16 5 17 6 18 7 19 17 20 18 21 19 22 20 23 21 25
REMARK SMILES IDX 22 26 23 27 87 28 24 29 86 30 25 31 26 32 27 33 80 34 28 35
REMARK SMILES IDX 85 36 79 37 81 38 29 39 84 40 78 41 77 42 30 44 64 45 43 46
REMARK SMILES IDX 63 47 44 48 47 49 62 50 82 51 45 52 46 53 61 55 83 56 48 57
REMARK SMILES IDX 31 58 32 59 41 60 33 61 34 62 40 63 42 64 35 65 36 66 37 67
REMARK SMILES IDX 38 68 39 69 65 70 66 71 75 72 67 73 68 74 74 75 76 76 69 77
REMARK SMILES IDX 70 78 71 79 72 80 73 81 49 82 50 83 59 84 51 85 52 86 58 87
REMARK SMILES IDX 60 88 53 89 54 90 55 91 56 92 57 93
REMARK H PARENT 12 8 19 24 81 43 47 54
REMARK Flexibility Score: inf
ROOT
ATOM      1  C   UNL A   1      34.669  24.502  24.208  1.00  0.00     0.002 C 
ENDROOT
BRANCH   1   2
ATOM      2  C   UNL A   1      34.310  25.311  25.457  1.00  0.00     0.002 C 
BRANCH   2   3
ATOM      3  C   UNL A   1      33.351  26.496  25.284  1.00  0.00     0.021 C 
BRANCH   3   4
ATOM      4  C   UNL A   1      32.224  26.629  26.307  1.00  0.00     0.116 C 
BRANCH   4   5
ATOM      5  N   UNL A   1      30.905  26.710  25.718  1.00  0.00    -0.351 N 
ATOM      6  C   UNL A   1      30.208  25.790  24.978  1.00  0.00     0.268 C 
ATOM      7  O   UNL A   1      29.112  26.139  24.539  1.00  0.00    -0.268 OA
ATOM      8  H   UNL A   1      30.434  27.560  25.875  1.00  0.00     0.163 HD
BRANCH   6   9
ATOM      9  C   UNL A   1      30.786  24.496  24.668  1.00  0.00     0.114 A 
ATOM     10  C   UNL A   1      31.674  22.398  24.826  1.00  0.00     0.096 A 
ATOM     11  C   UNL A   1      31.737  22.800  23.485  1.00  0.00     0.290 A 
ATOM     12  N   UNL A   1      30.926  23.376  25.480  1.00  0.00    -0.338 N 
ATOM     13  C   UNL A   1      31.170  24.093  23.400  1.00  0.00     0.119 A 
ATOM     14  C   UNL A   1      30.214  23.210  26.732  1.00  0.00     0.150 C 
BRANCH  10  15
ATOM     15  C   UNL A   1      32.291  21.148  25.417  1.00  0.00     0.058 C 
ATOM     16  C   UNL A   1      33.795  20.966  25.402  1.00  0.00     0.011 C 
ENDBRANCH  10  15
BRANCH  11  17
ATOM     17  N   UNL A   1      32.292  22.065  22.364  1.00  0.00     0.064 N 
ATOM     18  O   UNL A   1      33.105  22.642  21.632  1.00  0.00    -0.258 OA
ATOM     19  O   UNL A   1      31.900  20.899  22.219  1.00  0.00    -0.258 OA
ENDBRANCH  11  17
ENDBRANCH   6   9
ENDBRANCH   4   5
ENDBRANCH   3   4
ENDBRANCH   2   3
ENDBRANCH   1   2
BRANCH   1  20
ATOM     20  C   UNL A   1      35.961  23.683  24.251  1.00  0.00     0.021 C 
BRANCH  20  21
ATOM     21  C   UNL A   1      36.731  23.684  25.567  1.00  0.00     0.116 C 
BRANCH  21  22
ATOM     22  N   UNL A   1      37.919  22.849  25.546  1.00  0.00    -0.352 N 
ATOM     23  C   UNL A   1      39.175  23.092  26.052  1.00  0.00     0.251 C 
ATOM     24  H   UNL A   1      37.808  21.977  25.103  1.00  0.00     0.163 HD
ATOM     25  O   UNL A   1      40.070  22.275  25.859  1.00  0.00    -0.269 OA
BRANCH  23  26
ATOM     26  C   UNL A   1      39.469  24.347  26.789  1.00  0.00     0.039 A 
ATOM     27  C   UNL A   1      38.957  24.492  28.083  1.00  0.00     0.014 A 
ATOM     28  C   UNL A   1      40.224  25.378  26.223  1.00  0.00     0.014 A 
ATOM     29  C   UNL A   1      39.267  25.629  28.836  1.00  0.00     0.010 A 
ATOM     30  C   UNL A   1      40.579  26.487  26.994  1.00  0.00     0.010 A 
ATOM     31  C   UNL A   1      40.114  26.619  28.311  1.00  0.00    -0.014 A 
BRANCH  31  32
ATOM     32  C   UNL A   1      40.539  27.783  29.130  1.00  0.00     0.031 A 
ATOM     33  C   UNL A   1      41.840  27.752  29.882  1.00  0.00     0.074 A 
ATOM     34  C   UNL A   1      39.716  28.843  29.258  1.00  0.00     0.049 A 
ATOM     35  N   UNL A   1      42.328  28.626  30.725  1.00  0.00    -0.248 NA
ATOM     36  C   UNL A   1      42.696  26.573  29.674  1.00  0.00     0.031 C 
ATOM     37  C   UNL A   1      38.408  28.983  28.613  1.00  0.00     0.029 A 
ATOM     38  N   UNL A   1      39.850  29.999  29.987  1.00  0.00    -0.354 N 
ATOM     39  C   UNL A   1      43.535  28.097  31.166  1.00  0.00     0.074 A 
ATOM     40  C   UNL A   1      43.691  26.810  30.518  1.00  0.00     0.031 C 
ATOM     41  C   UNL A   1      37.866  30.160  28.966  1.00  0.00     0.029 A 
ATOM     42  C   UNL A   1      38.770  30.844  29.886  1.00  0.00     0.049 A 
ATOM     43  H   UNL A   1      40.645  30.203  30.530  1.00  0.00     0.167 HD
ATOM     44  C   UNL A   1      44.436  28.638  32.020  1.00  0.00     0.037 A 
ATOM     45  C   UNL A   1      38.528  32.030  30.476  1.00  0.00     0.037 A 
ATOM     46  C   UNL A   1      44.299  29.930  32.638  1.00  0.00     0.049 A 
ATOM     47  C   UNL A   1      39.550  32.618  31.407  1.00  0.00     0.074 A 
ATOM     48  C   UNL A   1      45.188  30.585  33.473  1.00  0.00     0.029 A 
ATOM     49  N   UNL A   1      43.204  30.768  32.487  1.00  0.00    -0.354 N 
ATOM     50  N   UNL A   1      40.704  32.120  31.781  1.00  0.00    -0.248 NA
ATOM     51  C   UNL A   1      39.240  33.929  31.997  1.00  0.00     0.031 C 
ATOM     52  C   UNL A   1      44.622  31.809  33.845  1.00  0.00     0.029 A 
ATOM     53  C   UNL A   1      43.390  31.928  33.220  1.00  0.00     0.049 A 
ATOM     54  H   UNL A   1      42.412  30.567  31.938  1.00  0.00     0.167 HD
ATOM     55  C   UNL A   1      41.265  33.062  32.635  1.00  0.00     0.074 A 
ATOM     56  C   UNL A   1      40.329  34.165  32.717  1.00  0.00     0.031 C 
ATOM     57  C   UNL A   1      42.451  33.018  33.290  1.00  0.00     0.037 A 
BRANCH  44  58
ATOM     58  C   UNL A   1      45.660  27.826  32.334  1.00  0.00     0.058 A 
ATOM     59  C   UNL A   1      46.816  27.906  31.543  1.00  0.00     0.135 A 
ATOM     60  C   UNL A   1      45.684  26.972  33.449  1.00  0.00     0.135 A 
ATOM     61  F   UNL A   1      46.838  28.696  30.458  1.00  0.00    -0.206 F 
ATOM     62  C   UNL A   1      47.945  27.145  31.827  1.00  0.00     0.059 A 
ATOM     63  C   UNL A   1      46.810  26.217  33.764  1.00  0.00     0.059 A 
ATOM     64  F   UNL A   1      44.604  26.859  34.238  1.00  0.00    -0.206 F 
ATOM     65  C   UNL A   1      47.929  26.297  32.936  1.00  0.00     0.060 A 
BRANCH  65  66
ATOM     66  S   UNL A   1      49.394  25.302  33.289  1.00  0.00     0.124 S 
ATOM     67  O   UNL A   1      48.793  24.082  33.817  1.00  0.00    -0.237 OA
ATOM     68  O   UNL A   1      50.019  25.182  31.975  1.00  0.00    -0.237 OA
ATOM     69  O   UNL A   1      50.127  26.113  34.256  1.00  0.00    -0.744 OA
ENDBRANCH  65  66
ENDBRANCH  44  58
BRANCH  45  70
ATOM     70  C   UNL A   1      37.261  32.749  30.189  1.00  0.00     0.058 A 
ATOM     71  C   UNL A   1      37.194  33.699  29.159  1.00  0.00     0.135 A 
ATOM     72  C   UNL A   1      36.093  32.485  30.918  1.00  0.00     0.135 A 
ATOM     73  F   UNL A   1      38.289  33.987  28.442  1.00  0.00    -0.206 F 
ATOM     74  C   UNL A   1      36.011  34.367  28.863  1.00  0.00     0.059 A 
ATOM     75  C   UNL A   1      34.894  33.127  30.629  1.00  0.00     0.059 A 
ATOM     76  F   UNL A   1      36.106  31.573  31.902  1.00  0.00    -0.206 F 
ATOM     77  C   UNL A   1      34.864  34.071  29.603  1.00  0.00     0.060 A 
BRANCH  77  78
ATOM     78  S   UNL A   1      33.312  34.889  29.171  1.00  0.00     0.124 S 
ATOM     79  O   UNL A   1      33.790  36.153  28.621  1.00  0.00    -0.237 OA
ATOM     80  O   UNL A   1      32.726  33.956  28.212  1.00  0.00    -0.237 OA
ATOM     81  O   UNL A   1      32.617  34.977  30.451  1.00  0.00    -0.744 OA
ENDBRANCH  77  78
ENDBRANCH  45  70
BRANCH  57  82
ATOM     82  C   UNL A   1      42.814  34.202  34.138  1.00  0.00     0.058 A 
ATOM     83  C   UNL A   1      42.552  34.221  35.516  1.00  0.00     0.135 A 
ATOM     84  C   UNL A   1      43.475  35.305  33.577  1.00  0.00     0.135 A 
ATOM     85  F   UNL A   1      41.914  33.192  36.096  1.00  0.00    -0.206 F 
ATOM     86  C   UNL A   1      42.924  35.301  36.309  1.00  0.00     0.059 A 
ATOM     87  C   UNL A   1      43.872  36.389  34.354  1.00  0.00     0.059 A 
ATOM     88  F   UNL A   1      43.752  35.330  32.263  1.00  0.00    -0.206 F 
ATOM     89  C   UNL A   1      43.584  36.381  35.719  1.00  0.00     0.060 A 
BRANCH  89  90
ATOM     90  S   UNL A   1      44.101  37.762  36.761  1.00  0.00     0.124 S 
ATOM     91  O   UNL A   1      44.131  38.860  35.799  1.00  0.00    -0.237 OA
ATOM     92  O   UNL A   1      43.035  37.823  37.758  1.00  0.00    -0.237 OA
ATOM     93  O   UNL A   1      45.400  37.333  37.269  1.00  0.00    -0.744 OA
ENDBRANCH  89  90
ENDBRANCH  57  82
ENDBRANCH  31  32
ENDBRANCH  23  26
ENDBRANCH  21  22
ENDBRANCH  20  21
ENDBRANCH   1  20
TORSDOF 18
ENDMDL
