MODEL 1
REMARK VINA RESULT:     -12.4      0.000      0.000
REMARK SMILES Nc1ccc2[nH]cc(C(=O)NCCCCCCNC(=O)c3ccc(-c4c5nc(c(-c6c(F)cc(S(=O)(=O)[O-])cc6F)c6ccc([nH]6)c(-c6c(F)cc(S(=O)(=O)[O-])cc6F)c6nc(c(-c7c(F)cc(S(=O)(=O)[O-])cc7F)c7ccc4[nH]7)C=C6)C=C5)cc3)c2c1
REMARK SMILES IDX 15 1 14 2 13 3 12 4 11 5 9 6 10 7 8 9 2 10 3 11 88 12 4 13
REMARK SMILES IDX 87 14 5 15 6 16 7 17 1 19 16 22 17 23 18 24 19 25 20 27
REMARK SMILES IDX 21 28 22 29 86 30 23 31 85 32 24 33 25 34 26 35 79 36 27 37
REMARK SMILES IDX 84 38 78 39 80 40 28 41 83 42 77 43 76 44 29 46 63 47 42 48
REMARK SMILES IDX 62 49 43 50 46 51 61 52 81 53 44 54 45 55 60 57 82 58 47 59
REMARK SMILES IDX 30 60 31 61 40 62 32 63 33 64 39 65 41 66 34 67 35 68 36 69
REMARK SMILES IDX 37 70 38 71 64 72 65 73 74 74 66 75 67 76 73 77 75 78 68 79
REMARK SMILES IDX 69 80 70 81 71 82 72 83 48 84 49 85 58 86 50 87 51 88 57 89
REMARK SMILES IDX 59 90 52 91 53 92 54 93 55 94 56 95
REMARK H PARENT 11 8 6 18 1 20 1 21 18 26 80 45 46 56
REMARK Flexibility Score: inf
ROOT
ATOM      1  C   UNL A   1      35.880  23.500  23.857  1.00  0.00     0.002 C 
ENDROOT
BRANCH   1   2
ATOM      2  C   UNL A   1      35.365  24.308  25.054  1.00  0.00     0.002 C 
BRANCH   2   3
ATOM      3  C   UNL A   1      34.042  25.050  24.884  1.00  0.00     0.021 C 
BRANCH   3   4
ATOM      4  C   UNL A   1      33.445  25.703  26.122  1.00  0.00     0.116 C 
BRANCH   4   5
ATOM      5  N   UNL A   1      32.115  25.281  26.479  1.00  0.00    -0.352 N 
ATOM      6  C   UNL A   1      31.617  24.019  26.719  1.00  0.00     0.253 C 
ATOM      7  O   UNL A   1      30.418  23.956  27.006  1.00  0.00    -0.269 OA
ATOM      8  H   UNL A   1      31.458  26.008  26.566  1.00  0.00     0.163 HD
BRANCH   6   9
ATOM      9  C   UNL A   1      32.408  22.787  26.544  1.00  0.00     0.065 A 
ATOM     10  C   UNL A   1      32.361  20.547  23.399  1.00  0.00     0.032 A 
ATOM     11  C   UNL A   1      33.050  19.488  23.978  1.00  0.00     0.027 A 
ATOM     12  C   UNL A   1      32.259  21.755  24.099  1.00  0.00     0.036 A 
ATOM     13  C   UNL A   1      33.591  19.589  25.262  1.00  0.00     0.029 A 
ATOM     14  C   UNL A   1      32.619  21.843  25.466  1.00  0.00     0.014 A 
ATOM     15  C   UNL A   1      33.340  20.762  25.985  1.00  0.00     0.046 A 
ATOM     16  N   UNL A   1      33.731  21.107  27.252  1.00  0.00    -0.360 N 
ATOM     17  C   UNL A   1      33.174  22.301  27.601  1.00  0.00     0.097 A 
ATOM     18  H   UNL A   1      34.327  20.573  27.825  1.00  0.00     0.166 HD
BRANCH  10  19
ATOM     19  N   UNL A   1      31.851  20.442  22.115  1.00  0.00    -0.399 N 
ATOM     20  H   UNL A   1      32.397  20.043  21.399  1.00  0.00     0.156 HD
ATOM     21  H   UNL A   1      30.943  20.766  21.918  1.00  0.00     0.156 HD
ENDBRANCH  10  19
ENDBRANCH   6   9
ENDBRANCH   4   5
ENDBRANCH   3   4
ENDBRANCH   2   3
ENDBRANCH   1   2
BRANCH   1  22
ATOM     22  C   UNL A   1      36.617  22.186  24.146  1.00  0.00     0.021 C 
BRANCH  22  23
ATOM     23  C   UNL A   1      37.172  22.010  25.559  1.00  0.00     0.116 C 
BRANCH  23  24
ATOM     24  N   UNL A   1      38.556  21.596  25.620  1.00  0.00    -0.352 N 
ATOM     25  C   UNL A   1      39.688  22.068  26.222  1.00  0.00     0.251 C 
ATOM     26  H   UNL A   1      38.723  20.776  25.102  1.00  0.00     0.163 HD
ATOM     27  O   UNL A   1      40.679  21.334  26.139  1.00  0.00    -0.269 OA
BRANCH  25  28
ATOM     28  C   UNL A   1      39.823  23.379  26.915  1.00  0.00     0.039 A 
ATOM     29  C   UNL A   1      38.972  24.473  26.766  1.00  0.00     0.014 A 
ATOM     30  C   UNL A   1      40.941  23.515  27.762  1.00  0.00     0.014 A 
ATOM     31  C   UNL A   1      39.270  25.689  27.379  1.00  0.00     0.010 A 
ATOM     32  C   UNL A   1      41.232  24.722  28.393  1.00  0.00     0.010 A 
ATOM     33  C   UNL A   1      40.416  25.826  28.167  1.00  0.00    -0.014 A 
BRANCH  33  34
ATOM     34  C   UNL A   1      40.685  27.135  28.760  1.00  0.00     0.031 A 
ATOM     35  C   UNL A   1      41.828  27.901  28.184  1.00  0.00     0.074 A 
ATOM     36  C   UNL A   1      39.926  27.694  29.723  1.00  0.00     0.049 A 
ATOM     37  N   UNL A   1      42.931  28.251  28.765  1.00  0.00    -0.248 NA
ATOM     38  C   UNL A   1      41.768  28.252  26.759  1.00  0.00     0.031 C 
ATOM     39  C   UNL A   1      38.634  27.242  30.240  1.00  0.00     0.029 A 
ATOM     40  N   UNL A   1      40.135  28.865  30.391  1.00  0.00    -0.354 N 
ATOM     41  C   UNL A   1      43.636  29.020  27.840  1.00  0.00     0.074 A 
ATOM     42  C   UNL A   1      42.929  28.889  26.590  1.00  0.00     0.031 C 
ATOM     43  C   UNL A   1      38.081  28.229  30.978  1.00  0.00     0.029 A 
ATOM     44  C   UNL A   1      39.033  29.322  31.097  1.00  0.00     0.049 A 
ATOM     45  H   UNL A   1      40.994  29.346  30.373  1.00  0.00     0.167 HD
ATOM     46  C   UNL A   1      44.665  29.838  28.206  1.00  0.00     0.037 A 
ATOM     47  C   UNL A   1      38.889  30.533  31.689  1.00  0.00     0.037 A 
ATOM     48  C   UNL A   1      45.154  29.521  29.522  1.00  0.00     0.049 A 
ATOM     49  C   UNL A   1      40.250  31.066  31.951  1.00  0.00     0.074 A 
ATOM     50  C   UNL A   1      45.725  28.407  30.105  1.00  0.00     0.029 A 
ATOM     51  N   UNL A   1      44.802  30.345  30.563  1.00  0.00    -0.354 N 
ATOM     52  N   UNL A   1      41.082  30.552  32.816  1.00  0.00    -0.248 NA
ATOM     53  C   UNL A   1      40.855  31.936  30.953  1.00  0.00     0.031 C 
ATOM     54  C   UNL A   1      45.243  28.403  31.446  1.00  0.00     0.029 A 
ATOM     55  C   UNL A   1      44.437  29.531  31.605  1.00  0.00     0.049 A 
ATOM     56  H   UNL A   1      44.810  31.329  30.563  1.00  0.00     0.167 HD
ATOM     57  C   UNL A   1      42.333  30.688  32.234  1.00  0.00     0.074 A 
ATOM     58  C   UNL A   1      42.142  31.641  31.146  1.00  0.00     0.031 C 
ATOM     59  C   UNL A   1      43.346  29.814  32.511  1.00  0.00     0.037 A 
BRANCH  46  60
ATOM     60  C   UNL A   1      45.048  31.123  27.506  1.00  0.00     0.058 A 
ATOM     61  C   UNL A   1      46.297  31.215  26.852  1.00  0.00     0.135 A 
ATOM     62  C   UNL A   1      44.375  32.348  27.706  1.00  0.00     0.135 A 
ATOM     63  F   UNL A   1      47.021  30.113  26.600  1.00  0.00    -0.206 F 
ATOM     64  C   UNL A   1      46.879  32.438  26.516  1.00  0.00     0.059 A 
ATOM     65  C   UNL A   1      44.913  33.575  27.330  1.00  0.00     0.059 A 
ATOM     66  F   UNL A   1      43.215  32.421  28.367  1.00  0.00    -0.206 F 
ATOM     67  C   UNL A   1      46.187  33.615  26.785  1.00  0.00     0.060 A 
BRANCH  67  68
ATOM     68  S   UNL A   1      47.002  35.200  26.512  1.00  0.00     0.124 S 
ATOM     69  O   UNL A   1      45.925  35.979  25.914  1.00  0.00    -0.237 OA
ATOM     70  O   UNL A   1      47.392  35.579  27.867  1.00  0.00    -0.237 OA
ATOM     71  O   UNL A   1      48.107  34.859  25.621  1.00  0.00    -0.744 OA
ENDBRANCH  67  68
ENDBRANCH  46  60
BRANCH  47  72
ATOM     72  C   UNL A   1      37.656  31.359  31.765  1.00  0.00     0.058 A 
ATOM     73  C   UNL A   1      37.051  31.669  32.994  1.00  0.00     0.135 A 
ATOM     74  C   UNL A   1      37.190  32.083  30.646  1.00  0.00     0.135 A 
ATOM     75  F   UNL A   1      37.451  31.055  34.118  1.00  0.00    -0.206 F 
ATOM     76  C   UNL A   1      36.071  32.662  33.114  1.00  0.00     0.059 A 
ATOM     77  C   UNL A   1      36.205  33.062  30.737  1.00  0.00     0.059 A 
ATOM     78  F   UNL A   1      37.746  31.925  29.435  1.00  0.00    -0.206 F 
ATOM     79  C   UNL A   1      35.667  33.365  31.980  1.00  0.00     0.060 A 
BRANCH  79  80
ATOM     80  S   UNL A   1      34.523  34.756  32.151  1.00  0.00     0.124 S 
ATOM     81  O   UNL A   1      35.324  35.715  32.903  1.00  0.00    -0.237 OA
ATOM     82  O   UNL A   1      34.251  35.101  30.761  1.00  0.00    -0.237 OA
ATOM     83  O   UNL A   1      33.395  34.180  32.879  1.00  0.00    -0.744 OA
ENDBRANCH  79  80
ENDBRANCH  47  72
BRANCH  59  84
ATOM     84  C   UNL A   1      43.188  28.878  33.682  1.00  0.00     0.058 A 
ATOM     85  C   UNL A   1      43.508  29.224  35.007  1.00  0.00     0.135 A 
ATOM     86  C   UNL A   1      42.520  27.660  33.481  1.00  0.00     0.135 A 
ATOM     87  F   UNL A   1      44.048  30.416  35.296  1.00  0.00    -0.206 F 
ATOM     88  C   UNL A   1      43.206  28.384  36.078  1.00  0.00     0.059 A 
ATOM     89  C   UNL A   1      42.182  26.821  34.539  1.00  0.00     0.059 A 
ATOM     90  F   UNL A   1      42.130  27.304  32.246  1.00  0.00    -0.206 F 
ATOM     91  C   UNL A   1      42.535  27.186  35.836  1.00  0.00     0.060 A 
BRANCH  91  92
ATOM     92  S   UNL A   1      42.041  26.159  37.237  1.00  0.00     0.124 S 
ATOM     93  O   UNL A   1      42.070  24.816  36.658  1.00  0.00    -0.237 OA
ATOM     94  O   UNL A   1      43.087  26.442  38.221  1.00  0.00    -0.237 OA
ATOM     95  O   UNL A   1      40.721  26.661  37.585  1.00  0.00    -0.744 OA
ENDBRANCH  91  92
ENDBRANCH  59  84
ENDBRANCH  33  34
ENDBRANCH  25  28
ENDBRANCH  23  24
ENDBRANCH  22  23
ENDBRANCH   1  22
TORSDOF 17
ENDMDL
MODEL 2
REMARK VINA RESULT:     -12.4      3.423      9.582
REMARK SMILES Nc1ccc2[nH]cc(C(=O)NCCCCCCNC(=O)c3ccc(-c4c5nc(c(-c6c(F)cc(S(=O)(=O)[O-])cc6F)c6ccc([nH]6)c(-c6c(F)cc(S(=O)(=O)[O-])cc6F)c6nc(c(-c7c(F)cc(S(=O)(=O)[O-])cc7F)c7ccc4[nH]7)C=C6)C=C5)cc3)c2c1
REMARK SMILES IDX 15 1 14 2 13 3 12 4 11 5 9 6 10 7 8 9 2 10 3 11 88 12 4 13
REMARK SMILES IDX 87 14 5 15 6 16 7 17 1 19 16 22 17 23 18 24 19 25 20 27
REMARK SMILES IDX 21 28 22 29 86 30 23 31 85 32 24 33 25 34 26 35 79 36 27 37
REMARK SMILES IDX 84 38 78 39 80 40 28 41 83 42 77 43 76 44 29 46 63 47 42 48
REMARK SMILES IDX 62 49 43 50 46 51 61 52 81 53 44 54 45 55 60 57 82 58 47 59
REMARK SMILES IDX 30 60 31 61 40 62 32 63 33 64 39 65 41 66 34 67 35 68 36 69
REMARK SMILES IDX 37 70 38 71 64 72 65 73 74 74 66 75 67 76 73 77 75 78 68 79
REMARK SMILES IDX 69 80 70 81 71 82 72 83 48 84 49 85 58 86 50 87 51 88 57 89
REMARK SMILES IDX 59 90 52 91 53 92 54 93 55 94 56 95
REMARK H PARENT 11 8 6 18 1 20 1 21 18 26 80 45 46 56
REMARK Flexibility Score: inf
ROOT
ATOM      1  C   UNL A   1      31.908  28.040  27.365  1.00  0.00     0.002 C 
ENDROOT
BRANCH   1   2
ATOM      2  C   UNL A   1      31.439  26.722  26.740  1.00  0.00     0.002 C 
BRANCH   2   3
ATOM      3  C   UNL A   1      32.513  25.775  26.209  1.00  0.00     0.021 C 
BRANCH   3   4
ATOM      4  C   UNL A   1      33.692  26.399  25.477  1.00  0.00     0.116 C 
BRANCH   4   5
ATOM      5  N   UNL A   1      33.905  25.949  24.125  1.00  0.00    -0.352 N 
ATOM      6  C   UNL A   1      33.409  26.439  22.936  1.00  0.00     0.253 C 
ATOM      7  O   UNL A   1      33.762  25.840  21.915  1.00  0.00    -0.269 OA
ATOM      8  H   UNL A   1      34.497  25.168  24.035  1.00  0.00     0.163 HD
BRANCH   6   9
ATOM      9  C   UNL A   1      32.426  27.535  22.857  1.00  0.00     0.065 A 
ATOM     10  C   UNL A   1      28.639  27.175  23.525  1.00  0.00     0.032 A 
ATOM     11  C   UNL A   1      28.296  28.425  23.023  1.00  0.00     0.027 A 
ATOM     12  C   UNL A   1      29.993  26.858  23.686  1.00  0.00     0.036 A 
ATOM     13  C   UNL A   1      29.272  29.343  22.627  1.00  0.00     0.029 A 
ATOM     14  C   UNL A   1      31.010  27.670  23.127  1.00  0.00     0.014 A 
ATOM     15  C   UNL A   1      30.610  28.930  22.669  1.00  0.00     0.046 A 
ATOM     16  N   UNL A   1      31.745  29.615  22.325  1.00  0.00    -0.360 N 
ATOM     17  C   UNL A   1      32.829  28.794  22.419  1.00  0.00     0.097 A 
ATOM     18  H   UNL A   1      31.775  30.560  22.052  1.00  0.00     0.166 HD
BRANCH  10  19
ATOM     19  N   UNL A   1      27.662  26.284  23.937  1.00  0.00    -0.399 N 
ATOM     20  H   UNL A   1      27.903  25.356  24.158  1.00  0.00     0.156 HD
ATOM     21  H   UNL A   1      26.725  26.579  24.008  1.00  0.00     0.156 HD
ENDBRANCH  10  19
ENDBRANCH   6   9
ENDBRANCH   4   5
ENDBRANCH   3   4
ENDBRANCH   2   3
ENDBRANCH   1   2
BRANCH   1  22
ATOM     22  C   UNL A   1      31.898  29.295  26.481  1.00  0.00     0.021 C 
BRANCH  22  23
ATOM     23  C   UNL A   1      33.218  30.056  26.361  1.00  0.00     0.116 C 
BRANCH  23  24
ATOM     24  N   UNL A   1      33.376  31.147  27.298  1.00  0.00    -0.352 N 
ATOM     25  C   UNL A   1      34.412  31.667  28.021  1.00  0.00     0.251 C 
ATOM     26  H   UNL A   1      32.534  31.631  27.450  1.00  0.00     0.163 HD
ATOM     27  O   UNL A   1      34.164  32.717  28.623  1.00  0.00    -0.269 OA
BRANCH  25  28
ATOM     28  C   UNL A   1      35.764  31.060  28.165  1.00  0.00     0.039 A 
ATOM     29  C   UNL A   1      36.108  29.748  27.844  1.00  0.00     0.014 A 
ATOM     30  C   UNL A   1      36.757  31.894  28.715  1.00  0.00     0.014 A 
ATOM     31  C   UNL A   1      37.381  29.259  28.136  1.00  0.00     0.010 A 
ATOM     32  C   UNL A   1      38.036  31.416  28.989  1.00  0.00     0.010 A 
ATOM     33  C   UNL A   1      38.337  30.081  28.736  1.00  0.00    -0.014 A 
BRANCH  33  34
ATOM     34  C   UNL A   1      39.645  29.501  29.040  1.00  0.00     0.031 A 
ATOM     35  C   UNL A   1      39.954  29.284  30.483  1.00  0.00     0.074 A 
ATOM     36  C   UNL A   1      40.524  29.098  28.102  1.00  0.00     0.049 A 
ATOM     37  N   UNL A   1      40.879  29.844  31.196  1.00  0.00    -0.248 NA
ATOM     38  C   UNL A   1      39.073  28.390  31.246  1.00  0.00     0.031 C 
ATOM     39  C   UNL A   1      40.321  28.978  26.657  1.00  0.00     0.029 A 
ATOM     40  N   UNL A   1      41.789  28.620  28.279  1.00  0.00    -0.354 N 
ATOM     41  C   UNL A   1      40.818  29.250  32.456  1.00  0.00     0.074 A 
ATOM     42  C   UNL A   1      39.618  28.451  32.463  1.00  0.00     0.031 C 
ATOM     43  C   UNL A   1      41.341  28.270  26.123  1.00  0.00     0.029 A 
ATOM     44  C   UNL A   1      42.327  28.005  27.158  1.00  0.00     0.049 A 
ATOM     45  H   UNL A   1      42.279  28.702  29.129  1.00  0.00     0.167 HD
ATOM     46  C   UNL A   1      41.844  29.332  33.351  1.00  0.00     0.037 A 
ATOM     47  C   UNL A   1      43.471  27.281  27.096  1.00  0.00     0.037 A 
ATOM     48  C   UNL A   1      42.770  30.378  33.003  1.00  0.00     0.049 A 
ATOM     49  C   UNL A   1      44.329  27.705  28.233  1.00  0.00     0.074 A 
ATOM     50  C   UNL A   1      42.679  31.748  32.856  1.00  0.00     0.029 A 
ATOM     51  N   UNL A   1      43.969  30.024  32.435  1.00  0.00    -0.354 N 
ATOM     52  N   UNL A   1      44.880  28.885  28.332  1.00  0.00    -0.248 NA
ATOM     53  C   UNL A   1      44.250  26.953  29.476  1.00  0.00     0.031 C 
ATOM     54  C   UNL A   1      43.572  32.067  31.793  1.00  0.00     0.029 A 
ATOM     55  C   UNL A   1      44.175  30.878  31.381  1.00  0.00     0.049 A 
ATOM     56  H   UNL A   1      44.567  29.297  32.726  1.00  0.00     0.167 HD
ATOM     57  C   UNL A   1      44.831  29.190  29.684  1.00  0.00     0.074 A 
ATOM     58  C   UNL A   1      44.535  27.924  30.347  1.00  0.00     0.031 C 
ATOM     59  C   UNL A   1      44.763  30.482  30.120  1.00  0.00     0.037 A 
BRANCH  46  60
ATOM     60  C   UNL A   1      42.186  28.283  34.385  1.00  0.00     0.058 A 
ATOM     61  C   UNL A   1      42.087  28.599  35.759  1.00  0.00     0.135 A 
ATOM     62  C   UNL A   1      42.885  27.094  34.084  1.00  0.00     0.135 A 
ATOM     63  F   UNL A   1      41.436  29.702  36.162  1.00  0.00    -0.206 F 
ATOM     64  C   UNL A   1      42.720  27.847  36.749  1.00  0.00     0.059 A 
ATOM     65  C   UNL A   1      43.478  26.300  35.060  1.00  0.00     0.059 A 
ATOM     66  F   UNL A   1      43.112  26.703  32.826  1.00  0.00    -0.206 F 
ATOM     67  C   UNL A   1      43.438  26.712  36.383  1.00  0.00     0.060 A 
BRANCH  67  68
ATOM     68  S   UNL A   1      44.398  25.836  37.632  1.00  0.00     0.124 S 
ATOM     69  O   UNL A   1      44.131  24.446  37.279  1.00  0.00    -0.237 OA
ATOM     70  O   UNL A   1      45.751  26.315  37.367  1.00  0.00    -0.237 OA
ATOM     71  O   UNL A   1      43.811  26.293  38.888  1.00  0.00    -0.744 OA
ENDBRANCH  67  68
ENDBRANCH  46  60
BRANCH  47  72
ATOM     72  C   UNL A   1      43.724  26.059  26.291  1.00  0.00     0.058 A 
ATOM     73  C   UNL A   1      44.906  25.894  25.550  1.00  0.00     0.135 A 
ATOM     74  C   UNL A   1      42.921  24.908  26.437  1.00  0.00     0.135 A 
ATOM     75  F   UNL A   1      45.748  26.926  25.385  1.00  0.00    -0.206 F 
ATOM     76  C   UNL A   1      45.289  24.656  25.020  1.00  0.00     0.059 A 
ATOM     77  C   UNL A   1      43.271  23.669  25.905  1.00  0.00     0.059 A 
ATOM     78  F   UNL A   1      41.808  24.927  27.186  1.00  0.00    -0.206 F 
ATOM     79  C   UNL A   1      44.471  23.544  25.219  1.00  0.00     0.060 A 
BRANCH  79  80
ATOM     80  S   UNL A   1      45.034  21.913  24.679  1.00  0.00     0.124 S 
ATOM     81  O   UNL A   1      44.288  21.027  25.566  1.00  0.00    -0.237 OA
ATOM     82  O   UNL A   1      44.633  21.899  23.277  1.00  0.00    -0.237 OA
ATOM     83  O   UNL A   1      46.476  21.958  24.911  1.00  0.00    -0.744 OA
ENDBRANCH  79  80
ENDBRANCH  47  72
BRANCH  59  84
ATOM     84  C   UNL A   1      45.044  31.589  29.137  1.00  0.00     0.058 A 
ATOM     85  C   UNL A   1      46.333  32.075  28.856  1.00  0.00     0.135 A 
ATOM     86  C   UNL A   1      43.996  32.043  28.321  1.00  0.00     0.135 A 
ATOM     87  F   UNL A   1      47.403  31.611  29.516  1.00  0.00    -0.206 F 
ATOM     88  C   UNL A   1      46.565  32.993  27.832  1.00  0.00     0.059 A 
ATOM     89  C   UNL A   1      44.210  32.936  27.274  1.00  0.00     0.059 A 
ATOM     90  F   UNL A   1      42.753  31.567  28.497  1.00  0.00    -0.206 F 
ATOM     91  C   UNL A   1      45.498  33.412  27.040  1.00  0.00     0.060 A 
BRANCH  91  92
ATOM     92  S   UNL A   1      45.821  34.509  25.641  1.00  0.00     0.124 S 
ATOM     93  O   UNL A   1      44.820  34.069  24.669  1.00  0.00    -0.237 OA
ATOM     94  O   UNL A   1      45.596  35.834  26.220  1.00  0.00    -0.237 OA
ATOM     95  O   UNL A   1      47.203  34.220  25.289  1.00  0.00    -0.744 OA
ENDBRANCH  91  92
ENDBRANCH  59  84
ENDBRANCH  33  34
ENDBRANCH  25  28
ENDBRANCH  23  24
ENDBRANCH  22  23
ENDBRANCH   1  22
TORSDOF 17
ENDMDL
MODEL 3
REMARK VINA RESULT:     -11.9      2.409      3.484
REMARK SMILES Nc1ccc2[nH]cc(C(=O)NCCCCCCNC(=O)c3ccc(-c4c5nc(c(-c6c(F)cc(S(=O)(=O)[O-])cc6F)c6ccc([nH]6)c(-c6c(F)cc(S(=O)(=O)[O-])cc6F)c6nc(c(-c7c(F)cc(S(=O)(=O)[O-])cc7F)c7ccc4[nH]7)C=C6)C=C5)cc3)c2c1
REMARK SMILES IDX 15 1 14 2 13 3 12 4 11 5 9 6 10 7 8 9 2 10 3 11 88 12 4 13
REMARK SMILES IDX 87 14 5 15 6 16 7 17 1 19 16 22 17 23 18 24 19 25 20 27
REMARK SMILES IDX 21 28 22 29 86 30 23 31 85 32 24 33 25 34 26 35 79 36 27 37
REMARK SMILES IDX 84 38 78 39 80 40 28 41 83 42 77 43 76 44 29 46 63 47 42 48
REMARK SMILES IDX 62 49 43 50 46 51 61 52 81 53 44 54 45 55 60 57 82 58 47 59
REMARK SMILES IDX 30 60 31 61 40 62 32 63 33 64 39 65 41 66 34 67 35 68 36 69
REMARK SMILES IDX 37 70 38 71 64 72 65 73 74 74 66 75 67 76 73 77 75 78 68 79
REMARK SMILES IDX 69 80 70 81 71 82 72 83 48 84 49 85 58 86 50 87 51 88 57 89
REMARK SMILES IDX 59 90 52 91 53 92 54 93 55 94 56 95
REMARK H PARENT 11 8 6 18 1 20 1 21 18 26 80 45 46 56
REMARK Flexibility Score: inf
ROOT
ATOM      1  C   UNL A   1      40.797  21.359  27.614  1.00  0.00     0.002 C 
ENDROOT
BRANCH   1   2
ATOM      2  C   UNL A   1      39.802  21.643  26.483  1.00  0.00     0.002 C 
BRANCH   2   3
ATOM      3  C   UNL A   1      39.133  23.015  26.463  1.00  0.00     0.021 C 
BRANCH   3   4
ATOM      4  C   UNL A   1      37.718  23.093  25.910  1.00  0.00     0.116 C 
BRANCH   4   5
ATOM      5  N   UNL A   1      37.604  23.181  24.476  1.00  0.00    -0.352 N 
ATOM      6  C   UNL A   1      36.494  23.089  23.665  1.00  0.00     0.253 C 
ATOM      7  O   UNL A   1      36.700  23.199  22.453  1.00  0.00    -0.269 OA
ATOM      8  H   UNL A   1      38.453  23.329  24.001  1.00  0.00     0.163 HD
BRANCH   6   9
ATOM      9  C   UNL A   1      35.146  22.767  24.167  1.00  0.00     0.065 A 
ATOM     10  C   UNL A   1      33.847  19.209  24.917  1.00  0.00     0.032 A 
ATOM     11  C   UNL A   1      32.515  19.580  25.059  1.00  0.00     0.027 A 
ATOM     12  C   UNL A   1      34.822  20.208  24.806  1.00  0.00     0.036 A 
ATOM     13  C   UNL A   1      32.128  20.921  25.036  1.00  0.00     0.029 A 
ATOM     14  C   UNL A   1      34.464  21.561  24.587  1.00  0.00     0.014 A 
ATOM     15  C   UNL A   1      33.115  21.880  24.776  1.00  0.00     0.046 A 
ATOM     16  N   UNL A   1      33.006  23.243  24.682  1.00  0.00    -0.360 N 
ATOM     17  C   UNL A   1      34.201  23.781  24.308  1.00  0.00     0.097 A 
ATOM     18  H   UNL A   1      32.186  23.757  24.859  1.00  0.00     0.166 HD
BRANCH  10  19
ATOM     19  N   UNL A   1      34.220  17.875  24.967  1.00  0.00    -0.399 N 
ATOM     20  H   UNL A   1      34.055  17.347  25.781  1.00  0.00     0.156 HD
ATOM     21  H   UNL A   1      34.650  17.455  24.187  1.00  0.00     0.156 HD
ENDBRANCH  10  19
ENDBRANCH   6   9
ENDBRANCH   4   5
ENDBRANCH   3   4
ENDBRANCH   2   3
ENDBRANCH   1   2
BRANCH   1  22
ATOM     22  C   UNL A   1      41.782  20.198  27.425  1.00  0.00     0.021 C 
BRANCH  22  23
ATOM     23  C   UNL A   1      41.772  19.509  26.061  1.00  0.00     0.116 C 
BRANCH  23  24
ATOM     24  N   UNL A   1      43.006  19.624  25.314  1.00  0.00    -0.352 N 
ATOM     25  C   UNL A   1      43.989  20.565  25.198  1.00  0.00     0.251 C 
ATOM     26  H   UNL A   1      43.178  18.833  24.756  1.00  0.00     0.163 HD
ATOM     27  O   UNL A   1      44.977  20.222  24.539  1.00  0.00    -0.269 OA
BRANCH  25  28
ATOM     28  C   UNL A   1      43.943  21.946  25.754  1.00  0.00     0.039 A 
ATOM     29  C   UNL A   1      44.651  22.402  26.865  1.00  0.00     0.014 A 
ATOM     30  C   UNL A   1      43.070  22.841  25.106  1.00  0.00     0.014 A 
ATOM     31  C   UNL A   1      44.434  23.687  27.362  1.00  0.00     0.010 A 
ATOM     32  C   UNL A   1      42.866  24.132  25.586  1.00  0.00     0.010 A 
ATOM     33  C   UNL A   1      43.519  24.543  26.744  1.00  0.00    -0.014 A 
BRANCH  33  34
ATOM     34  C   UNL A   1      43.318  25.868  27.330  1.00  0.00     0.031 A 
ATOM     35  C   UNL A   1      44.364  26.888  27.034  1.00  0.00     0.074 A 
ATOM     36  C   UNL A   1      42.228  26.217  28.041  1.00  0.00     0.049 A 
ATOM     37  N   UNL A   1      45.168  27.474  27.864  1.00  0.00    -0.248 NA
ATOM     38  C   UNL A   1      44.598  27.243  25.628  1.00  0.00     0.031 C 
ATOM     39  C   UNL A   1      40.985  25.468  28.227  1.00  0.00     0.029 A 
ATOM     40  N   UNL A   1      41.983  27.392  28.690  1.00  0.00    -0.354 N 
ATOM     41  C   UNL A   1      45.894  28.403  27.118  1.00  0.00     0.074 A 
ATOM     42  C   UNL A   1      45.585  28.135  25.736  1.00  0.00     0.031 C 
ATOM     43  C   UNL A   1      40.048  26.285  28.757  1.00  0.00     0.029 A 
ATOM     44  C   UNL A   1      40.660  27.567  29.069  1.00  0.00     0.049 A 
ATOM     45  H   UNL A   1      42.682  28.060  28.872  1.00  0.00     0.167 HD
ATOM     46  C   UNL A   1      46.576  29.431  27.700  1.00  0.00     0.037 A 
ATOM     47  C   UNL A   1      40.094  28.700  29.551  1.00  0.00     0.037 A 
ATOM     48  C   UNL A   1      46.766  29.212  29.110  1.00  0.00     0.049 A 
ATOM     49  C   UNL A   1      41.182  29.530  30.131  1.00  0.00     0.074 A 
ATOM     50  C   UNL A   1      47.405  28.250  29.867  1.00  0.00     0.029 A 
ATOM     51  N   UNL A   1      45.977  29.911  29.990  1.00  0.00    -0.354 N 
ATOM     52  N   UNL A   1      41.855  29.207  31.202  1.00  0.00    -0.248 NA
ATOM     53  C   UNL A   1      41.808  30.536  29.286  1.00  0.00     0.031 C 
ATOM     54  C   UNL A   1      46.607  28.109  31.039  1.00  0.00     0.029 A 
ATOM     55  C   UNL A   1      45.551  29.016  30.937  1.00  0.00     0.049 A 
ATOM     56  H   UNL A   1      45.759  30.871  29.950  1.00  0.00     0.167 HD
ATOM     57  C   UNL A   1      43.148  29.641  30.955  1.00  0.00     0.074 A 
ATOM     58  C   UNL A   1      43.034  30.543  29.814  1.00  0.00     0.031 C 
ATOM     59  C   UNL A   1      44.227  29.021  31.520  1.00  0.00     0.037 A 
BRANCH  46  60
ATOM     60  C   UNL A   1      46.823  30.782  27.068  1.00  0.00     0.058 A 
ATOM     61  C   UNL A   1      48.131  31.317  27.053  1.00  0.00     0.135 A 
ATOM     62  C   UNL A   1      45.792  31.692  26.750  1.00  0.00     0.135 A 
ATOM     63  F   UNL A   1      49.191  30.541  27.331  1.00  0.00    -0.206 F 
ATOM     64  C   UNL A   1      48.385  32.672  26.839  1.00  0.00     0.059 A 
ATOM     65  C   UNL A   1      46.028  33.036  26.480  1.00  0.00     0.059 A 
ATOM     66  F   UNL A   1      44.501  31.343  26.786  1.00  0.00    -0.206 F 
ATOM     67  C   UNL A   1      47.319  33.529  26.580  1.00  0.00     0.060 A 
BRANCH  67  68
ATOM     68  S   UNL A   1      47.620  35.303  26.474  1.00  0.00     0.124 S 
ATOM     69  O   UNL A   1      48.467  35.523  27.641  1.00  0.00    -0.237 OA
ATOM     70  O   UNL A   1      48.274  35.424  25.175  1.00  0.00    -0.237 OA
ATOM     71  O   UNL A   1      46.279  35.875  26.550  1.00  0.00    -0.744 OA
ENDBRANCH  67  68
ENDBRANCH  46  60
BRANCH  47  72
ATOM     72  C   UNL A   1      38.729  29.216  29.273  1.00  0.00     0.058 A 
ATOM     73  C   UNL A   1      37.857  29.592  30.309  1.00  0.00     0.135 A 
ATOM     74  C   UNL A   1      38.343  29.598  27.971  1.00  0.00     0.135 A 
ATOM     75  F   UNL A   1      38.158  29.299  31.584  1.00  0.00    -0.206 F 
ATOM     76  C   UNL A   1      36.693  30.333  30.072  1.00  0.00     0.059 A 
ATOM     77  C   UNL A   1      37.181  30.321  27.708  1.00  0.00     0.059 A 
ATOM     78  F   UNL A   1      39.133  29.360  26.913  1.00  0.00    -0.206 F 
ATOM     79  C   UNL A   1      36.373  30.708  28.768  1.00  0.00     0.060 A 
BRANCH  79  80
ATOM     80  S   UNL A   1      34.963  31.801  28.472  1.00  0.00     0.124 S 
ATOM     81  O   UNL A   1      34.599  32.198  29.828  1.00  0.00    -0.237 OA
ATOM     82  O   UNL A   1      35.552  32.841  27.638  1.00  0.00    -0.237 OA
ATOM     83  O   UNL A   1      33.999  30.935  27.797  1.00  0.00    -0.744 OA
ENDBRANCH  79  80
ENDBRANCH  47  72
BRANCH  59  84
ATOM     84  C   UNL A   1      43.990  28.053  32.650  1.00  0.00     0.058 A 
ATOM     85  C   UNL A   1      43.785  28.445  33.985  1.00  0.00     0.135 A 
ATOM     86  C   UNL A   1      43.779  26.700  32.340  1.00  0.00     0.135 A 
ATOM     87  F   UNL A   1      43.860  29.734  34.343  1.00  0.00    -0.206 F 
ATOM     88  C   UNL A   1      43.420  27.530  34.972  1.00  0.00     0.059 A 
ATOM     89  C   UNL A   1      43.384  25.775  33.303  1.00  0.00     0.059 A 
ATOM     90  F   UNL A   1      43.895  26.275  31.071  1.00  0.00    -0.206 F 
ATOM     91  C   UNL A   1      43.213  26.196  34.620  1.00  0.00     0.060 A 
BRANCH  91  92
ATOM     92  S   UNL A   1      42.625  25.039  35.876  1.00  0.00     0.124 S 
ATOM     93  O   UNL A   1      42.268  23.870  35.073  1.00  0.00    -0.237 OA
ATOM     94  O   UNL A   1      43.801  24.878  36.732  1.00  0.00    -0.237 OA
ATOM     95  O   UNL A   1      41.508  25.738  36.493  1.00  0.00    -0.744 OA
ENDBRANCH  91  92
ENDBRANCH  59  84
ENDBRANCH  33  34
ENDBRANCH  25  28
ENDBRANCH  23  24
ENDBRANCH  22  23
ENDBRANCH   1  22
TORSDOF 17
ENDMDL
