MODEL 1
REMARK VINA RESULT:      -9.7      0.000      0.000
REMARK SMILES CCNC(=O)C[NH2+][C@@H](C)[C@@H](C)C(=O)NCCCCCCNC(=O)c1ccc(-c2c3nc(c(-c4c(F)cc(S(=O)(=O)[O-])cc4F)c4ccc([nH]4)c(-c4c(F)cc(S(=O)(=O)[O-])cc4F)c4nc(c(-c5c(F)cc(S(=O)(=O)[O-])cc5F)c5ccc2[nH]5)C=C4)C=C3)cc1
REMARK SMILES IDX 16 1 15 2 14 3 12 4 13 5 10 7 11 8 8 9 9 10 7 11 6 14 4 15
REMARK SMILES IDX 3 16 5 18 2 19 1 20 17 21 18 22 19 23 20 24 21 25 22 26
REMARK SMILES IDX 23 28 24 29 25 30 89 31 26 32 88 33 27 34 28 35 29 36 82 37
REMARK SMILES IDX 30 38 87 39 81 40 83 41 31 42 86 43 80 44 79 45 32 47 66 48
REMARK SMILES IDX 45 49 65 50 46 51 49 52 64 53 84 54 47 55 48 56 63 58 85 59
REMARK SMILES IDX 50 60 33 61 34 62 43 63 35 64 36 65 42 66 44 67 37 68 38 69
REMARK SMILES IDX 39 70 40 71 41 72 67 73 68 74 77 75 69 76 70 77 76 78 78 79
REMARK SMILES IDX 71 80 72 81 73 82 74 83 75 84 51 85 52 86 61 87 53 88 54 89
REMARK SMILES IDX 60 90 62 91 55 92 56 93 57 94 58 95 59 96
REMARK H PARENT 14 6 7 12 7 13 3 17 21 27 83 46 49 57
REMARK Flexibility Score: inf
ROOT
ATOM      1  C   UNL A   1      40.712  21.249  27.382  1.00  0.00     0.021 C 
ENDROOT
BRANCH   1   2
ATOM      2  C   UNL A   1      39.769  21.443  26.194  1.00  0.00     0.116 C 
BRANCH   2   3
ATOM      3  N   UNL A   1      38.975  22.647  26.350  1.00  0.00    -0.356 N 
ATOM      4  C   UNL A   1      37.768  23.001  25.836  1.00  0.00     0.228 C 
ATOM      5  O   UNL A   1      37.353  24.136  26.091  1.00  0.00    -0.275 OA
ATOM      6  H   UNL A   1      39.382  23.328  26.933  1.00  0.00     0.163 HD
BRANCH   4   7
ATOM      7  C   UNL A   1      36.928  22.049  24.987  1.00  0.00     0.133 C 
ATOM      8  C   UNL A   1      36.520  22.748  23.685  1.00  0.00     0.024 C 
BRANCH   7   9
ATOM      9  C   UNL A   1      35.779  21.384  25.787  1.00  0.00     0.191 C 
ATOM     10  C   UNL A   1      34.903  20.527  24.860  1.00  0.00     0.076 C 
BRANCH   9  11
ATOM     11  N   UNL A   1      34.977  22.411  26.476  1.00  0.00    -0.336 N 
ATOM     12  H   UNL A   1      35.072  22.277  27.483  1.00  0.00     0.346 HD
ATOM     13  H   UNL A   1      35.325  23.323  26.183  1.00  0.00     0.346 HD
BRANCH  11  14
ATOM     14  C   UNL A   1      33.548  22.343  26.123  1.00  0.00     0.362 C 
BRANCH  14  15
ATOM     15  C   UNL A   1      32.694  22.841  27.292  1.00  0.00     0.275 C 
ATOM     16  N   UNL A   1      31.942  23.971  27.141  1.00  0.00    -0.351 N 
ATOM     17  H   UNL A   1      31.497  24.301  27.955  1.00  0.00     0.163 HD
ATOM     18  O   UNL A   1      32.680  22.250  28.373  1.00  0.00    -0.269 OA
BRANCH  16  19
ATOM     19  C   UNL A   1      31.712  24.749  25.938  1.00  0.00     0.112 C 
ATOM     20  C   UNL A   1      31.825  26.234  26.231  1.00  0.00     0.027 C 
ENDBRANCH  16  19
ENDBRANCH  14  15
ENDBRANCH  11  14
ENDBRANCH   9  11
ENDBRANCH   7   9
ENDBRANCH   4   7
ENDBRANCH   2   3
ENDBRANCH   1   2
BRANCH   1  21
ATOM     21  C   UNL A   1      41.873  22.249  27.425  1.00  0.00     0.002 C 
BRANCH  21  22
ATOM     22  C   UNL A   1      43.030  21.936  26.472  1.00  0.00     0.002 C 
BRANCH  22  23
ATOM     23  C   UNL A   1      44.316  22.726  26.735  1.00  0.00     0.021 C 
BRANCH  23  24
ATOM     24  C   UNL A   1      44.125  24.237  26.808  1.00  0.00     0.116 C 
BRANCH  24  25
ATOM     25  N   UNL A   1      43.172  24.712  25.817  1.00  0.00    -0.352 N 
ATOM     26  C   UNL A   1      42.138  25.601  25.963  1.00  0.00     0.251 C 
ATOM     27  H   UNL A   1      43.287  24.344  24.912  1.00  0.00     0.163 HD
ATOM     28  O   UNL A   1      41.300  25.720  25.072  1.00  0.00    -0.269 OA
BRANCH  26  29
ATOM     29  C   UNL A   1      42.023  26.398  27.202  1.00  0.00     0.039 A 
ATOM     30  C   UNL A   1      42.818  27.537  27.352  1.00  0.00     0.014 A 
ATOM     31  C   UNL A   1      41.128  26.027  28.211  1.00  0.00     0.014 A 
ATOM     32  C   UNL A   1      42.665  28.341  28.482  1.00  0.00     0.010 A 
ATOM     33  C   UNL A   1      40.924  26.870  29.299  1.00  0.00     0.010 A 
ATOM     34  C   UNL A   1      41.688  28.037  29.446  1.00  0.00    -0.014 A 
BRANCH  34  35
ATOM     35  C   UNL A   1      41.429  28.949  30.590  1.00  0.00     0.031 A 
ATOM     36  C   UNL A   1      42.225  28.827  31.859  1.00  0.00     0.074 A 
ATOM     37  C   UNL A   1      40.419  29.837  30.509  1.00  0.00     0.049 A 
ATOM     38  N   UNL A   1      42.096  29.490  32.980  1.00  0.00    -0.248 NA
ATOM     39  C   UNL A   1      43.284  27.807  31.883  1.00  0.00     0.031 C 
ATOM     40  C   UNL A   1      39.535  30.005  29.353  1.00  0.00     0.029 A 
ATOM     41  N   UNL A   1      39.949  30.749  31.421  1.00  0.00    -0.354 N 
ATOM     42  C   UNL A   1      43.047  28.961  33.844  1.00  0.00     0.074 A 
ATOM     43  C   UNL A   1      43.708  27.885  33.135  1.00  0.00     0.031 C 
ATOM     44  C   UNL A   1      38.639  30.967  29.620  1.00  0.00     0.029 A 
ATOM     45  C   UNL A   1      38.854  31.454  30.980  1.00  0.00     0.049 A 
ATOM     46  H   UNL A   1      40.357  30.886  32.305  1.00  0.00     0.167 HD
ATOM     47  C   UNL A   1      43.353  29.349  35.107  1.00  0.00     0.037 A 
ATOM     48  C   UNL A   1      38.093  32.375  31.604  1.00  0.00     0.037 A 
ATOM     49  C   UNL A   1      42.693  30.426  35.799  1.00  0.00     0.049 A 
ATOM     50  C   UNL A   1      38.446  32.791  33.004  1.00  0.00     0.074 A 
ATOM     51  C   UNL A   1      42.977  30.946  37.050  1.00  0.00     0.029 A 
ATOM     52  N   UNL A   1      41.603  31.135  35.312  1.00  0.00    -0.354 N 
ATOM     53  N   UNL A   1      39.409  32.345  33.775  1.00  0.00    -0.248 NA
ATOM     54  C   UNL A   1      37.618  33.838  33.617  1.00  0.00     0.031 C 
ATOM     55  C   UNL A   1      42.022  31.925  37.344  1.00  0.00     0.029 A 
ATOM     56  C   UNL A   1      41.180  32.061  36.252  1.00  0.00     0.049 A 
ATOM     57  H   UNL A   1      41.192  31.001  34.427  1.00  0.00     0.167 HD
ATOM     58  C   UNL A   1      39.312  33.066  34.960  1.00  0.00     0.074 A 
ATOM     59  C   UNL A   1      38.209  33.989  34.796  1.00  0.00     0.031 C 
ATOM     60  C   UNL A   1      40.070  32.969  36.082  1.00  0.00     0.037 A 
BRANCH  47  61
ATOM     61  C   UNL A   1      44.440  28.589  35.822  1.00  0.00     0.058 A 
ATOM     62  C   UNL A   1      45.801  28.887  35.638  1.00  0.00     0.135 A 
ATOM     63  C   UNL A   1      44.116  27.555  36.716  1.00  0.00     0.135 A 
ATOM     64  F   UNL A   1      46.172  29.859  34.790  1.00  0.00    -0.206 F 
ATOM     65  C   UNL A   1      46.800  28.154  36.271  1.00  0.00     0.059 A 
ATOM     66  C   UNL A   1      45.097  26.831  37.386  1.00  0.00     0.059 A 
ATOM     67  F   UNL A   1      42.833  27.230  36.937  1.00  0.00    -0.206 F 
ATOM     68  C   UNL A   1      46.438  27.123  37.139  1.00  0.00     0.060 A 
BRANCH  68  69
ATOM     69  S   UNL A   1      47.746  26.162  37.928  1.00  0.00     0.124 S 
ATOM     70  O   UNL A   1      47.210  25.993  39.275  1.00  0.00    -0.237 OA
ATOM     71  O   UNL A   1      47.787  24.957  37.107  1.00  0.00    -0.237 OA
ATOM     72  O   UNL A   1      48.916  27.028  37.823  1.00  0.00    -0.744 OA
ENDBRANCH  68  69
ENDBRANCH  47  61
BRANCH  48  73
ATOM     73  C   UNL A   1      36.923  32.955  30.893  1.00  0.00     0.058 A 
ATOM     74  C   UNL A   1      35.622  32.483  31.125  1.00  0.00     0.135 A 
ATOM     75  C   UNL A   1      37.078  34.036  30.009  1.00  0.00     0.135 A 
ATOM     76  F   UNL A   1      35.423  31.448  31.955  1.00  0.00    -0.206 F 
ATOM     77  C   UNL A   1      34.517  33.063  30.509  1.00  0.00     0.059 A 
ATOM     78  C   UNL A   1      35.987  34.648  29.402  1.00  0.00     0.059 A 
ATOM     79  F   UNL A   1      38.300  34.535  29.766  1.00  0.00    -0.206 F 
ATOM     80  C   UNL A   1      34.709  34.153  29.659  1.00  0.00     0.060 A 
BRANCH  80  81
ATOM     81  S   UNL A   1      33.261  34.954  28.935  1.00  0.00     0.124 S 
ATOM     82  O   UNL A   1      32.440  35.200  30.114  1.00  0.00    -0.237 OA
ATOM     83  O   UNL A   1      33.849  36.135  28.308  1.00  0.00    -0.237 OA
ATOM     84  O   UNL A   1      32.751  33.951  28.006  1.00  0.00    -0.744 OA
ENDBRANCH  80  81
ENDBRANCH  48  73
BRANCH  60  85
ATOM     85  C   UNL A   1      39.739  33.892  37.224  1.00  0.00     0.058 A 
ATOM     86  C   UNL A   1      38.863  33.511  38.253  1.00  0.00     0.135 A 
ATOM     87  C   UNL A   1      40.352  35.153  37.321  1.00  0.00     0.135 A 
ATOM     88  F   UNL A   1      38.243  32.321  38.206  1.00  0.00    -0.206 F 
ATOM     89  C   UNL A   1      38.593  34.352  39.327  1.00  0.00     0.059 A 
ATOM     90  C   UNL A   1      40.120  35.997  38.402  1.00  0.00     0.059 A 
ATOM     91  F   UNL A   1      41.204  35.565  36.369  1.00  0.00    -0.206 F 
ATOM     92  C   UNL A   1      39.230  35.593  39.395  1.00  0.00     0.060 A 
BRANCH  92  93
ATOM     93  S   UNL A   1      38.901  36.656  40.816  1.00  0.00     0.124 S 
ATOM     94  O   UNL A   1      38.318  37.831  40.176  1.00  0.00    -0.237 OA
ATOM     95  O   UNL A   1      37.982  35.843  41.607  1.00  0.00    -0.237 OA
ATOM     96  O   UNL A   1      40.221  36.853  41.407  1.00  0.00    -0.744 OA
ENDBRANCH  92  93
ENDBRANCH  60  85
ENDBRANCH  34  35
ENDBRANCH  26  29
ENDBRANCH  24  25
ENDBRANCH  23  24
ENDBRANCH  22  23
ENDBRANCH  21  22
ENDBRANCH   1  21
TORSDOF 21
ENDMDL
MODEL 2
REMARK VINA RESULT:      -9.5      3.640      5.311
REMARK SMILES CCNC(=O)C[NH2+][C@@H](C)[C@@H](C)C(=O)NCCCCCCNC(=O)c1ccc(-c2c3nc(c(-c4c(F)cc(S(=O)(=O)[O-])cc4F)c4ccc([nH]4)c(-c4c(F)cc(S(=O)(=O)[O-])cc4F)c4nc(c(-c5c(F)cc(S(=O)(=O)[O-])cc5F)c5ccc2[nH]5)C=C4)C=C3)cc1
REMARK SMILES IDX 16 1 15 2 14 3 12 4 13 5 10 7 11 8 8 9 9 10 7 11 6 14 4 15
REMARK SMILES IDX 3 16 5 18 2 19 1 20 17 21 18 22 19 23 20 24 21 25 22 26
REMARK SMILES IDX 23 28 24 29 25 30 89 31 26 32 88 33 27 34 28 35 29 36 82 37
REMARK SMILES IDX 30 38 87 39 81 40 83 41 31 42 86 43 80 44 79 45 32 47 66 48
REMARK SMILES IDX 45 49 65 50 46 51 49 52 64 53 84 54 47 55 48 56 63 58 85 59
REMARK SMILES IDX 50 60 33 61 34 62 43 63 35 64 36 65 42 66 44 67 37 68 38 69
REMARK SMILES IDX 39 70 40 71 41 72 67 73 68 74 77 75 69 76 70 77 76 78 78 79
REMARK SMILES IDX 71 80 72 81 73 82 74 83 75 84 51 85 52 86 61 87 53 88 54 89
REMARK SMILES IDX 60 90 62 91 55 92 56 93 57 94 58 95 59 96
REMARK H PARENT 14 6 7 12 7 13 3 17 21 27 83 46 49 57
REMARK Flexibility Score: inf
ROOT
ATOM      1  C   UNL A   1      33.860  23.385  22.329  1.00  0.00     0.021 C 
ENDROOT
BRANCH   1   2
ATOM      2  C   UNL A   1      33.150  24.739  22.297  1.00  0.00     0.116 C 
BRANCH   2   3
ATOM      3  N   UNL A   1      31.729  24.589  22.546  1.00  0.00    -0.356 N 
ATOM      4  C   UNL A   1      30.900  25.209  23.426  1.00  0.00     0.228 C 
ATOM      5  O   UNL A   1      29.726  24.829  23.465  1.00  0.00    -0.275 OA
ATOM      6  H   UNL A   1      31.286  23.919  21.977  1.00  0.00     0.163 HD
BRANCH   4   7
ATOM      7  C   UNL A   1      31.370  26.346  24.332  1.00  0.00     0.133 C 
ATOM      8  C   UNL A   1      30.789  26.154  25.737  1.00  0.00     0.024 C 
BRANCH   7   9
ATOM      9  C   UNL A   1      31.162  27.745  23.698  1.00  0.00     0.191 C 
ATOM     10  C   UNL A   1      31.352  28.847  24.752  1.00  0.00     0.076 C 
BRANCH   9  11
ATOM     11  N   UNL A   1      29.828  27.830  23.076  1.00  0.00    -0.336 N 
ATOM     12  H   UNL A   1      29.799  27.193  22.280  1.00  0.00     0.346 HD
ATOM     13  H   UNL A   1      29.140  27.578  23.786  1.00  0.00     0.346 HD
BRANCH  11  14
ATOM     14  C   UNL A   1      29.508  29.189  22.606  1.00  0.00     0.362 C 
BRANCH  14  15
ATOM     15  C   UNL A   1      27.991  29.368  22.507  1.00  0.00     0.275 C 
ATOM     16  N   UNL A   1      27.484  30.488  21.912  1.00  0.00    -0.351 N 
ATOM     17  H   UNL A   1      26.507  30.599  21.971  1.00  0.00     0.163 HD
ATOM     18  O   UNL A   1      27.216  28.528  22.965  1.00  0.00    -0.269 OA
BRANCH  16  19
ATOM     19  C   UNL A   1      28.196  31.536  21.205  1.00  0.00     0.112 C 
ATOM     20  C   UNL A   1      28.456  32.718  22.121  1.00  0.00     0.027 C 
ENDBRANCH  16  19
ENDBRANCH  14  15
ENDBRANCH  11  14
ENDBRANCH   9  11
ENDBRANCH   7   9
ENDBRANCH   4   7
ENDBRANCH   2   3
ENDBRANCH   1   2
BRANCH   1  21
ATOM     21  C   UNL A   1      33.585  22.568  23.597  1.00  0.00     0.002 C 
BRANCH  21  22
ATOM     22  C   UNL A   1      34.777  22.431  24.549  1.00  0.00     0.002 C 
BRANCH  22  23
ATOM     23  C   UNL A   1      36.001  23.273  24.177  1.00  0.00     0.021 C 
BRANCH  23  24
ATOM     24  C   UNL A   1      36.887  23.656  25.358  1.00  0.00     0.116 C 
BRANCH  24  25
ATOM     25  N   UNL A   1      38.017  22.752  25.505  1.00  0.00    -0.352 N 
ATOM     26  C   UNL A   1      39.263  22.995  26.024  1.00  0.00     0.251 C 
ATOM     27  H   UNL A   1      37.864  21.833  25.187  1.00  0.00     0.163 HD
ATOM     28  O   UNL A   1      40.164  22.174  25.869  1.00  0.00    -0.269 OA
BRANCH  26  29
ATOM     29  C   UNL A   1      39.523  24.255  26.750  1.00  0.00     0.039 A 
ATOM     30  C   UNL A   1      39.002  24.417  28.036  1.00  0.00     0.014 A 
ATOM     31  C   UNL A   1      40.286  25.272  26.167  1.00  0.00     0.014 A 
ATOM     32  C   UNL A   1      39.303  25.569  28.763  1.00  0.00     0.010 A 
ATOM     33  C   UNL A   1      40.647  26.385  26.921  1.00  0.00     0.010 A 
ATOM     34  C   UNL A   1      40.162  26.545  28.228  1.00  0.00    -0.014 A 
BRANCH  34  35
ATOM     35  C   UNL A   1      40.591  27.715  29.035  1.00  0.00     0.031 A 
ATOM     36  C   UNL A   1      41.887  27.684  29.797  1.00  0.00     0.074 A 
ATOM     37  C   UNL A   1      39.771  28.779  29.141  1.00  0.00     0.049 A 
ATOM     38  N   UNL A   1      42.391  28.584  30.602  1.00  0.00    -0.248 NA
ATOM     39  C   UNL A   1      42.708  26.472  29.659  1.00  0.00     0.031 C 
ATOM     40  C   UNL A   1      38.460  28.899  28.500  1.00  0.00     0.029 A 
ATOM     41  N   UNL A   1      39.905  29.951  29.844  1.00  0.00    -0.354 N 
ATOM     42  C   UNL A   1      43.581  28.043  31.076  1.00  0.00     0.074 A 
ATOM     43  C   UNL A   1      43.694  26.715  30.510  1.00  0.00     0.031 C 
ATOM     44  C   UNL A   1      37.916  30.081  28.828  1.00  0.00     0.029 A 
ATOM     45  C   UNL A   1      38.816  30.783  29.738  1.00  0.00     0.049 A 
ATOM     46  H   UNL A   1      40.704  30.173  30.372  1.00  0.00     0.167 HD
ATOM     47  C   UNL A   1      44.502  28.610  31.893  1.00  0.00     0.037 A 
ATOM     48  C   UNL A   1      38.558  31.970  30.322  1.00  0.00     0.037 A 
ATOM     49  C   UNL A   1      44.382  29.935  32.444  1.00  0.00     0.049 A 
ATOM     50  C   UNL A   1      39.590  32.581  31.227  1.00  0.00     0.074 A 
ATOM     51  C   UNL A   1      45.293  30.629  33.221  1.00  0.00     0.029 A 
ATOM     52  N   UNL A   1      43.275  30.760  32.295  1.00  0.00    -0.354 N 
ATOM     53  N   UNL A   1      40.753  32.096  31.592  1.00  0.00    -0.248 NA
ATOM     54  C   UNL A   1      39.283  33.901  31.794  1.00  0.00     0.031 C 
ATOM     55  C   UNL A   1      44.712  31.846  33.594  1.00  0.00     0.029 A 
ATOM     56  C   UNL A   1      43.465  31.940  32.998  1.00  0.00     0.049 A 
ATOM     57  H   UNL A   1      42.474  30.540  31.767  1.00  0.00     0.167 HD
ATOM     58  C   UNL A   1      41.323  33.057  32.420  1.00  0.00     0.074 A 
ATOM     59  C   UNL A   1      40.385  34.158  32.486  1.00  0.00     0.031 C 
ATOM     60  C   UNL A   1      42.516  33.027  33.067  1.00  0.00     0.037 A 
BRANCH  47  61
ATOM     61  C   UNL A   1      45.712  27.786  32.251  1.00  0.00     0.058 A 
ATOM     62  C   UNL A   1      46.863  27.763  31.444  1.00  0.00     0.135 A 
ATOM     63  C   UNL A   1      45.728  27.016  33.426  1.00  0.00     0.135 A 
ATOM     64  F   UNL A   1      46.904  28.472  30.305  1.00  0.00    -0.206 F 
ATOM     65  C   UNL A   1      47.960  26.969  31.761  1.00  0.00     0.059 A 
ATOM     66  C   UNL A   1      46.827  26.240  33.780  1.00  0.00     0.059 A 
ATOM     67  F   UNL A   1      44.660  27.003  34.239  1.00  0.00    -0.206 F 
ATOM     68  C   UNL A   1      47.930  26.205  32.929  1.00  0.00     0.060 A 
BRANCH  68  69
ATOM     69  S   UNL A   1      49.349  25.156  33.308  1.00  0.00     0.124 S 
ATOM     70  O   UNL A   1      49.853  24.855  31.972  1.00  0.00    -0.237 OA
ATOM     71  O   UNL A   1      50.183  26.040  34.116  1.00  0.00    -0.237 OA
ATOM     72  O   UNL A   1      48.758  24.030  34.025  1.00  0.00    -0.744 OA
ENDBRANCH  68  69
ENDBRANCH  47  61
BRANCH  48  73
ATOM     73  C   UNL A   1      37.259  32.644  30.059  1.00  0.00     0.058 A 
ATOM     74  C   UNL A   1      36.129  32.381  30.846  1.00  0.00     0.135 A 
ATOM     75  C   UNL A   1      37.140  33.612  29.047  1.00  0.00     0.135 A 
ATOM     76  F   UNL A   1      36.191  31.460  31.820  1.00  0.00    -0.206 F 
ATOM     77  C   UNL A   1      34.927  33.054  30.644  1.00  0.00     0.059 A 
ATOM     78  C   UNL A   1      35.958  34.315  28.843  1.00  0.00     0.059 A 
ATOM     79  F   UNL A   1      38.197  33.912  28.277  1.00  0.00    -0.206 F 
ATOM     80  C   UNL A   1      34.856  34.028  29.647  1.00  0.00     0.060 A 
BRANCH  80  81
ATOM     81  S   UNL A   1      33.320  34.958  29.452  1.00  0.00     0.124 S 
ATOM     82  O   UNL A   1      32.584  34.118  28.515  1.00  0.00    -0.237 OA
ATOM     83  O   UNL A   1      32.809  34.992  30.819  1.00  0.00    -0.237 OA
ATOM     84  O   UNL A   1      33.771  36.244  28.928  1.00  0.00    -0.744 OA
ENDBRANCH  80  81
ENDBRANCH  48  73
BRANCH  60  85
ATOM     85  C   UNL A   1      42.884  34.225  33.900  1.00  0.00     0.058 A 
ATOM     86  C   UNL A   1      42.667  34.256  35.287  1.00  0.00     0.135 A 
ATOM     87  C   UNL A   1      43.516  35.335  33.312  1.00  0.00     0.135 A 
ATOM     88  F   UNL A   1      42.058  33.227  35.899  1.00  0.00    -0.206 F 
ATOM     89  C   UNL A   1      43.045  35.350  36.058  1.00  0.00     0.059 A 
ATOM     90  C   UNL A   1      43.931  36.425  34.069  1.00  0.00     0.059 A 
ATOM     91  F   UNL A   1      43.755  35.355  31.992  1.00  0.00    -0.206 F 
ATOM     92  C   UNL A   1      43.682  36.428  35.441  1.00  0.00     0.060 A 
BRANCH  92  93
ATOM     93  S   UNL A   1      44.205  37.823  36.462  1.00  0.00     0.124 S 
ATOM     94  O   UNL A   1      43.229  37.776  37.545  1.00  0.00    -0.237 OA
ATOM     95  O   UNL A   1      45.570  37.451  36.819  1.00  0.00    -0.237 OA
ATOM     96  O   UNL A   1      44.089  38.966  35.561  1.00  0.00    -0.744 OA
ENDBRANCH  92  93
ENDBRANCH  60  85
ENDBRANCH  34  35
ENDBRANCH  26  29
ENDBRANCH  24  25
ENDBRANCH  23  24
ENDBRANCH  22  23
ENDBRANCH  21  22
ENDBRANCH   1  21
TORSDOF 21
ENDMDL
MODEL 3
REMARK VINA RESULT:      -9.2      5.331      7.375
REMARK SMILES CCNC(=O)C[NH2+][C@@H](C)[C@@H](C)C(=O)NCCCCCCNC(=O)c1ccc(-c2c3nc(c(-c4c(F)cc(S(=O)(=O)[O-])cc4F)c4ccc([nH]4)c(-c4c(F)cc(S(=O)(=O)[O-])cc4F)c4nc(c(-c5c(F)cc(S(=O)(=O)[O-])cc5F)c5ccc2[nH]5)C=C4)C=C3)cc1
REMARK SMILES IDX 16 1 15 2 14 3 12 4 13 5 10 7 11 8 8 9 9 10 7 11 6 14 4 15
REMARK SMILES IDX 3 16 5 18 2 19 1 20 17 21 18 22 19 23 20 24 21 25 22 26
REMARK SMILES IDX 23 28 24 29 25 30 89 31 26 32 88 33 27 34 28 35 29 36 82 37
REMARK SMILES IDX 30 38 87 39 81 40 83 41 31 42 86 43 80 44 79 45 32 47 66 48
REMARK SMILES IDX 45 49 65 50 46 51 49 52 64 53 84 54 47 55 48 56 63 58 85 59
REMARK SMILES IDX 50 60 33 61 34 62 43 63 35 64 36 65 42 66 44 67 37 68 38 69
REMARK SMILES IDX 39 70 40 71 41 72 67 73 68 74 77 75 69 76 70 77 76 78 78 79
REMARK SMILES IDX 71 80 72 81 73 82 74 83 75 84 51 85 52 86 61 87 53 88 54 89
REMARK SMILES IDX 60 90 62 91 55 92 56 93 57 94 58 95 59 96
REMARK H PARENT 14 6 7 12 7 13 3 17 21 27 83 46 49 57
REMARK Flexibility Score: inf
ROOT
ATOM      1  C   UNL A   1      34.025  23.480  22.384  1.00  0.00     0.021 C 
ENDROOT
BRANCH   1   2
ATOM      2  C   UNL A   1      33.312  24.833  22.379  1.00  0.00     0.116 C 
BRANCH   2   3
ATOM      3  N   UNL A   1      31.898  24.678  22.663  1.00  0.00    -0.356 N 
ATOM      4  C   UNL A   1      31.091  25.285  23.572  1.00  0.00     0.228 C 
ATOM      5  O   UNL A   1      29.919  24.903  23.636  1.00  0.00    -0.275 OA
ATOM      6  H   UNL A   1      31.441  24.015  22.096  1.00  0.00     0.163 HD
BRANCH   4   7
ATOM      7  C   UNL A   1      31.584  26.410  24.480  1.00  0.00     0.133 C 
ATOM      8  C   UNL A   1      31.127  26.143  25.919  1.00  0.00     0.024 C 
BRANCH   7   9
ATOM      9  C   UNL A   1      31.264  27.819  23.919  1.00  0.00     0.191 C 
ATOM     10  C   UNL A   1      31.309  28.868  25.042  1.00  0.00     0.076 C 
BRANCH   9  11
ATOM     11  N   UNL A   1      29.952  27.816  23.249  1.00  0.00    -0.336 N 
ATOM     12  H   UNL A   1      29.988  27.164  22.465  1.00  0.00     0.346 HD
ATOM     13  H   UNL A   1      29.254  27.537  23.937  1.00  0.00     0.346 HD
BRANCH  11  14
ATOM     14  C   UNL A   1      29.573  29.146  22.740  1.00  0.00     0.362 C 
BRANCH  14  15
ATOM     15  C   UNL A   1      28.055  29.228  22.563  1.00  0.00     0.275 C 
ATOM     16  N   UNL A   1      27.517  30.249  21.833  1.00  0.00    -0.351 N 
ATOM     17  H   UNL A   1      26.535  30.311  21.841  1.00  0.00     0.163 HD
ATOM     18  O   UNL A   1      27.303  28.398  23.078  1.00  0.00    -0.269 OA
BRANCH  16  19
ATOM     19  C   UNL A   1      28.205  31.256  21.046  1.00  0.00     0.112 C 
ATOM     20  C   UNL A   1      28.299  32.563  21.812  1.00  0.00     0.027 C 
ENDBRANCH  16  19
ENDBRANCH  14  15
ENDBRANCH  11  14
ENDBRANCH   9  11
ENDBRANCH   7   9
ENDBRANCH   4   7
ENDBRANCH   2   3
ENDBRANCH   1   2
BRANCH   1  21
ATOM     21  C   UNL A   1      33.567  22.539  23.503  1.00  0.00     0.002 C 
BRANCH  21  22
ATOM     22  C   UNL A   1      34.587  22.325  24.626  1.00  0.00     0.002 C 
BRANCH  22  23
ATOM     23  C   UNL A   1      35.897  23.103  24.467  1.00  0.00     0.021 C 
BRANCH  23  24
ATOM     24  C   UNL A   1      36.600  23.431  25.779  1.00  0.00     0.116 C 
BRANCH  24  25
ATOM     25  N   UNL A   1      37.639  22.464  26.095  1.00  0.00    -0.352 N 
ATOM     26  C   UNL A   1      38.937  22.679  26.484  1.00  0.00     0.251 C 
ATOM     27  H   UNL A   1      37.373  21.520  26.019  1.00  0.00     0.163 HD
ATOM     28  O   UNL A   1      39.737  21.746  26.496  1.00  0.00    -0.269 OA
BRANCH  26  29
ATOM     29  C   UNL A   1      39.374  24.037  26.867  1.00  0.00     0.039 A 
ATOM     30  C   UNL A   1      39.261  24.435  28.201  1.00  0.00     0.014 A 
ATOM     31  C   UNL A   1      39.901  24.914  25.913  1.00  0.00     0.014 A 
ATOM     32  C   UNL A   1      39.740  25.686  28.590  1.00  0.00     0.010 A 
ATOM     33  C   UNL A   1      40.446  26.129  26.317  1.00  0.00     0.010 A 
ATOM     34  C   UNL A   1      40.374  26.528  27.660  1.00  0.00    -0.014 A 
BRANCH  34  35
ATOM     35  C   UNL A   1      40.999  27.807  28.083  1.00  0.00     0.031 A 
ATOM     36  C   UNL A   1      42.487  27.999  27.988  1.00  0.00     0.074 A 
ATOM     37  C   UNL A   1      40.227  28.769  28.627  1.00  0.00     0.049 A 
ATOM     38  N   UNL A   1      43.212  29.019  28.369  1.00  0.00    -0.248 NA
ATOM     39  C   UNL A   1      43.264  26.888  27.419  1.00  0.00     0.031 C 
ATOM     40  C   UNL A   1      38.780  28.674  28.830  1.00  0.00     0.029 A 
ATOM     41  N   UNL A   1      40.552  30.005  29.129  1.00  0.00    -0.354 N 
ATOM     42  C   UNL A   1      44.530  28.669  28.097  1.00  0.00     0.074 A 
ATOM     43  C   UNL A   1      44.506  27.321  27.570  1.00  0.00     0.031 C 
ATOM     44  C   UNL A   1      38.341  29.805  29.403  1.00  0.00     0.029 A 
ATOM     45  C   UNL A   1      39.478  30.687  29.649  1.00  0.00     0.049 A 
ATOM     46  H   UNL A   1      41.466  30.367  29.118  1.00  0.00     0.167 HD
ATOM     47  C   UNL A   1      45.653  29.412  28.255  1.00  0.00     0.037 A 
ATOM     48  C   UNL A   1      39.414  31.881  30.272  1.00  0.00     0.037 A 
ATOM     49  C   UNL A   1      45.662  30.755  28.773  1.00  0.00     0.049 A 
ATOM     50  C   UNL A   1      40.669  32.687  30.441  1.00  0.00     0.074 A 
ATOM     51  C   UNL A   1      46.736  31.619  28.904  1.00  0.00     0.029 A 
ATOM     52  N   UNL A   1      44.551  31.425  29.267  1.00  0.00    -0.354 N 
ATOM     53  N   UNL A   1      41.896  32.380  30.093  1.00  0.00    -0.248 NA
ATOM     54  C   UNL A   1      40.535  34.005  31.077  1.00  0.00     0.031 C 
ATOM     55  C   UNL A   1      46.286  32.785  29.533  1.00  0.00     0.029 A 
ATOM     56  C   UNL A   1      44.920  32.675  29.738  1.00  0.00     0.049 A 
ATOM     57  H   UNL A   1      43.635  31.065  29.280  1.00  0.00     0.167 HD
ATOM     58  C   UNL A   1      42.679  33.471  30.456  1.00  0.00     0.074 A 
ATOM     59  C   UNL A   1      41.783  34.452  31.032  1.00  0.00     0.031 C 
ATOM     60  C   UNL A   1      44.019  33.641  30.323  1.00  0.00     0.037 A 
BRANCH  47  61
ATOM     61  C   UNL A   1      46.965  28.774  27.877  1.00  0.00     0.058 A 
ATOM     62  C   UNL A   1      47.461  28.815  26.562  1.00  0.00     0.135 A 
ATOM     63  C   UNL A   1      47.746  28.122  28.846  1.00  0.00     0.135 A 
ATOM     64  F   UNL A   1      46.755  29.417  25.592  1.00  0.00    -0.206 F 
ATOM     65  C   UNL A   1      48.653  28.189  26.213  1.00  0.00     0.059 A 
ATOM     66  C   UNL A   1      48.958  27.518  28.526  1.00  0.00     0.059 A 
ATOM     67  F   UNL A   1      47.327  28.056  30.119  1.00  0.00    -0.206 F 
ATOM     68  C   UNL A   1      49.392  27.538  27.201  1.00  0.00     0.060 A 
BRANCH  68  69
ATOM     69  S   UNL A   1      50.921  26.705  26.725  1.00  0.00     0.124 S 
ATOM     70  O   UNL A   1      50.972  25.616  27.696  1.00  0.00    -0.237 OA
ATOM     71  O   UNL A   1      50.646  26.312  25.347  1.00  0.00    -0.237 OA
ATOM     72  O   UNL A   1      51.938  27.739  26.888  1.00  0.00    -0.744 OA
ENDBRANCH  68  69
ENDBRANCH  47  61
BRANCH  48  73
ATOM     73  C   UNL A   1      38.103  32.367  30.779  1.00  0.00     0.058 A 
ATOM     74  C   UNL A   1      37.718  32.166  32.113  1.00  0.00     0.135 A 
ATOM     75  C   UNL A   1      37.234  33.097  29.951  1.00  0.00     0.135 A 
ATOM     76  F   UNL A   1      38.511  31.469  32.942  1.00  0.00    -0.206 F 
ATOM     77  C   UNL A   1      36.521  32.673  32.610  1.00  0.00     0.059 A 
ATOM     78  C   UNL A   1      36.045  33.635  30.431  1.00  0.00     0.059 A 
ATOM     79  F   UNL A   1      37.564  33.331  28.671  1.00  0.00    -0.206 F 
ATOM     80  C   UNL A   1      35.697  33.416  31.763  1.00  0.00     0.060 A 
BRANCH  80  81
ATOM     81  S   UNL A   1      34.189  34.145  32.440  1.00  0.00     0.124 S 
ATOM     82  O   UNL A   1      34.727  35.055  33.443  1.00  0.00    -0.237 OA
ATOM     83  O   UNL A   1      33.598  34.771  31.260  1.00  0.00    -0.237 OA
ATOM     84  O   UNL A   1      33.461  32.991  32.957  1.00  0.00    -0.744 OA
ENDBRANCH  80  81
ENDBRANCH  48  73
BRANCH  60  85
ATOM     85  C   UNL A   1      44.604  34.943  30.802  1.00  0.00     0.058 A 
ATOM     86  C   UNL A   1      44.714  36.059  29.958  1.00  0.00     0.135 A 
ATOM     87  C   UNL A   1      45.007  35.093  32.141  1.00  0.00     0.135 A 
ATOM     88  F   UNL A   1      44.353  35.969  28.668  1.00  0.00    -0.206 F 
ATOM     89  C   UNL A   1      45.218  37.271  30.418  1.00  0.00     0.059 A 
ATOM     90  C   UNL A   1      45.484  36.304  32.629  1.00  0.00     0.059 A 
ATOM     91  F   UNL A   1      44.917  34.060  32.993  1.00  0.00    -0.206 F 
ATOM     92  C   UNL A   1      45.596  37.386  31.757  1.00  0.00     0.060 A 
BRANCH  92  93
ATOM     93  S   UNL A   1      46.209  38.978  32.348  1.00  0.00     0.124 S 
ATOM     94  O   UNL A   1      46.830  39.519  31.144  1.00  0.00    -0.237 OA
ATOM     95  O   UNL A   1      44.984  39.640  32.784  1.00  0.00    -0.237 OA
ATOM     96  O   UNL A   1      47.131  38.610  33.419  1.00  0.00    -0.744 OA
ENDBRANCH  92  93
ENDBRANCH  60  85
ENDBRANCH  34  35
ENDBRANCH  26  29
ENDBRANCH  24  25
ENDBRANCH  23  24
ENDBRANCH  22  23
ENDBRANCH  21  22
ENDBRANCH   1  21
TORSDOF 21
ENDMDL
