MODEL 1
REMARK VINA RESULT:     -11.2      0.000      0.000
REMARK SMILES CN(C)C(=O)CCNC(=O)NC[C@H]1CC[C@@H](C(=O)NCCCCCCNC(=O)c2ccc(-c3c4nc(c(-c5c(F)cc(S(=O)(=O)[O-])cc5F)c5ccc([nH]5)c(-c5c(F)cc(S(=O)(=O)[O-])cc5F)c5nc(c(-c6c(F)cc(S(=O)(=O)[O-])cc6F)c6ccc3[nH]6)C=C5)C=C4)cc2)CC1
REMARK SMILES IDX 21 1 20 2 19 3 17 4 18 5 16 7 13 8 14 9 96 10 15 11 95 12
REMARK SMILES IDX 12 13 11 14 8 15 9 16 10 18 7 20 6 21 4 22 1 23 2 24 3 25
REMARK SMILES IDX 5 26 22 27 23 28 24 29 25 30 26 31 27 32 28 34 29 35 30 36
REMARK SMILES IDX 94 37 31 38 93 39 32 40 33 41 34 42 87 43 35 44 92 45 86 46
REMARK SMILES IDX 88 47 36 48 91 49 85 50 84 51 37 53 71 54 50 55 70 56 51 57
REMARK SMILES IDX 54 58 69 59 89 60 52 61 53 62 68 64 90 65 55 66 38 67 39 68
REMARK SMILES IDX 48 69 40 70 41 71 47 72 49 73 42 74 43 75 44 76 45 77 46 78
REMARK SMILES IDX 72 79 73 80 82 81 74 82 75 83 81 84 83 85 76 86 77 87 78 88
REMARK SMILES IDX 79 89 80 90 56 91 57 92 66 93 58 94 59 95 65 96 67 97 60 98
REMARK SMILES IDX 61 99 62 100 63 101 64 102
REMARK H PARENT 19 6 8 17 11 19 26 33 88 52 54 63
REMARK Flexibility Score: inf
ROOT
ATOM      1  C   UNL A   1      31.408  30.269  25.134  1.00  0.00     0.021 C 
ENDROOT
BRANCH   1   2
ATOM      2  C   UNL A   1      30.851  29.115  24.300  1.00  0.00     0.116 C 
BRANCH   2   3
ATOM      3  N   UNL A   1      31.834  28.127  23.929  1.00  0.00    -0.356 N 
ATOM      4  C   UNL A   1      31.760  26.783  23.762  1.00  0.00     0.223 C 
ATOM      5  O   UNL A   1      32.748  26.260  23.226  1.00  0.00    -0.275 OA
ATOM      6  H   UNL A   1      32.731  28.500  23.766  1.00  0.00     0.163 HD
BRANCH   4   7
ATOM      7  C   UNL A   1      30.587  25.884  24.194  1.00  0.00     0.078 C 
ATOM      8  C   UNL A   1      31.007  23.178  25.485  1.00  0.00     0.008 C 
ATOM      9  C   UNL A   1      31.020  24.478  26.319  1.00  0.00     0.006 C 
ATOM     10  C   UNL A   1      31.051  23.359  23.955  1.00  0.00     0.006 C 
ATOM     11  C   UNL A   1      30.354  25.689  25.688  1.00  0.00     0.014 C 
ATOM     12  C   UNL A   1      30.385  24.603  23.393  1.00  0.00     0.014 C 
BRANCH   8  13
ATOM     13  C   UNL A   1      32.188  22.263  25.887  1.00  0.00     0.121 C 
BRANCH  13  14
ATOM     14  N   UNL A   1      31.983  20.877  25.544  1.00  0.00    -0.338 N 
ATOM     15  N   UNL A   1      34.117  19.949  25.214  1.00  0.00    -0.338 N 
ATOM     16  C   UNL A   1      32.785  19.889  25.146  1.00  0.00     0.314 C 
ATOM     17  H   UNL A   1      34.570  19.229  24.717  1.00  0.00     0.165 HD
ATOM     18  O   UNL A   1      32.254  18.863  24.718  1.00  0.00    -0.249 OA
ATOM     19  H   UNL A   1      31.041  20.599  25.621  1.00  0.00     0.165 HD
BRANCH  15  20
ATOM     20  C   UNL A   1      35.033  20.861  25.873  1.00  0.00     0.127 C 
BRANCH  20  21
ATOM     21  C   UNL A   1      35.851  21.692  24.885  1.00  0.00     0.121 C 
BRANCH  21  22
ATOM     22  C   UNL A   1      36.388  22.903  25.615  1.00  0.00     0.223 C 
ATOM     23  C   UNL A   1      38.345  24.232  26.214  1.00  0.00     0.146 C 
ATOM     24  N   UNL A   1      37.737  22.946  25.907  1.00  0.00    -0.349 N 
ATOM     25  C   UNL A   1      38.637  21.803  25.908  1.00  0.00     0.146 C 
ATOM     26  O   UNL A   1      35.622  23.847  25.819  1.00  0.00    -0.275 OA
ENDBRANCH  21  22
ENDBRANCH  20  21
ENDBRANCH  15  20
ENDBRANCH  13  14
ENDBRANCH   8  13
ENDBRANCH   4   7
ENDBRANCH   2   3
ENDBRANCH   1   2
BRANCH   1  27
ATOM     27  C   UNL A   1      31.773  29.899  26.575  1.00  0.00     0.002 C 
BRANCH  27  28
ATOM     28  C   UNL A   1      32.918  30.692  27.220  1.00  0.00     0.002 C 
BRANCH  28  29
ATOM     29  C   UNL A   1      34.317  30.070  27.165  1.00  0.00     0.021 C 
BRANCH  29  30
ATOM     30  C   UNL A   1      35.431  30.848  27.865  1.00  0.00     0.116 C 
BRANCH  30  31
ATOM     31  N   UNL A   1      35.349  30.748  29.311  1.00  0.00    -0.352 N 
ATOM     32  C   UNL A   1      36.247  30.267  30.231  1.00  0.00     0.251 C 
ATOM     33  H   UNL A   1      34.508  31.082  29.698  1.00  0.00     0.163 HD
ATOM     34  O   UNL A   1      35.876  30.108  31.395  1.00  0.00    -0.269 OA
BRANCH  32  35
ATOM     35  C   UNL A   1      37.638  29.923  29.856  1.00  0.00     0.039 A 
ATOM     36  C   UNL A   1      38.559  29.663  30.878  1.00  0.00     0.014 A 
ATOM     37  C   UNL A   1      38.065  29.920  28.525  1.00  0.00     0.014 A 
ATOM     38  C   UNL A   1      39.885  29.351  30.566  1.00  0.00     0.010 A 
ATOM     39  C   UNL A   1      39.375  29.549  28.211  1.00  0.00     0.010 A 
ATOM     40  C   UNL A   1      40.300  29.262  29.228  1.00  0.00    -0.014 A 
BRANCH  40  41
ATOM     41  C   UNL A   1      41.692  28.874  28.874  1.00  0.00     0.031 A 
ATOM     42  C   UNL A   1      42.776  29.916  28.808  1.00  0.00     0.074 A 
ATOM     43  C   UNL A   1      41.968  27.593  28.555  1.00  0.00     0.049 A 
ATOM     44  N   UNL A   1      44.017  29.795  28.413  1.00  0.00    -0.248 NA
ATOM     45  C   UNL A   1      42.413  31.277  29.236  1.00  0.00     0.031 C 
ATOM     46  C   UNL A   1      41.008  26.488  28.584  1.00  0.00     0.029 A 
ATOM     47  N   UNL A   1      43.133  27.007  28.122  1.00  0.00    -0.354 N 
ATOM     48  C   UNL A   1      44.582  31.060  28.537  1.00  0.00     0.074 A 
ATOM     49  C   UNL A   1      43.535  31.944  29.001  1.00  0.00     0.031 C 
ATOM     50  C   UNL A   1      41.617  25.364  28.174  1.00  0.00     0.029 A 
ATOM     51  C   UNL A   1      42.996  25.674  27.812  1.00  0.00     0.049 A 
ATOM     52  H   UNL A   1      43.984  27.494  28.040  1.00  0.00     0.167 HD
ATOM     53  C   UNL A   1      45.861  31.444  28.307  1.00  0.00     0.037 A 
ATOM     54  C   UNL A   1      43.870  24.804  27.268  1.00  0.00     0.037 A 
ATOM     55  C   UNL A   1      46.904  30.554  27.864  1.00  0.00     0.049 A 
ATOM     56  C   UNL A   1      45.266  25.267  26.959  1.00  0.00     0.074 A 
ATOM     57  C   UNL A   1      48.244  30.831  27.663  1.00  0.00     0.029 A 
ATOM     58  N   UNL A   1      46.719  29.217  27.547  1.00  0.00    -0.354 N 
ATOM     59  N   UNL A   1      45.793  26.456  27.125  1.00  0.00    -0.248 NA
ATOM     60  C   UNL A   1      46.190  24.272  26.397  1.00  0.00     0.031 C 
ATOM     61  C   UNL A   1      48.865  29.669  27.191  1.00  0.00     0.029 A 
ATOM     62  C   UNL A   1      47.918  28.659  27.134  1.00  0.00     0.049 A 
ATOM     63  H   UNL A   1      45.863  28.734  27.608  1.00  0.00     0.167 HD
ATOM     64  C   UNL A   1      47.120  26.344  26.727  1.00  0.00     0.074 A 
ATOM     65  C   UNL A   1      47.313  24.972  26.303  1.00  0.00     0.031 C 
ATOM     66  C   UNL A   1      48.094  27.287  26.723  1.00  0.00     0.037 A 
BRANCH  53  67
ATOM     67  C   UNL A   1      46.207  32.889  28.541  1.00  0.00     0.058 A 
ATOM     68  C   UNL A   1      46.076  33.849  27.525  1.00  0.00     0.135 A 
ATOM     69  C   UNL A   1      46.647  33.326  29.801  1.00  0.00     0.135 A 
ATOM     70  F   UNL A   1      45.671  33.484  26.298  1.00  0.00    -0.206 F 
ATOM     71  C   UNL A   1      46.402  35.184  27.739  1.00  0.00     0.059 A 
ATOM     72  C   UNL A   1      46.955  34.663  30.044  1.00  0.00     0.059 A 
ATOM     73  F   UNL A   1      46.786  32.452  30.810  1.00  0.00    -0.206 F 
ATOM     74  C   UNL A   1      46.845  35.581  29.001  1.00  0.00     0.060 A 
BRANCH  74  75
ATOM     75  S   UNL A   1      47.274  37.316  29.264  1.00  0.00     0.124 S 
ATOM     76  O   UNL A   1      47.278  37.393  30.724  1.00  0.00    -0.237 OA
ATOM     77  O   UNL A   1      48.585  37.415  28.626  1.00  0.00    -0.237 OA
ATOM     78  O   UNL A   1      46.200  38.038  28.600  1.00  0.00    -0.744 OA
ENDBRANCH  74  75
ENDBRANCH  53  67
BRANCH  54  79
ATOM     79  C   UNL A   1      43.443  23.411  26.974  1.00  0.00     0.058 A 
ATOM     80  C   UNL A   1      43.213  22.982  25.659  1.00  0.00     0.135 A 
ATOM     81  C   UNL A   1      43.269  22.473  28.004  1.00  0.00     0.135 A 
ATOM     82  F   UNL A   1      43.360  23.841  24.640  1.00  0.00    -0.206 F 
ATOM     83  C   UNL A   1      42.813  21.679  25.378  1.00  0.00     0.059 A 
ATOM     84  C   UNL A   1      42.889  21.160  27.748  1.00  0.00     0.059 A 
ATOM     85  F   UNL A   1      43.496  22.827  29.277  1.00  0.00    -0.206 F 
ATOM     86  C   UNL A   1      42.656  20.774  26.430  1.00  0.00     0.060 A 
BRANCH  86  87
ATOM     87  S   UNL A   1      42.182  19.073  26.050  1.00  0.00     0.124 S 
ATOM     88  O   UNL A   1      40.748  19.212  25.828  1.00  0.00    -0.237 OA
ATOM     89  O   UNL A   1      42.988  18.790  24.867  1.00  0.00    -0.237 OA
ATOM     90  O   UNL A   1      42.568  18.342  27.253  1.00  0.00    -0.744 OA
ENDBRANCH  86  87
ENDBRANCH  54  79
BRANCH  66  91
ATOM     91  C   UNL A   1      49.467  26.861  26.289  1.00  0.00     0.058 A 
ATOM     92  C   UNL A   1      50.350  26.216  27.168  1.00  0.00     0.135 A 
ATOM     93  C   UNL A   1      49.881  27.053  24.961  1.00  0.00     0.135 A 
ATOM     94  F   UNL A   1      50.004  26.020  28.450  1.00  0.00    -0.206 F 
ATOM     95  C   UNL A   1      51.606  25.788  26.748  1.00  0.00     0.059 A 
ATOM     96  C   UNL A   1      51.123  26.613  24.514  1.00  0.00     0.059 A 
ATOM     97  F   UNL A   1      49.069  27.658  24.080  1.00  0.00    -0.206 F 
ATOM     98  C   UNL A   1      51.982  25.989  25.418  1.00  0.00     0.060 A 
BRANCH  98  99
ATOM     99  S   UNL A   1      53.597  25.393  24.872  1.00  0.00     0.124 S 
ATOM    100  O   UNL A   1      53.492  23.965  25.156  1.00  0.00    -0.237 OA
ATOM    101  O   UNL A   1      53.608  25.759  23.459  1.00  0.00    -0.237 OA
ATOM    102  O   UNL A   1      54.533  26.134  25.712  1.00  0.00    -0.744 OA
ENDBRANCH  98  99
ENDBRANCH  66  91
ENDBRANCH  40  41
ENDBRANCH  32  35
ENDBRANCH  30  31
ENDBRANCH  29  30
ENDBRANCH  28  29
ENDBRANCH  27  28
ENDBRANCH   1  27
TORSDOF 21
ENDMDL
MODEL 2
REMARK VINA RESULT:     -11.2      3.035      8.992
REMARK SMILES CN(C)C(=O)CCNC(=O)NC[C@H]1CC[C@@H](C(=O)NCCCCCCNC(=O)c2ccc(-c3c4nc(c(-c5c(F)cc(S(=O)(=O)[O-])cc5F)c5ccc([nH]5)c(-c5c(F)cc(S(=O)(=O)[O-])cc5F)c5nc(c(-c6c(F)cc(S(=O)(=O)[O-])cc6F)c6ccc3[nH]6)C=C5)C=C4)cc2)CC1
REMARK SMILES IDX 21 1 20 2 19 3 17 4 18 5 16 7 13 8 14 9 96 10 15 11 95 12
REMARK SMILES IDX 12 13 11 14 8 15 9 16 10 18 7 20 6 21 4 22 1 23 2 24 3 25
REMARK SMILES IDX 5 26 22 27 23 28 24 29 25 30 26 31 27 32 28 34 29 35 30 36
REMARK SMILES IDX 94 37 31 38 93 39 32 40 33 41 34 42 87 43 35 44 92 45 86 46
REMARK SMILES IDX 88 47 36 48 91 49 85 50 84 51 37 53 71 54 50 55 70 56 51 57
REMARK SMILES IDX 54 58 69 59 89 60 52 61 53 62 68 64 90 65 55 66 38 67 39 68
REMARK SMILES IDX 48 69 40 70 41 71 47 72 49 73 42 74 43 75 44 76 45 77 46 78
REMARK SMILES IDX 72 79 73 80 82 81 74 82 75 83 81 84 83 85 76 86 77 87 78 88
REMARK SMILES IDX 79 89 80 90 56 91 57 92 66 93 58 94 59 95 65 96 67 97 60 98
REMARK SMILES IDX 61 99 62 100 63 101 64 102
REMARK H PARENT 19 6 8 17 11 19 26 33 88 52 54 63
REMARK Flexibility Score: inf
ROOT
ATOM      1  C   UNL A   1      32.725  24.956  22.276  1.00  0.00     0.021 C 
ENDROOT
BRANCH   1   2
ATOM      2  C   UNL A   1      31.835  26.145  21.911  1.00  0.00     0.116 C 
BRANCH   2   3
ATOM      3  N   UNL A   1      32.471  27.430  22.074  1.00  0.00    -0.356 N 
ATOM      4  C   UNL A   1      32.362  28.387  23.029  1.00  0.00     0.223 C 
ATOM      5  O   UNL A   1      33.216  29.284  22.981  1.00  0.00    -0.275 OA
ATOM      6  H   UNL A   1      33.105  27.655  21.355  1.00  0.00     0.163 HD
BRANCH   4   7
ATOM      7  C   UNL A   1      31.278  28.453  24.121  1.00  0.00     0.078 C 
ATOM      8  C   UNL A   1      30.853  26.221  26.121  1.00  0.00     0.008 C 
ATOM      9  C   UNL A   1      31.914  27.319  26.354  1.00  0.00     0.006 C 
ATOM     10  C   UNL A   1      30.236  26.169  24.709  1.00  0.00     0.006 C 
ATOM     11  C   UNL A   1      31.735  28.606  25.567  1.00  0.00     0.014 C 
ATOM     12  C   UNL A   1      30.107  27.489  23.970  1.00  0.00     0.014 C 
BRANCH   8  13
ATOM     13  C   UNL A   1      31.440  24.824  26.432  1.00  0.00     0.121 C 
BRANCH  13  14
ATOM     14  N   UNL A   1      30.448  23.865  26.850  1.00  0.00    -0.338 N 
ATOM     15  N   UNL A   1      31.084  21.799  25.924  1.00  0.00    -0.338 N 
ATOM     16  C   UNL A   1      30.211  22.585  26.560  1.00  0.00     0.314 C 
ATOM     17  H   UNL A   1      30.698  20.945  25.621  1.00  0.00     0.165 HD
ATOM     18  O   UNL A   1      29.136  22.108  26.927  1.00  0.00    -0.249 OA
ATOM     19  H   UNL A   1      29.802  24.238  27.493  1.00  0.00     0.165 HD
BRANCH  15  20
ATOM     20  C   UNL A   1      32.488  21.951  25.590  1.00  0.00     0.127 C 
BRANCH  20  21
ATOM     21  C   UNL A   1      32.889  21.153  24.349  1.00  0.00     0.121 C 
BRANCH  21  22
ATOM     22  C   UNL A   1      33.918  20.125  24.760  1.00  0.00     0.223 C 
ATOM     23  C   UNL A   1      34.844  17.897  24.397  1.00  0.00     0.146 C 
ATOM     24  N   UNL A   1      33.712  18.809  24.394  1.00  0.00    -0.349 N 
ATOM     25  C   UNL A   1      32.441  18.243  23.967  1.00  0.00     0.146 C 
ATOM     26  O   UNL A   1      34.951  20.520  25.306  1.00  0.00    -0.275 OA
ENDBRANCH  21  22
ENDBRANCH  20  21
ENDBRANCH  15  20
ENDBRANCH  13  14
ENDBRANCH   8  13
ENDBRANCH   4   7
ENDBRANCH   2   3
ENDBRANCH   1   2
BRANCH   1  27
ATOM     27  C   UNL A   1      34.071  25.333  22.901  1.00  0.00     0.002 C 
BRANCH  27  28
ATOM     28  C   UNL A   1      34.345  24.807  24.317  1.00  0.00     0.002 C 
BRANCH  28  29
ATOM     29  C   UNL A   1      35.554  23.884  24.500  1.00  0.00     0.021 C 
BRANCH  29  30
ATOM     30  C   UNL A   1      36.094  23.751  25.923  1.00  0.00     0.116 C 
BRANCH  30  31
ATOM     31  N   UNL A   1      37.085  22.697  26.041  1.00  0.00    -0.352 N 
ATOM     32  C   UNL A   1      38.433  22.754  26.289  1.00  0.00     0.251 C 
ATOM     33  H   UNL A   1      36.730  21.786  25.923  1.00  0.00     0.163 HD
ATOM     34  O   UNL A   1      39.106  21.731  26.154  1.00  0.00    -0.269 OA
BRANCH  32  35
ATOM     35  C   UNL A   1      39.096  24.014  26.700  1.00  0.00     0.039 A 
ATOM     36  C   UNL A   1      38.977  24.425  28.033  1.00  0.00     0.014 A 
ATOM     37  C   UNL A   1      39.771  24.826  25.785  1.00  0.00     0.014 A 
ATOM     38  C   UNL A   1      39.574  25.616  28.457  1.00  0.00     0.010 A 
ATOM     39  C   UNL A   1      40.418  25.985  26.222  1.00  0.00     0.010 A 
ATOM     40  C   UNL A   1      40.326  26.394  27.562  1.00  0.00    -0.014 A 
BRANCH  40  41
ATOM     41  C   UNL A   1      41.018  27.633  28.007  1.00  0.00     0.031 A 
ATOM     42  C   UNL A   1      42.520  27.717  27.970  1.00  0.00     0.074 A 
ATOM     43  C   UNL A   1      40.297  28.661  28.498  1.00  0.00     0.049 A 
ATOM     44  N   UNL A   1      43.308  28.662  28.416  1.00  0.00    -0.248 NA
ATOM     45  C   UNL A   1      43.232  26.584  27.357  1.00  0.00     0.031 C 
ATOM     46  C   UNL A   1      38.837  28.706  28.584  1.00  0.00     0.029 A 
ATOM     47  N   UNL A   1      40.696  29.859  29.041  1.00  0.00    -0.354 N 
ATOM     48  C   UNL A   1      44.604  28.238  28.146  1.00  0.00     0.074 A 
ATOM     49  C   UNL A   1      44.500  26.929  27.537  1.00  0.00     0.031 C 
ATOM     50  C   UNL A   1      38.463  29.861  29.156  1.00  0.00     0.029 A 
ATOM     51  C   UNL A   1      39.655  30.621  29.517  1.00  0.00     0.049 A 
ATOM     52  H   UNL A   1      41.637  30.144  29.084  1.00  0.00     0.167 HD
ATOM     53  C   UNL A   1      45.773  28.890  28.363  1.00  0.00     0.037 A 
ATOM     54  C   UNL A   1      39.657  31.785  30.197  1.00  0.00     0.037 A 
ATOM     55  C   UNL A   1      45.868  30.201  28.950  1.00  0.00     0.049 A 
ATOM     56  C   UNL A   1      40.969  32.460  30.487  1.00  0.00     0.074 A 
ATOM     57  C   UNL A   1      46.997  30.973  29.155  1.00  0.00     0.029 A 
ATOM     58  N   UNL A   1      44.792  30.931  29.433  1.00  0.00    -0.354 N 
ATOM     59  N   UNL A   1      42.182  32.064  30.183  1.00  0.00    -0.248 NA
ATOM     60  C   UNL A   1      40.916  33.743  31.202  1.00  0.00     0.031 C 
ATOM     61  C   UNL A   1      46.609  32.156  29.794  1.00  0.00     0.029 A 
ATOM     62  C   UNL A   1      45.232  32.137  29.952  1.00  0.00     0.049 A 
ATOM     63  H   UNL A   1      43.852  30.636  29.410  1.00  0.00     0.167 HD
ATOM     64  C   UNL A   1      43.034  33.066  30.634  1.00  0.00     0.074 A 
ATOM     65  C   UNL A   1      42.197  34.082  31.238  1.00  0.00     0.031 C 
ATOM     66  C   UNL A   1      44.384  33.143  30.544  1.00  0.00     0.037 A 
BRANCH  53  67
ATOM     67  C   UNL A   1      47.043  28.197  27.953  1.00  0.00     0.058 A 
ATOM     68  C   UNL A   1      47.737  27.355  28.836  1.00  0.00     0.135 A 
ATOM     69  C   UNL A   1      47.558  28.350  26.656  1.00  0.00     0.135 A 
ATOM     70  F   UNL A   1      47.296  27.181  30.092  1.00  0.00    -0.206 F 
ATOM     71  C   UNL A   1      48.916  26.719  28.460  1.00  0.00     0.059 A 
ATOM     72  C   UNL A   1      48.723  27.704  26.250  1.00  0.00     0.059 A 
ATOM     73  F   UNL A   1      46.931  29.140  25.768  1.00  0.00    -0.206 F 
ATOM     74  C   UNL A   1      49.404  26.903  27.166  1.00  0.00     0.060 A 
BRANCH  74  75
ATOM     75  S   UNL A   1      50.940  26.079  26.692  1.00  0.00     0.124 S 
ATOM     76  O   UNL A   1      51.938  26.966  27.286  1.00  0.00    -0.237 OA
ATOM     77  O   UNL A   1      50.803  24.771  27.330  1.00  0.00    -0.237 OA
ATOM     78  O   UNL A   1      50.889  26.072  25.239  1.00  0.00    -0.744 OA
ENDBRANCH  74  75
ENDBRANCH  53  67
BRANCH  54  79
ATOM     79  C   UNL A   1      38.374  32.377  30.657  1.00  0.00     0.058 A 
ATOM     80  C   UNL A   1      37.637  33.244  29.839  1.00  0.00     0.135 A 
ATOM     81  C   UNL A   1      37.851  32.076  31.925  1.00  0.00     0.135 A 
ATOM     82  F   UNL A   1      38.097  33.567  28.621  1.00  0.00    -0.206 F 
ATOM     83  C   UNL A   1      36.435  33.802  30.265  1.00  0.00     0.059 A 
ATOM     84  C   UNL A   1      36.643  32.604  32.367  1.00  0.00     0.059 A 
ATOM     85  F   UNL A   1      38.507  31.236  32.738  1.00  0.00    -0.206 F 
ATOM     86  C   UNL A   1      35.945  33.474  31.531  1.00  0.00     0.060 A 
BRANCH  86  87
ATOM     87  S   UNL A   1      34.362  34.166  32.057  1.00  0.00     0.124 S 
ATOM     88  O   UNL A   1      33.806  33.066  32.835  1.00  0.00    -0.237 OA
ATOM     89  O   UNL A   1      34.780  35.341  32.816  1.00  0.00    -0.237 OA
ATOM     90  O   UNL A   1      33.686  34.452  30.795  1.00  0.00    -0.744 OA
ENDBRANCH  86  87
ENDBRANCH  54  79
BRANCH  66  91
ATOM     91  C   UNL A   1      45.041  34.385  31.072  1.00  0.00     0.058 A 
ATOM     92  C   UNL A   1      45.518  34.464  32.390  1.00  0.00     0.135 A 
ATOM     93  C   UNL A   1      45.243  35.492  30.232  1.00  0.00     0.135 A 
ATOM     94  F   UNL A   1      45.340  33.436  33.234  1.00  0.00    -0.206 F 
ATOM     95  C   UNL A   1      46.162  35.604  32.860  1.00  0.00     0.059 A 
ATOM     96  C   UNL A   1      45.904  36.634  30.675  1.00  0.00     0.059 A 
ATOM     97  F   UNL A   1      44.811  35.464  28.961  1.00  0.00    -0.206 F 
ATOM     98  C   UNL A   1      46.351  36.683  31.994  1.00  0.00     0.060 A 
BRANCH  98  99
ATOM     99  S   UNL A   1      47.225  38.142  32.602  1.00  0.00     0.124 S 
ATOM    100  O   UNL A   1      46.121  39.066  32.841  1.00  0.00    -0.237 OA
ATOM    101  O   UNL A   1      47.895  37.633  33.795  1.00  0.00    -0.237 OA
ATOM    102  O   UNL A   1      48.110  38.493  31.496  1.00  0.00    -0.744 OA
ENDBRANCH  98  99
ENDBRANCH  66  91
ENDBRANCH  40  41
ENDBRANCH  32  35
ENDBRANCH  30  31
ENDBRANCH  29  30
ENDBRANCH  28  29
ENDBRANCH  27  28
ENDBRANCH   1  27
TORSDOF 21
ENDMDL
MODEL 3
REMARK VINA RESULT:     -11.1      6.438     12.204
REMARK SMILES CN(C)C(=O)CCNC(=O)NC[C@H]1CC[C@@H](C(=O)NCCCCCCNC(=O)c2ccc(-c3c4nc(c(-c5c(F)cc(S(=O)(=O)[O-])cc5F)c5ccc([nH]5)c(-c5c(F)cc(S(=O)(=O)[O-])cc5F)c5nc(c(-c6c(F)cc(S(=O)(=O)[O-])cc6F)c6ccc3[nH]6)C=C5)C=C4)cc2)CC1
REMARK SMILES IDX 21 1 20 2 19 3 17 4 18 5 16 7 13 8 14 9 96 10 15 11 95 12
REMARK SMILES IDX 12 13 11 14 8 15 9 16 10 18 7 20 6 21 4 22 1 23 2 24 3 25
REMARK SMILES IDX 5 26 22 27 23 28 24 29 25 30 26 31 27 32 28 34 29 35 30 36
REMARK SMILES IDX 94 37 31 38 93 39 32 40 33 41 34 42 87 43 35 44 92 45 86 46
REMARK SMILES IDX 88 47 36 48 91 49 85 50 84 51 37 53 71 54 50 55 70 56 51 57
REMARK SMILES IDX 54 58 69 59 89 60 52 61 53 62 68 64 90 65 55 66 38 67 39 68
REMARK SMILES IDX 48 69 40 70 41 71 47 72 49 73 42 74 43 75 44 76 45 77 46 78
REMARK SMILES IDX 72 79 73 80 82 81 74 82 75 83 81 84 83 85 76 86 77 87 78 88
REMARK SMILES IDX 79 89 80 90 56 91 57 92 66 93 58 94 59 95 65 96 67 97 60 98
REMARK SMILES IDX 61 99 62 100 63 101 64 102
REMARK H PARENT 19 6 8 17 11 19 26 33 88 52 54 63
REMARK Flexibility Score: inf
ROOT
ATOM      1  C   UNL A   1      36.277  21.350  25.742  1.00  0.00     0.021 C 
ENDROOT
BRANCH   1   2
ATOM      2  C   UNL A   1      34.976  21.073  24.989  1.00  0.00     0.116 C 
BRANCH   2   3
ATOM      3  N   UNL A   1      34.761  21.930  23.847  1.00  0.00    -0.356 N 
ATOM      4  C   UNL A   1      33.966  23.011  23.655  1.00  0.00     0.223 C 
ATOM      5  O   UNL A   1      34.181  23.650  22.615  1.00  0.00    -0.275 OA
ATOM      6  H   UNL A   1      35.293  21.681  23.057  1.00  0.00     0.163 HD
BRANCH   4   7
ATOM      7  C   UNL A   1      32.836  23.478  24.591  1.00  0.00     0.078 C 
ATOM      8  C   UNL A   1      32.364  26.398  25.234  1.00  0.00     0.008 C 
ATOM      9  C   UNL A   1      31.772  25.748  23.965  1.00  0.00     0.006 C 
ATOM     10  C   UNL A   1      33.420  25.565  25.988  1.00  0.00     0.006 C 
ATOM     11  C   UNL A   1      31.665  24.233  23.971  1.00  0.00     0.014 C 
ATOM     12  C   UNL A   1      33.266  24.056  25.935  1.00  0.00     0.014 C 
BRANCH   8  13
ATOM     13  C   UNL A   1      32.996  27.770  24.898  1.00  0.00     0.121 C 
BRANCH  13  14
ATOM     14  N   UNL A   1      32.517  28.843  25.734  1.00  0.00    -0.338 N 
ATOM     15  N   UNL A   1      30.967  30.051  24.443  1.00  0.00    -0.338 N 
ATOM     16  C   UNL A   1      31.727  29.898  25.530  1.00  0.00     0.314 C 
ATOM     17  H   UNL A   1      30.588  30.956  24.350  1.00  0.00     0.165 HD
ATOM     18  O   UNL A   1      31.689  30.758  26.411  1.00  0.00    -0.249 OA
ATOM     19  H   UNL A   1      32.845  28.783  26.660  1.00  0.00     0.165 HD
BRANCH  15  20
ATOM     20  C   UNL A   1      30.585  29.152  23.370  1.00  0.00     0.127 C 
BRANCH  20  21
ATOM     21  C   UNL A   1      29.082  29.168  23.094  1.00  0.00     0.121 C 
BRANCH  21  22
ATOM     22  C   UNL A   1      28.794  30.282  22.112  1.00  0.00     0.223 C 
ATOM     23  C   UNL A   1      28.287  32.647  21.790  1.00  0.00     0.146 C 
ATOM     24  N   UNL A   1      28.193  31.433  22.585  1.00  0.00    -0.349 N 
ATOM     25  C   UNL A   1      27.484  31.554  23.850  1.00  0.00     0.146 C 
ATOM     26  O   UNL A   1      29.207  30.162  20.957  1.00  0.00    -0.275 OA
ENDBRANCH  21  22
ENDBRANCH  20  21
ENDBRANCH  15  20
ENDBRANCH  13  14
ENDBRANCH   8  13
ENDBRANCH   4   7
ENDBRANCH   2   3
ENDBRANCH   1   2
BRANCH   1  27
ATOM     27  C   UNL A   1      37.361  22.046  24.913  1.00  0.00     0.002 C 
BRANCH  27  28
ATOM     28  C   UNL A   1      37.498  23.564  25.094  1.00  0.00     0.002 C 
BRANCH  28  29
ATOM     29  C   UNL A   1      38.066  24.061  26.428  1.00  0.00     0.021 C 
BRANCH  29  30
ATOM     30  C   UNL A   1      39.294  23.322  26.957  1.00  0.00     0.116 C 
BRANCH  30  31
ATOM     31  N   UNL A   1      40.503  23.671  26.233  1.00  0.00    -0.352 N 
ATOM     32  C   UNL A   1      41.333  24.759  26.339  1.00  0.00     0.251 C 
ATOM     33  H   UNL A   1      40.773  23.017  25.549  1.00  0.00     0.163 HD
ATOM     34  O   UNL A   1      42.198  24.931  25.481  1.00  0.00    -0.269 OA
BRANCH  32  35
ATOM     35  C   UNL A   1      41.203  25.732  27.449  1.00  0.00     0.039 A 
ATOM     36  C   UNL A   1      42.184  26.720  27.587  1.00  0.00     0.014 A 
ATOM     37  C   UNL A   1      40.174  25.644  28.391  1.00  0.00     0.014 A 
ATOM     38  C   UNL A   1      42.106  27.647  28.631  1.00  0.00     0.010 A 
ATOM     39  C   UNL A   1      40.064  26.607  29.398  1.00  0.00     0.010 A 
ATOM     40  C   UNL A   1      41.029  27.618  29.530  1.00  0.00    -0.014 A 
BRANCH  40  41
ATOM     41  C   UNL A   1      40.897  28.631  30.612  1.00  0.00     0.031 A 
ATOM     42  C   UNL A   1      41.718  28.510  31.867  1.00  0.00     0.074 A 
ATOM     43  C   UNL A   1      39.996  29.626  30.489  1.00  0.00     0.049 A 
ATOM     44  N   UNL A   1      41.666  29.225  32.962  1.00  0.00    -0.248 NA
ATOM     45  C   UNL A   1      42.728  27.439  31.898  1.00  0.00     0.031 C 
ATOM     46  C   UNL A   1      39.142  29.855  29.322  1.00  0.00     0.029 A 
ATOM     47  N   UNL A   1      39.630  30.619  31.365  1.00  0.00    -0.354 N 
ATOM     48  C   UNL A   1      42.626  28.689  33.814  1.00  0.00     0.074 A 
ATOM     49  C   UNL A   1      43.215  27.561  33.125  1.00  0.00     0.031 C 
ATOM     50  C   UNL A   1      38.345  30.909  29.558  1.00  0.00     0.029 A 
ATOM     51  C   UNL A   1      38.598  31.405  30.907  1.00  0.00     0.049 A 
ATOM     52  H   UNL A   1      40.065  30.755  32.237  1.00  0.00     0.167 HD
ATOM     53  C   UNL A   1      42.999  29.112  35.046  1.00  0.00     0.037 A 
ATOM     54  C   UNL A   1      37.909  32.392  31.513  1.00  0.00     0.037 A 
ATOM     55  C   UNL A   1      42.422  30.249  35.717  1.00  0.00     0.049 A 
ATOM     56  C   UNL A   1      38.294  32.803  32.907  1.00  0.00     0.074 A 
ATOM     57  C   UNL A   1      42.771  30.797  36.938  1.00  0.00     0.029 A 
ATOM     58  N   UNL A   1      41.369  31.006  35.225  1.00  0.00    -0.354 N 
ATOM     59  N   UNL A   1      39.235  32.313  33.678  1.00  0.00    -0.248 NA
ATOM     60  C   UNL A   1      37.534  33.906  33.512  1.00  0.00     0.031 C 
ATOM     61  C   UNL A   1      41.907  31.866  37.202  1.00  0.00     0.029 A 
ATOM     62  C   UNL A   1      41.044  32.006  36.127  1.00  0.00     0.049 A 
ATOM     63  H   UNL A   1      40.919  30.856  34.362  1.00  0.00     0.167 HD
ATOM     64  C   UNL A   1      39.207  33.072  34.842  1.00  0.00     0.074 A 
ATOM     65  C   UNL A   1      38.150  34.049  34.677  1.00  0.00     0.031 C 
ATOM     66  C   UNL A   1      39.993  32.977  35.942  1.00  0.00     0.037 A 
BRANCH  53  67
ATOM     67  C   UNL A   1      44.090  28.348  35.745  1.00  0.00     0.058 A 
ATOM     68  C   UNL A   1      45.445  28.651  35.538  1.00  0.00     0.135 A 
ATOM     69  C   UNL A   1      43.779  27.322  36.651  1.00  0.00     0.135 A 
ATOM     70  F   UNL A   1      45.799  29.615  34.674  1.00  0.00    -0.206 F 
ATOM     71  C   UNL A   1      46.455  27.941  36.179  1.00  0.00     0.059 A 
ATOM     72  C   UNL A   1      44.774  26.614  37.322  1.00  0.00     0.059 A 
ATOM     73  F   UNL A   1      42.500  26.994  36.890  1.00  0.00    -0.206 F 
ATOM     74  C   UNL A   1      46.110  26.920  37.066  1.00  0.00     0.060 A 
BRANCH  74  75
ATOM     75  S   UNL A   1      47.430  25.999  37.885  1.00  0.00     0.124 S 
ATOM     76  O   UNL A   1      48.027  25.287  36.757  1.00  0.00    -0.237 OA
ATOM     77  O   UNL A   1      48.248  27.066  38.458  1.00  0.00    -0.237 OA
ATOM     78  O   UNL A   1      46.722  25.171  38.848  1.00  0.00    -0.744 OA
ENDBRANCH  74  75
ENDBRANCH  53  67
BRANCH  54  79
ATOM     79  C   UNL A   1      36.779  33.050  30.806  1.00  0.00     0.058 A 
ATOM     80  C   UNL A   1      37.002  34.028  29.828  1.00  0.00     0.135 A 
ATOM     81  C   UNL A   1      35.448  32.701  31.086  1.00  0.00     0.135 A 
ATOM     82  F   UNL A   1      38.256  34.400  29.528  1.00  0.00    -0.206 F 
ATOM     83  C   UNL A   1      35.948  34.648  29.163  1.00  0.00     0.059 A 
ATOM     84  C   UNL A   1      34.378  33.290  30.423  1.00  0.00     0.059 A 
ATOM     85  F   UNL A   1      35.181  31.756  31.999  1.00  0.00    -0.206 F 
ATOM     86  C   UNL A   1      34.638  34.270  29.467  1.00  0.00     0.060 A 
BRANCH  86  87
ATOM     87  S   UNL A   1      33.279  35.046  28.566  1.00  0.00     0.124 S 
ATOM     88  O   UNL A   1      33.997  35.939  27.665  1.00  0.00    -0.237 OA
ATOM     89  O   UNL A   1      32.630  33.896  27.944  1.00  0.00    -0.237 OA
ATOM     90  O   UNL A   1      32.507  35.698  29.619  1.00  0.00    -0.744 OA
ENDBRANCH  86  87
ENDBRANCH  54  79
BRANCH  66  91
ATOM     91  C   UNL A   1      39.771  33.980  37.038  1.00  0.00     0.058 A 
ATOM     92  C   UNL A   1      39.044  33.661  38.194  1.00  0.00     0.135 A 
ATOM     93  C   UNL A   1      40.341  35.261  36.951  1.00  0.00     0.135 A 
ATOM     94  F   UNL A   1      38.471  32.454  38.319  1.00  0.00    -0.206 F 
ATOM     95  C   UNL A   1      38.877  34.583  39.223  1.00  0.00     0.059 A 
ATOM     96  C   UNL A   1      40.206  36.191  37.977  1.00  0.00     0.059 A 
ATOM     97  F   UNL A   1      41.052  35.613  35.868  1.00  0.00    -0.206 F 
ATOM     98  C   UNL A   1      39.463  35.845  39.105  1.00  0.00     0.060 A 
BRANCH  98  99
ATOM     99  S   UNL A   1      39.275  37.020  40.463  1.00  0.00     0.124 S 
ATOM    100  O   UNL A   1      38.438  36.265  41.389  1.00  0.00    -0.237 OA
ATOM    101  O   UNL A   1      40.655  37.234  40.888  1.00  0.00    -0.237 OA
ATOM    102  O   UNL A   1      38.636  38.170  39.831  1.00  0.00    -0.744 OA
ENDBRANCH  98  99
ENDBRANCH  66  91
ENDBRANCH  40  41
ENDBRANCH  32  35
ENDBRANCH  30  31
ENDBRANCH  29  30
ENDBRANCH  28  29
ENDBRANCH  27  28
ENDBRANCH   1  27
TORSDOF 21
ENDMDL
