MODEL 1
REMARK VINA RESULT:     -10.5      0.000      0.000
REMARK SMILES COc1cc(-c2ccc(NC(=O)CCC(=O)NCCCCCCNC(=O)c3ccc(-c4c5nc(c(-c6c(F)cc(S(=O)(=O)[O-])cc6F)c6ccc([nH]6)c(-c6c(F)cc(S(=O)(=O)[O-])cc6F)c6nc(c(-c7c(F)cc(S(=O)(=O)[O-])cc7F)c7ccc4[nH]7)C=C6)C=C5)cc3)c(OC)c2)ccc1N
REMARK SMILES IDX 19 1 18 2 17 3 15 4 16 5 14 7 13 8 11 9 10 10 12 12 9 13
REMARK SMILES IDX 6 14 7 15 96 16 8 17 93 18 5 19 3 20 4 21 99 22 98 23 97 24
REMARK SMILES IDX 2 25 1 26 100 27 94 30 95 31 20 32 21 33 22 34 23 35 24 36
REMARK SMILES IDX 25 37 26 39 27 40 28 41 92 42 29 43 91 44 30 45 31 46 32 47
REMARK SMILES IDX 85 48 33 49 90 50 84 51 86 52 34 53 89 54 83 55 82 56 35 58
REMARK SMILES IDX 69 59 48 60 68 61 49 62 52 63 67 64 87 65 50 66 51 67 66 69
REMARK SMILES IDX 88 70 53 71 36 72 37 73 46 74 38 75 39 76 45 77 47 78 40 79
REMARK SMILES IDX 41 80 42 81 43 82 44 83 70 84 71 85 80 86 72 87 73 88 79 89
REMARK SMILES IDX 81 90 74 91 75 92 76 93 77 94 78 95 54 96 55 97 64 98 56 99
REMARK SMILES IDX 57 100 63 101 65 102 58 103 59 104 60 105 61 106 62 107
REMARK H PARENT 17 6 10 11 100 28 100 29 24 38 86 57 52 68
REMARK Flexibility Score: inf
ROOT
ATOM      1  C   UNL A   1      34.577  31.355  28.093  1.00  0.00     0.021 C 
ENDROOT
BRANCH   1   2
ATOM      2  C   UNL A   1      33.337  30.942  27.196  1.00  0.00     0.116 C 
BRANCH   2   3
ATOM      3  N   UNL A   1      32.436  29.738  27.411  1.00  0.00    -0.356 N 
ATOM      4  C   UNL A   1      32.382  28.346  27.320  1.00  0.00     0.220 C 
ATOM      5  O   UNL A   1      31.385  27.882  27.912  1.00  0.00    -0.275 OA
ATOM      6  H   UNL A   1      31.564  30.059  27.736  1.00  0.00     0.163 HD
BRANCH   4   7
ATOM      7  C   UNL A   1      33.333  27.243  26.565  1.00  0.00     0.110 C 
BRANCH   7   8
ATOM      8  C   UNL A   1      33.631  27.138  24.939  1.00  0.00     0.110 C 
BRANCH   8   9
ATOM      9  C   UNL A   1      33.197  28.159  23.721  1.00  0.00     0.224 C 
ATOM     10  N   UNL A   1      32.692  27.739  22.475  1.00  0.00    -0.323 N 
ATOM     11  H   UNL A   1      32.620  28.411  21.759  1.00  0.00     0.170 HD
ATOM     12  O   UNL A   1      33.345  29.381  23.866  1.00  0.00    -0.275 OA
BRANCH  10  13
ATOM     13  C   UNL A   1      32.288  26.434  22.187  1.00  0.00     0.083 A 
ATOM     14  C   UNL A   1      32.067  23.814  23.081  1.00  0.00    -0.014 A 
ATOM     15  C   UNL A   1      32.819  24.127  21.929  1.00  0.00     0.011 A 
ATOM     16  C   UNL A   1      31.120  24.793  23.391  1.00  0.00     0.057 A 
ATOM     17  C   UNL A   1      32.986  25.463  21.507  1.00  0.00     0.031 A 
ATOM     18  C   UNL A   1      31.130  26.053  22.753  1.00  0.00     0.142 A 
BRANCH  14  19
ATOM     19  C   UNL A   1      32.332  22.579  23.917  1.00  0.00    -0.014 A 
ATOM     20  C   UNL A   1      33.146  21.361  25.929  1.00  0.00     0.142 A 
ATOM     21  C   UNL A   1      32.841  22.571  25.242  1.00  0.00     0.057 A 
ATOM     22  C   UNL A   1      32.866  20.116  25.348  1.00  0.00     0.074 A 
ATOM     23  C   UNL A   1      32.462  20.110  24.021  1.00  0.00     0.030 A 
ATOM     24  C   UNL A   1      32.199  21.303  23.333  1.00  0.00     0.011 A 
BRANCH  20  25
ATOM     25  O   UNL A   1      33.626  21.468  27.219  1.00  0.00    -0.495 OA
ATOM     26  C   UNL A   1      33.096  22.594  27.927  1.00  0.00     0.278 C 
ENDBRANCH  20  25
BRANCH  22  27
ATOM     27  N   UNL A   1      33.079  18.899  25.994  1.00  0.00    -0.396 N 
ATOM     28  H   UNL A   1      33.680  18.855  26.773  1.00  0.00     0.156 HD
ATOM     29  H   UNL A   1      32.630  18.086  25.672  1.00  0.00     0.156 HD
ENDBRANCH  22  27
ENDBRANCH  14  19
BRANCH  18  30
ATOM     30  O   UNL A   1      30.133  26.983  22.842  1.00  0.00    -0.495 OA
ATOM     31  C   UNL A   1      28.899  26.961  23.622  1.00  0.00     0.278 C 
ENDBRANCH  18  30
ENDBRANCH  10  13
ENDBRANCH   8   9
ENDBRANCH   7   8
ENDBRANCH   4   7
ENDBRANCH   2   3
ENDBRANCH   1   2
BRANCH   1  32
ATOM     32  C   UNL A   1      35.528  32.507  27.763  1.00  0.00     0.002 C 
BRANCH  32  33
ATOM     33  C   UNL A   1      35.519  33.665  28.759  1.00  0.00     0.002 C 
BRANCH  33  34
ATOM     34  C   UNL A   1      34.429  34.738  28.573  1.00  0.00     0.021 C 
BRANCH  34  35
ATOM     35  C   UNL A   1      33.058  34.438  29.186  1.00  0.00     0.116 C 
BRANCH  35  36
ATOM     36  N   UNL A   1      32.716  35.371  30.248  1.00  0.00    -0.352 N 
ATOM     37  C   UNL A   1      33.177  35.436  31.547  1.00  0.00     0.251 C 
ATOM     38  H   UNL A   1      32.057  36.059  30.003  1.00  0.00     0.163 HD
ATOM     39  O   UNL A   1      32.586  36.111  32.371  1.00  0.00    -0.269 OA
BRANCH  37  40
ATOM     40  C   UNL A   1      34.391  34.680  31.941  1.00  0.00     0.039 A 
ATOM     41  C   UNL A   1      35.636  35.315  31.893  1.00  0.00     0.014 A 
ATOM     42  C   UNL A   1      34.308  33.337  32.315  1.00  0.00     0.014 A 
ATOM     43  C   UNL A   1      36.787  34.618  32.277  1.00  0.00     0.010 A 
ATOM     44  C   UNL A   1      35.445  32.666  32.765  1.00  0.00     0.010 A 
ATOM     45  C   UNL A   1      36.699  33.296  32.746  1.00  0.00    -0.014 A 
BRANCH  45  46
ATOM     46  C   UNL A   1      37.907  32.557  33.203  1.00  0.00     0.031 A 
ATOM     47  C   UNL A   1      38.581  32.930  34.498  1.00  0.00     0.074 A 
ATOM     48  C   UNL A   1      38.429  31.584  32.430  1.00  0.00     0.049 A 
ATOM     49  N   UNL A   1      39.664  32.435  35.041  1.00  0.00    -0.248 NA
ATOM     50  C   UNL A   1      37.972  34.024  35.272  1.00  0.00     0.031 C 
ATOM     51  C   UNL A   1      37.897  31.156  31.135  1.00  0.00     0.029 A 
ATOM     52  N   UNL A   1      39.524  30.777  32.617  1.00  0.00    -0.354 N 
ATOM     53  C   UNL A   1      39.868  33.157  36.212  1.00  0.00     0.074 A 
ATOM     54  C   UNL A   1      38.835  34.170  36.265  1.00  0.00     0.031 C 
ATOM     55  C   UNL A   1      38.644  30.148  30.660  1.00  0.00     0.029 A 
ATOM     56  C   UNL A   1      39.733  29.880  31.595  1.00  0.00     0.049 A 
ATOM     57  H   UNL A   1      40.106  30.835  33.410  1.00  0.00     0.167 HD
ATOM     58  C   UNL A   1      40.809  32.976  37.171  1.00  0.00     0.037 A 
ATOM     59  C   UNL A   1      40.694  28.950  31.428  1.00  0.00     0.037 A 
ATOM     60  C   UNL A   1      41.826  31.958  37.117  1.00  0.00     0.049 A 
ATOM     61  C   UNL A   1      41.743  28.780  32.495  1.00  0.00     0.074 A 
ATOM     62  C   UNL A   1      42.802  31.665  38.054  1.00  0.00     0.029 A 
ATOM     63  N   UNL A   1      42.002  31.067  36.067  1.00  0.00    -0.354 N 
ATOM     64  N   UNL A   1      41.885  29.434  33.624  1.00  0.00    -0.248 NA
ATOM     65  C   UNL A   1      42.756  27.741  32.271  1.00  0.00     0.031 C 
ATOM     66  C   UNL A   1      43.599  30.632  37.547  1.00  0.00     0.029 A 
ATOM     67  C   UNL A   1      43.082  30.238  36.323  1.00  0.00     0.049 A 
ATOM     68  H   UNL A   1      41.441  31.030  35.258  1.00  0.00     0.167 HD
ATOM     69  C   UNL A   1      42.981  28.862  34.261  1.00  0.00     0.074 A 
ATOM     70  C   UNL A   1      43.459  27.803  33.394  1.00  0.00     0.031 C 
ATOM     71  C   UNL A   1      43.541  29.182  35.454  1.00  0.00     0.037 A 
BRANCH  58  72
ATOM     72  C   UNL A   1      40.776  33.900  38.360  1.00  0.00     0.058 A 
ATOM     73  C   UNL A   1      41.548  35.073  38.405  1.00  0.00     0.135 A 
ATOM     74  C   UNL A   1      39.950  33.622  39.462  1.00  0.00     0.135 A 
ATOM     75  F   UNL A   1      42.366  35.384  37.387  1.00  0.00    -0.206 F 
ATOM     76  C   UNL A   1      41.535  35.914  39.513  1.00  0.00     0.059 A 
ATOM     77  C   UNL A   1      39.895  34.468  40.568  1.00  0.00     0.059 A 
ATOM     78  F   UNL A   1      39.188  32.517  39.475  1.00  0.00    -0.206 F 
ATOM     79  C   UNL A   1      40.706  35.602  40.592  1.00  0.00     0.060 A 
BRANCH  79  80
ATOM     80  S   UNL A   1      40.709  36.697  42.026  1.00  0.00     0.124 S 
ATOM     81  O   UNL A   1      41.356  37.888  41.480  1.00  0.00    -0.237 OA
ATOM     82  O   UNL A   1      39.286  36.829  42.321  1.00  0.00    -0.237 OA
ATOM     83  O   UNL A   1      41.487  35.961  43.017  1.00  0.00    -0.744 OA
ENDBRANCH  79  80
ENDBRANCH  58  72
BRANCH  59  84
ATOM     84  C   UNL A   1      40.689  28.081  30.219  1.00  0.00     0.058 A 
ATOM     85  C   UNL A   1      39.747  27.050  30.076  1.00  0.00     0.135 A 
ATOM     86  C   UNL A   1      41.616  28.265  29.182  1.00  0.00     0.135 A 
ATOM     87  F   UNL A   1      38.844  26.828  31.043  1.00  0.00    -0.206 F 
ATOM     88  C   UNL A   1      39.735  26.222  28.958  1.00  0.00     0.059 A 
ATOM     89  C   UNL A   1      41.606  27.468  28.040  1.00  0.00     0.059 A 
ATOM     90  F   UNL A   1      42.528  29.247  29.260  1.00  0.00    -0.206 F 
ATOM     91  C   UNL A   1      40.667  26.441  27.943  1.00  0.00     0.060 A 
BRANCH  91  92
ATOM     92  S   UNL A   1      40.612  25.391  26.475  1.00  0.00     0.124 S 
ATOM     93  O   UNL A   1      41.095  26.300  25.444  1.00  0.00    -0.237 OA
ATOM     94  O   UNL A   1      41.513  24.304  26.844  1.00  0.00    -0.237 OA
ATOM     95  O   UNL A   1      39.202  25.021  26.381  1.00  0.00    -0.744 OA
ENDBRANCH  91  92
ENDBRANCH  59  84
BRANCH  71  96
ATOM     96  C   UNL A   1      44.703  28.347  35.921  1.00  0.00     0.058 A 
ATOM     97  C   UNL A   1      46.031  28.690  35.625  1.00  0.00     0.135 A 
ATOM     98  C   UNL A   1      44.483  27.207  36.714  1.00  0.00     0.135 A 
ATOM     99  F   UNL A   1      46.300  29.765  34.866  1.00  0.00    -0.206 F 
ATOM    100  C   UNL A   1      47.099  27.917  36.071  1.00  0.00     0.059 A 
ATOM    101  C   UNL A   1      45.537  26.439  37.198  1.00  0.00     0.059 A 
ATOM    102  F   UNL A   1      43.233  26.839  37.037  1.00  0.00    -0.206 F 
ATOM    103  C   UNL A   1      46.841  26.793  36.859  1.00  0.00     0.060 A 
BRANCH 103 104
ATOM    104  S   UNL A   1      48.236  25.813  37.453  1.00  0.00     0.124 S 
ATOM    105  O   UNL A   1      47.633  24.489  37.577  1.00  0.00    -0.237 OA
ATOM    106  O   UNL A   1      49.208  25.970  36.376  1.00  0.00    -0.237 OA
ATOM    107  O   UNL A   1      48.595  26.460  38.712  1.00  0.00    -0.744 OA
ENDBRANCH 103 104
ENDBRANCH  71  96
ENDBRANCH  45  46
ENDBRANCH  37  40
ENDBRANCH  35  36
ENDBRANCH  34  35
ENDBRANCH  33  34
ENDBRANCH  32  33
ENDBRANCH   1  32
TORSDOF 23
ENDMDL
MODEL 2
REMARK VINA RESULT:     -10.3      6.212      8.232
REMARK SMILES COc1cc(-c2ccc(NC(=O)CCC(=O)NCCCCCCNC(=O)c3ccc(-c4c5nc(c(-c6c(F)cc(S(=O)(=O)[O-])cc6F)c6ccc([nH]6)c(-c6c(F)cc(S(=O)(=O)[O-])cc6F)c6nc(c(-c7c(F)cc(S(=O)(=O)[O-])cc7F)c7ccc4[nH]7)C=C6)C=C5)cc3)c(OC)c2)ccc1N
REMARK SMILES IDX 19 1 18 2 17 3 15 4 16 5 14 7 13 8 11 9 10 10 12 12 9 13
REMARK SMILES IDX 6 14 7 15 96 16 8 17 93 18 5 19 3 20 4 21 99 22 98 23 97 24
REMARK SMILES IDX 2 25 1 26 100 27 94 30 95 31 20 32 21 33 22 34 23 35 24 36
REMARK SMILES IDX 25 37 26 39 27 40 28 41 92 42 29 43 91 44 30 45 31 46 32 47
REMARK SMILES IDX 85 48 33 49 90 50 84 51 86 52 34 53 89 54 83 55 82 56 35 58
REMARK SMILES IDX 69 59 48 60 68 61 49 62 52 63 67 64 87 65 50 66 51 67 66 69
REMARK SMILES IDX 88 70 53 71 36 72 37 73 46 74 38 75 39 76 45 77 47 78 40 79
REMARK SMILES IDX 41 80 42 81 43 82 44 83 70 84 71 85 80 86 72 87 73 88 79 89
REMARK SMILES IDX 81 90 74 91 75 92 76 93 77 94 78 95 54 96 55 97 64 98 56 99
REMARK SMILES IDX 57 100 63 101 65 102 58 103 59 104 60 105 61 106 62 107
REMARK H PARENT 17 6 10 11 100 28 100 29 24 38 86 57 52 68
REMARK Flexibility Score: inf
ROOT
ATOM      1  C   UNL A   1      36.723  30.507  27.948  1.00  0.00     0.021 C 
ENDROOT
BRANCH   1   2
ATOM      2  C   UNL A   1      35.201  30.947  27.888  1.00  0.00     0.116 C 
BRANCH   2   3
ATOM      3  N   UNL A   1      34.214  30.614  26.782  1.00  0.00    -0.356 N 
ATOM      4  C   UNL A   1      33.625  29.559  26.084  1.00  0.00     0.220 C 
ATOM      5  O   UNL A   1      32.641  29.938  25.415  1.00  0.00    -0.275 OA
ATOM      6  H   UNL A   1      33.855  31.458  26.424  1.00  0.00     0.163 HD
BRANCH   4   7
ATOM      7  C   UNL A   1      34.002  27.967  25.947  1.00  0.00     0.110 C 
BRANCH   7   8
ATOM      8  C   UNL A   1      33.008  26.682  26.269  1.00  0.00     0.110 C 
BRANCH   8   9
ATOM      9  C   UNL A   1      31.435  26.664  26.760  1.00  0.00     0.224 C 
ATOM     10  N   UNL A   1      30.501  25.676  26.395  1.00  0.00    -0.323 N 
ATOM     11  H   UNL A   1      29.552  25.842  26.601  1.00  0.00     0.170 HD
ATOM     12  O   UNL A   1      31.005  27.585  27.468  1.00  0.00    -0.275 OA
BRANCH  10  13
ATOM     13  C   UNL A   1      30.829  24.476  25.760  1.00  0.00     0.083 A 
ATOM     14  C   UNL A   1      32.762  22.534  25.308  1.00  0.00    -0.014 A 
ATOM     15  C   UNL A   1      32.203  23.264  24.238  1.00  0.00     0.011 A 
ATOM     16  C   UNL A   1      31.950  22.531  26.444  1.00  0.00     0.057 A 
ATOM     17  C   UNL A   1      31.266  24.295  24.468  1.00  0.00     0.031 A 
ATOM     18  C   UNL A   1      30.833  23.389  26.551  1.00  0.00     0.142 A 
BRANCH  14  19
ATOM     19  C   UNL A   1      34.134  21.897  25.230  1.00  0.00    -0.014 A 
ATOM     20  C   UNL A   1      36.622  21.922  25.178  1.00  0.00     0.142 A 
ATOM     21  C   UNL A   1      35.372  22.582  25.351  1.00  0.00     0.057 A 
ATOM     22  C   UNL A   1      36.680  20.537  24.970  1.00  0.00     0.074 A 
ATOM     23  C   UNL A   1      35.480  19.875  24.753  1.00  0.00     0.030 A 
ATOM     24  C   UNL A   1      34.250  20.536  24.885  1.00  0.00     0.011 A 
BRANCH  20  25
ATOM     25  O   UNL A   1      37.766  22.681  25.328  1.00  0.00    -0.495 OA
ATOM     26  C   UNL A   1      37.527  23.942  25.963  1.00  0.00     0.278 C 
ENDBRANCH  20  25
BRANCH  22  27
ATOM     27  N   UNL A   1      37.873  19.824  24.858  1.00  0.00    -0.396 N 
ATOM     28  H   UNL A   1      38.686  20.274  24.535  1.00  0.00     0.156 HD
ATOM     29  H   UNL A   1      37.901  18.871  25.104  1.00  0.00     0.156 HD
ENDBRANCH  22  27
ENDBRANCH  14  19
BRANCH  18  30
ATOM     30  O   UNL A   1      29.876  23.311  27.524  1.00  0.00    -0.495 OA
ATOM     31  C   UNL A   1      28.657  22.512  27.574  1.00  0.00     0.278 C 
ENDBRANCH  18  30
ENDBRANCH  10  13
ENDBRANCH   8   9
ENDBRANCH   7   8
ENDBRANCH   4   7
ENDBRANCH   2   3
ENDBRANCH   1   2
BRANCH   1  32
ATOM     32  C   UNL A   1      37.205  29.164  28.500  1.00  0.00     0.002 C 
BRANCH  32  33
ATOM     33  C   UNL A   1      37.576  29.164  29.983  1.00  0.00     0.002 C 
BRANCH  33  34
ATOM     34  C   UNL A   1      36.446  29.471  30.985  1.00  0.00     0.021 C 
BRANCH  34  35
ATOM     35  C   UNL A   1      36.867  30.044  32.341  1.00  0.00     0.116 C 
BRANCH  35  36
ATOM     36  N   UNL A   1      36.925  31.497  32.327  1.00  0.00    -0.352 N 
ATOM     37  C   UNL A   1      38.005  32.335  32.135  1.00  0.00     0.251 C 
ATOM     38  H   UNL A   1      36.065  31.952  32.478  1.00  0.00     0.163 HD
ATOM     39  O   UNL A   1      37.919  33.516  32.423  1.00  0.00    -0.269 OA
BRANCH  37  40
ATOM     40  C   UNL A   1      39.271  31.796  31.581  1.00  0.00     0.039 A 
ATOM     41  C   UNL A   1      40.161  31.135  32.433  1.00  0.00     0.014 A 
ATOM     42  C   UNL A   1      39.599  31.980  30.236  1.00  0.00     0.014 A 
ATOM     43  C   UNL A   1      41.352  30.607  31.920  1.00  0.00     0.010 A 
ATOM     44  C   UNL A   1      40.751  31.392  29.712  1.00  0.00     0.010 A 
ATOM     45  C   UNL A   1      41.644  30.705  30.548  1.00  0.00    -0.014 A 
BRANCH  45  46
ATOM     46  C   UNL A   1      42.883  30.108  29.979  1.00  0.00     0.031 A 
ATOM     47  C   UNL A   1      44.148  30.921  29.893  1.00  0.00     0.074 A 
ATOM     48  C   UNL A   1      42.857  28.851  29.492  1.00  0.00     0.049 A 
ATOM     49  N   UNL A   1      45.312  30.594  29.392  1.00  0.00    -0.248 NA
ATOM     50  C   UNL A   1      44.090  32.296  30.416  1.00  0.00     0.031 C 
ATOM     51  C   UNL A   1      41.685  27.974  29.476  1.00  0.00     0.029 A 
ATOM     52  N   UNL A   1      43.844  28.091  28.914  1.00  0.00    -0.354 N 
ATOM     53  C   UNL A   1      46.119  31.717  29.533  1.00  0.00     0.074 A 
ATOM     54  C   UNL A   1      45.292  32.758  30.104  1.00  0.00     0.031 C 
ATOM     55  C   UNL A   1      42.026  26.789  28.948  1.00  0.00     0.029 A 
ATOM     56  C   UNL A   1      43.431  26.830  28.550  1.00  0.00     0.049 A 
ATOM     57  H   UNL A   1      44.762  28.418  28.773  1.00  0.00     0.167 HD
ATOM     58  C   UNL A   1      47.434  31.862  29.242  1.00  0.00     0.037 A 
ATOM     59  C   UNL A   1      44.105  25.823  27.962  1.00  0.00     0.037 A 
ATOM     60  C   UNL A   1      48.255  30.817  28.684  1.00  0.00     0.049 A 
ATOM     61  C   UNL A   1      45.561  26.012  27.627  1.00  0.00     0.074 A 
ATOM     62  C   UNL A   1      49.607  30.849  28.389  1.00  0.00     0.029 A 
ATOM     63  N   UNL A   1      47.800  29.554  28.335  1.00  0.00    -0.354 N 
ATOM     64  N   UNL A   1      46.322  27.063  27.821  1.00  0.00    -0.248 NA
ATOM     65  C   UNL A   1      46.252  24.878  27.001  1.00  0.00     0.031 C 
ATOM     66  C   UNL A   1      49.958  29.622  27.814  1.00  0.00     0.029 A 
ATOM     67  C   UNL A   1      48.839  28.804  27.807  1.00  0.00     0.049 A 
ATOM     68  H   UNL A   1      46.874  29.236  28.444  1.00  0.00     0.167 HD
ATOM     69  C   UNL A   1      47.590  26.704  27.375  1.00  0.00     0.074 A 
ATOM     70  C   UNL A   1      47.493  25.335  26.910  1.00  0.00     0.031 C 
ATOM     71  C   UNL A   1      48.730  27.438  27.355  1.00  0.00     0.037 A 
BRANCH  58  72
ATOM     72  C   UNL A   1      48.066  33.200  29.526  1.00  0.00     0.058 A 
ATOM     73  C   UNL A   1      48.010  34.255  28.601  1.00  0.00     0.135 A 
ATOM     74  C   UNL A   1      48.720  33.439  30.747  1.00  0.00     0.135 A 
ATOM     75  F   UNL A   1      47.410  34.080  27.412  1.00  0.00    -0.206 F 
ATOM     76  C   UNL A   1      48.613  35.482  28.854  1.00  0.00     0.059 A 
ATOM     77  C   UNL A   1      49.302  34.672  31.036  1.00  0.00     0.059 A 
ATOM     78  F   UNL A   1      48.804  32.470  31.672  1.00  0.00    -0.206 F 
ATOM     79  C   UNL A   1      49.260  35.681  30.075  1.00  0.00     0.060 A 
BRANCH  79  80
ATOM     80  S   UNL A   1      50.046  37.276  30.383  1.00  0.00     0.124 S 
ATOM     81  O   UNL A   1      50.375  37.704  29.027  1.00  0.00    -0.237 OA
ATOM     82  O   UNL A   1      48.982  38.026  31.044  1.00  0.00    -0.237 OA
ATOM     83  O   UNL A   1      51.187  36.937  31.227  1.00  0.00    -0.744 OA
ENDBRANCH  79  80
ENDBRANCH  58  72
BRANCH  59  84
ATOM     84  C   UNL A   1      43.421  24.530  27.683  1.00  0.00     0.058 A 
ATOM     85  C   UNL A   1      42.903  24.248  26.409  1.00  0.00     0.135 A 
ATOM     86  C   UNL A   1      43.277  23.549  28.676  1.00  0.00     0.135 A 
ATOM     87  F   UNL A   1      43.007  25.156  25.427  1.00  0.00    -0.206 F 
ATOM     88  C   UNL A   1      42.252  23.050  26.134  1.00  0.00     0.059 A 
ATOM     89  C   UNL A   1      42.656  22.330  28.417  1.00  0.00     0.059 A 
ATOM     90  F   UNL A   1      43.770  23.760  29.906  1.00  0.00    -0.206 F 
ATOM     91  C   UNL A   1      42.136  22.095  27.145  1.00  0.00     0.060 A 
BRANCH  91  92
ATOM     92  S   UNL A   1      41.331  20.524  26.763  1.00  0.00     0.124 S 
ATOM     93  O   UNL A   1      40.155  20.968  26.027  1.00  0.00    -0.237 OA
ATOM     94  O   UNL A   1      42.355  19.839  25.980  1.00  0.00    -0.237 OA
ATOM     95  O   UNL A   1      41.073  19.950  28.082  1.00  0.00    -0.744 OA
ENDBRANCH  91  92
ENDBRANCH  59  84
BRANCH  71  96
ATOM     96  C   UNL A   1      49.980  26.763  26.858  1.00  0.00     0.058 A 
ATOM     97  C   UNL A   1      50.299  26.702  25.493  1.00  0.00     0.135 A 
ATOM     98  C   UNL A   1      50.894  26.207  27.769  1.00  0.00     0.135 A 
ATOM     99  F   UNL A   1      49.460  27.214  24.578  1.00  0.00    -0.206 F 
ATOM    100  C   UNL A   1      51.464  26.086  25.045  1.00  0.00     0.059 A 
ATOM    101  C   UNL A   1      52.080  25.615  27.346  1.00  0.00     0.059 A 
ATOM    102  F   UNL A   1      50.645  26.247  29.087  1.00  0.00    -0.206 F 
ATOM    103  C   UNL A   1      52.349  25.546  25.981  1.00  0.00     0.060 A 
BRANCH 103 104
ATOM    104  S   UNL A   1      53.869  24.772  25.388  1.00  0.00     0.124 S 
ATOM    105  O   UNL A   1      54.225  25.642  24.271  1.00  0.00    -0.237 OA
ATOM    106  O   UNL A   1      54.737  24.855  26.559  1.00  0.00    -0.237 OA
ATOM    107  O   UNL A   1      53.445  23.424  25.024  1.00  0.00    -0.744 OA
ENDBRANCH 103 104
ENDBRANCH  71  96
ENDBRANCH  45  46
ENDBRANCH  37  40
ENDBRANCH  35  36
ENDBRANCH  34  35
ENDBRANCH  33  34
ENDBRANCH  32  33
ENDBRANCH   1  32
TORSDOF 23
ENDMDL
MODEL 3
REMARK VINA RESULT:     -10.2      1.216      1.980
REMARK SMILES COc1cc(-c2ccc(NC(=O)CCC(=O)NCCCCCCNC(=O)c3ccc(-c4c5nc(c(-c6c(F)cc(S(=O)(=O)[O-])cc6F)c6ccc([nH]6)c(-c6c(F)cc(S(=O)(=O)[O-])cc6F)c6nc(c(-c7c(F)cc(S(=O)(=O)[O-])cc7F)c7ccc4[nH]7)C=C6)C=C5)cc3)c(OC)c2)ccc1N
REMARK SMILES IDX 19 1 18 2 17 3 15 4 16 5 14 7 13 8 11 9 10 10 12 12 9 13
REMARK SMILES IDX 6 14 7 15 96 16 8 17 93 18 5 19 3 20 4 21 99 22 98 23 97 24
REMARK SMILES IDX 2 25 1 26 100 27 94 30 95 31 20 32 21 33 22 34 23 35 24 36
REMARK SMILES IDX 25 37 26 39 27 40 28 41 92 42 29 43 91 44 30 45 31 46 32 47
REMARK SMILES IDX 85 48 33 49 90 50 84 51 86 52 34 53 89 54 83 55 82 56 35 58
REMARK SMILES IDX 69 59 48 60 68 61 49 62 52 63 67 64 87 65 50 66 51 67 66 69
REMARK SMILES IDX 88 70 53 71 36 72 37 73 46 74 38 75 39 76 45 77 47 78 40 79
REMARK SMILES IDX 41 80 42 81 43 82 44 83 70 84 71 85 80 86 72 87 73 88 79 89
REMARK SMILES IDX 81 90 74 91 75 92 76 93 77 94 78 95 54 96 55 97 64 98 56 99
REMARK SMILES IDX 57 100 63 101 65 102 58 103 59 104 60 105 61 106 62 107
REMARK H PARENT 17 6 10 11 100 28 100 29 24 38 86 57 52 68
REMARK Flexibility Score: inf
ROOT
ATOM      1  C   UNL A   1      34.984  31.434  28.075  1.00  0.00     0.021 C 
ENDROOT
BRANCH   1   2
ATOM      2  C   UNL A   1      33.564  31.150  27.429  1.00  0.00     0.116 C 
BRANCH   2   3
ATOM      3  N   UNL A   1      32.771  29.859  27.540  1.00  0.00    -0.356 N 
ATOM      4  C   UNL A   1      32.790  28.499  27.226  1.00  0.00     0.220 C 
ATOM      5  O   UNL A   1      31.903  27.869  27.839  1.00  0.00    -0.275 OA
ATOM      6  H   UNL A   1      31.928  30.054  28.010  1.00  0.00     0.163 HD
BRANCH   4   7
ATOM      7  C   UNL A   1      33.705  27.609  26.195  1.00  0.00     0.110 C 
BRANCH   7   8
ATOM      8  C   UNL A   1      33.469  27.425  24.566  1.00  0.00     0.110 C 
BRANCH   8   9
ATOM      9  C   UNL A   1      32.446  28.227  23.553  1.00  0.00     0.224 C 
ATOM     10  N   UNL A   1      31.839  27.651  22.420  1.00  0.00    -0.323 N 
ATOM     11  H   UNL A   1      31.380  28.253  21.790  1.00  0.00     0.170 HD
ATOM     12  O   UNL A   1      32.202  29.424  23.753  1.00  0.00    -0.275 OA
BRANCH  10  13
ATOM     13  C   UNL A   1      31.845  26.285  22.129  1.00  0.00     0.083 A 
ATOM     14  C   UNL A   1      32.765  23.760  22.829  1.00  0.00    -0.014 A 
ATOM     15  C   UNL A   1      33.046  24.310  21.561  1.00  0.00     0.011 A 
ATOM     16  C   UNL A   1      31.654  24.346  23.439  1.00  0.00     0.057 A 
ATOM     17  C   UNL A   1      32.634  25.616  21.223  1.00  0.00     0.031 A 
ATOM     18  C   UNL A   1      31.070  25.525  22.924  1.00  0.00     0.142 A 
BRANCH  14  19
ATOM     19  C   UNL A   1      33.639  22.702  23.471  1.00  0.00    -0.014 A 
ATOM     20  C   UNL A   1      34.065  20.544  24.635  1.00  0.00     0.142 A 
ATOM     21  C   UNL A   1      33.193  21.448  23.964  1.00  0.00     0.057 A 
ATOM     22  C   UNL A   1      35.434  20.823  24.755  1.00  0.00     0.074 A 
ATOM     23  C   UNL A   1      35.862  22.084  24.367  1.00  0.00     0.030 A 
ATOM     24  C   UNL A   1      34.992  22.989  23.740  1.00  0.00     0.011 A 
BRANCH  20  25
ATOM     25  O   UNL A   1      33.529  19.347  25.064  1.00  0.00    -0.495 OA
ATOM     26  C   UNL A   1      33.408  18.375  24.018  1.00  0.00     0.278 C 
ENDBRANCH  20  25
BRANCH  22  27
ATOM     27  N   UNL A   1      36.349  19.951  25.341  1.00  0.00    -0.396 N 
ATOM     28  H   UNL A   1      36.479  19.958  26.317  1.00  0.00     0.156 HD
ATOM     29  H   UNL A   1      36.865  19.328  24.780  1.00  0.00     0.156 HD
ENDBRANCH  22  27
ENDBRANCH  14  19
BRANCH  18  30
ATOM     30  O   UNL A   1      29.874  26.047  23.328  1.00  0.00    -0.495 OA
ATOM     31  C   UNL A   1      29.380  26.324  24.672  1.00  0.00     0.278 C 
ENDBRANCH  18  30
ENDBRANCH  10  13
ENDBRANCH   8   9
ENDBRANCH   7   8
ENDBRANCH   4   7
ENDBRANCH   2   3
ENDBRANCH   1   2
BRANCH   1  32
ATOM     32  C   UNL A   1      35.815  32.689  27.801  1.00  0.00     0.002 C 
BRANCH  32  33
ATOM     33  C   UNL A   1      35.615  33.832  28.795  1.00  0.00     0.002 C 
BRANCH  33  34
ATOM     34  C   UNL A   1      34.446  34.798  28.524  1.00  0.00     0.021 C 
BRANCH  34  35
ATOM     35  C   UNL A   1      33.071  34.378  29.051  1.00  0.00     0.116 C 
BRANCH  35  36
ATOM     36  N   UNL A   1      32.619  35.230  30.140  1.00  0.00    -0.352 N 
ATOM     37  C   UNL A   1      33.046  35.287  31.451  1.00  0.00     0.251 C 
ATOM     38  H   UNL A   1      31.899  35.859  29.906  1.00  0.00     0.163 HD
ATOM     39  O   UNL A   1      32.374  35.867  32.286  1.00  0.00    -0.269 OA
BRANCH  37  40
ATOM     40  C   UNL A   1      34.321  34.640  31.843  1.00  0.00     0.039 A 
ATOM     41  C   UNL A   1      35.483  35.413  31.920  1.00  0.00     0.014 A 
ATOM     42  C   UNL A   1      34.378  33.267  32.093  1.00  0.00     0.014 A 
ATOM     43  C   UNL A   1      36.690  34.817  32.305  1.00  0.00     0.010 A 
ATOM     44  C   UNL A   1      35.565  32.689  32.546  1.00  0.00     0.010 A 
ATOM     45  C   UNL A   1      36.736  33.455  32.651  1.00  0.00    -0.014 A 
BRANCH  45  46
ATOM     46  C   UNL A   1      38.001  32.818  33.108  1.00  0.00     0.031 A 
ATOM     47  C   UNL A   1      38.509  33.054  34.506  1.00  0.00     0.074 A 
ATOM     48  C   UNL A   1      38.719  32.066  32.250  1.00  0.00     0.049 A 
ATOM     49  N   UNL A   1      39.607  32.624  35.073  1.00  0.00    -0.248 NA
ATOM     50  C   UNL A   1      37.686  33.912  35.375  1.00  0.00     0.031 C 
ATOM     51  C   UNL A   1      38.359  31.795  30.857  1.00  0.00     0.029 A 
ATOM     52  N   UNL A   1      39.904  31.392  32.420  1.00  0.00    -0.354 N 
ATOM     53  C   UNL A   1      39.610  33.160  36.356  1.00  0.00     0.074 A 
ATOM     54  C   UNL A   1      38.438  34.003  36.461  1.00  0.00     0.031 C 
ATOM     55  C   UNL A   1      39.283  30.990  30.310  1.00  0.00     0.029 A 
ATOM     56  C   UNL A   1      40.323  30.716  31.298  1.00  0.00     0.049 A 
ATOM     57  H   UNL A   1      40.407  31.393  33.267  1.00  0.00     0.167 HD
ATOM     58  C   UNL A   1      40.489  32.948  37.366  1.00  0.00     0.037 A 
ATOM     59  C   UNL A   1      41.420  29.963  31.087  1.00  0.00     0.037 A 
ATOM     60  C   UNL A   1      41.648  32.098  37.257  1.00  0.00     0.049 A 
ATOM     61  C   UNL A   1      42.396  29.758  32.215  1.00  0.00     0.074 A 
ATOM     62  C   UNL A   1      42.580  31.784  38.232  1.00  0.00     0.029 A 
ATOM     63  N   UNL A   1      42.034  31.427  36.106  1.00  0.00    -0.354 N 
ATOM     64  N   UNL A   1      42.352  30.226  33.440  1.00  0.00    -0.248 NA
ATOM     65  C   UNL A   1      43.567  28.916  31.936  1.00  0.00     0.031 C 
ATOM     66  C   UNL A   1      43.557  30.966  37.654  1.00  0.00     0.029 A 
ATOM     67  C   UNL A   1      43.202  30.718  36.338  1.00  0.00     0.049 A 
ATOM     68  H   UNL A   1      41.550  31.452  35.248  1.00  0.00     0.167 HD
ATOM     69  C   UNL A   1      43.467  29.707  34.088  1.00  0.00     0.074 A 
ATOM     70  C   UNL A   1      44.162  28.881  33.121  1.00  0.00     0.031 C 
ATOM     71  C   UNL A   1      43.878  29.893  35.367  1.00  0.00     0.037 A 
BRANCH  58  72
ATOM     72  C   UNL A   1      40.228  33.647  38.675  1.00  0.00     0.058 A 
ATOM     73  C   UNL A   1      39.305  33.146  39.608  1.00  0.00     0.135 A 
ATOM     74  C   UNL A   1      40.922  34.821  39.011  1.00  0.00     0.135 A 
ATOM     75  F   UNL A   1      38.603  32.034  39.334  1.00  0.00    -0.206 F 
ATOM     76  C   UNL A   1      39.048  33.803  40.806  1.00  0.00     0.059 A 
ATOM     77  C   UNL A   1      40.705  35.478  40.221  1.00  0.00     0.059 A 
ATOM     78  F   UNL A   1      41.818  35.346  38.161  1.00  0.00    -0.206 F 
ATOM     79  C   UNL A   1      39.752  34.971  41.103  1.00  0.00     0.060 A 
BRANCH  79  80
ATOM     80  S   UNL A   1      39.398  35.818  42.657  1.00  0.00     0.124 S 
ATOM     81  O   UNL A   1      37.966  35.567  42.805  1.00  0.00    -0.237 OA
ATOM     82  O   UNL A   1      40.264  35.116  43.599  1.00  0.00    -0.237 OA
ATOM     83  O   UNL A   1      39.765  37.203  42.383  1.00  0.00    -0.744 OA
ENDBRANCH  79  80
ENDBRANCH  58  72
BRANCH  59  84
ATOM     84  C   UNL A   1      41.639  29.316  29.763  1.00  0.00     0.058 A 
ATOM     85  C   UNL A   1      42.485  29.898  28.807  1.00  0.00     0.135 A 
ATOM     86  C   UNL A   1      41.014  28.104  29.429  1.00  0.00     0.135 A 
ATOM     87  F   UNL A   1      43.100  31.060  29.074  1.00  0.00    -0.206 F 
ATOM     88  C   UNL A   1      42.693  29.312  27.562  1.00  0.00     0.059 A 
ATOM     89  C   UNL A   1      41.228  27.484  28.202  1.00  0.00     0.059 A 
ATOM     90  F   UNL A   1      40.208  27.497  30.313  1.00  0.00    -0.206 F 
ATOM     91  C   UNL A   1      42.061  28.102  27.270  1.00  0.00     0.060 A 
BRANCH  91  92
ATOM     92  S   UNL A   1      42.375  27.328  25.669  1.00  0.00     0.124 S 
ATOM     93  O   UNL A   1      41.280  26.369  25.587  1.00  0.00    -0.237 OA
ATOM     94  O   UNL A   1      42.297  28.466  24.759  1.00  0.00    -0.237 OA
ATOM     95  O   UNL A   1      43.708  26.753  25.829  1.00  0.00    -0.744 OA
ENDBRANCH  91  92
ENDBRANCH  59  84
BRANCH  71  96
ATOM     96  C   UNL A   1      45.111  29.154  35.813  1.00  0.00     0.058 A 
ATOM     97  C   UNL A   1      46.392  29.718  35.715  1.00  0.00     0.135 A 
ATOM     98  C   UNL A   1      45.001  27.876  36.389  1.00  0.00     0.135 A 
ATOM     99  F   UNL A   1      46.557  30.934  35.169  1.00  0.00    -0.206 F 
ATOM    100  C   UNL A   1      47.525  29.030  36.142  1.00  0.00     0.059 A 
ATOM    101  C   UNL A   1      46.115  27.185  36.852  1.00  0.00     0.059 A 
ATOM    102  F   UNL A   1      43.798  27.294  36.518  1.00  0.00    -0.206 F 
ATOM    103  C   UNL A   1      47.375  27.763  36.711  1.00  0.00     0.060 A 
BRANCH 103 104
ATOM    104  S   UNL A   1      48.848  26.892  37.284  1.00  0.00     0.124 S 
ATOM    105  O   UNL A   1      48.301  25.582  37.624  1.00  0.00    -0.237 OA
ATOM    106  O   UNL A   1      49.712  26.933  36.108  1.00  0.00    -0.237 OA
ATOM    107  O   UNL A   1      49.301  27.696  38.416  1.00  0.00    -0.744 OA
ENDBRANCH 103 104
ENDBRANCH  71  96
ENDBRANCH  45  46
ENDBRANCH  37  40
ENDBRANCH  35  36
ENDBRANCH  34  35
ENDBRANCH  33  34
ENDBRANCH  32  33
ENDBRANCH   1  32
TORSDOF 23
ENDMDL
