MODEL 1
REMARK VINA RESULT:     -11.6      0.000      0.000
REMARK SMILES COC(=O)[C@H]1CCN(S(=O)(=O)N2CCC[C@H](C(=O)NCCCCCCNC(=O)c3ccc(-c4c5nc(c(-c6c(F)cc(S(=O)(=O)[O-])cc6F)c6ccc([nH]6)c(-c6c(F)cc(S(=O)(=O)[O-])cc6F)c6nc(c(-c7c(F)cc(S(=O)(=O)[O-])cc7F)c7ccc4[nH]7)C=C6)C=C5)cc3)C2)C1
REMARK SMILES IDX 22 1 21 2 20 3 19 4 17 5 18 6 16 8 12 9 13 10 95 11 14 12
REMARK SMILES IDX 15 13 9 14 10 15 11 16 8 17 5 18 6 19 96 20 7 21 3 22 4 23
REMARK SMILES IDX 2 24 1 25 23 26 24 27 25 28 26 29 27 30 28 32 29 33 30 34
REMARK SMILES IDX 94 35 31 36 93 37 32 38 33 39 34 40 87 41 35 42 92 43 86 44
REMARK SMILES IDX 88 45 36 46 91 47 85 48 84 49 37 51 71 52 50 53 70 54 51 55
REMARK SMILES IDX 54 56 69 57 89 58 52 59 53 60 68 62 90 63 55 64 38 65 39 66
REMARK SMILES IDX 48 67 40 68 41 69 47 70 49 71 42 72 43 73 44 74 45 75 46 76
REMARK SMILES IDX 72 77 73 78 82 79 74 80 75 81 81 82 83 83 76 84 77 85 78 86
REMARK SMILES IDX 79 87 80 88 56 89 57 90 66 91 58 92 59 93 65 94 67 95 60 96
REMARK SMILES IDX 61 97 62 98 63 99 64 100
REMARK H PARENT 19 7 26 31 88 50 54 61
REMARK Flexibility Score: inf
ROOT
ATOM      1  C   UNL A   1      36.591  23.710  25.144  1.00  0.00     0.002 C 
ENDROOT
BRANCH   1   2
ATOM      2  C   UNL A   1      35.205  23.827  25.776  1.00  0.00     0.021 C 
BRANCH   2   3
ATOM      3  C   UNL A   1      34.223  24.642  24.940  1.00  0.00     0.116 C 
BRANCH   3   4
ATOM      4  N   UNL A   1      34.265  24.264  23.547  1.00  0.00    -0.356 N 
ATOM      5  C   UNL A   1      33.388  23.585  22.772  1.00  0.00     0.224 C 
ATOM      6  O   UNL A   1      33.708  23.439  21.584  1.00  0.00    -0.275 OA
ATOM      7  H   UNL A   1      35.080  24.553  23.076  1.00  0.00     0.163 HD
BRANCH   5   8
ATOM      8  C   UNL A   1      32.060  23.002  23.258  1.00  0.00     0.094 C 
ATOM      9  N   UNL A   1      30.881  24.508  24.843  1.00  0.00    -0.188 NA
ATOM     10  C   UNL A   1      30.768  23.490  25.900  1.00  0.00     0.103 C 
ATOM     11  C   UNL A   1      30.950  24.018  23.460  1.00  0.00     0.117 C 
ATOM     12  C   UNL A   1      31.875  22.440  25.774  1.00  0.00     0.018 C 
ATOM     13  C   UNL A   1      32.118  21.939  24.354  1.00  0.00     0.016 C 
BRANCH   9  14
ATOM     14  S   UNL A   1      30.292  26.051  25.143  1.00  0.00     0.282 S 
ATOM     15  O   UNL A   1      30.452  26.341  26.545  1.00  0.00    -0.195 OA
ATOM     16  O   UNL A   1      28.999  26.143  24.501  1.00  0.00    -0.195 OA
BRANCH  14  17
ATOM     17  N   UNL A   1      31.363  27.034  24.274  1.00  0.00    -0.188 NA
ATOM     18  C   UNL A   1      30.795  29.094  23.100  1.00  0.00     0.116 C 
ATOM     19  C   UNL A   1      31.099  29.376  24.560  1.00  0.00     0.033 C 
ATOM     20  C   UNL A   1      30.751  27.567  22.998  1.00  0.00     0.118 C 
ATOM     21  C   UNL A   1      31.955  28.202  24.958  1.00  0.00     0.104 C 
BRANCH  18  22
ATOM     22  C   UNL A   1      29.494  29.754  22.720  1.00  0.00     0.310 C 
ATOM     23  O   UNL A   1      28.694  29.337  21.899  1.00  0.00    -0.252 OA
BRANCH  22  24
ATOM     24  O   UNL A   1      29.312  30.866  23.494  1.00  0.00    -0.469 OA
ATOM     25  C   UNL A   1      27.963  31.331  23.521  1.00  0.00     0.282 C 
ENDBRANCH  22  24
ENDBRANCH  18  22
ENDBRANCH  14  17
ENDBRANCH   9  14
ENDBRANCH   5   8
ENDBRANCH   3   4
ENDBRANCH   2   3
ENDBRANCH   1   2
BRANCH   1  26
ATOM     26  C   UNL A   1      37.757  23.823  26.137  1.00  0.00     0.002 C 
BRANCH  26  27
ATOM     27  C   UNL A   1      38.737  22.645  26.132  1.00  0.00     0.021 C 
BRANCH  27  28
ATOM     28  C   UNL A   1      39.956  22.829  27.032  1.00  0.00     0.116 C 
BRANCH  28  29
ATOM     29  N   UNL A   1      41.157  23.111  26.260  1.00  0.00    -0.352 N 
ATOM     30  C   UNL A   1      41.861  24.281  26.132  1.00  0.00     0.251 C 
ATOM     31  H   UNL A   1      41.518  22.348  25.753  1.00  0.00     0.163 HD
ATOM     32  O   UNL A   1      42.695  24.403  25.241  1.00  0.00    -0.269 OA
BRANCH  30  33
ATOM     33  C   UNL A   1      41.604  25.393  27.069  1.00  0.00     0.039 A 
ATOM     34  C   UNL A   1      40.614  25.245  28.042  1.00  0.00     0.014 A 
ATOM     35  C   UNL A   1      42.345  26.575  26.987  1.00  0.00     0.014 A 
ATOM     36  C   UNL A   1      40.422  26.254  28.986  1.00  0.00     0.010 A 
ATOM     37  C   UNL A   1      42.197  27.551  27.967  1.00  0.00     0.010 A 
ATOM     38  C   UNL A   1      41.246  27.393  28.986  1.00  0.00    -0.014 A 
BRANCH  38  39
ATOM     39  C   UNL A   1      41.176  28.390  30.085  1.00  0.00     0.031 A 
ATOM     40  C   UNL A   1      42.073  28.269  31.285  1.00  0.00     0.074 A 
ATOM     41  C   UNL A   1      40.235  29.354  30.031  1.00  0.00     0.049 A 
ATOM     42  N   UNL A   1      42.089  28.992  32.374  1.00  0.00    -0.248 NA
ATOM     43  C   UNL A   1      43.067  27.183  31.272  1.00  0.00     0.031 C 
ATOM     44  C   UNL A   1      39.272  29.534  28.940  1.00  0.00     0.029 A 
ATOM     45  N   UNL A   1      39.914  30.352  30.919  1.00  0.00    -0.354 N 
ATOM     46  C   UNL A   1      43.078  28.443  33.182  1.00  0.00     0.074 A 
ATOM     47  C   UNL A   1      43.620  27.305  32.471  1.00  0.00     0.031 C 
ATOM     48  C   UNL A   1      38.477  30.577  29.220  1.00  0.00     0.029 A 
ATOM     49  C   UNL A   1      38.834  31.111  30.530  1.00  0.00     0.049 A 
ATOM     50  H   UNL A   1      40.409  30.508  31.755  1.00  0.00     0.167 HD
ATOM     51  C   UNL A   1      43.499  28.862  34.398  1.00  0.00     0.037 A 
ATOM     52  C   UNL A   1      38.182  32.103  31.167  1.00  0.00     0.037 A 
ATOM     53  C   UNL A   1      42.966  30.013  35.082  1.00  0.00     0.049 A 
ATOM     54  C   UNL A   1      38.665  32.535  32.527  1.00  0.00     0.074 A 
ATOM     55  C   UNL A   1      43.391  30.572  36.275  1.00  0.00     0.029 A 
ATOM     56  N   UNL A   1      41.886  30.768  34.650  1.00  0.00    -0.354 N 
ATOM     57  N   UNL A   1      39.674  32.074  33.226  1.00  0.00    -0.248 NA
ATOM     58  C   UNL A   1      37.922  33.618  33.186  1.00  0.00     0.031 C 
ATOM     59  C   UNL A   1      42.526  31.620  36.599  1.00  0.00     0.029 A 
ATOM     60  C   UNL A   1      41.600  31.756  35.577  1.00  0.00     0.049 A 
ATOM     61  H   UNL A   1      41.396  30.623  33.808  1.00  0.00     0.167 HD
ATOM     62  C   UNL A   1      39.693  32.818  34.401  1.00  0.00     0.074 A 
ATOM     63  C   UNL A   1      38.616  33.779  34.305  1.00  0.00     0.031 C 
ATOM     64  C   UNL A   1      40.523  32.707  35.468  1.00  0.00     0.037 A 
BRANCH  51  65
ATOM     65  C   UNL A   1      44.585  28.082  35.089  1.00  0.00     0.058 A 
ATOM     66  C   UNL A   1      45.936  28.445  34.985  1.00  0.00     0.135 A 
ATOM     67  C   UNL A   1      44.254  27.023  35.950  1.00  0.00     0.135 A 
ATOM     68  F   UNL A   1      46.310  29.440  34.165  1.00  0.00    -0.206 F 
ATOM     69  C   UNL A   1      46.923  27.783  35.710  1.00  0.00     0.059 A 
ATOM     70  C   UNL A   1      45.221  26.366  36.706  1.00  0.00     0.059 A 
ATOM     71  F   UNL A   1      42.977  26.634  36.084  1.00  0.00    -0.206 F 
ATOM     72  C   UNL A   1      46.554  26.751  36.576  1.00  0.00     0.060 A 
BRANCH  72  73
ATOM     73  S   UNL A   1      47.841  25.943  37.551  1.00  0.00     0.124 S 
ATOM     74  O   UNL A   1      47.139  25.682  38.804  1.00  0.00    -0.237 OA
ATOM     75  O   UNL A   1      48.151  24.769  36.741  1.00  0.00    -0.237 OA
ATOM     76  O   UNL A   1      48.898  26.948  37.623  1.00  0.00    -0.744 OA
ENDBRANCH  72  73
ENDBRANCH  51  65
BRANCH  52  77
ATOM     77  C   UNL A   1      36.982  32.732  30.550  1.00  0.00     0.058 A 
ATOM     78  C   UNL A   1      37.099  33.821  29.674  1.00  0.00     0.135 A 
ATOM     79  C   UNL A   1      35.689  32.268  30.841  1.00  0.00     0.135 A 
ATOM     80  F   UNL A   1      38.311  34.308  29.366  1.00  0.00    -0.206 F 
ATOM     81  C   UNL A   1      35.979  34.451  29.139  1.00  0.00     0.059 A 
ATOM     82  C   UNL A   1      34.556  32.858  30.292  1.00  0.00     0.059 A 
ATOM     83  F   UNL A   1      35.519  31.219  31.662  1.00  0.00    -0.206 F 
ATOM     84  C   UNL A   1      34.711  33.963  29.456  1.00  0.00     0.060 A 
BRANCH  84  85
ATOM     85  S   UNL A   1      33.263  34.787  28.758  1.00  0.00     0.124 S 
ATOM     86  O   UNL A   1      32.495  35.096  29.959  1.00  0.00    -0.237 OA
ATOM     87  O   UNL A   1      33.863  35.927  28.071  1.00  0.00    -0.237 OA
ATOM     88  O   UNL A   1      32.685  33.770  27.885  1.00  0.00    -0.744 OA
ENDBRANCH  84  85
ENDBRANCH  52  77
BRANCH  64  89
ATOM     89  C   UNL A   1      40.304  33.651  36.619  1.00  0.00     0.058 A 
ATOM     90  C   UNL A   1      41.003  34.864  36.713  1.00  0.00     0.135 A 
ATOM     91  C   UNL A   1      39.333  33.376  37.597  1.00  0.00     0.135 A 
ATOM     92  F   UNL A   1      41.947  35.172  35.811  1.00  0.00    -0.206 F 
ATOM     93  C   UNL A   1      40.757  35.766  37.744  1.00  0.00     0.059 A 
ATOM     94  C   UNL A   1      39.050  34.276  38.617  1.00  0.00     0.059 A 
ATOM     95  F   UNL A   1      38.631  32.233  37.549  1.00  0.00    -0.206 F 
ATOM     96  C   UNL A   1      39.772  35.467  38.686  1.00  0.00     0.060 A 
BRANCH  96  97
ATOM     97  S   UNL A   1      39.426  36.675  39.982  1.00  0.00     0.124 S 
ATOM     98  O   UNL A   1      38.812  37.757  39.221  1.00  0.00    -0.237 OA
ATOM     99  O   UNL A   1      38.531  35.934  40.865  1.00  0.00    -0.237 OA
ATOM    100  O   UNL A   1      40.745  36.967  40.536  1.00  0.00    -0.744 OA
ENDBRANCH  96  97
ENDBRANCH  64  89
ENDBRANCH  38  39
ENDBRANCH  30  33
ENDBRANCH  28  29
ENDBRANCH  27  28
ENDBRANCH  26  27
ENDBRANCH   1  26
TORSDOF 20
ENDMDL
MODEL 2
REMARK VINA RESULT:     -11.5      6.313     11.691
REMARK SMILES COC(=O)[C@H]1CCN(S(=O)(=O)N2CCC[C@H](C(=O)NCCCCCCNC(=O)c3ccc(-c4c5nc(c(-c6c(F)cc(S(=O)(=O)[O-])cc6F)c6ccc([nH]6)c(-c6c(F)cc(S(=O)(=O)[O-])cc6F)c6nc(c(-c7c(F)cc(S(=O)(=O)[O-])cc7F)c7ccc4[nH]7)C=C6)C=C5)cc3)C2)C1
REMARK SMILES IDX 22 1 21 2 20 3 19 4 17 5 18 6 16 8 12 9 13 10 95 11 14 12
REMARK SMILES IDX 15 13 9 14 10 15 11 16 8 17 5 18 6 19 96 20 7 21 3 22 4 23
REMARK SMILES IDX 2 24 1 25 23 26 24 27 25 28 26 29 27 30 28 32 29 33 30 34
REMARK SMILES IDX 94 35 31 36 93 37 32 38 33 39 34 40 87 41 35 42 92 43 86 44
REMARK SMILES IDX 88 45 36 46 91 47 85 48 84 49 37 51 71 52 50 53 70 54 51 55
REMARK SMILES IDX 54 56 69 57 89 58 52 59 53 60 68 62 90 63 55 64 38 65 39 66
REMARK SMILES IDX 48 67 40 68 41 69 47 70 49 71 42 72 43 73 44 74 45 75 46 76
REMARK SMILES IDX 72 77 73 78 82 79 74 80 75 81 81 82 83 83 76 84 77 85 78 86
REMARK SMILES IDX 79 87 80 88 56 89 57 90 66 91 58 92 59 93 65 94 67 95 60 96
REMARK SMILES IDX 61 97 62 98 63 99 64 100
REMARK H PARENT 19 7 26 31 88 50 54 61
REMARK Flexibility Score: inf
ROOT
ATOM      1  C   UNL A   1      33.776  29.008  26.954  1.00  0.00     0.002 C 
ENDROOT
BRANCH   1   2
ATOM      2  C   UNL A   1      32.634  29.981  26.661  1.00  0.00     0.021 C 
BRANCH   2   3
ATOM      3  C   UNL A   1      32.024  29.801  25.275  1.00  0.00     0.116 C 
BRANCH   3   4
ATOM      4  N   UNL A   1      33.030  29.502  24.283  1.00  0.00    -0.356 N 
ATOM      5  C   UNL A   1      33.154  28.479  23.407  1.00  0.00     0.224 C 
ATOM      6  O   UNL A   1      34.137  28.519  22.655  1.00  0.00    -0.275 OA
ATOM      7  H   UNL A   1      33.758  30.164  24.235  1.00  0.00     0.163 HD
BRANCH   5   8
ATOM      8  C   UNL A   1      32.180  27.305  23.289  1.00  0.00     0.094 C 
ATOM      9  N   UNL A   1      33.304  25.104  23.545  1.00  0.00    -0.188 NA
ATOM     10  C   UNL A   1      32.804  24.575  22.265  1.00  0.00     0.103 C 
ATOM     11  C   UNL A   1      32.481  26.128  24.201  1.00  0.00     0.117 C 
ATOM     12  C   UNL A   1      32.501  25.709  21.282  1.00  0.00     0.018 C 
ATOM     13  C   UNL A   1      31.746  26.889  21.885  1.00  0.00     0.016 C 
BRANCH   9  14
ATOM     14  S   UNL A   1      34.321  24.144  24.473  1.00  0.00     0.282 S 
ATOM     15  O   UNL A   1      35.229  24.999  25.195  1.00  0.00    -0.195 OA
ATOM     16  O   UNL A   1      34.807  23.088  23.614  1.00  0.00    -0.195 OA
BRANCH  14  17
ATOM     17  N   UNL A   1      33.256  23.444  25.589  1.00  0.00    -0.188 NA
ATOM     18  C   UNL A   1      32.908  21.056  25.940  1.00  0.00     0.116 C 
ATOM     19  C   UNL A   1      34.075  21.555  26.772  1.00  0.00     0.033 C 
ATOM     20  C   UNL A   1      32.548  22.231  25.027  1.00  0.00     0.118 C 
ATOM     21  C   UNL A   1      33.789  23.029  26.902  1.00  0.00     0.104 C 
BRANCH  18  22
ATOM     22  C   UNL A   1      33.321  19.818  25.185  1.00  0.00     0.310 C 
ATOM     23  O   UNL A   1      34.427  19.601  24.720  1.00  0.00    -0.252 OA
BRANCH  22  24
ATOM     24  O   UNL A   1      32.276  18.937  25.162  1.00  0.00    -0.469 OA
ATOM     25  C   UNL A   1      32.630  17.619  25.580  1.00  0.00     0.282 C 
ENDBRANCH  22  24
ENDBRANCH  18  22
ENDBRANCH  14  17
ENDBRANCH   9  14
ENDBRANCH   5   8
ENDBRANCH   3   4
ENDBRANCH   2   3
ENDBRANCH   1   2
BRANCH   1  26
ATOM     26  C   UNL A   1      34.994  29.641  27.640  1.00  0.00     0.002 C 
BRANCH  26  27
ATOM     27  C   UNL A   1      34.948  31.167  27.778  1.00  0.00     0.021 C 
BRANCH  27  28
ATOM     28  C   UNL A   1      35.934  31.742  28.792  1.00  0.00     0.116 C 
BRANCH  28  29
ATOM     29  N   UNL A   1      35.781  31.123  30.101  1.00  0.00    -0.352 N 
ATOM     30  C   UNL A   1      36.630  30.285  30.776  1.00  0.00     0.251 C 
ATOM     31  H   UNL A   1      34.943  31.338  30.571  1.00  0.00     0.163 HD
ATOM     32  O   UNL A   1      36.228  29.656  31.750  1.00  0.00    -0.269 OA
BRANCH  30  33
ATOM     33  C   UNL A   1      38.027  30.139  30.321  1.00  0.00     0.039 A 
ATOM     34  C   UNL A   1      39.055  30.178  31.264  1.00  0.00     0.014 A 
ATOM     35  C   UNL A   1      38.315  29.956  28.965  1.00  0.00     0.014 A 
ATOM     36  C   UNL A   1      40.370  29.954  30.856  1.00  0.00     0.010 A 
ATOM     37  C   UNL A   1      39.618  29.668  28.570  1.00  0.00     0.010 A 
ATOM     38  C   UNL A   1      40.656  29.648  29.513  1.00  0.00    -0.014 A 
BRANCH  38  39
ATOM     39  C   UNL A   1      42.019  29.233  29.095  1.00  0.00     0.031 A 
ATOM     40  C   UNL A   1      43.119  30.247  28.957  1.00  0.00     0.074 A 
ATOM     41  C   UNL A   1      42.232  27.945  28.757  1.00  0.00     0.049 A 
ATOM     42  N   UNL A   1      44.341  30.079  28.520  1.00  0.00    -0.248 NA
ATOM     43  C   UNL A   1      42.803  31.634  29.337  1.00  0.00     0.031 C 
ATOM     44  C   UNL A   1      41.222  26.883  28.798  1.00  0.00     0.029 A 
ATOM     45  N   UNL A   1      43.356  27.310  28.289  1.00  0.00    -0.354 N 
ATOM     46  C   UNL A   1      44.934  31.336  28.557  1.00  0.00     0.074 A 
ATOM     47  C   UNL A   1      43.929  32.264  29.029  1.00  0.00     0.031 C 
ATOM     48  C   UNL A   1      41.772  25.733  28.381  1.00  0.00     0.029 A 
ATOM     49  C   UNL A   1      43.156  25.980  27.993  1.00  0.00     0.049 A 
ATOM     50  H   UNL A   1      44.223  27.762  28.175  1.00  0.00     0.167 HD
ATOM     51  C   UNL A   1      46.204  31.676  28.237  1.00  0.00     0.037 A 
ATOM     52  C   UNL A   1      43.982  25.069  27.442  1.00  0.00     0.037 A 
ATOM     53  C   UNL A   1      47.202  30.734  27.792  1.00  0.00     0.049 A 
ATOM     54  C   UNL A   1      45.385  25.482  27.081  1.00  0.00     0.074 A 
ATOM     55  C   UNL A   1      48.541  30.966  27.533  1.00  0.00     0.029 A 
ATOM     56  N   UNL A   1      46.968  29.395  27.522  1.00  0.00    -0.354 N 
ATOM     57  N   UNL A   1      45.961  26.651  27.227  1.00  0.00    -0.248 NA
ATOM     58  C   UNL A   1      46.249  24.457  26.480  1.00  0.00     0.031 C 
ATOM     59  C   UNL A   1      49.102  29.785  27.041  1.00  0.00     0.029 A 
ATOM     60  C   UNL A   1      48.128  28.800  27.052  1.00  0.00     0.049 A 
ATOM     61  H   UNL A   1      46.107  28.934  27.647  1.00  0.00     0.167 HD
ATOM     62  C   UNL A   1      47.257  26.498  26.746  1.00  0.00     0.074 A 
ATOM     63  C   UNL A   1      47.390  25.118  26.335  1.00  0.00     0.031 C 
ATOM     64  C   UNL A   1      48.245  27.422  26.645  1.00  0.00     0.037 A 
BRANCH  51  65
ATOM     65  C   UNL A   1      46.609  33.121  28.343  1.00  0.00     0.058 A 
ATOM     66  C   UNL A   1      46.448  34.014  27.273  1.00  0.00     0.135 A 
ATOM     67  C   UNL A   1      47.063  33.639  29.567  1.00  0.00     0.135 A 
ATOM     68  F   UNL A   1      46.031  33.571  26.076  1.00  0.00    -0.206 F 
ATOM     69  C   UNL A   1      46.726  35.371  27.412  1.00  0.00     0.059 A 
ATOM     70  C   UNL A   1      47.321  34.996  29.736  1.00  0.00     0.059 A 
ATOM     71  F   UNL A   1      47.237  32.827  30.621  1.00  0.00    -0.206 F 
ATOM     72  C   UNL A   1      47.152  35.854  28.651  1.00  0.00     0.060 A 
BRANCH  72  73
ATOM     73  S   UNL A   1      47.453  37.626  28.827  1.00  0.00     0.124 S 
ATOM     74  O   UNL A   1      48.128  37.680  30.121  1.00  0.00    -0.237 OA
ATOM     75  O   UNL A   1      48.286  37.915  27.664  1.00  0.00    -0.237 OA
ATOM     76  O   UNL A   1      46.114  38.205  28.795  1.00  0.00    -0.744 OA
ENDBRANCH  72  73
ENDBRANCH  51  65
BRANCH  52  77
ATOM     77  C   UNL A   1      43.499  23.689  27.161  1.00  0.00     0.058 A 
ATOM     78  C   UNL A   1      43.175  23.281  25.858  1.00  0.00     0.135 A 
ATOM     79  C   UNL A   1      43.328  22.756  28.195  1.00  0.00     0.135 A 
ATOM     80  F   UNL A   1      43.314  24.136  24.833  1.00  0.00    -0.206 F 
ATOM     81  C   UNL A   1      42.667  22.012  25.596  1.00  0.00     0.059 A 
ATOM     82  C   UNL A   1      42.855  21.470  27.955  1.00  0.00     0.059 A 
ATOM     83  F   UNL A   1      43.636  23.088  29.460  1.00  0.00    -0.206 F 
ATOM     84  C   UNL A   1      42.508  21.114  26.652  1.00  0.00     0.060 A 
BRANCH  84  85
ATOM     85  S   UNL A   1      41.847  19.471  26.303  1.00  0.00     0.124 S 
ATOM     86  O   UNL A   1      42.503  19.154  25.039  1.00  0.00    -0.237 OA
ATOM     87  O   UNL A   1      42.296  18.708  27.465  1.00  0.00    -0.237 OA
ATOM     88  O   UNL A   1      40.407  19.696  26.227  1.00  0.00    -0.744 OA
ENDBRANCH  84  85
ENDBRANCH  52  77
BRANCH  64  89
ATOM     89  C   UNL A   1      49.561  26.972  26.071  1.00  0.00     0.058 A 
ATOM     90  C   UNL A   1      49.850  27.109  24.706  1.00  0.00     0.135 A 
ATOM     91  C   UNL A   1      50.571  26.466  26.907  1.00  0.00     0.135 A 
ATOM     92  F   UNL A   1      48.917  27.579  23.861  1.00  0.00    -0.206 F 
ATOM     93  C   UNL A   1      51.088  26.750  24.185  1.00  0.00     0.059 A 
ATOM     94  C   UNL A   1      51.826  26.129  26.413  1.00  0.00     0.059 A 
ATOM     95  F   UNL A   1      50.349  26.320  28.223  1.00  0.00    -0.206 F 
ATOM     96  C   UNL A   1      52.073  26.269  25.049  1.00  0.00     0.060 A 
BRANCH  96  97
ATOM     97  S   UNL A   1      53.693  25.862  24.364  1.00  0.00     0.124 S 
ATOM     98  O   UNL A   1      53.491  26.133  22.945  1.00  0.00    -0.237 OA
ATOM     99  O   UNL A   1      54.570  26.793  25.068  1.00  0.00    -0.237 OA
ATOM    100  O   UNL A   1      53.869  24.456  24.716  1.00  0.00    -0.744 OA
ENDBRANCH  96  97
ENDBRANCH  64  89
ENDBRANCH  38  39
ENDBRANCH  30  33
ENDBRANCH  28  29
ENDBRANCH  27  28
ENDBRANCH  26  27
ENDBRANCH   1  26
TORSDOF 20
ENDMDL
MODEL 3
REMARK VINA RESULT:     -11.4      2.675      8.558
REMARK SMILES COC(=O)[C@H]1CCN(S(=O)(=O)N2CCC[C@H](C(=O)NCCCCCCNC(=O)c3ccc(-c4c5nc(c(-c6c(F)cc(S(=O)(=O)[O-])cc6F)c6ccc([nH]6)c(-c6c(F)cc(S(=O)(=O)[O-])cc6F)c6nc(c(-c7c(F)cc(S(=O)(=O)[O-])cc7F)c7ccc4[nH]7)C=C6)C=C5)cc3)C2)C1
REMARK SMILES IDX 22 1 21 2 20 3 19 4 17 5 18 6 16 8 12 9 13 10 95 11 14 12
REMARK SMILES IDX 15 13 9 14 10 15 11 16 8 17 5 18 6 19 96 20 7 21 3 22 4 23
REMARK SMILES IDX 2 24 1 25 23 26 24 27 25 28 26 29 27 30 28 32 29 33 30 34
REMARK SMILES IDX 94 35 31 36 93 37 32 38 33 39 34 40 87 41 35 42 92 43 86 44
REMARK SMILES IDX 88 45 36 46 91 47 85 48 84 49 37 51 71 52 50 53 70 54 51 55
REMARK SMILES IDX 54 56 69 57 89 58 52 59 53 60 68 62 90 63 55 64 38 65 39 66
REMARK SMILES IDX 48 67 40 68 41 69 47 70 49 71 42 72 43 73 44 74 45 75 46 76
REMARK SMILES IDX 72 77 73 78 82 79 74 80 75 81 81 82 83 83 76 84 77 85 78 86
REMARK SMILES IDX 79 87 80 88 56 89 57 90 66 91 58 92 59 93 65 94 67 95 60 96
REMARK SMILES IDX 61 97 62 98 63 99 64 100
REMARK H PARENT 19 7 26 31 88 50 54 61
REMARK Flexibility Score: inf
ROOT
ATOM      1  C   UNL A   1      34.525  21.385  24.995  1.00  0.00     0.002 C 
ENDROOT
BRANCH   1   2
ATOM      2  C   UNL A   1      33.171  21.171  25.672  1.00  0.00     0.021 C 
BRANCH   2   3
ATOM      3  C   UNL A   1      32.482  22.470  26.076  1.00  0.00     0.116 C 
BRANCH   3   4
ATOM      4  N   UNL A   1      31.475  22.862  25.119  1.00  0.00    -0.356 N 
ATOM      5  C   UNL A   1      31.563  23.506  23.932  1.00  0.00     0.224 C 
ATOM      6  O   UNL A   1      30.499  23.676  23.322  1.00  0.00    -0.275 OA
ATOM      7  H   UNL A   1      30.557  22.614  25.375  1.00  0.00     0.163 HD
BRANCH   5   8
ATOM      8  C   UNL A   1      32.863  24.023  23.312  1.00  0.00     0.094 C 
ATOM      9  N   UNL A   1      33.130  26.480  23.570  1.00  0.00    -0.188 NA
ATOM     10  C   UNL A   1      33.314  26.723  22.129  1.00  0.00     0.103 C 
ATOM     11  C   UNL A   1      33.528  25.158  24.071  1.00  0.00     0.117 C 
ATOM     12  C   UNL A   1      32.645  25.626  21.296  1.00  0.00     0.018 C 
ATOM     13  C   UNL A   1      32.895  24.207  21.796  1.00  0.00     0.016 C 
BRANCH   9  14
ATOM     14  S   UNL A   1      33.128  27.792  24.615  1.00  0.00     0.282 S 
ATOM     15  O   UNL A   1      33.566  28.959  23.892  1.00  0.00    -0.195 OA
ATOM     16  O   UNL A   1      33.792  27.368  25.828  1.00  0.00    -0.195 OA
BRANCH  14  17
ATOM     17  N   UNL A   1      31.484  27.981  24.974  1.00  0.00    -0.188 NA
ATOM     18  C   UNL A   1      29.777  28.864  23.474  1.00  0.00     0.116 C 
ATOM     19  C   UNL A   1      29.962  27.374  23.256  1.00  0.00     0.033 C 
ATOM     20  C   UNL A   1      30.915  29.266  24.414  1.00  0.00     0.118 C 
ATOM     21  C   UNL A   1      30.549  26.913  24.565  1.00  0.00     0.104 C 
BRANCH  18  22
ATOM     22  C   UNL A   1      29.821  29.576  22.145  1.00  0.00     0.310 C 
ATOM     23  O   UNL A   1      30.822  30.009  21.600  1.00  0.00    -0.252 OA
BRANCH  22  24
ATOM     24  O   UNL A   1      28.565  29.600  21.607  1.00  0.00    -0.469 OA
ATOM     25  C   UNL A   1      27.624  30.346  22.380  1.00  0.00     0.282 C 
ENDBRANCH  22  24
ENDBRANCH  18  22
ENDBRANCH  14  17
ENDBRANCH   9  14
ENDBRANCH   5   8
ENDBRANCH   3   4
ENDBRANCH   2   3
ENDBRANCH   1   2
BRANCH   1  26
ATOM     26  C   UNL A   1      35.665  21.758  25.953  1.00  0.00     0.002 C 
BRANCH  26  27
ATOM     27  C   UNL A   1      35.980  23.255  26.044  1.00  0.00     0.021 C 
BRANCH  27  28
ATOM     28  C   UNL A   1      37.202  23.696  25.241  1.00  0.00     0.116 C 
BRANCH  28  29
ATOM     29  N   UNL A   1      38.350  22.836  25.493  1.00  0.00    -0.352 N 
ATOM     30  C   UNL A   1      39.544  23.128  26.101  1.00  0.00     0.251 C 
ATOM     31  H   UNL A   1      38.255  21.908  25.181  1.00  0.00     0.163 HD
ATOM     32  O   UNL A   1      40.492  22.356  25.997  1.00  0.00    -0.269 OA
BRANCH  30  33
ATOM     33  C   UNL A   1      39.683  24.378  26.874  1.00  0.00     0.039 A 
ATOM     34  C   UNL A   1      39.080  24.470  28.130  1.00  0.00     0.014 A 
ATOM     35  C   UNL A   1      40.414  25.452  26.360  1.00  0.00     0.014 A 
ATOM     36  C   UNL A   1      39.279  25.612  28.906  1.00  0.00     0.010 A 
ATOM     37  C   UNL A   1      40.665  26.563  27.160  1.00  0.00     0.010 A 
ATOM     38  C   UNL A   1      40.113  26.647  28.447  1.00  0.00    -0.014 A 
BRANCH  38  39
ATOM     39  C   UNL A   1      40.478  27.785  29.328  1.00  0.00     0.031 A 
ATOM     40  C   UNL A   1      39.552  28.959  29.485  1.00  0.00     0.074 A 
ATOM     41  C   UNL A   1      41.691  27.790  29.917  1.00  0.00     0.049 A 
ATOM     42  N   UNL A   1      39.744  30.074  30.139  1.00  0.00    -0.248 NA
ATOM     43  C   UNL A   1      38.250  28.880  28.802  1.00  0.00     0.031 C 
ATOM     44  C   UNL A   1      42.695  26.729  29.790  1.00  0.00     0.029 A 
ATOM     45  N   UNL A   1      42.300  28.723  30.720  1.00  0.00    -0.354 N 
ATOM     46  C   UNL A   1      38.600  30.837  29.936  1.00  0.00     0.074 A 
ATOM     47  C   UNL A   1      37.730  30.071  29.070  1.00  0.00     0.031 C 
ATOM     48  C   UNL A   1      43.787  27.067  30.492  1.00  0.00     0.029 A 
ATOM     49  C   UNL A   1      43.586  28.388  31.078  1.00  0.00     0.049 A 
ATOM     50  H   UNL A   1      41.859  29.553  31.011  1.00  0.00     0.167 HD
ATOM     51  C   UNL A   1      38.304  32.059  30.437  1.00  0.00     0.037 A 
ATOM     52  C   UNL A   1      44.513  29.079  31.771  1.00  0.00     0.037 A 
ATOM     53  C   UNL A   1      39.171  32.799  31.319  1.00  0.00     0.049 A 
ATOM     54  C   UNL A   1      44.159  30.442  32.302  1.00  0.00     0.074 A 
ATOM     55  C   UNL A   1      38.920  34.002  31.955  1.00  0.00     0.029 A 
ATOM     56  N   UNL A   1      40.457  32.421  31.674  1.00  0.00    -0.354 N 
ATOM     57  N   UNL A   1      43.029  31.100  32.191  1.00  0.00    -0.248 NA
ATOM     58  C   UNL A   1      45.201  31.160  33.049  1.00  0.00     0.031 C 
ATOM     59  C   UNL A   1      40.077  34.387  32.637  1.00  0.00     0.029 A 
ATOM     60  C   UNL A   1      41.029  33.393  32.479  1.00  0.00     0.049 A 
ATOM     61  H   UNL A   1      40.898  31.586  31.396  1.00  0.00     0.167 HD
ATOM     62  C   UNL A   1      43.222  32.302  32.863  1.00  0.00     0.074 A 
ATOM     63  C   UNL A   1      44.564  32.268  33.404  1.00  0.00     0.031 C 
ATOM     64  C   UNL A   1      42.368  33.345  33.010  1.00  0.00     0.037 A 
BRANCH  51  65
ATOM     65  C   UNL A   1      36.995  32.694  30.053  1.00  0.00     0.058 A 
ATOM     66  C   UNL A   1      35.824  32.480  30.796  1.00  0.00     0.135 A 
ATOM     67  C   UNL A   1      36.940  33.611  28.991  1.00  0.00     0.135 A 
ATOM     68  F   UNL A   1      35.815  31.604  31.812  1.00  0.00    -0.206 F 
ATOM     69  C   UNL A   1      34.642  33.153  30.497  1.00  0.00     0.059 A 
ATOM     70  C   UNL A   1      35.777  34.315  28.692  1.00  0.00     0.059 A 
ATOM     71  F   UNL A   1      38.032  33.850  28.247  1.00  0.00    -0.206 F 
ATOM     72  C   UNL A   1      34.632  34.076  29.449  1.00  0.00     0.060 A 
BRANCH  72  73
ATOM     73  S   UNL A   1      33.106  34.981  29.113  1.00  0.00     0.124 S 
ATOM     74  O   UNL A   1      32.457  34.955  30.421  1.00  0.00    -0.237 OA
ATOM     75  O   UNL A   1      33.606  36.281  28.679  1.00  0.00    -0.237 OA
ATOM     76  O   UNL A   1      32.457  34.184  28.076  1.00  0.00    -0.744 OA
ENDBRANCH  72  73
ENDBRANCH  51  65
BRANCH  52  77
ATOM     77  C   UNL A   1      45.876  28.514  31.972  1.00  0.00     0.058 A 
ATOM     78  C   UNL A   1      46.896  28.716  31.030  1.00  0.00     0.135 A 
ATOM     79  C   UNL A   1      46.180  27.739  33.102  1.00  0.00     0.135 A 
ATOM     80  F   UNL A   1      46.656  29.444  29.928  1.00  0.00    -0.206 F 
ATOM     81  C   UNL A   1      48.155  28.143  31.182  1.00  0.00     0.059 A 
ATOM     82  C   UNL A   1      47.441  27.184  33.295  1.00  0.00     0.059 A 
ATOM     83  F   UNL A   1      45.246  27.524  34.043  1.00  0.00    -0.206 F 
ATOM     84  C   UNL A   1      48.417  27.375  32.318  1.00  0.00     0.060 A 
BRANCH  84  85
ATOM     85  S   UNL A   1      50.052  26.634  32.507  1.00  0.00     0.124 S 
ATOM     86  O   UNL A   1      50.729  27.108  31.306  1.00  0.00    -0.237 OA
ATOM     87  O   UNL A   1      50.507  27.213  33.768  1.00  0.00    -0.237 OA
ATOM     88  O   UNL A   1      49.771  25.202  32.548  1.00  0.00    -0.744 OA
ENDBRANCH  84  85
ENDBRANCH  52  77
BRANCH  64  89
ATOM     89  C   UNL A   1      42.854  34.536  33.791  1.00  0.00     0.058 A 
ATOM     90  C   UNL A   1      42.654  34.635  35.176  1.00  0.00     0.135 A 
ATOM     91  C   UNL A   1      43.590  35.553  33.161  1.00  0.00     0.135 A 
ATOM     92  F   UNL A   1      41.949  33.695  35.826  1.00  0.00    -0.206 F 
ATOM     93  C   UNL A   1      43.155  35.705  35.908  1.00  0.00     0.059 A 
ATOM     94  C   UNL A   1      44.127  36.616  33.878  1.00  0.00     0.059 A 
ATOM     95  F   UNL A   1      43.816  35.504  31.839  1.00  0.00    -0.206 F 
ATOM     96  C   UNL A   1      43.899  36.687  35.251  1.00  0.00     0.060 A 
BRANCH  96  97
ATOM     97  S   UNL A   1      44.592  38.039  36.227  1.00  0.00     0.124 S 
ATOM     98  O   UNL A   1      45.971  37.597  36.406  1.00  0.00    -0.237 OA
ATOM     99  O   UNL A   1      44.404  39.186  35.344  1.00  0.00    -0.237 OA
ATOM    100  O   UNL A   1      43.772  38.042  37.434  1.00  0.00    -0.744 OA
ENDBRANCH  96  97
ENDBRANCH  64  89
ENDBRANCH  38  39
ENDBRANCH  30  33
ENDBRANCH  28  29
ENDBRANCH  27  28
ENDBRANCH  26  27
ENDBRANCH   1  26
TORSDOF 20
ENDMDL
