MODEL 1
REMARK VINA RESULT:     -11.5      0.000      0.000
REMARK SMILES C[C@H]1[C@H](C(=O)NCCCCCCNC(=O)c2ccc(-c3c4nc(c(-c5c(F)cc(S(=O)(=O)[O-])cc5F)c5ccc([nH]5)c(-c5c(F)cc(S(=O)(=O)[O-])cc5F)c5nc(c(-c6c(F)cc(S(=O)(=O)[O-])cc6F)c6ccc3[nH]6)C=C5)C=C4)cc2)CC[N@@H+]1Cc1cnn(-c2ccccc2)c1
REMARK SMILES IDX 9 1 8 2 7 3 6 4 4 5 5 6 3 8 1 9 2 10 84 11 82 12 83 13 85 15
REMARK SMILES IDX 86 16 87 17 96 18 88 19 89 20 90 21 91 22 95 23 92 24 94 25
REMARK SMILES IDX 93 26 10 27 11 28 12 29 13 30 14 31 15 33 16 34 17 35 81 36
REMARK SMILES IDX 18 37 80 38 19 39 20 40 21 41 74 42 22 43 79 44 73 45 75 46
REMARK SMILES IDX 23 47 78 48 72 49 71 50 24 52 58 53 37 54 57 55 38 56 41 57
REMARK SMILES IDX 56 58 76 59 39 60 40 61 55 63 77 64 42 65 25 66 26 67 35 68
REMARK SMILES IDX 27 69 28 70 34 71 36 72 29 73 30 74 31 75 32 76 33 77 59 78
REMARK SMILES IDX 60 79 69 80 61 81 62 82 68 83 70 84 63 85 64 86 65 87 66 88
REMARK SMILES IDX 67 89 43 90 44 91 53 92 45 93 46 94 52 95 54 96 47 97 48 98
REMARK SMILES IDX 49 99 50 100 51 101
REMARK H PARENT 6 7 84 14 13 32 75 51 41 62
REMARK Flexibility Score: inf
ROOT
ATOM      1  C   UNL A   1      31.657  30.722  26.164  1.00  0.00     0.002 C 
ENDROOT
BRANCH   1   2
ATOM      2  C   UNL A   1      31.407  29.459  25.312  1.00  0.00     0.021 C 
BRANCH   2   3
ATOM      3  C   UNL A   1      30.571  29.695  24.051  1.00  0.00     0.116 C 
BRANCH   3   4
ATOM      4  N   UNL A   1      29.793  28.589  23.548  1.00  0.00    -0.356 N 
ATOM      5  C   UNL A   1      30.239  27.315  23.344  1.00  0.00     0.229 C 
ATOM      6  O   UNL A   1      29.469  26.400  23.663  1.00  0.00    -0.275 OA
ATOM      7  H   UNL A   1      28.850  28.770  23.331  1.00  0.00     0.163 HD
BRANCH   5   8
ATOM      8  C   UNL A   1      31.577  26.973  22.686  1.00  0.00     0.142 C 
ATOM      9  C   UNL A   1      33.803  27.193  23.780  1.00  0.00     0.076 C 
ATOM     10  C   UNL A   1      32.651  26.211  23.478  1.00  0.00     0.193 C 
ATOM     11  N   UNL A   1      33.124  25.119  22.598  1.00  0.00    -0.328 N 
ATOM     12  C   UNL A   1      31.489  26.261  21.339  1.00  0.00     0.081 C 
ATOM     13  C   UNL A   1      32.826  25.537  21.233  1.00  0.00     0.263 C 
ATOM     14  H   UNL A   1      34.127  25.012  22.753  1.00  0.00     0.348 HD
BRANCH  11  15
ATOM     15  C   UNL A   1      32.751  23.723  22.927  1.00  0.00     0.302 C 
BRANCH  15  16
ATOM     16  C   UNL A   1      33.742  22.871  23.690  1.00  0.00     0.045 A 
ATOM     17  C   UNL A   1      33.661  21.545  24.191  1.00  0.00     0.145 A 
ATOM     18  C   UNL A   1      35.062  23.170  23.959  1.00  0.00     0.124 A 
ATOM     19  N   UNL A   1      34.725  21.173  24.918  1.00  0.00    -0.176 NA
ATOM     20  N   UNL A   1      35.563  22.219  24.818  1.00  0.00    -0.240 N 
BRANCH  20  21
ATOM     21  C   UNL A   1      36.765  22.335  25.557  1.00  0.00     0.065 A 
ATOM     22  C   UNL A   1      37.723  21.327  25.444  1.00  0.00     0.028 A 
ATOM     23  C   UNL A   1      37.107  23.573  26.127  1.00  0.00     0.028 A 
ATOM     24  C   UNL A   1      39.041  21.580  25.841  1.00  0.00     0.002 A 
ATOM     25  C   UNL A   1      38.436  23.830  26.487  1.00  0.00     0.002 A 
ATOM     26  C   UNL A   1      39.404  22.839  26.326  1.00  0.00     0.000 A 
ENDBRANCH  20  21
ENDBRANCH  15  16
ENDBRANCH  11  15
ENDBRANCH   5   8
ENDBRANCH   3   4
ENDBRANCH   2   3
ENDBRANCH   1   2
BRANCH   1  27
ATOM     27  C   UNL A   1      32.867  30.695  27.102  1.00  0.00     0.002 C 
BRANCH  27  28
ATOM     28  C   UNL A   1      33.607  29.372  27.252  1.00  0.00     0.021 C 
BRANCH  28  29
ATOM     29  C   UNL A   1      35.057  29.513  27.670  1.00  0.00     0.116 C 
BRANCH  29  30
ATOM     30  N   UNL A   1      35.221  30.297  28.893  1.00  0.00    -0.352 N 
ATOM     31  C   UNL A   1      36.293  30.439  29.746  1.00  0.00     0.251 C 
ATOM     32  H   UNL A   1      34.425  30.815  29.152  1.00  0.00     0.163 HD
ATOM     33  O   UNL A   1      36.140  31.001  30.823  1.00  0.00    -0.269 OA
BRANCH  31  34
ATOM     34  C   UNL A   1      37.615  29.894  29.368  1.00  0.00     0.039 A 
ATOM     35  C   UNL A   1      38.030  29.917  28.034  1.00  0.00     0.014 A 
ATOM     36  C   UNL A   1      38.459  29.373  30.345  1.00  0.00     0.014 A 
ATOM     37  C   UNL A   1      39.321  29.493  27.707  1.00  0.00     0.010 A 
ATOM     38  C   UNL A   1      39.787  29.131  30.048  1.00  0.00     0.010 A 
ATOM     39  C   UNL A   1      40.228  29.142  28.721  1.00  0.00    -0.014 A 
BRANCH  39  40
ATOM     40  C   UNL A   1      41.624  28.718  28.443  1.00  0.00     0.031 A 
ATOM     41  C   UNL A   1      42.725  29.753  28.460  1.00  0.00     0.074 A 
ATOM     42  C   UNL A   1      41.884  27.447  28.081  1.00  0.00     0.049 A 
ATOM     43  N   UNL A   1      43.975  29.640  28.093  1.00  0.00    -0.248 NA
ATOM     44  C   UNL A   1      42.354  31.117  28.881  1.00  0.00     0.031 C 
ATOM     45  C   UNL A   1      40.889  26.378  27.951  1.00  0.00     0.029 A 
ATOM     46  N   UNL A   1      43.065  26.837  27.743  1.00  0.00    -0.354 N 
ATOM     47  C   UNL A   1      44.514  30.917  28.198  1.00  0.00     0.074 A 
ATOM     48  C   UNL A   1      43.438  31.806  28.566  1.00  0.00     0.031 C 
ATOM     49  C   UNL A   1      41.509  25.236  27.612  1.00  0.00     0.029 A 
ATOM     50  C   UNL A   1      42.934  25.500  27.450  1.00  0.00     0.049 A 
ATOM     51  H   UNL A   1      43.927  27.313  27.714  1.00  0.00     0.167 HD
ATOM     52  C   UNL A   1      45.801  31.310  28.051  1.00  0.00     0.037 A 
ATOM     53  C   UNL A   1      43.863  24.593  27.091  1.00  0.00     0.037 A 
ATOM     54  C   UNL A   1      46.873  30.399  27.761  1.00  0.00     0.049 A 
ATOM     55  C   UNL A   1      45.295  25.040  26.976  1.00  0.00     0.074 A 
ATOM     56  C   UNL A   1      48.227  30.659  27.676  1.00  0.00     0.029 A 
ATOM     57  N   UNL A   1      46.707  29.040  27.525  1.00  0.00    -0.354 N 
ATOM     58  N   UNL A   1      45.802  26.239  27.149  1.00  0.00    -0.248 NA
ATOM     59  C   UNL A   1      46.285  24.013  26.627  1.00  0.00     0.031 C 
ATOM     60  C   UNL A   1      48.876  29.467  27.343  1.00  0.00     0.029 A 
ATOM     61  C   UNL A   1      47.933  28.452  27.274  1.00  0.00     0.049 A 
ATOM     62  H   UNL A   1      45.844  28.567  27.533  1.00  0.00     0.167 HD
ATOM     63  C   UNL A   1      47.171  26.106  26.953  1.00  0.00     0.074 A 
ATOM     64  C   UNL A   1      47.415  24.706  26.667  1.00  0.00     0.031 C 
ATOM     65  C   UNL A   1      48.142  27.053  27.002  1.00  0.00     0.037 A 
BRANCH  52  66
ATOM     66  C   UNL A   1      46.113  32.773  28.232  1.00  0.00     0.058 A 
ATOM     67  C   UNL A   1      46.056  33.681  27.161  1.00  0.00     0.135 A 
ATOM     68  C   UNL A   1      46.467  33.278  29.494  1.00  0.00     0.135 A 
ATOM     69  F   UNL A   1      45.742  33.255  25.927  1.00  0.00    -0.206 F 
ATOM     70  C   UNL A   1      46.379  35.024  27.324  1.00  0.00     0.059 A 
ATOM     71  C   UNL A   1      46.758  34.625  29.688  1.00  0.00     0.059 A 
ATOM     72  F   UNL A   1      46.540  32.458  30.554  1.00  0.00    -0.206 F 
ATOM     73  C   UNL A   1      46.729  35.487  28.593  1.00  0.00     0.060 A 
BRANCH  73  74
ATOM     74  S   UNL A   1      47.141  37.234  28.786  1.00  0.00     0.124 S 
ATOM     75  O   UNL A   1      46.621  37.794  27.542  1.00  0.00    -0.237 OA
ATOM     76  O   UNL A   1      46.409  37.594  29.996  1.00  0.00    -0.237 OA
ATOM     77  O   UNL A   1      48.594  37.228  28.913  1.00  0.00    -0.744 OA
ENDBRANCH  73  74
ENDBRANCH  52  66
BRANCH  53  78
ATOM     78  C   UNL A   1      43.473  23.175  26.861  1.00  0.00     0.058 A 
ATOM     79  C   UNL A   1      43.442  22.640  25.564  1.00  0.00     0.135 A 
ATOM     80  C   UNL A   1      43.151  22.319  27.926  1.00  0.00     0.135 A 
ATOM     81  F   UNL A   1      43.740  23.417  24.511  1.00  0.00    -0.206 F 
ATOM     82  C   UNL A   1      43.087  21.316  25.327  1.00  0.00     0.059 A 
ATOM     83  C   UNL A   1      42.821  20.982  27.718  1.00  0.00     0.059 A 
ATOM     84  F   UNL A   1      43.187  22.773  29.188  1.00  0.00    -0.206 F 
ATOM     85  C   UNL A   1      42.781  20.494  26.413  1.00  0.00     0.060 A 
BRANCH  85  86
ATOM     86  S   UNL A   1      42.366  18.763  26.096  1.00  0.00     0.124 S 
ATOM     87  O   UNL A   1      40.967  18.866  25.700  1.00  0.00    -0.237 OA
ATOM     88  O   UNL A   1      43.307  18.414  25.036  1.00  0.00    -0.237 OA
ATOM     89  O   UNL A   1      42.613  18.119  27.382  1.00  0.00    -0.744 OA
ENDBRANCH  85  86
ENDBRANCH  53  78
BRANCH  65  90
ATOM     90  C   UNL A   1      49.556  26.601  26.771  1.00  0.00     0.058 A 
ATOM     91  C   UNL A   1      50.110  26.545  25.484  1.00  0.00     0.135 A 
ATOM     92  C   UNL A   1      50.385  26.284  27.861  1.00  0.00     0.135 A 
ATOM     93  F   UNL A   1      49.358  26.834  24.410  1.00  0.00    -0.206 F 
ATOM     94  C   UNL A   1      51.432  26.167  25.281  1.00  0.00     0.059 A 
ATOM     95  C   UNL A   1      51.718  25.935  27.684  1.00  0.00     0.059 A 
ATOM     96  F   UNL A   1      49.905  26.336  29.113  1.00  0.00    -0.206 F 
ATOM     97  C   UNL A   1      52.230  25.868  26.388  1.00  0.00     0.060 A 
BRANCH  97  98
ATOM     98  S   UNL A   1      53.954  25.417  26.112  1.00  0.00     0.124 S 
ATOM     99  O   UNL A   1      54.444  25.278  27.479  1.00  0.00    -0.237 OA
ATOM    100  O   UNL A   1      53.833  24.178  25.351  1.00  0.00    -0.237 OA
ATOM    101  O   UNL A   1      54.487  26.554  25.366  1.00  0.00    -0.744 OA
ENDBRANCH  97  98
ENDBRANCH  65  90
ENDBRANCH  39  40
ENDBRANCH  31  34
ENDBRANCH  29  30
ENDBRANCH  28  29
ENDBRANCH  27  28
ENDBRANCH   1  27
TORSDOF 19
ENDMDL
MODEL 2
REMARK VINA RESULT:     -11.4      6.475     12.084
REMARK SMILES C[C@H]1[C@H](C(=O)NCCCCCCNC(=O)c2ccc(-c3c4nc(c(-c5c(F)cc(S(=O)(=O)[O-])cc5F)c5ccc([nH]5)c(-c5c(F)cc(S(=O)(=O)[O-])cc5F)c5nc(c(-c6c(F)cc(S(=O)(=O)[O-])cc6F)c6ccc3[nH]6)C=C5)C=C4)cc2)CC[N@@H+]1Cc1cnn(-c2ccccc2)c1
REMARK SMILES IDX 9 1 8 2 7 3 6 4 4 5 5 6 3 8 1 9 2 10 84 11 82 12 83 13 85 15
REMARK SMILES IDX 86 16 87 17 96 18 88 19 89 20 90 21 91 22 95 23 92 24 94 25
REMARK SMILES IDX 93 26 10 27 11 28 12 29 13 30 14 31 15 33 16 34 17 35 81 36
REMARK SMILES IDX 18 37 80 38 19 39 20 40 21 41 74 42 22 43 79 44 73 45 75 46
REMARK SMILES IDX 23 47 78 48 72 49 71 50 24 52 58 53 37 54 57 55 38 56 41 57
REMARK SMILES IDX 56 58 76 59 39 60 40 61 55 63 77 64 42 65 25 66 26 67 35 68
REMARK SMILES IDX 27 69 28 70 34 71 36 72 29 73 30 74 31 75 32 76 33 77 59 78
REMARK SMILES IDX 60 79 69 80 61 81 62 82 68 83 70 84 63 85 64 86 65 87 66 88
REMARK SMILES IDX 67 89 43 90 44 91 53 92 45 93 46 94 52 95 54 96 47 97 48 98
REMARK SMILES IDX 49 99 50 100 51 101
REMARK H PARENT 6 7 84 14 13 32 75 51 41 62
REMARK Flexibility Score: inf
ROOT
ATOM      1  C   UNL A   1      39.291  23.282  27.139  1.00  0.00     0.002 C 
ENDROOT
BRANCH   1   2
ATOM      2  C   UNL A   1      38.147  23.352  26.104  1.00  0.00     0.021 C 
BRANCH   2   3
ATOM      3  C   UNL A   1      37.802  22.015  25.441  1.00  0.00     0.116 C 
BRANCH   3   4
ATOM      4  N   UNL A   1      37.293  22.050  24.092  1.00  0.00    -0.356 N 
ATOM      5  C   UNL A   1      36.123  22.626  23.686  1.00  0.00     0.229 C 
ATOM      6  O   UNL A   1      36.153  23.246  22.616  1.00  0.00    -0.275 OA
ATOM      7  H   UNL A   1      37.840  21.617  23.398  1.00  0.00     0.163 HD
BRANCH   5   8
ATOM      8  C   UNL A   1      34.795  22.479  24.430  1.00  0.00     0.142 C 
ATOM      9  C   UNL A   1      34.388  23.196  26.779  1.00  0.00     0.076 C 
ATOM     10  C   UNL A   1      34.272  23.630  25.302  1.00  0.00     0.193 C 
ATOM     11  N   UNL A   1      32.850  23.821  24.934  1.00  0.00    -0.328 N 
ATOM     12  C   UNL A   1      33.605  22.044  23.580  1.00  0.00     0.081 C 
ATOM     13  C   UNL A   1      32.402  22.556  24.365  1.00  0.00     0.263 C 
ATOM     14  H   UNL A   1      32.341  24.057  25.787  1.00  0.00     0.348 HD
BRANCH  11  15
ATOM     15  C   UNL A   1      32.466  25.030  24.167  1.00  0.00     0.302 C 
BRANCH  15  16
ATOM     16  C   UNL A   1      32.280  26.331  24.916  1.00  0.00     0.045 A 
ATOM     17  C   UNL A   1      31.233  27.290  24.902  1.00  0.00     0.145 A 
ATOM     18  C   UNL A   1      33.072  26.828  25.932  1.00  0.00     0.124 A 
ATOM     19  N   UNL A   1      31.486  28.383  25.637  1.00  0.00    -0.176 NA
ATOM     20  N   UNL A   1      32.664  28.109  26.223  1.00  0.00    -0.240 N 
BRANCH  20  21
ATOM     21  C   UNL A   1      33.402  29.051  26.980  1.00  0.00     0.065 A 
ATOM     22  C   UNL A   1      34.771  28.848  27.152  1.00  0.00     0.028 A 
ATOM     23  C   UNL A   1      32.832  30.302  27.270  1.00  0.00     0.028 A 
ATOM     24  C   UNL A   1      35.582  29.917  27.551  1.00  0.00     0.002 A 
ATOM     25  C   UNL A   1      33.655  31.375  27.633  1.00  0.00     0.002 A 
ATOM     26  C   UNL A   1      35.032  31.185  27.755  1.00  0.00     0.000 A 
ENDBRANCH  20  21
ENDBRANCH  15  16
ENDBRANCH  11  15
ENDBRANCH   5   8
ENDBRANCH   3   4
ENDBRANCH   2   3
ENDBRANCH   1   2
BRANCH   1  27
ATOM     27  C   UNL A   1      40.482  22.386  26.792  1.00  0.00     0.002 C 
BRANCH  27  28
ATOM     28  C   UNL A   1      41.630  22.330  27.793  1.00  0.00     0.021 C 
BRANCH  28  29
ATOM     29  C   UNL A   1      42.583  23.506  27.715  1.00  0.00     0.116 C 
BRANCH  29  30
ATOM     30  N   UNL A   1      42.505  24.214  26.438  1.00  0.00    -0.352 N 
ATOM     31  C   UNL A   1      42.018  25.462  26.118  1.00  0.00     0.251 C 
ATOM     32  H   UNL A   1      42.865  23.711  25.672  1.00  0.00     0.163 HD
ATOM     33  O   UNL A   1      41.877  25.775  24.943  1.00  0.00    -0.269 OA
BRANCH  31  34
ATOM     34  C   UNL A   1      41.646  26.408  27.194  1.00  0.00     0.039 A 
ATOM     35  C   UNL A   1      40.615  26.092  28.082  1.00  0.00     0.014 A 
ATOM     36  C   UNL A   1      42.336  27.608  27.335  1.00  0.00     0.014 A 
ATOM     37  C   UNL A   1      40.343  26.948  29.154  1.00  0.00     0.010 A 
ATOM     38  C   UNL A   1      42.191  28.352  28.491  1.00  0.00     0.010 A 
ATOM     39  C   UNL A   1      41.164  28.061  29.394  1.00  0.00    -0.014 A 
BRANCH  39  40
ATOM     40  C   UNL A   1      40.952  28.988  30.536  1.00  0.00     0.031 A 
ATOM     41  C   UNL A   1      41.812  28.845  31.770  1.00  0.00     0.074 A 
ATOM     42  C   UNL A   1      39.938  29.875  30.506  1.00  0.00     0.049 A 
ATOM     43  N   UNL A   1      41.697  29.432  32.933  1.00  0.00    -0.248 NA
ATOM     44  C   UNL A   1      42.908  27.860  31.711  1.00  0.00     0.031 C 
ATOM     45  C   UNL A   1      38.991  30.049  29.401  1.00  0.00     0.029 A 
ATOM     46  N   UNL A   1      39.525  30.792  31.437  1.00  0.00    -0.354 N 
ATOM     47  C   UNL A   1      42.669  28.854  33.743  1.00  0.00     0.074 A 
ATOM     48  C   UNL A   1      43.298  27.806  32.974  1.00  0.00     0.031 C 
ATOM     49  C   UNL A   1      38.142  31.046  29.698  1.00  0.00     0.029 A 
ATOM     50  C   UNL A   1      38.449  31.547  31.033  1.00  0.00     0.049 A 
ATOM     51  H   UNL A   1      39.959  30.900  32.315  1.00  0.00     0.167 HD
ATOM     52  C   UNL A   1      43.041  29.196  34.998  1.00  0.00     0.037 A 
ATOM     53  C   UNL A   1      37.789  32.533  31.670  1.00  0.00     0.037 A 
ATOM     54  C   UNL A   1      42.457  30.292  35.719  1.00  0.00     0.049 A 
ATOM     55  C   UNL A   1      38.246  32.929  33.048  1.00  0.00     0.074 A 
ATOM     56  C   UNL A   1      42.808  30.794  36.959  1.00  0.00     0.029 A 
ATOM     57  N   UNL A   1      41.405  31.069  35.252  1.00  0.00    -0.354 N 
ATOM     58  N   UNL A   1      39.215  32.420  33.773  1.00  0.00    -0.248 NA
ATOM     59  C   UNL A   1      37.531  34.038  33.692  1.00  0.00     0.031 C 
ATOM     60  C   UNL A   1      41.938  31.845  37.262  1.00  0.00     0.029 A 
ATOM     61  C   UNL A   1      41.081  32.035  36.187  1.00  0.00     0.049 A 
ATOM     62  H   UNL A   1      40.957  30.950  34.384  1.00  0.00     0.167 HD
ATOM     63  C   UNL A   1      39.241  33.161  34.949  1.00  0.00     0.074 A 
ATOM     64  C   UNL A   1      38.202  34.166  34.828  1.00  0.00     0.031 C 
ATOM     65  C   UNL A   1      40.046  33.026  36.032  1.00  0.00     0.037 A 
BRANCH  52  66
ATOM     66  C   UNL A   1      44.143  28.398  35.646  1.00  0.00     0.058 A 
ATOM     67  C   UNL A   1      43.880  27.220  36.366  1.00  0.00     0.135 A 
ATOM     68  C   UNL A   1      45.481  28.809  35.539  1.00  0.00     0.135 A 
ATOM     69  F   UNL A   1      42.618  26.786  36.520  1.00  0.00    -0.206 F 
ATOM     70  C   UNL A   1      44.895  26.505  36.992  1.00  0.00     0.059 A 
ATOM     71  C   UNL A   1      46.518  28.089  36.126  1.00  0.00     0.059 A 
ATOM     72  F   UNL A   1      45.794  29.927  34.864  1.00  0.00    -0.206 F 
ATOM     73  C   UNL A   1      46.213  26.948  36.866  1.00  0.00     0.060 A 
BRANCH  73  74
ATOM     74  S   UNL A   1      47.517  26.004  37.682  1.00  0.00     0.124 S 
ATOM     75  O   UNL A   1      46.975  25.865  39.031  1.00  0.00    -0.237 OA
ATOM     76  O   UNL A   1      47.559  24.780  36.888  1.00  0.00    -0.237 OA
ATOM     77  O   UNL A   1      48.687  26.868  37.562  1.00  0.00    -0.744 OA
ENDBRANCH  73  74
ENDBRANCH  52  66
BRANCH  53  78
ATOM     78  C   UNL A   1      36.663  33.236  30.996  1.00  0.00     0.058 A 
ATOM     79  C   UNL A   1      36.898  34.095  29.912  1.00  0.00     0.135 A 
ATOM     80  C   UNL A   1      35.332  33.045  31.398  1.00  0.00     0.135 A 
ATOM     81  F   UNL A   1      38.153  34.313  29.489  1.00  0.00    -0.206 F 
ATOM     82  C   UNL A   1      35.860  34.757  29.264  1.00  0.00     0.059 A 
ATOM     83  C   UNL A   1      34.273  33.673  30.748  1.00  0.00     0.059 A 
ATOM     84  F   UNL A   1      35.049  32.216  32.415  1.00  0.00    -0.206 F 
ATOM     85  C   UNL A   1      34.549  34.536  29.689  1.00  0.00     0.060 A 
BRANCH  85  86
ATOM     86  S   UNL A   1      33.205  35.365  28.810  1.00  0.00     0.124 S 
ATOM     87  O   UNL A   1      32.451  35.950  29.912  1.00  0.00    -0.237 OA
ATOM     88  O   UNL A   1      33.930  36.306  27.961  1.00  0.00    -0.237 OA
ATOM     89  O   UNL A   1      32.544  34.273  28.102  1.00  0.00    -0.744 OA
ENDBRANCH  85  86
ENDBRANCH  53  78
BRANCH  65  90
ATOM     90  C   UNL A   1      39.856  34.003  37.157  1.00  0.00     0.058 A 
ATOM     91  C   UNL A   1      40.404  35.294  37.111  1.00  0.00     0.135 A 
ATOM     92  C   UNL A   1      39.060  33.663  38.264  1.00  0.00     0.135 A 
ATOM     93  F   UNL A   1      41.174  35.665  36.077  1.00  0.00    -0.206 F 
ATOM     94  C   UNL A   1      40.189  36.208  38.136  1.00  0.00     0.059 A 
ATOM     95  C   UNL A   1      38.806  34.572  39.284  1.00  0.00     0.059 A 
ATOM     96  F   UNL A   1      38.503  32.445  38.347  1.00  0.00    -0.206 F 
ATOM     97  C   UNL A   1      39.384  35.839  39.217  1.00  0.00     0.060 A 
BRANCH  97  98
ATOM     98  S   UNL A   1      39.083  37.049  40.519  1.00  0.00     0.124 S 
ATOM     99  O   UNL A   1      38.506  38.157  39.764  1.00  0.00    -0.237 OA
ATOM    100  O   UNL A   1      38.164  36.335  41.400  1.00  0.00    -0.237 OA
ATOM    101  O   UNL A   1      40.412  37.290  41.073  1.00  0.00    -0.744 OA
ENDBRANCH  97  98
ENDBRANCH  65  90
ENDBRANCH  39  40
ENDBRANCH  31  34
ENDBRANCH  29  30
ENDBRANCH  28  29
ENDBRANCH  27  28
ENDBRANCH   1  27
TORSDOF 19
ENDMDL
MODEL 3
REMARK VINA RESULT:     -11.4      1.326      2.631
REMARK SMILES C[C@H]1[C@H](C(=O)NCCCCCCNC(=O)c2ccc(-c3c4nc(c(-c5c(F)cc(S(=O)(=O)[O-])cc5F)c5ccc([nH]5)c(-c5c(F)cc(S(=O)(=O)[O-])cc5F)c5nc(c(-c6c(F)cc(S(=O)(=O)[O-])cc6F)c6ccc3[nH]6)C=C5)C=C4)cc2)CC[N@@H+]1Cc1cnn(-c2ccccc2)c1
REMARK SMILES IDX 9 1 8 2 7 3 6 4 4 5 5 6 3 8 1 9 2 10 84 11 82 12 83 13 85 15
REMARK SMILES IDX 86 16 87 17 96 18 88 19 89 20 90 21 91 22 95 23 92 24 94 25
REMARK SMILES IDX 93 26 10 27 11 28 12 29 13 30 14 31 15 33 16 34 17 35 81 36
REMARK SMILES IDX 18 37 80 38 19 39 20 40 21 41 74 42 22 43 79 44 73 45 75 46
REMARK SMILES IDX 23 47 78 48 72 49 71 50 24 52 58 53 37 54 57 55 38 56 41 57
REMARK SMILES IDX 56 58 76 59 39 60 40 61 55 63 77 64 42 65 25 66 26 67 35 68
REMARK SMILES IDX 27 69 28 70 34 71 36 72 29 73 30 74 31 75 32 76 33 77 59 78
REMARK SMILES IDX 60 79 69 80 61 81 62 82 68 83 70 84 63 85 64 86 65 87 66 88
REMARK SMILES IDX 67 89 43 90 44 91 53 92 45 93 46 94 52 95 54 96 47 97 48 98
REMARK SMILES IDX 49 99 50 100 51 101
REMARK H PARENT 6 7 84 14 13 32 75 51 41 62
REMARK Flexibility Score: inf
ROOT
ATOM      1  C   UNL A   1      32.538  29.806  25.383  1.00  0.00     0.002 C 
ENDROOT
BRANCH   1   2
ATOM      2  C   UNL A   1      31.014  29.699  25.154  1.00  0.00     0.021 C 
BRANCH   2   3
ATOM      3  C   UNL A   1      30.606  29.382  23.712  1.00  0.00     0.116 C 
BRANCH   3   4
ATOM      4  N   UNL A   1      30.000  28.098  23.455  1.00  0.00    -0.356 N 
ATOM      5  C   UNL A   1      30.507  26.881  23.812  1.00  0.00     0.229 C 
ATOM      6  O   UNL A   1      29.698  26.048  24.240  1.00  0.00    -0.275 OA
ATOM      7  H   UNL A   1      29.140  28.099  22.978  1.00  0.00     0.163 HD
BRANCH   5   8
ATOM      8  C   UNL A   1      31.973  26.482  23.640  1.00  0.00     0.142 C 
ATOM      9  C   UNL A   1      33.510  25.858  25.497  1.00  0.00     0.076 C 
ATOM     10  C   UNL A   1      32.545  25.296  24.431  1.00  0.00     0.193 C 
ATOM     11  N   UNL A   1      33.286  24.462  23.457  1.00  0.00    -0.328 N 
ATOM     12  C   UNL A   1      32.437  26.269  22.203  1.00  0.00     0.081 C 
ATOM     13  C   UNL A   1      33.638  25.343  22.351  1.00  0.00     0.263 C 
ATOM     14  H   UNL A   1      34.112  24.096  23.932  1.00  0.00     0.348 HD
BRANCH  11  15
ATOM     15  C   UNL A   1      32.721  23.149  23.064  1.00  0.00     0.302 C 
BRANCH  15  16
ATOM     16  C   UNL A   1      33.226  21.907  23.764  1.00  0.00     0.045 A 
ATOM     17  C   UNL A   1      34.375  21.673  24.565  1.00  0.00     0.145 A 
ATOM     18  C   UNL A   1      32.569  20.699  23.894  1.00  0.00     0.124 A 
ATOM     19  N   UNL A   1      34.536  20.391  24.925  1.00  0.00    -0.176 NA
ATOM     20  N   UNL A   1      33.436  19.784  24.447  1.00  0.00    -0.240 N 
BRANCH  20  21
ATOM     21  C   UNL A   1      33.245  18.381  24.460  1.00  0.00     0.065 A 
ATOM     22  C   UNL A   1      34.006  17.592  23.597  1.00  0.00     0.028 A 
ATOM     23  C   UNL A   1      32.549  17.789  25.527  1.00  0.00     0.028 A 
ATOM     24  C   UNL A   1      34.124  16.219  23.841  1.00  0.00     0.002 A 
ATOM     25  C   UNL A   1      32.703  16.422  25.787  1.00  0.00     0.002 A 
ATOM     26  C   UNL A   1      33.505  15.643  24.953  1.00  0.00     0.000 A 
ENDBRANCH  20  21
ENDBRANCH  15  16
ENDBRANCH  11  15
ENDBRANCH   5   8
ENDBRANCH   3   4
ENDBRANCH   2   3
ENDBRANCH   1   2
BRANCH   1  27
ATOM     27  C   UNL A   1      33.004  30.099  26.811  1.00  0.00     0.002 C 
BRANCH  27  28
ATOM     28  C   UNL A   1      34.302  29.448  27.271  1.00  0.00     0.021 C 
BRANCH  28  29
ATOM     29  C   UNL A   1      35.351  30.426  27.760  1.00  0.00     0.116 C 
BRANCH  29  30
ATOM     30  N   UNL A   1      35.376  30.548  29.217  1.00  0.00    -0.352 N 
ATOM     31  C   UNL A   1      36.306  30.141  30.148  1.00  0.00     0.251 C 
ATOM     32  H   UNL A   1      34.591  31.003  29.600  1.00  0.00     0.163 HD
ATOM     33  O   UNL A   1      36.027  30.178  31.339  1.00  0.00    -0.269 OA
BRANCH  31  34
ATOM     34  C   UNL A   1      37.626  29.641  29.704  1.00  0.00     0.039 A 
ATOM     35  C   UNL A   1      38.035  29.817  28.380  1.00  0.00     0.014 A 
ATOM     36  C   UNL A   1      38.473  29.011  30.611  1.00  0.00     0.014 A 
ATOM     37  C   UNL A   1      39.325  29.431  28.000  1.00  0.00     0.010 A 
ATOM     38  C   UNL A   1      39.799  28.802  30.282  1.00  0.00     0.010 A 
ATOM     39  C   UNL A   1      40.234  28.966  28.964  1.00  0.00    -0.014 A 
BRANCH  39  40
ATOM     40  C   UNL A   1      41.629  28.574  28.633  1.00  0.00     0.031 A 
ATOM     41  C   UNL A   1      42.711  29.629  28.642  1.00  0.00     0.074 A 
ATOM     42  C   UNL A   1      41.900  27.317  28.232  1.00  0.00     0.049 A 
ATOM     43  N   UNL A   1      43.951  29.547  28.234  1.00  0.00    -0.248 NA
ATOM     44  C   UNL A   1      42.329  30.975  29.108  1.00  0.00     0.031 C 
ATOM     45  C   UNL A   1      40.921  26.233  28.106  1.00  0.00     0.029 A 
ATOM     46  N   UNL A   1      43.080  26.738  27.843  1.00  0.00    -0.354 N 
ATOM     47  C   UNL A   1      44.470  30.832  28.355  1.00  0.00     0.074 A 
ATOM     48  C   UNL A   1      43.391  31.692  28.777  1.00  0.00     0.031 C 
ATOM     49  C   UNL A   1      41.551  25.111  27.720  1.00  0.00     0.029 A 
ATOM     50  C   UNL A   1      42.965  25.406  27.521  1.00  0.00     0.049 A 
ATOM     51  H   UNL A   1      43.932  27.231  27.799  1.00  0.00     0.167 HD
ATOM     52  C   UNL A   1      45.744  31.253  28.178  1.00  0.00     0.037 A 
ATOM     53  C   UNL A   1      43.898  24.526  27.112  1.00  0.00     0.037 A 
ATOM     54  C   UNL A   1      46.823  30.368  27.833  1.00  0.00     0.049 A 
ATOM     55  C   UNL A   1      45.318  25.001  26.964  1.00  0.00     0.074 A 
ATOM     56  C   UNL A   1      48.170  30.656  27.714  1.00  0.00     0.029 A 
ATOM     57  N   UNL A   1      46.674  29.013  27.569  1.00  0.00    -0.354 N 
ATOM     58  N   UNL A   1      45.808  26.205  27.151  1.00  0.00    -0.248 NA
ATOM     59  C   UNL A   1      46.315  24.002  26.560  1.00  0.00     0.031 C 
ATOM     60  C   UNL A   1      48.829  29.485  27.331  1.00  0.00     0.029 A 
ATOM     61  C   UNL A   1      47.902  28.454  27.266  1.00  0.00     0.049 A 
ATOM     62  H   UNL A   1      45.821  28.524  27.592  1.00  0.00     0.167 HD
ATOM     63  C   UNL A   1      47.173  26.103  26.910  1.00  0.00     0.074 A 
ATOM     64  C   UNL A   1      47.433  24.714  26.583  1.00  0.00     0.031 C 
ATOM     65  C   UNL A   1      48.128  27.066  26.953  1.00  0.00     0.037 A 
BRANCH  52  66
ATOM     66  C   UNL A   1      46.036  32.716  28.385  1.00  0.00     0.058 A 
ATOM     67  C   UNL A   1      46.383  33.231  29.646  1.00  0.00     0.135 A 
ATOM     68  C   UNL A   1      45.977  33.616  27.309  1.00  0.00     0.135 A 
ATOM     69  F   UNL A   1      46.438  32.423  30.717  1.00  0.00    -0.206 F 
ATOM     70  C   UNL A   1      46.618  34.588  29.841  1.00  0.00     0.059 A 
ATOM     71  C   UNL A   1      46.244  34.973  27.474  1.00  0.00     0.059 A 
ATOM     72  F   UNL A   1      45.649  33.183  26.082  1.00  0.00    -0.206 F 
ATOM     73  C   UNL A   1      46.546  35.452  28.747  1.00  0.00     0.060 A 
BRANCH  73  74
ATOM     74  S   UNL A   1      46.857  37.209  29.019  1.00  0.00     0.124 S 
ATOM     75  O   UNL A   1      46.502  37.353  30.428  1.00  0.00    -0.237 OA
ATOM     76  O   UNL A   1      48.279  37.324  28.711  1.00  0.00    -0.237 OA
ATOM     77  O   UNL A   1      45.958  37.864  28.076  1.00  0.00    -0.744 OA
ENDBRANCH  73  74
ENDBRANCH  52  66
BRANCH  53  78
ATOM     78  C   UNL A   1      43.527  23.107  26.859  1.00  0.00     0.058 A 
ATOM     79  C   UNL A   1      43.177  22.255  27.918  1.00  0.00     0.135 A 
ATOM     80  C   UNL A   1      43.486  22.578  25.559  1.00  0.00     0.135 A 
ATOM     81  F   UNL A   1      43.202  22.711  29.180  1.00  0.00    -0.206 F 
ATOM     82  C   UNL A   1      42.821  20.928  27.703  1.00  0.00     0.059 A 
ATOM     83  C   UNL A   1      43.105  21.261  25.315  1.00  0.00     0.059 A 
ATOM     84  F   UNL A   1      43.789  23.355  24.508  1.00  0.00    -0.206 F 
ATOM     85  C   UNL A   1      42.785  20.441  26.395  1.00  0.00     0.060 A 
BRANCH  85  86
ATOM     86  S   UNL A   1      42.276  18.728  26.125  1.00  0.00     0.124 S 
ATOM     87  O   UNL A   1      43.200  18.311  25.076  1.00  0.00    -0.237 OA
ATOM     88  O   UNL A   1      42.493  18.134  27.441  1.00  0.00    -0.237 OA
ATOM     89  O   UNL A   1      40.879  18.853  25.723  1.00  0.00    -0.744 OA
ENDBRANCH  85  86
ENDBRANCH  53  78
BRANCH  65  90
ATOM     90  C   UNL A   1      49.542  26.646  26.668  1.00  0.00     0.058 A 
ATOM     91  C   UNL A   1      50.380  26.149  27.677  1.00  0.00     0.135 A 
ATOM     92  C   UNL A   1      50.040  26.681  25.355  1.00  0.00     0.135 A 
ATOM     93  F   UNL A   1      49.951  26.100  28.949  1.00  0.00    -0.206 F 
ATOM     94  C   UNL A   1      51.673  25.723  27.400  1.00  0.00     0.059 A 
ATOM     95  C   UNL A   1      51.318  26.230  25.049  1.00  0.00     0.059 A 
ATOM     96  F   UNL A   1      49.272  27.134  24.352  1.00  0.00    -0.206 F 
ATOM     97  C   UNL A   1      52.132  25.763  26.081  1.00  0.00     0.060 A 
BRANCH  97  98
ATOM     98  S   UNL A   1      53.798  25.170  25.730  1.00  0.00     0.124 S 
ATOM     99  O   UNL A   1      54.194  26.039  24.626  1.00  0.00    -0.237 OA
ATOM    100  O   UNL A   1      54.484  25.402  26.998  1.00  0.00    -0.237 OA
ATOM    101  O   UNL A   1      53.594  23.767  25.383  1.00  0.00    -0.744 OA
ENDBRANCH  97  98
ENDBRANCH  65  90
ENDBRANCH  39  40
ENDBRANCH  31  34
ENDBRANCH  29  30
ENDBRANCH  28  29
ENDBRANCH  27  28
ENDBRANCH   1  27
TORSDOF 19
ENDMDL
