MODEL 1
REMARK VINA RESULT:     -12.1      0.000      0.000
REMARK SMILES O=C(NCCCCCCNC(=O)c1cc(-c2cccc(C(F)(F)F)c2)nc2c(F)cccc12)c1ccc(-c2c3nc(c(-c4c(F)cc(S(=O)(=O)[O-])cc4F)c4ccc([nH]4)c(-c4c(F)cc(S(=O)(=O)[O-])cc4F)c4nc(c(-c5c(F)cc(S(=O)(=O)[O-])cc5F)c5ccc2[nH]5)C=C4)C=C3)cc1
REMARK SMILES IDX 6 1 5 2 4 3 3 4 1 5 2 6 34 8 35 9 99 10 36 11 98 12 37 13
REMARK SMILES IDX 38 14 39 15 92 16 40 17 97 18 91 19 93 20 41 21 96 22 90 23
REMARK SMILES IDX 89 24 42 26 76 27 55 28 75 29 56 30 59 31 74 32 94 33 57 34
REMARK SMILES IDX 58 35 73 37 95 38 60 39 43 40 44 41 53 42 45 43 46 44 52 45
REMARK SMILES IDX 54 46 47 47 48 48 49 49 50 50 51 51 77 52 78 53 87 54 79 55
REMARK SMILES IDX 80 56 86 57 88 58 81 59 82 60 83 61 84 62 85 63 61 64 62 65
REMARK SMILES IDX 71 66 63 67 64 68 70 69 72 70 65 71 66 72 67 73 68 74 69 75
REMARK SMILES IDX 7 76 8 77 9 78 10 79 11 80 12 82 13 83 14 84 33 85 15 86
REMARK SMILES IDX 27 87 32 88 26 89 28 90 31 91 29 92 30 93 16 94 17 95 25 96
REMARK SMILES IDX 18 97 20 98 19 99 21 100 22 101 23 102 24 103
REMARK H PARENT 3 7 93 25 59 36 10 81
REMARK Flexibility Score: inf
ROOT
ATOM      1  C   UNL A   1      33.297  31.134  27.681  1.00  0.00     0.002 C 
ENDROOT
BRANCH   1   2
ATOM      2  C   UNL A   1      34.775  31.522  27.638  1.00  0.00     0.021 C 
BRANCH   2   3
ATOM      3  C   UNL A   1      35.719  30.548  28.328  1.00  0.00     0.116 C 
BRANCH   3   4
ATOM      4  N   UNL A   1      35.604  30.594  29.775  1.00  0.00    -0.352 N 
ATOM      5  O   UNL A   1      36.245  30.231  31.904  1.00  0.00    -0.269 OA
ATOM      6  C   UNL A   1      36.557  30.302  30.718  1.00  0.00     0.251 C 
ATOM      7  H   UNL A   1      34.726  30.870  30.124  1.00  0.00     0.163 HD
BRANCH   6   8
ATOM      8  C   UNL A   1      37.955  30.061  30.297  1.00  0.00     0.039 A 
ATOM      9  C   UNL A   1      38.897  29.571  31.207  1.00  0.00     0.014 A 
ATOM     10  C   UNL A   1      38.318  30.301  28.970  1.00  0.00     0.014 A 
ATOM     11  C   UNL A   1      40.221  29.411  30.815  1.00  0.00     0.010 A 
ATOM     12  C   UNL A   1      39.633  30.069  28.558  1.00  0.00     0.010 A 
ATOM     13  C   UNL A   1      40.595  29.625  29.478  1.00  0.00    -0.014 A 
BRANCH  13  14
ATOM     14  C   UNL A   1      41.956  29.238  29.034  1.00  0.00     0.031 A 
ATOM     15  C   UNL A   1      43.070  30.241  28.947  1.00  0.00     0.074 A 
ATOM     16  C   UNL A   1      42.163  27.951  28.688  1.00  0.00     0.049 A 
ATOM     17  N   UNL A   1      44.302  30.063  28.548  1.00  0.00    -0.248 NA
ATOM     18  C   UNL A   1      42.765  31.624  29.350  1.00  0.00     0.031 C 
ATOM     19  C   UNL A   1      41.139  26.901  28.708  1.00  0.00     0.029 A 
ATOM     20  N   UNL A   1      43.289  27.303  28.252  1.00  0.00    -0.354 N 
ATOM     21  C   UNL A   1      44.917  31.305  28.630  1.00  0.00     0.074 A 
ATOM     22  C   UNL A   1      43.920  32.237  29.110  1.00  0.00     0.031 C 
ATOM     23  C   UNL A   1      41.687  25.741  28.318  1.00  0.00     0.029 A 
ATOM     24  C   UNL A   1      43.080  25.975  27.963  1.00  0.00     0.049 A 
ATOM     25  H   UNL A   1      44.164  27.746  28.155  1.00  0.00     0.167 HD
ATOM     26  C   UNL A   1      46.199  31.628  28.331  1.00  0.00     0.037 A 
ATOM     27  C   UNL A   1      43.905  25.054  27.433  1.00  0.00     0.037 A 
ATOM     28  C   UNL A   1      47.186  30.680  27.877  1.00  0.00     0.049 A 
ATOM     29  C   UNL A   1      45.312  25.451  27.092  1.00  0.00     0.074 A 
ATOM     30  C   UNL A   1      48.532  30.893  27.636  1.00  0.00     0.029 A 
ATOM     31  N   UNL A   1      46.933  29.349  27.580  1.00  0.00    -0.354 N 
ATOM     32  N   UNL A   1      45.898  26.614  27.255  1.00  0.00    -0.248 NA
ATOM     33  C   UNL A   1      46.166  24.423  26.486  1.00  0.00     0.031 C 
ATOM     34  C   UNL A   1      49.082  29.707  27.140  1.00  0.00     0.029 A 
ATOM     35  C   UNL A   1      48.090  28.741  27.117  1.00  0.00     0.049 A 
ATOM     36  H   UNL A   1      46.063  28.902  27.684  1.00  0.00     0.167 HD
ATOM     37  C   UNL A   1      47.189  26.455  26.772  1.00  0.00     0.074 A 
ATOM     38  C   UNL A   1      47.309  25.077  26.341  1.00  0.00     0.031 C 
ATOM     39  C   UNL A   1      48.186  27.370  26.684  1.00  0.00     0.037 A 
BRANCH  26  40
ATOM     40  C   UNL A   1      46.629  33.062  28.467  1.00  0.00     0.058 A 
ATOM     41  C   UNL A   1      46.508  33.974  27.410  1.00  0.00     0.135 A 
ATOM     42  C   UNL A   1      47.056  33.555  29.713  1.00  0.00     0.135 A 
ATOM     43  F   UNL A   1      46.117  33.554  26.196  1.00  0.00    -0.206 F 
ATOM     44  C   UNL A   1      46.791  35.326  27.581  1.00  0.00     0.059 A 
ATOM     45  C   UNL A   1      47.327  34.906  29.912  1.00  0.00     0.059 A 
ATOM     46  F   UNL A   1      47.191  32.723  30.757  1.00  0.00    -0.206 F 
ATOM     47  C   UNL A   1      47.191  35.783  28.838  1.00  0.00     0.060 A 
BRANCH  47  48
ATOM     48  S   UNL A   1      47.499  37.551  29.055  1.00  0.00     0.124 S 
ATOM     49  O   UNL A   1      46.788  38.113  27.910  1.00  0.00    -0.237 OA
ATOM     50  O   UNL A   1      46.903  37.813  30.361  1.00  0.00    -0.237 OA
ATOM     51  O   UNL A   1      48.954  37.652  29.001  1.00  0.00    -0.744 OA
ENDBRANCH  47  48
ENDBRANCH  26  40
BRANCH  27  52
ATOM     52  C   UNL A   1      43.404  23.685  27.146  1.00  0.00     0.058 A 
ATOM     53  C   UNL A   1      43.397  22.690  28.132  1.00  0.00     0.135 A 
ATOM     54  C   UNL A   1      42.925  23.346  25.869  1.00  0.00     0.135 A 
ATOM     55  F   UNL A   1      43.846  22.965  29.367  1.00  0.00    -0.206 F 
ATOM     56  C   UNL A   1      42.957  21.398  27.859  1.00  0.00     0.059 A 
ATOM     57  C   UNL A   1      42.453  22.071  25.579  1.00  0.00     0.059 A 
ATOM     58  F   UNL A   1      42.892  24.269  24.895  1.00  0.00    -0.206 F 
ATOM     59  C   UNL A   1      42.490  21.098  26.577  1.00  0.00     0.060 A 
BRANCH  59  60
ATOM     60  S   UNL A   1      41.907  19.426  26.232  1.00  0.00     0.124 S 
ATOM     61  O   UNL A   1      42.637  19.110  25.011  1.00  0.00    -0.237 OA
ATOM     62  O   UNL A   1      42.320  18.701  27.429  1.00  0.00    -0.237 OA
ATOM     63  O   UNL A   1      40.465  19.600  26.081  1.00  0.00    -0.744 OA
ENDBRANCH  59  60
ENDBRANCH  27  52
BRANCH  39  64
ATOM     64  C   UNL A   1      49.488  26.908  26.096  1.00  0.00     0.058 A 
ATOM     65  C   UNL A   1      49.779  27.095  24.736  1.00  0.00     0.135 A 
ATOM     66  C   UNL A   1      50.470  26.316  26.905  1.00  0.00     0.135 A 
ATOM     67  F   UNL A   1      48.867  27.646  23.918  1.00  0.00    -0.206 F 
ATOM     68  C   UNL A   1      50.994  26.694  24.193  1.00  0.00     0.059 A 
ATOM     69  C   UNL A   1      51.702  25.931  26.388  1.00  0.00     0.059 A 
ATOM     70  F   UNL A   1      50.240  26.121  28.214  1.00  0.00    -0.206 F 
ATOM     71  C   UNL A   1      51.951  26.116  25.029  1.00  0.00     0.060 A 
BRANCH  71  72
ATOM     72  S   UNL A   1      53.541  25.638  24.320  1.00  0.00     0.124 S 
ATOM     73  O   UNL A   1      54.461  26.499  25.056  1.00  0.00    -0.237 OA
ATOM     74  O   UNL A   1      53.611  24.216  24.639  1.00  0.00    -0.237 OA
ATOM     75  O   UNL A   1      53.387  25.950  22.902  1.00  0.00    -0.744 OA
ENDBRANCH  71  72
ENDBRANCH  39  64
ENDBRANCH  13  14
ENDBRANCH   6   8
ENDBRANCH   3   4
ENDBRANCH   2   3
ENDBRANCH   1   2
BRANCH   1  76
ATOM     76  C   UNL A   1      32.699  30.641  26.361  1.00  0.00     0.002 C 
BRANCH  76  77
ATOM     77  C   UNL A   1      33.283  29.339  25.804  1.00  0.00     0.021 C 
BRANCH  77  78
ATOM     78  C   UNL A   1      33.545  28.248  26.836  1.00  0.00     0.116 C 
BRANCH  78  79
ATOM     79  N   UNL A   1      32.362  27.458  27.138  1.00  0.00    -0.352 N 
ATOM     80  C   UNL A   1      31.917  26.318  26.521  1.00  0.00     0.252 C 
ATOM     81  H   UNL A   1      31.810  27.785  27.885  1.00  0.00     0.163 HD
ATOM     82  O   UNL A   1      30.875  25.775  26.872  1.00  0.00    -0.269 OA
BRANCH  80  83
ATOM     83  C   UNL A   1      32.669  25.778  25.374  1.00  0.00     0.051 A 
ATOM     84  C   UNL A   1      33.742  24.952  25.696  1.00  0.00     0.043 A 
ATOM     85  C   UNL A   1      32.316  26.042  24.034  1.00  0.00     0.016 A 
ATOM     86  C   UNL A   1      34.440  24.365  24.660  1.00  0.00     0.072 A 
ATOM     87  C   UNL A   1      33.047  25.350  23.051  1.00  0.00     0.107 A 
ATOM     88  C   UNL A   1      31.282  26.933  23.642  1.00  0.00     0.011 A 
ATOM     89  N   UNL A   1      34.092  24.550  23.365  1.00  0.00    -0.245 NA
ATOM     90  C   UNL A   1      32.647  25.513  21.722  1.00  0.00     0.149 A 
ATOM     91  C   UNL A   1      30.915  27.074  22.307  1.00  0.00     0.004 A 
ATOM     92  F   UNL A   1      33.286  24.840  20.750  1.00  0.00    -0.205 F 
ATOM     93  C   UNL A   1      31.592  26.344  21.343  1.00  0.00     0.041 A 
BRANCH  86  94
ATOM     94  C   UNL A   1      35.628  23.539  24.903  1.00  0.00     0.001 A 
ATOM     95  C   UNL A   1      35.698  22.206  24.468  1.00  0.00     0.010 A 
ATOM     96  C   UNL A   1      36.715  24.060  25.627  1.00  0.00     0.023 A 
ATOM     97  C   UNL A   1      36.809  21.412  24.761  1.00  0.00     0.001 A 
ATOM     98  C   UNL A   1      37.831  23.268  25.946  1.00  0.00     0.056 A 
ATOM     99  C   UNL A   1      37.866  21.938  25.502  1.00  0.00     0.013 A 
BRANCH  98 100
ATOM    100  C   UNL A   1      38.964  23.818  26.773  1.00  0.00     0.416 C 
ATOM    101  F   UNL A   1      38.516  24.533  27.845  1.00  0.00    -0.166 F 
ATOM    102  F   UNL A   1      39.761  22.842  27.290  1.00  0.00    -0.166 F 
ATOM    103  F   UNL A   1      39.793  24.657  26.092  1.00  0.00    -0.166 F 
ENDBRANCH  98 100
ENDBRANCH  86  94
ENDBRANCH  80  83
ENDBRANCH  78  79
ENDBRANCH  77  78
ENDBRANCH  76  77
ENDBRANCH   1  76
TORSDOF 18
ENDMDL
MODEL 2
REMARK VINA RESULT:     -11.9      3.693      9.391
REMARK SMILES O=C(NCCCCCCNC(=O)c1cc(-c2cccc(C(F)(F)F)c2)nc2c(F)cccc12)c1ccc(-c2c3nc(c(-c4c(F)cc(S(=O)(=O)[O-])cc4F)c4ccc([nH]4)c(-c4c(F)cc(S(=O)(=O)[O-])cc4F)c4nc(c(-c5c(F)cc(S(=O)(=O)[O-])cc5F)c5ccc2[nH]5)C=C4)C=C3)cc1
REMARK SMILES IDX 6 1 5 2 4 3 3 4 1 5 2 6 34 8 35 9 99 10 36 11 98 12 37 13
REMARK SMILES IDX 38 14 39 15 92 16 40 17 97 18 91 19 93 20 41 21 96 22 90 23
REMARK SMILES IDX 89 24 42 26 76 27 55 28 75 29 56 30 59 31 74 32 94 33 57 34
REMARK SMILES IDX 58 35 73 37 95 38 60 39 43 40 44 41 53 42 45 43 46 44 52 45
REMARK SMILES IDX 54 46 47 47 48 48 49 49 50 50 51 51 77 52 78 53 87 54 79 55
REMARK SMILES IDX 80 56 86 57 88 58 81 59 82 60 83 61 84 62 85 63 61 64 62 65
REMARK SMILES IDX 71 66 63 67 64 68 70 69 72 70 65 71 66 72 67 73 68 74 69 75
REMARK SMILES IDX 7 76 8 77 9 78 10 79 11 80 12 82 13 83 14 84 33 85 15 86
REMARK SMILES IDX 27 87 32 88 26 89 28 90 31 91 29 92 30 93 16 94 17 95 25 96
REMARK SMILES IDX 18 97 20 98 19 99 21 100 22 101 23 102 24 103
REMARK H PARENT 3 7 93 25 59 36 10 81
REMARK Flexibility Score: inf
ROOT
ATOM      1  C   UNL A   1      34.040  24.679  25.417  1.00  0.00     0.002 C 
ENDROOT
BRANCH   1   2
ATOM      2  C   UNL A   1      35.037  23.656  25.960  1.00  0.00     0.021 C 
BRANCH   2   3
ATOM      3  C   UNL A   1      36.502  23.991  25.721  1.00  0.00     0.116 C 
BRANCH   3   4
ATOM      4  N   UNL A   1      37.380  22.864  25.985  1.00  0.00    -0.352 N 
ATOM      5  O   UNL A   1      39.332  21.839  26.446  1.00  0.00    -0.269 OA
ATOM      6  C   UNL A   1      38.676  22.877  26.435  1.00  0.00     0.251 C 
ATOM      7  H   UNL A   1      36.994  21.974  25.818  1.00  0.00     0.163 HD
BRANCH   6   8
ATOM      8  C   UNL A   1      39.282  24.148  26.891  1.00  0.00     0.039 A 
ATOM      9  C   UNL A   1      39.267  24.498  28.244  1.00  0.00     0.014 A 
ATOM     10  C   UNL A   1      39.895  24.984  25.955  1.00  0.00     0.014 A 
ATOM     11  C   UNL A   1      39.781  25.725  28.649  1.00  0.00     0.010 A 
ATOM     12  C   UNL A   1      40.478  26.183  26.374  1.00  0.00     0.010 A 
ATOM     13  C   UNL A   1      40.423  26.564  27.723  1.00  0.00    -0.014 A 
BRANCH  13  14
ATOM     14  C   UNL A   1      41.154  27.758  28.212  1.00  0.00     0.031 A 
ATOM     15  C   UNL A   1      42.647  27.867  28.099  1.00  0.00     0.074 A 
ATOM     16  C   UNL A   1      40.435  28.745  28.783  1.00  0.00     0.049 A 
ATOM     17  N   UNL A   1      43.430  28.832  28.506  1.00  0.00    -0.248 NA
ATOM     18  C   UNL A   1      43.359  26.751  27.454  1.00  0.00     0.031 C 
ATOM     19  C   UNL A   1      38.980  28.725  28.970  1.00  0.00     0.029 A 
ATOM     20  N   UNL A   1      40.817  29.950  29.314  1.00  0.00    -0.354 N 
ATOM     21  C   UNL A   1      44.724  28.438  28.191  1.00  0.00     0.074 A 
ATOM     22  C   UNL A   1      44.626  27.138  27.563  1.00  0.00     0.031 C 
ATOM     23  C   UNL A   1      38.593  29.867  29.557  1.00  0.00     0.029 A 
ATOM     24  C   UNL A   1      39.773  30.671  29.844  1.00  0.00     0.049 A 
ATOM     25  H   UNL A   1      41.749  30.267  29.317  1.00  0.00     0.167 HD
ATOM     26  C   UNL A   1      45.881  29.108  28.408  1.00  0.00     0.037 A 
ATOM     27  C   UNL A   1      39.766  31.834  30.521  1.00  0.00     0.037 A 
ATOM     28  C   UNL A   1      45.957  30.414  29.013  1.00  0.00     0.049 A 
ATOM     29  C   UNL A   1      41.069  32.538  30.765  1.00  0.00     0.074 A 
ATOM     30  C   UNL A   1      47.074  31.212  29.193  1.00  0.00     0.029 A 
ATOM     31  N   UNL A   1      44.882  31.106  29.552  1.00  0.00    -0.354 N 
ATOM     32  N   UNL A   1      42.275  32.186  30.385  1.00  0.00    -0.248 NA
ATOM     33  C   UNL A   1      41.018  33.785  31.537  1.00  0.00     0.031 C 
ATOM     34  C   UNL A   1      46.684  32.361  29.889  1.00  0.00     0.029 A 
ATOM     35  C   UNL A   1      45.317  32.301  30.102  1.00  0.00     0.049 A 
ATOM     36  H   UNL A   1      43.949  30.794  29.544  1.00  0.00     0.167 HD
ATOM     37  C   UNL A   1      43.125  33.171  30.871  1.00  0.00     0.074 A 
ATOM     38  C   UNL A   1      42.293  34.147  31.544  1.00  0.00     0.031 C 
ATOM     39  C   UNL A   1      44.474  33.255  30.777  1.00  0.00     0.037 A 
BRANCH  26  40
ATOM     40  C   UNL A   1      47.175  28.456  28.006  1.00  0.00     0.058 A 
ATOM     41  C   UNL A   1      47.865  27.590  28.867  1.00  0.00     0.135 A 
ATOM     42  C   UNL A   1      47.664  28.608  26.698  1.00  0.00     0.135 A 
ATOM     43  F   UNL A   1      47.447  27.419  30.131  1.00  0.00    -0.206 F 
ATOM     44  C   UNL A   1      48.993  26.894  28.444  1.00  0.00     0.059 A 
ATOM     45  C   UNL A   1      48.781  27.907  26.247  1.00  0.00     0.059 A 
ATOM     46  F   UNL A   1      47.042  29.427  25.835  1.00  0.00    -0.206 F 
ATOM     47  C   UNL A   1      49.438  27.052  27.130  1.00  0.00     0.060 A 
BRANCH  47  48
ATOM     48  S   UNL A   1      50.872  26.097  26.583  1.00  0.00     0.124 S 
ATOM     49  O   UNL A   1      50.628  26.002  25.147  1.00  0.00    -0.237 OA
ATOM     50  O   UNL A   1      51.985  26.952  26.981  1.00  0.00    -0.237 OA
ATOM     51  O   UNL A   1      50.749  24.845  27.323  1.00  0.00    -0.744 OA
ENDBRANCH  47  48
ENDBRANCH  26  40
BRANCH  27  52
ATOM     52  C   UNL A   1      38.492  32.373  31.061  1.00  0.00     0.058 A 
ATOM     53  C   UNL A   1      37.722  33.290  30.332  1.00  0.00     0.135 A 
ATOM     54  C   UNL A   1      38.020  31.980  32.324  1.00  0.00     0.135 A 
ATOM     55  F   UNL A   1      38.132  33.697  29.121  1.00  0.00    -0.206 F 
ATOM     56  C   UNL A   1      36.543  33.820  30.846  1.00  0.00     0.059 A 
ATOM     57  C   UNL A   1      36.830  32.473  32.847  1.00  0.00     0.059 A 
ATOM     58  F   UNL A   1      38.709  31.087  33.053  1.00  0.00    -0.206 F 
ATOM     59  C   UNL A   1      36.108  33.408  32.107  1.00  0.00     0.060 A 
BRANCH  59  60
ATOM     60  S   UNL A   1      34.570  34.087  32.763  1.00  0.00     0.124 S 
ATOM     61  O   UNL A   1      34.294  35.155  31.811  1.00  0.00    -0.237 OA
ATOM     62  O   UNL A   1      33.675  32.935  32.708  1.00  0.00    -0.237 OA
ATOM     63  O   UNL A   1      34.941  34.517  34.108  1.00  0.00    -0.744 OA
ENDBRANCH  59  60
ENDBRANCH  27  52
BRANCH  39  64
ATOM     64  C   UNL A   1      45.131  34.441  31.421  1.00  0.00     0.058 A 
ATOM     65  C   UNL A   1      45.286  35.652  30.730  1.00  0.00     0.135 A 
ATOM     66  C   UNL A   1      45.570  34.382  32.753  1.00  0.00     0.135 A 
ATOM     67  F   UNL A   1      44.895  35.755  29.449  1.00  0.00    -0.206 F 
ATOM     68  C   UNL A   1      45.870  36.761  31.331  1.00  0.00     0.059 A 
ATOM     69  C   UNL A   1      46.132  35.487  33.383  1.00  0.00     0.059 A 
ATOM     70  F   UNL A   1      45.439  33.246  33.458  1.00  0.00    -0.206 F 
ATOM     71  C   UNL A   1      46.287  36.669  32.661  1.00  0.00     0.060 A 
BRANCH  71  72
ATOM     72  S   UNL A   1      47.004  38.128  33.444  1.00  0.00     0.124 S 
ATOM     73  O   UNL A   1      46.909  39.114  32.371  1.00  0.00    -0.237 OA
ATOM     74  O   UNL A   1      46.117  38.342  34.582  1.00  0.00    -0.237 OA
ATOM     75  O   UNL A   1      48.358  37.699  33.783  1.00  0.00    -0.744 OA
ENDBRANCH  71  72
ENDBRANCH  39  64
ENDBRANCH  13  14
ENDBRANCH   6   8
ENDBRANCH   3   4
ENDBRANCH   2   3
ENDBRANCH   1   2
BRANCH   1  76
ATOM     76  C   UNL A   1      32.872  25.027  26.342  1.00  0.00     0.002 C 
BRANCH  76  77
ATOM     77  C   UNL A   1      31.551  24.305  26.057  1.00  0.00     0.021 C 
BRANCH  77  78
ATOM     78  C   UNL A   1      30.544  25.091  25.227  1.00  0.00     0.116 C 
BRANCH  78  79
ATOM     79  N   UNL A   1      30.917  25.185  23.825  1.00  0.00    -0.352 N 
ATOM     80  C   UNL A   1      31.210  26.306  23.093  1.00  0.00     0.252 C 
ATOM     81  H   UNL A   1      30.966  24.330  23.338  1.00  0.00     0.163 HD
ATOM     82  O   UNL A   1      31.481  26.229  21.899  1.00  0.00    -0.269 OA
BRANCH  80  83
ATOM     83  C   UNL A   1      31.130  27.629  23.737  1.00  0.00     0.051 A 
ATOM     84  C   UNL A   1      32.202  27.961  24.560  1.00  0.00     0.043 A 
ATOM     85  C   UNL A   1      30.063  28.525  23.516  1.00  0.00     0.016 A 
ATOM     86  C   UNL A   1      32.212  29.216  25.135  1.00  0.00     0.072 A 
ATOM     87  C   UNL A   1      30.193  29.801  24.095  1.00  0.00     0.107 A 
ATOM     88  C   UNL A   1      28.908  28.218  22.750  1.00  0.00     0.011 A 
ATOM     89  N   UNL A   1      31.235  30.121  24.898  1.00  0.00    -0.245 NA
ATOM     90  C   UNL A   1      29.201  30.742  23.804  1.00  0.00     0.149 A 
ATOM     91  C   UNL A   1      27.938  29.179  22.485  1.00  0.00     0.004 A 
ATOM     92  F   UNL A   1      29.303  31.987  24.299  1.00  0.00    -0.205 F 
ATOM     93  C   UNL A   1      28.096  30.455  23.002  1.00  0.00     0.041 A 
BRANCH  86  94
ATOM     94  C   UNL A   1      33.264  29.624  26.073  1.00  0.00     0.001 A 
ATOM     95  C   UNL A   1      34.268  28.732  26.485  1.00  0.00     0.010 A 
ATOM     96  C   UNL A   1      33.260  30.919  26.620  1.00  0.00     0.023 A 
ATOM     97  C   UNL A   1      35.226  29.115  27.426  1.00  0.00     0.001 A 
ATOM     98  C   UNL A   1      34.206  31.312  27.581  1.00  0.00     0.056 A 
ATOM     99  C   UNL A   1      35.191  30.395  27.977  1.00  0.00     0.013 A 
BRANCH  98 100
ATOM    100  C   UNL A   1      34.157  32.683  28.205  1.00  0.00     0.416 C 
ATOM    101  F   UNL A   1      34.133  32.627  29.567  1.00  0.00    -0.166 F 
ATOM    102  F   UNL A   1      35.242  33.445  27.889  1.00  0.00    -0.166 F 
ATOM    103  F   UNL A   1      33.067  33.417  27.847  1.00  0.00    -0.166 F 
ENDBRANCH  98 100
ENDBRANCH  86  94
ENDBRANCH  80  83
ENDBRANCH  78  79
ENDBRANCH  77  78
ENDBRANCH  76  77
ENDBRANCH   1  76
TORSDOF 18
ENDMDL
MODEL 3
REMARK VINA RESULT:     -11.9      4.600      6.226
REMARK SMILES O=C(NCCCCCCNC(=O)c1cc(-c2cccc(C(F)(F)F)c2)nc2c(F)cccc12)c1ccc(-c2c3nc(c(-c4c(F)cc(S(=O)(=O)[O-])cc4F)c4ccc([nH]4)c(-c4c(F)cc(S(=O)(=O)[O-])cc4F)c4nc(c(-c5c(F)cc(S(=O)(=O)[O-])cc5F)c5ccc2[nH]5)C=C4)C=C3)cc1
REMARK SMILES IDX 6 1 5 2 4 3 3 4 1 5 2 6 34 8 35 9 99 10 36 11 98 12 37 13
REMARK SMILES IDX 38 14 39 15 92 16 40 17 97 18 91 19 93 20 41 21 96 22 90 23
REMARK SMILES IDX 89 24 42 26 76 27 55 28 75 29 56 30 59 31 74 32 94 33 57 34
REMARK SMILES IDX 58 35 73 37 95 38 60 39 43 40 44 41 53 42 45 43 46 44 52 45
REMARK SMILES IDX 54 46 47 47 48 48 49 49 50 50 51 51 77 52 78 53 87 54 79 55
REMARK SMILES IDX 80 56 86 57 88 58 81 59 82 60 83 61 84 62 85 63 61 64 62 65
REMARK SMILES IDX 71 66 63 67 64 68 70 69 72 70 65 71 66 72 67 73 68 74 69 75
REMARK SMILES IDX 7 76 8 77 9 78 10 79 11 80 12 82 13 83 14 84 33 85 15 86
REMARK SMILES IDX 27 87 32 88 26 89 28 90 31 91 29 92 30 93 16 94 17 95 25 96
REMARK SMILES IDX 18 97 20 98 19 99 21 100 22 101 23 102 24 103
REMARK H PARENT 3 7 93 25 59 36 10 81
REMARK Flexibility Score: inf
ROOT
ATOM      1  C   UNL A   1      33.296  27.094  24.209  1.00  0.00     0.002 C 
ENDROOT
BRANCH   1   2
ATOM      2  C   UNL A   1      33.181  27.287  25.721  1.00  0.00     0.021 C 
BRANCH   2   3
ATOM      3  C   UNL A   1      34.337  28.037  26.367  1.00  0.00     0.116 C 
BRANCH   3   4
ATOM      4  N   UNL A   1      34.053  29.451  26.540  1.00  0.00    -0.352 N 
ATOM      5  O   UNL A   1      34.252  31.491  27.475  1.00  0.00    -0.269 OA
ATOM      6  C   UNL A   1      34.723  30.370  27.308  1.00  0.00     0.251 C 
ATOM      7  H   UNL A   1      33.277  29.795  26.041  1.00  0.00     0.163 HD
BRANCH   6   8
ATOM      8  C   UNL A   1      36.007  29.997  27.944  1.00  0.00     0.039 A 
ATOM      9  C   UNL A   1      37.217  30.187  27.270  1.00  0.00     0.014 A 
ATOM     10  C   UNL A   1      35.998  29.479  29.242  1.00  0.00     0.014 A 
ATOM     11  C   UNL A   1      38.408  29.772  27.854  1.00  0.00     0.010 A 
ATOM     12  C   UNL A   1      37.203  29.132  29.857  1.00  0.00     0.010 A 
ATOM     13  C   UNL A   1      38.417  29.273  29.167  1.00  0.00    -0.014 A 
BRANCH  13  14
ATOM     14  C   UNL A   1      39.715  29.044  29.848  1.00  0.00     0.031 A 
ATOM     15  C   UNL A   1      40.153  29.887  31.009  1.00  0.00     0.074 A 
ATOM     16  C   UNL A   1      40.507  28.059  29.377  1.00  0.00     0.049 A 
ATOM     17  N   UNL A   1      41.270  29.829  31.687  1.00  0.00    -0.248 NA
ATOM     18  C   UNL A   1      39.228  30.936  31.470  1.00  0.00     0.031 C 
ATOM     19  C   UNL A   1      40.187  27.199  28.231  1.00  0.00     0.029 A 
ATOM     20  N   UNL A   1      41.735  27.613  29.789  1.00  0.00    -0.354 N 
ATOM     21  C   UNL A   1      41.197  30.839  32.637  1.00  0.00     0.074 A 
ATOM     22  C   UNL A   1      39.927  31.505  32.447  1.00  0.00     0.031 C 
ATOM     23  C   UNL A   1      41.184  26.323  28.044  1.00  0.00     0.029 A 
ATOM     24  C   UNL A   1      42.238  26.595  29.012  1.00  0.00     0.049 A 
ATOM     25  H   UNL A   1      42.212  27.985  30.567  1.00  0.00     0.167 HD
ATOM     26  C   UNL A   1      42.112  31.172  33.580  1.00  0.00     0.037 A 
ATOM     27  C   UNL A   1      43.431  25.975  29.047  1.00  0.00     0.037 A 
ATOM     28  C   UNL A   1      43.362  30.480  33.772  1.00  0.00     0.049 A 
ATOM     29  C   UNL A   1      44.430  26.384  30.090  1.00  0.00     0.074 A 
ATOM     30  C   UNL A   1      44.313  30.684  34.757  1.00  0.00     0.029 A 
ATOM     31  N   UNL A   1      43.845  29.466  32.956  1.00  0.00    -0.354 N 
ATOM     32  N   UNL A   1      44.308  27.289  31.033  1.00  0.00    -0.248 NA
ATOM     33  C   UNL A   1      45.730  25.703  30.070  1.00  0.00     0.031 C 
ATOM     34  C   UNL A   1      45.395  29.834  34.505  1.00  0.00     0.029 A 
ATOM     35  C   UNL A   1      45.099  29.067  33.391  1.00  0.00     0.049 A 
ATOM     36  H   UNL A   1      43.367  29.088  32.183  1.00  0.00     0.167 HD
ATOM     37  C   UNL A   1      45.515  27.282  31.718  1.00  0.00     0.074 A 
ATOM     38  C   UNL A   1      46.342  26.264  31.103  1.00  0.00     0.031 C 
ATOM     39  C   UNL A   1      45.909  28.057  32.759  1.00  0.00     0.037 A 
BRANCH  26  40
ATOM     40  C   UNL A   1      41.822  32.338  34.483  1.00  0.00     0.058 A 
ATOM     41  C   UNL A   1      42.242  33.638  34.170  1.00  0.00     0.135 A 
ATOM     42  C   UNL A   1      41.008  32.167  35.616  1.00  0.00     0.135 A 
ATOM     43  F   UNL A   1      43.032  33.855  33.105  1.00  0.00    -0.206 F 
ATOM     44  C   UNL A   1      41.864  34.730  34.945  1.00  0.00     0.059 A 
ATOM     45  C   UNL A   1      40.602  33.247  36.396  1.00  0.00     0.059 A 
ATOM     46  F   UNL A   1      40.581  30.942  35.962  1.00  0.00    -0.206 F 
ATOM     47  C   UNL A   1      41.036  34.525  36.051  1.00  0.00     0.060 A 
BRANCH  47  48
ATOM     48  S   UNL A   1      40.509  35.962  37.012  1.00  0.00     0.124 S 
ATOM     49  O   UNL A   1      39.692  35.336  38.047  1.00  0.00    -0.237 OA
ATOM     50  O   UNL A   1      41.781  36.519  37.461  1.00  0.00    -0.237 OA
ATOM     51  O   UNL A   1      39.780  36.772  36.042  1.00  0.00    -0.744 OA
ENDBRANCH  47  48
ENDBRANCH  26  40
BRANCH  27  52
ATOM     52  C   UNL A   1      43.762  24.942  28.032  1.00  0.00     0.058 A 
ATOM     53  C   UNL A   1      44.205  25.296  26.751  1.00  0.00     0.135 A 
ATOM     54  C   UNL A   1      43.636  23.575  28.327  1.00  0.00     0.135 A 
ATOM     55  F   UNL A   1      44.340  26.590  26.421  1.00  0.00    -0.206 F 
ATOM     56  C   UNL A   1      44.487  24.333  25.787  1.00  0.00     0.059 A 
ATOM     57  C   UNL A   1      43.940  22.593  27.391  1.00  0.00     0.059 A 
ATOM     58  F   UNL A   1      43.236  23.183  29.547  1.00  0.00    -0.206 F 
ATOM     59  C   UNL A   1      44.348  22.983  26.116  1.00  0.00     0.060 A 
BRANCH  59  60
ATOM     60  S   UNL A   1      44.730  21.737  24.868  1.00  0.00     0.124 S 
ATOM     61  O   UNL A   1      46.142  21.487  25.130  1.00  0.00    -0.237 OA
ATOM     62  O   UNL A   1      43.813  20.657  25.219  1.00  0.00    -0.237 OA
ATOM     63  O   UNL A   1      44.430  22.419  23.613  1.00  0.00    -0.744 OA
ENDBRANCH  59  60
ENDBRANCH  27  52
BRANCH  39  64
ATOM     64  C   UNL A   1      47.295  27.834  33.291  1.00  0.00     0.058 A 
ATOM     65  C   UNL A   1      47.548  26.875  34.283  1.00  0.00     0.135 A 
ATOM     66  C   UNL A   1      48.385  28.552  32.775  1.00  0.00     0.135 A 
ATOM     67  F   UNL A   1      46.537  26.172  34.818  1.00  0.00    -0.206 F 
ATOM     68  C   UNL A   1      48.834  26.646  34.760  1.00  0.00     0.059 A 
ATOM     69  C   UNL A   1      49.683  28.321  33.217  1.00  0.00     0.059 A 
ATOM     70  F   UNL A   1      48.195  29.477  31.820  1.00  0.00    -0.206 F 
ATOM     71  C   UNL A   1      49.896  27.373  34.217  1.00  0.00     0.060 A 
BRANCH  71  72
ATOM     72  S   UNL A   1      51.566  27.037  34.814  1.00  0.00     0.124 S 
ATOM     73  O   UNL A   1      51.487  27.513  36.192  1.00  0.00    -0.237 OA
ATOM     74  O   UNL A   1      51.672  25.591  34.648  1.00  0.00    -0.237 OA
ATOM     75  O   UNL A   1      52.410  27.828  33.923  1.00  0.00    -0.744 OA
ENDBRANCH  71  72
ENDBRANCH  39  64
ENDBRANCH  13  14
ENDBRANCH   6   8
ENDBRANCH   3   4
ENDBRANCH   2   3
ENDBRANCH   1   2
BRANCH   1  76
ATOM     76  C   UNL A   1      33.813  25.729  23.748  1.00  0.00     0.002 C 
BRANCH  76  77
ATOM     77  C   UNL A   1      33.279  25.228  22.403  1.00  0.00     0.021 C 
BRANCH  77  78
ATOM     78  C   UNL A   1      32.854  23.766  22.373  1.00  0.00     0.116 C 
BRANCH  78  79
ATOM     79  N   UNL A   1      31.869  23.441  23.392  1.00  0.00    -0.352 N 
ATOM     80  C   UNL A   1      31.971  22.543  24.423  1.00  0.00     0.252 C 
ATOM     81  H   UNL A   1      31.018  23.933  23.335  1.00  0.00     0.163 HD
ATOM     82  O   UNL A   1      31.035  22.356  25.193  1.00  0.00    -0.269 OA
BRANCH  80  83
ATOM     83  C   UNL A   1      33.201  21.744  24.564  1.00  0.00     0.051 A 
ATOM     84  C   UNL A   1      34.301  22.420  25.083  1.00  0.00     0.043 A 
ATOM     85  C   UNL A   1      33.266  20.374  24.232  1.00  0.00     0.016 A 
ATOM     86  C   UNL A   1      35.460  21.703  25.299  1.00  0.00     0.072 A 
ATOM     87  C   UNL A   1      34.469  19.715  24.545  1.00  0.00     0.107 A 
ATOM     88  C   UNL A   1      32.205  19.647  23.630  1.00  0.00     0.011 A 
ATOM     89  N   UNL A   1      35.539  20.376  25.048  1.00  0.00    -0.245 NA
ATOM     90  C   UNL A   1      34.522  18.336  24.325  1.00  0.00     0.149 A 
ATOM     91  C   UNL A   1      32.295  18.275  23.421  1.00  0.00     0.004 A 
ATOM     92  F   UNL A   1      35.633  17.654  24.648  1.00  0.00    -0.205 F 
ATOM     93  C   UNL A   1      33.456  17.613  23.788  1.00  0.00     0.041 A 
BRANCH  86  94
ATOM     94  C   UNL A   1      36.688  22.350  25.775  1.00  0.00     0.001 A 
ATOM     95  C   UNL A   1      36.732  23.725  26.056  1.00  0.00     0.010 A 
ATOM     96  C   UNL A   1      37.871  21.603  25.915  1.00  0.00     0.023 A 
ATOM     97  C   UNL A   1      37.924  24.339  26.449  1.00  0.00     0.001 A 
ATOM     98  C   UNL A   1      39.081  22.211  26.290  1.00  0.00     0.056 A 
ATOM     99  C   UNL A   1      39.093  23.588  26.557  1.00  0.00     0.013 A 
BRANCH  98 100
ATOM    100  C   UNL A   1      40.356  21.413  26.380  1.00  0.00     0.416 C 
ATOM    101  F   UNL A   1      40.165  20.101  26.059  1.00  0.00    -0.166 F 
ATOM    102  F   UNL A   1      41.320  21.862  25.527  1.00  0.00    -0.166 F 
ATOM    103  F   UNL A   1      40.923  21.410  27.618  1.00  0.00    -0.166 F 
ENDBRANCH  98 100
ENDBRANCH  86  94
ENDBRANCH  80  83
ENDBRANCH  78  79
ENDBRANCH  77  78
ENDBRANCH  76  77
ENDBRANCH   1  76
TORSDOF 18
ENDMDL
