MODEL 1
REMARK VINA RESULT:      -8.6      0.000      0.000
REMARK SMILES CC1(C)CC[C@@]2(C(=O)NCCCCCCNC(=O)c3ccc(-c4c5nc(c(-c6c(F)cc(S(=O)(=O)[O-])cc6F)c6ccc([nH]6)c(-c6c(F)cc(S(=O)(=O)[O-])cc6F)c6nc(c(-c7c(F)cc(S(=O)(=O)[O-])cc7F)c7ccc4[nH]7)C=C6)C=C5)cc3)CC[C@@]3(C)C(=CC[C@H]4[C@@]5(C)CC[C@H](O)C(C)(C)[C@@H]5CC[C@]43C)[C@@H]2C1
REMARK SMILES IDX 13 1 12 2 11 3 10 4 9 5 7 6 8 7 6 9 1 10 2 11 3 12 4 13
REMARK SMILES IDX 108 14 5 15 107 16 89 17 85 18 87 19 90 20 86 21 88 22
REMARK SMILES IDX 105 23 91 24 92 25 104 26 106 27 93 28 103 29 94 30 95 31
REMARK SMILES IDX 102 32 96 33 99 34 97 35 100 36 101 37 98 38 14 40 15 41
REMARK SMILES IDX 16 42 17 43 18 45 19 46 20 47 84 48 21 49 83 50 22 51 23 52
REMARK SMILES IDX 24 53 77 54 25 55 82 56 76 57 78 58 26 59 81 60 75 61 74 62
REMARK SMILES IDX 27 64 61 65 40 66 60 67 41 68 44 69 59 70 79 71 42 72 43 73
REMARK SMILES IDX 58 75 80 76 45 77 28 78 29 79 38 80 30 81 31 82 37 83 39 84
REMARK SMILES IDX 32 85 33 86 34 87 35 88 36 89 62 90 63 91 72 92 64 93 65 94
REMARK SMILES IDX 71 95 73 96 66 97 67 98 68 99 69 100 70 101 46 102 47 103
REMARK SMILES IDX 56 104 48 105 49 106 55 107 57 108 50 109 51 110 52 111
REMARK SMILES IDX 53 112 54 113
REMARK H PARENT 9 8 98 39 16 44 78 63 44 74
REMARK Flexibility Score: inf
ROOT
ATOM      1  C   UNL A   1      45.336  25.621  29.709  1.00  0.00     0.002 C 
ENDROOT
BRANCH   1   2
ATOM      2  C   UNL A   1      46.433  26.670  29.831  1.00  0.00     0.002 C 
BRANCH   2   3
ATOM      3  C   UNL A   1      46.075  28.159  29.662  1.00  0.00     0.021 C 
BRANCH   3   4
ATOM      4  C   UNL A   1      47.061  29.241  30.096  1.00  0.00     0.116 C 
BRANCH   4   5
ATOM      5  N   UNL A   1      47.076  30.528  29.448  1.00  0.00    -0.356 N 
ATOM      6  C   UNL A   1      47.797  31.657  29.807  1.00  0.00     0.226 C 
ATOM      7  O   UNL A   1      47.836  32.065  30.967  1.00  0.00    -0.274 OA
ATOM      8  H   UNL A   1      46.503  30.617  28.652  1.00  0.00     0.163 HD
BRANCH   6   9
ATOM      9  C   UNL A   1      48.706  32.282  28.682  1.00  0.00     0.056 C 
ATOM     10  C   UNL A   1      51.336  29.570  27.277  1.00  0.00     0.011 C 
ATOM     11  C   UNL A   1      50.018  29.630  28.075  1.00  0.00    -0.035 C 
ATOM     12  C   UNL A   1      49.757  28.158  28.509  1.00  0.00     0.011 C 
ATOM     13  C   UNL A   1      50.302  30.440  29.351  1.00  0.00     0.007 C 
ATOM     14  C   UNL A   1      48.835  30.205  27.157  1.00  0.00     0.015 C 
ATOM     15  C   UNL A   1      50.147  31.930  29.119  1.00  0.00     0.018 C 
ATOM     16  C   UNL A   1      48.404  31.744  27.262  1.00  0.00     0.031 C 
ATOM     17  C   UNL A   1      46.911  32.229  26.915  1.00  0.00    -0.064 C 
ATOM     18  C   UNL A   1      48.664  33.821  28.600  1.00  0.00     0.018 C 
ATOM     19  C   UNL A   1      46.539  33.754  27.077  1.00  0.00    -0.006 C 
ATOM     20  C   UNL A   1      45.938  31.349  26.620  1.00  0.00    -0.027 C 
ATOM     21  C   UNL A   1      47.287  34.373  28.281  1.00  0.00     0.013 C 
ATOM     22  C   UNL A   1      47.118  34.415  25.782  1.00  0.00     0.017 C 
ATOM     23  C   UNL A   1      44.894  34.095  27.201  1.00  0.00    -0.020 C 
ATOM     24  C   UNL A   1      44.475  31.596  26.846  1.00  0.00     0.032 C 
ATOM     25  C   UNL A   1      44.079  32.849  27.684  1.00  0.00     0.006 C 
ATOM     26  C   UNL A   1      44.483  35.371  28.050  1.00  0.00     0.008 C 
ATOM     27  C   UNL A   1      44.311  34.414  25.768  1.00  0.00     0.012 C 
ATOM     28  C   UNL A   1      43.663  32.688  29.251  1.00  0.00    -0.025 C 
ATOM     29  C   UNL A   1      43.366  35.180  29.120  1.00  0.00     0.005 C 
ATOM     30  C   UNL A   1      42.245  32.048  29.193  1.00  0.00     0.012 C 
ATOM     31  C   UNL A   1      44.546  31.795  30.105  1.00  0.00     0.010 C 
ATOM     32  C   UNL A   1      43.755  34.034  30.042  1.00  0.00     0.003 C 
ATOM     33  C   UNL A   1      44.168  31.601  31.575  1.00  0.00     0.033 C 
ATOM     34  C   UNL A   1      43.257  33.991  31.558  1.00  0.00    -0.006 C 
ATOM     35  C   UNL A   1      44.117  32.925  32.314  1.00  0.00     0.120 C 
ATOM     36  C   UNL A   1      41.760  33.692  31.760  1.00  0.00     0.014 C 
ATOM     37  C   UNL A   1      43.529  35.340  32.262  1.00  0.00     0.014 C 
BRANCH  35  38
ATOM     38  O   UNL A   1      43.638  32.697  33.639  1.00  0.00    -0.393 OA
ATOM     39  H   UNL A   1      42.786  32.235  33.599  1.00  0.00     0.210 HD
ENDBRANCH  35  38
ENDBRANCH   6   9
ENDBRANCH   4   5
ENDBRANCH   3   4
ENDBRANCH   2   3
ENDBRANCH   1   2
BRANCH   1  40
ATOM     40  C   UNL A   1      45.269  24.909  28.371  1.00  0.00     0.021 C 
BRANCH  40  41
ATOM     41  C   UNL A   1      43.938  24.244  28.068  1.00  0.00     0.116 C 
BRANCH  41  42
ATOM     42  N   UNL A   1      43.505  24.341  26.682  1.00  0.00    -0.352 N 
ATOM     43  C   UNL A   1      42.663  25.309  26.185  1.00  0.00     0.251 C 
ATOM     44  H   UNL A   1      43.841  23.663  26.052  1.00  0.00     0.163 HD
ATOM     45  O   UNL A   1      42.333  25.349  25.006  1.00  0.00    -0.269 OA
BRANCH  43  46
ATOM     46  C   UNL A   1      42.140  26.278  27.164  1.00  0.00     0.039 A 
ATOM     47  C   UNL A   1      41.153  25.854  28.052  1.00  0.00     0.014 A 
ATOM     48  C   UNL A   1      42.810  27.493  27.343  1.00  0.00     0.014 A 
ATOM     49  C   UNL A   1      40.854  26.647  29.157  1.00  0.00     0.010 A 
ATOM     50  C   UNL A   1      42.565  28.239  28.489  1.00  0.00     0.010 A 
ATOM     51  C   UNL A   1      41.574  27.830  29.397  1.00  0.00    -0.014 A 
BRANCH  51  52
ATOM     52  C   UNL A   1      41.254  28.681  30.569  1.00  0.00     0.031 A 
ATOM     53  C   UNL A   1      42.084  28.545  31.815  1.00  0.00     0.074 A 
ATOM     54  C   UNL A   1      40.225  29.549  30.517  1.00  0.00     0.049 A 
ATOM     55  N   UNL A   1      41.977  29.183  32.951  1.00  0.00    -0.248 NA
ATOM     56  C   UNL A   1      43.160  27.539  31.792  1.00  0.00     0.031 C 
ATOM     57  C   UNL A   1      39.321  29.729  29.379  1.00  0.00     0.029 A 
ATOM     58  N   UNL A   1      39.767  30.449  31.447  1.00  0.00    -0.354 N 
ATOM     59  C   UNL A   1      42.964  28.652  33.773  1.00  0.00     0.074 A 
ATOM     60  C   UNL A   1      43.611  27.592  33.036  1.00  0.00     0.031 C 
ATOM     61  C   UNL A   1      38.439  30.701  29.665  1.00  0.00     0.029 A 
ATOM     62  C   UNL A   1      38.695  31.195  31.014  1.00  0.00     0.049 A 
ATOM     63  H   UNL A   1      40.168  30.552  32.339  1.00  0.00     0.167 HD
ATOM     64  C   UNL A   1      43.322  29.038  35.019  1.00  0.00     0.037 A 
ATOM     65  C   UNL A   1      38.003  32.170  31.639  1.00  0.00     0.037 A 
ATOM     66  C   UNL A   1      42.696  30.117  35.731  1.00  0.00     0.049 A 
ATOM     67  C   UNL A   1      38.425  32.584  33.024  1.00  0.00     0.074 A 
ATOM     68  C   UNL A   1      43.013  30.625  36.977  1.00  0.00     0.029 A 
ATOM     69  N   UNL A   1      41.623  30.858  35.256  1.00  0.00    -0.354 N 
ATOM     70  N   UNL A   1      39.404  32.116  33.762  1.00  0.00    -0.248 NA
ATOM     71  C   UNL A   1      37.657  33.665  33.659  1.00  0.00     0.031 C 
ATOM     72  C   UNL A   1      42.107  31.649  37.273  1.00  0.00     0.029 A 
ATOM     73  C   UNL A   1      41.255  31.809  36.191  1.00  0.00     0.049 A 
ATOM     74  H   UNL A   1      41.188  30.726  34.383  1.00  0.00     0.167 HD
ATOM     75  C   UNL A   1      39.386  32.861  34.936  1.00  0.00     0.074 A 
ATOM     76  C   UNL A   1      38.310  33.821  34.803  1.00  0.00     0.031 C 
ATOM     77  C   UNL A   1      40.185  32.762  36.028  1.00  0.00     0.037 A 
BRANCH  64  78
ATOM     78  C   UNL A   1      44.453  28.298  35.677  1.00  0.00     0.058 A 
ATOM     79  C   UNL A   1      45.790  28.701  35.513  1.00  0.00     0.135 A 
ATOM     80  C   UNL A   1      44.200  27.192  36.502  1.00  0.00     0.135 A 
ATOM     81  F   UNL A   1      46.090  29.738  34.715  1.00  0.00    -0.206 F 
ATOM     82  C   UNL A   1      46.835  28.017  36.123  1.00  0.00     0.059 A 
ATOM     83  C   UNL A   1      45.229  26.511  37.147  1.00  0.00     0.059 A 
ATOM     84  F   UNL A   1      42.942  26.761  36.688  1.00  0.00    -0.206 F 
ATOM     85  C   UNL A   1      46.544  26.925  36.941  1.00  0.00     0.060 A 
BRANCH  85  86
ATOM     86  S   UNL A   1      47.912  26.063  37.743  1.00  0.00     0.124 S 
ATOM     87  O   UNL A   1      47.693  24.691  37.298  1.00  0.00    -0.237 OA
ATOM     88  O   UNL A   1      49.078  26.735  37.177  1.00  0.00    -0.237 OA
ATOM     89  O   UNL A   1      47.682  26.306  39.164  1.00  0.00    -0.744 OA
ENDBRANCH  85  86
ENDBRANCH  64  78
BRANCH  65  90
ATOM     90  C   UNL A   1      36.862  32.839  30.956  1.00  0.00     0.058 A 
ATOM     91  C   UNL A   1      37.077  33.828  29.984  1.00  0.00     0.135 A 
ATOM     92  C   UNL A   1      35.533  32.510  31.267  1.00  0.00     0.135 A 
ATOM     93  F   UNL A   1      38.328  34.183  29.655  1.00  0.00    -0.206 F 
ATOM     94  C   UNL A   1      36.018  34.485  29.363  1.00  0.00     0.059 A 
ATOM     95  C   UNL A   1      34.458  33.133  30.641  1.00  0.00     0.059 A 
ATOM     96  F   UNL A   1      35.271  31.558  32.176  1.00  0.00    -0.206 F 
ATOM     97  C   UNL A   1      34.711  34.130  29.699  1.00  0.00     0.060 A 
BRANCH  97  98
ATOM     98  S   UNL A   1      33.343  34.964  28.864  1.00  0.00     0.124 S 
ATOM     99  O   UNL A   1      32.877  33.924  27.955  1.00  0.00    -0.237 OA
ATOM    100  O   UNL A   1      32.454  35.286  29.977  1.00  0.00    -0.237 OA
ATOM    101  O   UNL A   1      33.987  36.113  28.235  1.00  0.00    -0.744 OA
ENDBRANCH  97  98
ENDBRANCH  65  90
BRANCH  77 102
ATOM    102  C   UNL A   1      39.950  33.734  37.149  1.00  0.00     0.058 A 
ATOM    103  C   UNL A   1      40.513  35.019  37.139  1.00  0.00     0.135 A 
ATOM    104  C   UNL A   1      39.100  33.396  38.213  1.00  0.00     0.135 A 
ATOM    105  F   UNL A   1      41.336  35.389  36.144  1.00  0.00    -0.206 F 
ATOM    106  C   UNL A   1      40.260  35.929  38.160  1.00  0.00     0.059 A 
ATOM    107  C   UNL A   1      38.810  34.300  39.230  1.00  0.00     0.059 A 
ATOM    108  F   UNL A   1      38.525  32.183  38.263  1.00  0.00    -0.206 F 
ATOM    109  C   UNL A   1      39.404  35.561  39.200  1.00  0.00     0.060 A 
BRANCH 109 110
ATOM    110  S   UNL A   1      39.056  36.764  40.499  1.00  0.00     0.124 S 
ATOM    111  O   UNL A   1      38.090  36.040  41.319  1.00  0.00    -0.237 OA
ATOM    112  O   UNL A   1      40.372  36.966  41.098  1.00  0.00    -0.237 OA
ATOM    113  O   UNL A   1      38.525  37.910  39.767  1.00  0.00    -0.744 OA
ENDBRANCH 109 110
ENDBRANCH  77 102
ENDBRANCH  51  52
ENDBRANCH  43  46
ENDBRANCH  41  42
ENDBRANCH  40  41
ENDBRANCH   1  40
TORSDOF 17
ENDMDL
MODEL 2
REMARK VINA RESULT:      -8.5      3.513     10.495
REMARK SMILES CC1(C)CC[C@@]2(C(=O)NCCCCCCNC(=O)c3ccc(-c4c5nc(c(-c6c(F)cc(S(=O)(=O)[O-])cc6F)c6ccc([nH]6)c(-c6c(F)cc(S(=O)(=O)[O-])cc6F)c6nc(c(-c7c(F)cc(S(=O)(=O)[O-])cc7F)c7ccc4[nH]7)C=C6)C=C5)cc3)CC[C@@]3(C)C(=CC[C@H]4[C@@]5(C)CC[C@H](O)C(C)(C)[C@@H]5CC[C@]43C)[C@@H]2C1
REMARK SMILES IDX 13 1 12 2 11 3 10 4 9 5 7 6 8 7 6 9 1 10 2 11 3 12 4 13
REMARK SMILES IDX 108 14 5 15 107 16 89 17 85 18 87 19 90 20 86 21 88 22
REMARK SMILES IDX 105 23 91 24 92 25 104 26 106 27 93 28 103 29 94 30 95 31
REMARK SMILES IDX 102 32 96 33 99 34 97 35 100 36 101 37 98 38 14 40 15 41
REMARK SMILES IDX 16 42 17 43 18 45 19 46 20 47 84 48 21 49 83 50 22 51 23 52
REMARK SMILES IDX 24 53 77 54 25 55 82 56 76 57 78 58 26 59 81 60 75 61 74 62
REMARK SMILES IDX 27 64 61 65 40 66 60 67 41 68 44 69 59 70 79 71 42 72 43 73
REMARK SMILES IDX 58 75 80 76 45 77 28 78 29 79 38 80 30 81 31 82 37 83 39 84
REMARK SMILES IDX 32 85 33 86 34 87 35 88 36 89 62 90 63 91 72 92 64 93 65 94
REMARK SMILES IDX 71 95 73 96 66 97 67 98 68 99 69 100 70 101 46 102 47 103
REMARK SMILES IDX 56 104 48 105 49 106 55 107 57 108 50 109 51 110 52 111
REMARK SMILES IDX 53 112 54 113
REMARK H PARENT 9 8 98 39 16 44 78 63 44 74
REMARK Flexibility Score: inf
ROOT
ATOM      1  C   UNL A   1      50.489  26.906  37.701  1.00  0.00     0.002 C 
ENDROOT
BRANCH   1   2
ATOM      2  C   UNL A   1      49.273  25.992  37.769  1.00  0.00     0.002 C 
BRANCH   2   3
ATOM      3  C   UNL A   1      49.469  24.500  38.101  1.00  0.00     0.021 C 
BRANCH   3   4
ATOM      4  C   UNL A   1      49.428  23.454  36.989  1.00  0.00     0.116 C 
BRANCH   4   5
ATOM      5  N   UNL A   1      48.255  23.299  36.165  1.00  0.00    -0.356 N 
ATOM      6  C   UNL A   1      47.952  22.261  35.298  1.00  0.00     0.226 C 
ATOM      7  O   UNL A   1      48.769  21.826  34.489  1.00  0.00    -0.274 OA
ATOM      8  H   UNL A   1      47.588  24.020  36.226  1.00  0.00     0.163 HD
BRANCH   6   9
ATOM      9  C   UNL A   1      46.563  21.553  35.529  1.00  0.00     0.056 C 
ATOM     10  C   UNL A   1      46.467  19.690  39.102  1.00  0.00     0.011 C 
ATOM     11  C   UNL A   1      47.273  20.775  38.360  1.00  0.00    -0.035 C 
ATOM     12  C   UNL A   1      48.440  21.126  39.328  1.00  0.00     0.011 C 
ATOM     13  C   UNL A   1      47.891  20.106  37.120  1.00  0.00     0.007 C 
ATOM     14  C   UNL A   1      46.345  22.047  38.052  1.00  0.00     0.015 C 
ATOM     15  C   UNL A   1      46.936  20.110  35.943  1.00  0.00     0.018 C 
ATOM     16  C   UNL A   1      45.684  22.235  36.605  1.00  0.00     0.031 C 
ATOM     17  C   UNL A   1      45.323  23.689  36.024  1.00  0.00    -0.064 C 
ATOM     18  C   UNL A   1      45.694  21.407  34.263  1.00  0.00     0.018 C 
ATOM     19  C   UNL A   1      44.709  23.810  34.575  1.00  0.00    -0.006 C 
ATOM     20  C   UNL A   1      45.654  24.812  36.686  1.00  0.00    -0.027 C 
ATOM     21  C   UNL A   1      45.309  22.735  33.637  1.00  0.00     0.013 C 
ATOM     22  C   UNL A   1      43.199  23.454  34.782  1.00  0.00     0.017 C 
ATOM     23  C   UNL A   1      44.840  25.324  33.850  1.00  0.00    -0.020 C 
ATOM     24  C   UNL A   1      45.898  26.140  36.032  1.00  0.00     0.032 C 
ATOM     25  C   UNL A   1      46.000  26.168  34.477  1.00  0.00     0.006 C 
ATOM     26  C   UNL A   1      44.940  25.361  32.266  1.00  0.00     0.008 C 
ATOM     27  C   UNL A   1      43.537  26.166  34.147  1.00  0.00     0.012 C 
ATOM     28  C   UNL A   1      47.457  26.239  33.753  1.00  0.00    -0.025 C 
ATOM     29  C   UNL A   1      46.082  26.224  31.649  1.00  0.00     0.005 C 
ATOM     30  C   UNL A   1      47.919  27.706  33.995  1.00  0.00     0.012 C 
ATOM     31  C   UNL A   1      48.534  25.314  34.291  1.00  0.00     0.010 C 
ATOM     32  C   UNL A   1      47.410  25.795  32.254  1.00  0.00     0.003 C 
ATOM     33  C   UNL A   1      49.923  25.375  33.650  1.00  0.00     0.033 C 
ATOM     34  C   UNL A   1      48.773  25.940  31.437  1.00  0.00    -0.006 C 
ATOM     35  C   UNL A   1      49.860  25.083  32.163  1.00  0.00     0.120 C 
ATOM     36  C   UNL A   1      49.285  27.380  31.247  1.00  0.00     0.014 C 
ATOM     37  C   UNL A   1      48.629  25.340  30.019  1.00  0.00     0.014 C 
BRANCH  35  38
ATOM     38  O   UNL A   1      51.157  25.278  31.598  1.00  0.00    -0.393 OA
ATOM     39  H   UNL A   1      51.305  26.225  31.450  1.00  0.00     0.210 HD
ENDBRANCH  35  38
ENDBRANCH   6   9
ENDBRANCH   4   5
ENDBRANCH   3   4
ENDBRANCH   2   3
ENDBRANCH   1   2
BRANCH   1  40
ATOM     40  C   UNL A   1      50.824  27.432  36.318  1.00  0.00     0.021 C 
BRANCH  40  41
ATOM     41  C   UNL A   1      50.529  28.907  36.108  1.00  0.00     0.116 C 
BRANCH  41  42
ATOM     42  N   UNL A   1      50.459  29.698  37.328  1.00  0.00    -0.352 N 
ATOM     43  C   UNL A   1      49.368  30.434  37.728  1.00  0.00     0.251 C 
ATOM     44  H   UNL A   1      51.253  29.706  37.910  1.00  0.00     0.163 HD
ATOM     45  O   UNL A   1      49.360  31.080  38.770  1.00  0.00    -0.269 OA
BRANCH  43  46
ATOM     46  C   UNL A   1      48.217  30.440  36.810  1.00  0.00     0.039 A 
ATOM     47  C   UNL A   1      47.145  29.593  37.087  1.00  0.00     0.014 A 
ATOM     48  C   UNL A   1      48.118  31.454  35.850  1.00  0.00     0.014 A 
ATOM     49  C   UNL A   1      45.942  29.785  36.412  1.00  0.00     0.010 A 
ATOM     50  C   UNL A   1      46.892  31.691  35.241  1.00  0.00     0.010 A 
ATOM     51  C   UNL A   1      45.799  30.849  35.505  1.00  0.00    -0.014 A 
BRANCH  51  52
ATOM     52  C   UNL A   1      44.521  31.053  34.780  1.00  0.00     0.031 A 
ATOM     53  C   UNL A   1      43.482  31.960  35.378  1.00  0.00     0.074 A 
ATOM     54  C   UNL A   1      44.295  30.421  33.612  1.00  0.00     0.049 A 
ATOM     55  N   UNL A   1      42.300  32.276  34.919  1.00  0.00    -0.248 NA
ATOM     56  C   UNL A   1      43.802  32.573  36.680  1.00  0.00     0.031 C 
ATOM     57  C   UNL A   1      45.210  29.480  32.964  1.00  0.00     0.029 A 
ATOM     58  N   UNL A   1      43.222  30.479  32.757  1.00  0.00    -0.354 N 
ATOM     59  C   UNL A   1      41.738  33.114  35.875  1.00  0.00     0.074 A 
ATOM     60  C   UNL A   1      42.674  33.201  36.971  1.00  0.00     0.031 C 
ATOM     61  C   UNL A   1      44.675  29.074  31.801  1.00  0.00     0.029 A 
ATOM     62  C   UNL A   1      43.369  29.703  31.631  1.00  0.00     0.049 A 
ATOM     63  H   UNL A   1      42.423  31.025  32.934  1.00  0.00     0.167 HD
ATOM     64  C   UNL A   1      40.562  33.781  35.825  1.00  0.00     0.037 A 
ATOM     65  C   UNL A   1      42.541  29.525  30.582  1.00  0.00     0.037 A 
ATOM     66  C   UNL A   1      39.653  33.715  34.715  1.00  0.00     0.049 A 
ATOM     67  C   UNL A   1      41.240  30.282  30.549  1.00  0.00     0.074 A 
ATOM     68  C   UNL A   1      38.459  34.389  34.539  1.00  0.00     0.029 A 
ATOM     69  N   UNL A   1      39.842  32.930  33.586  1.00  0.00    -0.354 N 
ATOM     70  N   UNL A   1      40.753  31.124  31.432  1.00  0.00    -0.248 NA
ATOM     71  C   UNL A   1      40.377  30.076  29.377  1.00  0.00     0.031 C 
ATOM     72  C   UNL A   1      37.904  33.982  33.321  1.00  0.00     0.029 A 
ATOM     73  C   UNL A   1      38.778  33.089  32.717  1.00  0.00     0.049 A 
ATOM     74  H   UNL A   1      40.618  32.346  33.429  1.00  0.00     0.167 HD
ATOM     75  C   UNL A   1      39.542  31.566  30.909  1.00  0.00     0.074 A 
ATOM     76  C   UNL A   1      39.379  30.912  29.627  1.00  0.00     0.031 C 
ATOM     77  C   UNL A   1      38.645  32.434  31.440  1.00  0.00     0.037 A 
BRANCH  64  78
ATOM     78  C   UNL A   1      40.206  34.649  37.000  1.00  0.00     0.058 A 
ATOM     79  C   UNL A   1      39.367  34.186  38.028  1.00  0.00     0.135 A 
ATOM     80  C   UNL A   1      40.727  35.947  37.115  1.00  0.00     0.135 A 
ATOM     81  F   UNL A   1      38.822  32.961  37.957  1.00  0.00    -0.206 F 
ATOM     82  C   UNL A   1      39.040  34.988  39.115  1.00  0.00     0.059 A 
ATOM     83  C   UNL A   1      40.437  36.756  38.210  1.00  0.00     0.059 A 
ATOM     84  F   UNL A   1      41.528  36.441  36.157  1.00  0.00    -0.206 F 
ATOM     85  C   UNL A   1      39.582  36.271  39.199  1.00  0.00     0.060 A 
BRANCH  85  86
ATOM     86  S   UNL A   1      39.164  37.290  40.629  1.00  0.00     0.124 S 
ATOM     87  O   UNL A   1      38.186  38.209  40.055  1.00  0.00    -0.237 OA
ATOM     88  O   UNL A   1      38.633  36.306  41.567  1.00  0.00    -0.237 OA
ATOM     89  O   UNL A   1      40.441  37.887  41.007  1.00  0.00    -0.744 OA
ENDBRANCH  85  86
ENDBRANCH  64  78
BRANCH  65  90
ATOM     90  C   UNL A   1      42.925  28.618  29.466  1.00  0.00     0.058 A 
ATOM     91  C   UNL A   1      42.760  27.228  29.572  1.00  0.00     0.135 A 
ATOM     92  C   UNL A   1      43.471  29.119  28.274  1.00  0.00     0.135 A 
ATOM     93  F   UNL A   1      42.247  26.698  30.693  1.00  0.00    -0.206 F 
ATOM     94  C   UNL A   1      43.146  26.366  28.550  1.00  0.00     0.059 A 
ATOM     95  C   UNL A   1      43.840  28.280  27.227  1.00  0.00     0.059 A 
ATOM     96  F   UNL A   1      43.634  30.441  28.113  1.00  0.00    -0.206 F 
ATOM     97  C   UNL A   1      43.686  26.902  27.380  1.00  0.00     0.060 A 
BRANCH  97  98
ATOM     98  S   UNL A   1      44.153  25.778  26.044  1.00  0.00     0.124 S 
ATOM     99  O   UNL A   1      42.889  25.627  25.333  1.00  0.00    -0.237 OA
ATOM    100  O   UNL A   1      45.190  26.538  25.352  1.00  0.00    -0.237 OA
ATOM    101  O   UNL A   1      44.625  24.593  26.755  1.00  0.00    -0.744 OA
ENDBRANCH  97  98
ENDBRANCH  65  90
BRANCH  77 102
ATOM    102  C   UNL A   1      37.424  32.752  30.624  1.00  0.00     0.058 A 
ATOM    103  C   UNL A   1      36.226  32.038  30.783  1.00  0.00     0.135 A 
ATOM    104  C   UNL A   1      37.437  33.823  29.717  1.00  0.00     0.135 A 
ATOM    105  F   UNL A   1      36.164  31.003  31.635  1.00  0.00    -0.206 F 
ATOM    106  C   UNL A   1      35.088  32.362  30.053  1.00  0.00     0.059 A 
ATOM    107  C   UNL A   1      36.302  34.182  28.997  1.00  0.00     0.059 A 
ATOM    108  F   UNL A   1      38.555  34.545  29.537  1.00  0.00    -0.206 F 
ATOM    109  C   UNL A   1      35.135  33.439  29.164  1.00  0.00     0.060 A 
BRANCH 109 110
ATOM    110  S   UNL A   1      33.640  33.870  28.250  1.00  0.00     0.124 S 
ATOM    111  O   UNL A   1      34.163  34.805  27.258  1.00  0.00    -0.237 OA
ATOM    112  O   UNL A   1      33.205  32.576  27.735  1.00  0.00    -0.237 OA
ATOM    113  O   UNL A   1      32.776  34.456  29.270  1.00  0.00    -0.744 OA
ENDBRANCH 109 110
ENDBRANCH  77 102
ENDBRANCH  51  52
ENDBRANCH  43  46
ENDBRANCH  41  42
ENDBRANCH  40  41
ENDBRANCH   1  40
TORSDOF 17
ENDMDL
MODEL 3
REMARK VINA RESULT:      -8.5      1.828      8.886
REMARK SMILES CC1(C)CC[C@@]2(C(=O)NCCCCCCNC(=O)c3ccc(-c4c5nc(c(-c6c(F)cc(S(=O)(=O)[O-])cc6F)c6ccc([nH]6)c(-c6c(F)cc(S(=O)(=O)[O-])cc6F)c6nc(c(-c7c(F)cc(S(=O)(=O)[O-])cc7F)c7ccc4[nH]7)C=C6)C=C5)cc3)CC[C@@]3(C)C(=CC[C@H]4[C@@]5(C)CC[C@H](O)C(C)(C)[C@@H]5CC[C@]43C)[C@@H]2C1
REMARK SMILES IDX 13 1 12 2 11 3 10 4 9 5 7 6 8 7 6 9 1 10 2 11 3 12 4 13
REMARK SMILES IDX 108 14 5 15 107 16 89 17 85 18 87 19 90 20 86 21 88 22
REMARK SMILES IDX 105 23 91 24 92 25 104 26 106 27 93 28 103 29 94 30 95 31
REMARK SMILES IDX 102 32 96 33 99 34 97 35 100 36 101 37 98 38 14 40 15 41
REMARK SMILES IDX 16 42 17 43 18 45 19 46 20 47 84 48 21 49 83 50 22 51 23 52
REMARK SMILES IDX 24 53 77 54 25 55 82 56 76 57 78 58 26 59 81 60 75 61 74 62
REMARK SMILES IDX 27 64 61 65 40 66 60 67 41 68 44 69 59 70 79 71 42 72 43 73
REMARK SMILES IDX 58 75 80 76 45 77 28 78 29 79 38 80 30 81 31 82 37 83 39 84
REMARK SMILES IDX 32 85 33 86 34 87 35 88 36 89 62 90 63 91 72 92 64 93 65 94
REMARK SMILES IDX 71 95 73 96 66 97 67 98 68 99 69 100 70 101 46 102 47 103
REMARK SMILES IDX 56 104 48 105 49 106 55 107 57 108 50 109 51 110 52 111
REMARK SMILES IDX 53 112 54 113
REMARK H PARENT 9 8 98 39 16 44 78 63 44 74
REMARK Flexibility Score: inf
ROOT
ATOM      1  C   UNL A   1      41.967  28.878  26.616  1.00  0.00     0.002 C 
ENDROOT
BRANCH   1   2
ATOM      2  C   UNL A   1      42.860  30.095  26.422  1.00  0.00     0.002 C 
BRANCH   2   3
ATOM      3  C   UNL A   1      43.748  30.573  27.588  1.00  0.00     0.021 C 
BRANCH   3   4
ATOM      4  C   UNL A   1      44.119  29.612  28.715  1.00  0.00     0.116 C 
BRANCH   4   5
ATOM      5  N   UNL A   1      45.499  29.362  29.046  1.00  0.00    -0.356 N 
ATOM      6  C   UNL A   1      46.606  30.137  28.736  1.00  0.00     0.226 C 
ATOM      7  O   UNL A   1      46.795  30.582  27.605  1.00  0.00    -0.274 OA
ATOM      8  H   UNL A   1      45.678  28.539  29.556  1.00  0.00     0.163 HD
BRANCH   6   9
ATOM      9  C   UNL A   1      47.512  30.564  29.953  1.00  0.00     0.056 C 
ATOM     10  C   UNL A   1      45.392  32.651  32.671  1.00  0.00     0.011 C 
ATOM     11  C   UNL A   1      45.166  31.697  31.482  1.00  0.00    -0.035 C 
ATOM     12  C   UNL A   1      43.622  31.670  31.289  1.00  0.00     0.011 C 
ATOM     13  C   UNL A   1      45.772  32.374  30.241  1.00  0.00     0.007 C 
ATOM     14  C   UNL A   1      45.756  30.242  31.815  1.00  0.00     0.015 C 
ATOM     15  C   UNL A   1      47.254  32.081  30.105  1.00  0.00     0.018 C 
ATOM     16  C   UNL A   1      47.196  29.807  31.265  1.00  0.00     0.031 C 
ATOM     17  C   UNL A   1      47.564  28.267  30.987  1.00  0.00    -0.064 C 
ATOM     18  C   UNL A   1      49.029  30.427  29.707  1.00  0.00     0.018 C 
ATOM     19  C   UNL A   1      48.988  27.908  30.408  1.00  0.00    -0.006 C 
ATOM     20  C   UNL A   1      46.645  27.293  31.107  1.00  0.00    -0.027 C 
ATOM     21  C   UNL A   1      49.470  29.002  29.427  1.00  0.00     0.013 C 
ATOM     22  C   UNL A   1      49.922  27.965  31.662  1.00  0.00     0.017 C 
ATOM     23  C   UNL A   1      49.117  26.398  29.673  1.00  0.00    -0.020 C 
ATOM     24  C   UNL A   1      46.685  25.993  30.357  1.00  0.00     0.032 C 
ATOM     25  C   UNL A   1      47.724  25.861  29.203  1.00  0.00     0.006 C 
ATOM     26  C   UNL A   1      50.175  26.255  28.498  1.00  0.00     0.008 C 
ATOM     27  C   UNL A   1      49.611  25.335  30.732  1.00  0.00     0.012 C 
ATOM     28  C   UNL A   1      47.251  26.030  27.653  1.00  0.00    -0.025 C 
ATOM     29  C   UNL A   1      49.680  25.595  27.176  1.00  0.00     0.005 C 
ATOM     30  C   UNL A   1      46.477  24.712  27.358  1.00  0.00     0.012 C 
ATOM     31  C   UNL A   1      46.329  27.195  27.342  1.00  0.00     0.010 C 
ATOM     32  C   UNL A   1      48.443  26.333  26.686  1.00  0.00     0.003 C 
ATOM     33  C   UNL A   1      45.844  27.366  25.900  1.00  0.00     0.033 C 
ATOM     34  C   UNL A   1      48.085  26.402  25.133  1.00  0.00    -0.006 C 
ATOM     35  C   UNL A   1      47.008  27.519  24.939  1.00  0.00     0.120 C 
ATOM     36  C   UNL A   1      47.592  25.085  24.504  1.00  0.00     0.014 C 
ATOM     37  C   UNL A   1      49.315  26.843  24.307  1.00  0.00     0.014 C 
BRANCH  35  38
ATOM     38  O   UNL A   1      46.504  27.546  23.603  1.00  0.00    -0.393 OA
ATOM     39  H   UNL A   1      47.246  27.548  22.979  1.00  0.00     0.210 HD
ENDBRANCH  35  38
ENDBRANCH   6   9
ENDBRANCH   4   5
ENDBRANCH   3   4
ENDBRANCH   2   3
ENDBRANCH   1   2
BRANCH   1  40
ATOM     40  C   UNL A   1      42.253  27.712  25.688  1.00  0.00     0.021 C 
BRANCH  40  41
ATOM     41  C   UNL A   1      41.189  26.628  25.678  1.00  0.00     0.116 C 
BRANCH  41  42
ATOM     42  N   UNL A   1      41.701  25.267  25.746  1.00  0.00    -0.352 N 
ATOM     43  C   UNL A   1      42.024  24.604  26.907  1.00  0.00     0.251 C 
ATOM     44  H   UNL A   1      41.824  24.785  24.897  1.00  0.00     0.163 HD
ATOM     45  O   UNL A   1      42.448  23.454  26.909  1.00  0.00    -0.269 OA
BRANCH  43  46
ATOM     46  C   UNL A   1      41.875  25.371  28.156  1.00  0.00     0.039 A 
ATOM     47  C   UNL A   1      43.017  25.922  28.735  1.00  0.00     0.014 A 
ATOM     48  C   UNL A   1      40.593  25.737  28.580  1.00  0.00     0.014 A 
ATOM     49  C   UNL A   1      42.871  26.878  29.736  1.00  0.00     0.010 A 
ATOM     50  C   UNL A   1      40.454  26.749  29.521  1.00  0.00     0.010 A 
ATOM     51  C   UNL A   1      41.591  27.317  30.118  1.00  0.00    -0.014 A 
BRANCH  51  52
ATOM     52  C   UNL A   1      41.433  28.331  31.188  1.00  0.00     0.031 A 
ATOM     53  C   UNL A   1      40.351  29.367  31.055  1.00  0.00     0.074 A 
ATOM     54  C   UNL A   1      42.257  28.328  32.254  1.00  0.00     0.049 A 
ATOM     55  N   UNL A   1      40.040  30.343  31.866  1.00  0.00    -0.248 NA
ATOM     56  C   UNL A   1      39.527  29.317  29.834  1.00  0.00     0.031 C 
ATOM     57  C   UNL A   1      43.372  27.402  32.463  1.00  0.00     0.029 A 
ATOM     58  N   UNL A   1      42.281  29.130  33.367  1.00  0.00    -0.354 N 
ATOM     59  C   UNL A   1      38.993  31.021  31.252  1.00  0.00     0.074 A 
ATOM     60  C   UNL A   1      38.770  30.394  29.971  1.00  0.00     0.031 C 
ATOM     61  C   UNL A   1      43.951  27.668  33.646  1.00  0.00     0.029 A 
ATOM     62  C   UNL A   1      43.267  28.799  34.268  1.00  0.00     0.049 A 
ATOM     63  H   UNL A   1      41.652  29.874  33.509  1.00  0.00     0.167 HD
ATOM     64  C   UNL A   1      38.260  32.053  31.730  1.00  0.00     0.037 A 
ATOM     65  C   UNL A   1      43.578  29.345  35.460  1.00  0.00     0.037 A 
ATOM     66  C   UNL A   1      38.467  32.648  33.021  1.00  0.00     0.049 A 
ATOM     67  C   UNL A   1      42.744  30.490  35.972  1.00  0.00     0.074 A 
ATOM     68  C   UNL A   1      37.749  33.663  33.625  1.00  0.00     0.029 A 
ATOM     69  N   UNL A   1      39.466  32.276  33.910  1.00  0.00    -0.354 N 
ATOM     70  N   UNL A   1      41.714  31.077  35.407  1.00  0.00    -0.248 NA
ATOM     71  C   UNL A   1      43.103  31.043  37.285  1.00  0.00     0.031 C 
ATOM     72  C   UNL A   1      38.339  33.934  34.865  1.00  0.00     0.029 A 
ATOM     73  C   UNL A   1      39.394  33.054  35.052  1.00  0.00     0.049 A 
ATOM     74  H   UNL A   1      40.127  31.565  33.751  1.00  0.00     0.167 HD
ATOM     75  C   UNL A   1      41.289  32.049  36.306  1.00  0.00     0.074 A 
ATOM     76  C   UNL A   1      42.161  31.960  37.459  1.00  0.00     0.031 C 
ATOM     77  C   UNL A   1      40.269  32.937  36.192  1.00  0.00     0.037 A 
BRANCH  64  78
ATOM     78  C   UNL A   1      37.159  32.586  30.856  1.00  0.00     0.058 A 
ATOM     79  C   UNL A   1      37.362  33.688  30.008  1.00  0.00     0.135 A 
ATOM     80  C   UNL A   1      35.896  31.976  30.845  1.00  0.00     0.135 A 
ATOM     81  F   UNL A   1      38.545  34.324  29.997  1.00  0.00    -0.206 F 
ATOM     82  C   UNL A   1      36.345  34.180  29.199  1.00  0.00     0.059 A 
ATOM     83  C   UNL A   1      34.871  32.433  30.020  1.00  0.00     0.059 A 
ATOM     84  F   UNL A   1      35.646  30.924  31.641  1.00  0.00    -0.206 F 
ATOM     85  C   UNL A   1      35.103  33.544  29.210  1.00  0.00     0.060 A 
BRANCH  85  86
ATOM     86  S   UNL A   1      33.800  34.182  28.136  1.00  0.00     0.124 S 
ATOM     87  O   UNL A   1      33.103  35.094  29.036  1.00  0.00    -0.237 OA
ATOM     88  O   UNL A   1      34.563  34.812  27.062  1.00  0.00    -0.237 OA
ATOM     89  O   UNL A   1      33.057  32.986  27.754  1.00  0.00    -0.744 OA
ENDBRANCH  85  86
ENDBRANCH  64  78
BRANCH  65  90
ATOM     90  C   UNL A   1      44.709  28.806  36.264  1.00  0.00     0.058 A 
ATOM     91  C   UNL A   1      44.524  27.728  37.144  1.00  0.00     0.135 A 
ATOM     92  C   UNL A   1      45.995  29.362  36.177  1.00  0.00     0.135 A 
ATOM     93  F   UNL A   1      43.312  27.166  37.269  1.00  0.00    -0.206 F 
ATOM     94  C   UNL A   1      45.565  27.237  37.926  1.00  0.00     0.059 A 
ATOM     95  C   UNL A   1      47.058  28.871  36.929  1.00  0.00     0.059 A 
ATOM     96  F   UNL A   1      46.231  30.382  35.338  1.00  0.00    -0.206 F 
ATOM     97  C   UNL A   1      46.830  27.816  37.811  1.00  0.00     0.060 A 
BRANCH  97  98
ATOM     98  S   UNL A   1      48.183  27.150  38.806  1.00  0.00     0.124 S 
ATOM     99  O   UNL A   1      48.541  25.955  38.051  1.00  0.00    -0.237 OA
ATOM    100  O   UNL A   1      49.153  28.241  38.775  1.00  0.00    -0.237 OA
ATOM    101  O   UNL A   1      47.559  26.914  40.105  1.00  0.00    -0.744 OA
ENDBRANCH  97  98
ENDBRANCH  65  90
BRANCH  77 102
ATOM    102  C   UNL A   1      40.021  33.858  37.352  1.00  0.00     0.058 A 
ATOM    103  C   UNL A   1      40.621  35.124  37.428  1.00  0.00     0.135 A 
ATOM    104  C   UNL A   1      39.122  33.494  38.367  1.00  0.00     0.135 A 
ATOM    105  F   UNL A   1      41.491  35.517  36.483  1.00  0.00    -0.206 F 
ATOM    106  C   UNL A   1      40.357  35.988  38.484  1.00  0.00     0.059 A 
ATOM    107  C   UNL A   1      38.822  34.354  39.417  1.00  0.00     0.059 A 
ATOM    108  F   UNL A   1      38.511  32.298  38.333  1.00  0.00    -0.206 F 
ATOM    109  C   UNL A   1      39.453  35.595  39.473  1.00  0.00     0.060 A 
BRANCH 109 110
ATOM    110  S   UNL A   1      39.093  36.742  40.820  1.00  0.00     0.124 S 
ATOM    111  O   UNL A   1      40.434  37.144  41.229  1.00  0.00    -0.237 OA
ATOM    112  O   UNL A   1      38.298  37.768  40.151  1.00  0.00    -0.237 OA
ATOM    113  O   UNL A   1      38.363  35.919  41.780  1.00  0.00    -0.744 OA
ENDBRANCH 109 110
ENDBRANCH  77 102
ENDBRANCH  51  52
ENDBRANCH  43  46
ENDBRANCH  41  42
ENDBRANCH  40  41
ENDBRANCH   1  40
TORSDOF 17
ENDMDL
