MODEL 1
REMARK VINA RESULT:     -10.6      0.000      0.000
REMARK SMILES C[C@H](C(=O)NCCCCCCNC(=O)c1ccc(-c2c3nc(c(-c4c(F)cc(S(=O)(=O)[O-])cc4F)c4ccc([nH]4)c(-c4c(F)cc(S(=O)(=O)[O-])cc4F)c4nc(c(-c5c(F)cc(S(=O)(=O)[O-])cc5F)c5ccc2[nH]5)C=C4)C=C3)cc1)[C@H](C)[NH+]1CCN(S(C)(=O)=O)CC1
REMARK SMILES IDX 8 1 7 2 6 3 5 4 3 5 4 6 2 8 1 9 81 10 82 11 83 12 84 13
REMARK SMILES IDX 92 14 85 16 91 17 86 18 87 19 88 20 89 21 90 22 9 23 10 24
REMARK SMILES IDX 11 25 12 26 13 27 14 29 15 30 16 31 80 32 17 33 79 34 18 35
REMARK SMILES IDX 19 36 20 37 73 38 21 39 78 40 72 41 74 42 22 43 77 44 71 45
REMARK SMILES IDX 70 46 23 48 57 49 36 50 56 51 37 52 40 53 55 54 75 55 38 56
REMARK SMILES IDX 39 57 54 59 76 60 41 61 24 62 25 63 34 64 26 65 27 66 33 67
REMARK SMILES IDX 35 68 28 69 29 70 30 71 31 72 32 73 58 74 59 75 68 76 60 77
REMARK SMILES IDX 61 78 67 79 69 80 62 81 63 82 64 83 65 84 66 85 42 86 43 87
REMARK SMILES IDX 52 88 44 89 45 90 51 91 53 92 46 93 47 94 48 95 49 96 50 97
REMARK H PARENT 5 7 83 15 12 28 74 47 40 58
REMARK Flexibility Score: inf
ROOT
ATOM      1  C   UNL A   1      33.895  31.379  27.462  1.00  0.00     0.002 C 
ENDROOT
BRANCH   1   2
ATOM      2  C   UNL A   1      34.504  30.016  27.815  1.00  0.00     0.021 C 
BRANCH   2   3
ATOM      3  C   UNL A   1      34.710  29.086  26.621  1.00  0.00     0.116 C 
BRANCH   3   4
ATOM      4  N   UNL A   1      33.711  29.318  25.600  1.00  0.00    -0.356 N 
ATOM      5  C   UNL A   1      32.584  28.623  25.306  1.00  0.00     0.228 C 
ATOM      6  O   UNL A   1      31.897  29.017  24.362  1.00  0.00    -0.275 OA
ATOM      7  H   UNL A   1      33.875  30.105  25.029  1.00  0.00     0.163 HD
BRANCH   5   8
ATOM      8  C   UNL A   1      32.232  27.370  26.102  1.00  0.00     0.133 C 
ATOM      9  C   UNL A   1      31.439  27.821  27.330  1.00  0.00     0.024 C 
BRANCH   8  10
ATOM     10  C   UNL A   1      31.576  26.287  25.172  1.00  0.00     0.193 C 
ATOM     11  C   UNL A   1      30.049  26.210  25.301  1.00  0.00     0.076 C 
BRANCH  10  12
ATOM     12  N   UNL A   1      32.272  24.981  25.228  1.00  0.00    -0.330 N 
ATOM     13  C   UNL A   1      32.403  24.242  23.960  1.00  0.00     0.279 C 
ATOM     14  C   UNL A   1      33.550  24.989  25.974  1.00  0.00     0.279 C 
ATOM     15  H   UNL A   1      31.601  24.444  25.777  1.00  0.00     0.348 HD
ATOM     16  C   UNL A   1      33.662  24.503  23.122  1.00  0.00     0.163 C 
ATOM     17  C   UNL A   1      34.852  25.198  25.168  1.00  0.00     0.163 C 
ATOM     18  N   UNL A   1      34.886  24.382  23.933  1.00  0.00    -0.191 NA
BRANCH  18  19
ATOM     19  S   UNL A   1      35.795  22.976  23.860  1.00  0.00     0.211 S 
ATOM     20  C   UNL A   1      36.992  23.170  25.165  1.00  0.00     0.176 C 
ATOM     21  O   UNL A   1      34.937  21.868  24.220  1.00  0.00    -0.212 OA
ATOM     22  O   UNL A   1      36.516  22.977  22.604  1.00  0.00    -0.212 OA
ENDBRANCH  18  19
ENDBRANCH  10  12
ENDBRANCH   8  10
ENDBRANCH   5   8
ENDBRANCH   3   4
ENDBRANCH   2   3
ENDBRANCH   1   2
BRANCH   1  23
ATOM     23  C   UNL A   1      34.311  32.535  28.377  1.00  0.00     0.002 C 
BRANCH  23  24
ATOM     24  C   UNL A   1      35.801  32.882  28.345  1.00  0.00     0.021 C 
BRANCH  24  25
ATOM     25  C   UNL A   1      36.474  32.910  29.713  1.00  0.00     0.116 C 
BRANCH  25  26
ATOM     26  N   UNL A   1      36.059  31.796  30.549  1.00  0.00    -0.352 N 
ATOM     27  C   UNL A   1      36.674  30.586  30.755  1.00  0.00     0.251 C 
ATOM     28  H   UNL A   1      35.214  31.928  31.038  1.00  0.00     0.163 HD
ATOM     29  O   UNL A   1      36.074  29.686  31.335  1.00  0.00    -0.269 OA
BRANCH  27  30
ATOM     30  C   UNL A   1      38.047  30.365  30.256  1.00  0.00     0.039 A 
ATOM     31  C   UNL A   1      39.108  30.397  31.164  1.00  0.00     0.014 A 
ATOM     32  C   UNL A   1      38.290  30.119  28.901  1.00  0.00     0.014 A 
ATOM     33  C   UNL A   1      40.401  30.108  30.726  1.00  0.00     0.010 A 
ATOM     34  C   UNL A   1      39.568  29.760  28.479  1.00  0.00     0.010 A 
ATOM     35  C   UNL A   1      40.636  29.742  29.390  1.00  0.00    -0.014 A 
BRANCH  35  36
ATOM     36  C   UNL A   1      41.982  29.293  28.945  1.00  0.00     0.031 A 
ATOM     37  C   UNL A   1      43.118  30.274  28.830  1.00  0.00     0.074 A 
ATOM     38  C   UNL A   1      42.159  28.005  28.584  1.00  0.00     0.049 A 
ATOM     39  N   UNL A   1      44.338  30.071  28.407  1.00  0.00    -0.248 NA
ATOM     40  C   UNL A   1      42.844  31.666  29.221  1.00  0.00     0.031 C 
ATOM     41  C   UNL A   1      41.119  26.971  28.601  1.00  0.00     0.029 A 
ATOM     42  N   UNL A   1      43.270  27.344  28.119  1.00  0.00    -0.354 N 
ATOM     43  C   UNL A   1      44.975  31.305  28.469  1.00  0.00     0.074 A 
ATOM     44  C   UNL A   1      43.994  32.262  28.933  1.00  0.00     0.031 C 
ATOM     45  C   UNL A   1      41.646  25.808  28.186  1.00  0.00     0.029 A 
ATOM     46  C   UNL A   1      43.045  26.019  27.828  1.00  0.00     0.049 A 
ATOM     47  H   UNL A   1      44.146  27.779  28.005  1.00  0.00     0.167 HD
ATOM     48  C   UNL A   1      46.263  31.607  28.182  1.00  0.00     0.037 A 
ATOM     49  C   UNL A   1      43.864  25.081  27.313  1.00  0.00     0.037 A 
ATOM     50  C   UNL A   1      47.241  30.643  27.748  1.00  0.00     0.049 A 
ATOM     51  C   UNL A   1      45.289  25.451  26.993  1.00  0.00     0.074 A 
ATOM     52  C   UNL A   1      48.591  30.839  27.510  1.00  0.00     0.029 A 
ATOM     53  N   UNL A   1      46.980  29.308  27.480  1.00  0.00    -0.354 N 
ATOM     54  N   UNL A   1      45.895  26.605  27.146  1.00  0.00    -0.248 NA
ATOM     55  C   UNL A   1      46.144  24.394  26.437  1.00  0.00     0.031 C 
ATOM     56  C   UNL A   1      49.132  29.639  27.037  1.00  0.00     0.029 A 
ATOM     57  C   UNL A   1      48.135  28.679  27.042  1.00  0.00     0.049 A 
ATOM     58  H   UNL A   1      46.104  28.871  27.584  1.00  0.00     0.167 HD
ATOM     59  C   UNL A   1      47.206  26.403  26.728  1.00  0.00     0.074 A 
ATOM     60  C   UNL A   1      47.311  25.013  26.339  1.00  0.00     0.031 C 
ATOM     61  C   UNL A   1      48.228  27.291  26.666  1.00  0.00     0.037 A 
BRANCH  48  62
ATOM     62  C   UNL A   1      46.712  33.035  28.328  1.00  0.00     0.058 A 
ATOM     63  C   UNL A   1      46.561  33.967  27.289  1.00  0.00     0.135 A 
ATOM     64  C   UNL A   1      47.204  33.502  29.559  1.00  0.00     0.135 A 
ATOM     65  F   UNL A   1      46.112  33.573  26.087  1.00  0.00    -0.206 F 
ATOM     66  C   UNL A   1      46.881  35.309  27.466  1.00  0.00     0.059 A 
ATOM     67  C   UNL A   1      47.505  34.844  29.765  1.00  0.00     0.059 A 
ATOM     68  F   UNL A   1      47.374  32.652  30.585  1.00  0.00    -0.206 F 
ATOM     69  C   UNL A   1      47.342  35.741  28.710  1.00  0.00     0.060 A 
BRANCH  69  70
ATOM     70  S   UNL A   1      47.693  37.497  28.936  1.00  0.00     0.124 S 
ATOM     71  O   UNL A   1      49.014  37.452  29.555  1.00  0.00    -0.237 OA
ATOM     72  O   UNL A   1      47.652  38.000  27.566  1.00  0.00    -0.237 OA
ATOM     73  O   UNL A   1      46.611  37.954  29.802  1.00  0.00    -0.744 OA
ENDBRANCH  69  70
ENDBRANCH  48  62
BRANCH  49  74
ATOM     74  C   UNL A   1      43.363  23.703  27.047  1.00  0.00     0.058 A 
ATOM     75  C   UNL A   1      43.288  22.747  28.071  1.00  0.00     0.135 A 
ATOM     76  C   UNL A   1      42.983  23.306  25.755  1.00  0.00     0.135 A 
ATOM     77  F   UNL A   1      43.643  23.075  29.322  1.00  0.00    -0.206 F 
ATOM     78  C   UNL A   1      42.895  21.437  27.817  1.00  0.00     0.059 A 
ATOM     79  C   UNL A   1      42.555  22.011  25.483  1.00  0.00     0.059 A 
ATOM     80  F   UNL A   1      43.017  24.185  24.741  1.00  0.00    -0.206 F 
ATOM     81  C   UNL A   1      42.535  21.077  26.517  1.00  0.00     0.060 A 
BRANCH  81  82
ATOM     82  S   UNL A   1      42.023  19.376  26.197  1.00  0.00     0.124 S 
ATOM     83  O   UNL A   1      40.594  19.541  25.958  1.00  0.00    -0.237 OA
ATOM     84  O   UNL A   1      42.831  19.026  25.033  1.00  0.00    -0.237 OA
ATOM     85  O   UNL A   1      42.380  18.680  27.430  1.00  0.00    -0.744 OA
ENDBRANCH  81  82
ENDBRANCH  49  74
BRANCH  61  86
ATOM     86  C   UNL A   1      49.561  26.781  26.189  1.00  0.00     0.058 A 
ATOM     87  C   UNL A   1      49.980  26.939  24.859  1.00  0.00     0.135 A 
ATOM     88  C   UNL A   1      50.452  26.168  27.086  1.00  0.00     0.135 A 
ATOM     89  F   UNL A   1      49.165  27.512  23.958  1.00  0.00    -0.206 F 
ATOM     90  C   UNL A   1      51.222  26.485  24.429  1.00  0.00     0.059 A 
ATOM     91  C   UNL A   1      51.712  25.736  26.686  1.00  0.00     0.059 A 
ATOM     92  F   UNL A   1      50.107  26.001  28.373  1.00  0.00    -0.206 F 
ATOM     93  C   UNL A   1      52.083  25.887  25.351  1.00  0.00     0.060 A 
BRANCH  93  94
ATOM     94  S   UNL A   1      53.704  25.332  24.784  1.00  0.00     0.124 S 
ATOM     95  O   UNL A   1      54.579  25.882  25.814  1.00  0.00    -0.237 OA
ATOM     96  O   UNL A   1      53.555  23.880  24.786  1.00  0.00    -0.237 OA
ATOM     97  O   UNL A   1      53.830  25.942  23.464  1.00  0.00    -0.744 OA
ENDBRANCH  93  94
ENDBRANCH  61  86
ENDBRANCH  35  36
ENDBRANCH  27  30
ENDBRANCH  25  26
ENDBRANCH  24  25
ENDBRANCH  23  24
ENDBRANCH   1  23
TORSDOF 19
ENDMDL
MODEL 2
REMARK VINA RESULT:     -10.4      3.074      9.001
REMARK SMILES C[C@H](C(=O)NCCCCCCNC(=O)c1ccc(-c2c3nc(c(-c4c(F)cc(S(=O)(=O)[O-])cc4F)c4ccc([nH]4)c(-c4c(F)cc(S(=O)(=O)[O-])cc4F)c4nc(c(-c5c(F)cc(S(=O)(=O)[O-])cc5F)c5ccc2[nH]5)C=C4)C=C3)cc1)[C@H](C)[NH+]1CCN(S(C)(=O)=O)CC1
REMARK SMILES IDX 8 1 7 2 6 3 5 4 3 5 4 6 2 8 1 9 81 10 82 11 83 12 84 13
REMARK SMILES IDX 92 14 85 16 91 17 86 18 87 19 88 20 89 21 90 22 9 23 10 24
REMARK SMILES IDX 11 25 12 26 13 27 14 29 15 30 16 31 80 32 17 33 79 34 18 35
REMARK SMILES IDX 19 36 20 37 73 38 21 39 78 40 72 41 74 42 22 43 77 44 71 45
REMARK SMILES IDX 70 46 23 48 57 49 36 50 56 51 37 52 40 53 55 54 75 55 38 56
REMARK SMILES IDX 39 57 54 59 76 60 41 61 24 62 25 63 34 64 26 65 27 66 33 67
REMARK SMILES IDX 35 68 28 69 29 70 30 71 31 72 32 73 58 74 59 75 68 76 60 77
REMARK SMILES IDX 61 78 67 79 69 80 62 81 63 82 64 83 65 84 66 85 42 86 43 87
REMARK SMILES IDX 52 88 44 89 45 90 51 91 53 92 46 93 47 94 48 95 49 96 50 97
REMARK H PARENT 5 7 83 15 12 28 74 47 40 58
REMARK Flexibility Score: inf
ROOT
ATOM      1  C   UNL A   1      31.175  26.676  25.211  1.00  0.00     0.002 C 
ENDROOT
BRANCH   1   2
ATOM      2  C   UNL A   1      30.445  25.362  24.901  1.00  0.00     0.021 C 
BRANCH   2   3
ATOM      3  C   UNL A   1      30.875  24.691  23.598  1.00  0.00     0.116 C 
BRANCH   3   4
ATOM      4  N   UNL A   1      32.043  25.336  23.039  1.00  0.00    -0.356 N 
ATOM      5  C   UNL A   1      33.320  24.891  22.932  1.00  0.00     0.228 C 
ATOM      6  O   UNL A   1      34.151  25.647  22.425  1.00  0.00    -0.275 OA
ATOM      7  H   UNL A   1      31.886  26.239  22.678  1.00  0.00     0.163 HD
BRANCH   5   8
ATOM      8  C   UNL A   1      33.695  23.516  23.475  1.00  0.00     0.133 C 
ATOM      9  C   UNL A   1      35.023  23.118  22.825  1.00  0.00     0.024 C 
BRANCH   8  10
ATOM     10  C   UNL A   1      33.623  23.499  25.044  1.00  0.00     0.193 C 
ATOM     11  C   UNL A   1      34.879  24.060  25.724  1.00  0.00     0.076 C 
BRANCH  10  12
ATOM     12  N   UNL A   1      33.147  22.205  25.586  1.00  0.00    -0.330 N 
ATOM     13  C   UNL A   1      32.061  21.535  24.850  1.00  0.00     0.279 C 
ATOM     14  C   UNL A   1      34.218  21.248  25.941  1.00  0.00     0.279 C 
ATOM     15  H   UNL A   1      32.719  22.522  26.456  1.00  0.00     0.348 HD
ATOM     16  C   UNL A   1      32.464  20.547  23.747  1.00  0.00     0.163 C 
ATOM     17  C   UNL A   1      34.627  20.200  24.882  1.00  0.00     0.163 C 
ATOM     18  N   UNL A   1      33.454  19.570  24.232  1.00  0.00    -0.191 NA
BRANCH  18  19
ATOM     19  S   UNL A   1      32.958  18.031  24.669  1.00  0.00     0.211 S 
ATOM     20  C   UNL A   1      34.465  17.081  24.685  1.00  0.00     0.176 C 
ATOM     21  O   UNL A   1      32.467  18.087  26.029  1.00  0.00    -0.212 OA
ATOM     22  O   UNL A   1      32.127  17.512  23.602  1.00  0.00    -0.212 OA
ENDBRANCH  18  19
ENDBRANCH  10  12
ENDBRANCH   8  10
ENDBRANCH   5   8
ENDBRANCH   3   4
ENDBRANCH   2   3
ENDBRANCH   1   2
BRANCH   1  23
ATOM     23  C   UNL A   1      32.224  26.590  26.323  1.00  0.00     0.002 C 
BRANCH  23  24
ATOM     24  C   UNL A   1      32.333  27.834  27.207  1.00  0.00     0.021 C 
BRANCH  24  25
ATOM     25  C   UNL A   1      33.721  28.463  27.247  1.00  0.00     0.116 C 
BRANCH  25  26
ATOM     26  N   UNL A   1      33.678  29.856  27.660  1.00  0.00    -0.352 N 
ATOM     27  C   UNL A   1      34.642  30.609  28.284  1.00  0.00     0.251 C 
ATOM     28  H   UNL A   1      32.836  30.328  27.462  1.00  0.00     0.163 HD
ATOM     29  O   UNL A   1      34.355  31.712  28.741  1.00  0.00    -0.269 OA
BRANCH  27  30
ATOM     30  C   UNL A   1      36.013  30.077  28.425  1.00  0.00     0.039 A 
ATOM     31  C   UNL A   1      36.883  30.162  27.336  1.00  0.00     0.014 A 
ATOM     32  C   UNL A   1      36.444  29.505  29.626  1.00  0.00     0.014 A 
ATOM     33  C   UNL A   1      38.207  29.742  27.476  1.00  0.00     0.010 A 
ATOM     34  C   UNL A   1      37.783  29.154  29.786  1.00  0.00     0.010 A 
ATOM     35  C   UNL A   1      38.681  29.277  28.715  1.00  0.00    -0.014 A 
BRANCH  35  36
ATOM     36  C   UNL A   1      40.121  28.964  28.915  1.00  0.00     0.031 A 
ATOM     37  C   UNL A   1      40.672  27.616  28.533  1.00  0.00     0.074 A 
ATOM     38  C   UNL A   1      40.917  29.881  29.502  1.00  0.00     0.049 A 
ATOM     39  N   UNL A   1      41.884  27.151  28.688  1.00  0.00    -0.248 NA
ATOM     40  C   UNL A   1      39.738  26.660  27.918  1.00  0.00     0.031 C 
ATOM     41  C   UNL A   1      40.486  31.204  29.965  1.00  0.00     0.029 A 
ATOM     42  N   UNL A   1      42.252  29.840  29.825  1.00  0.00    -0.354 N 
ATOM     43  C   UNL A   1      41.859  25.849  28.201  1.00  0.00     0.074 A 
ATOM     44  C   UNL A   1      40.500  25.582  27.782  1.00  0.00     0.031 C 
ATOM     45  C   UNL A   1      41.538  31.851  30.492  1.00  0.00     0.029 A 
ATOM     46  C   UNL A   1      42.706  30.979  30.450  1.00  0.00     0.049 A 
ATOM     47  H   UNL A   1      42.830  29.069  29.626  1.00  0.00     0.167 HD
ATOM     48  C   UNL A   1      42.880  24.966  28.097  1.00  0.00     0.037 A 
ATOM     49  C   UNL A   1      43.920  31.281  30.951  1.00  0.00     0.037 A 
ATOM     50  C   UNL A   1      44.237  25.250  28.490  1.00  0.00     0.049 A 
ATOM     51  C   UNL A   1      45.032  30.273  30.831  1.00  0.00     0.074 A 
ATOM     52  C   UNL A   1      45.355  24.447  28.350  1.00  0.00     0.029 A 
ATOM     53  N   UNL A   1      44.660  26.418  29.105  1.00  0.00    -0.354 N 
ATOM     54  N   UNL A   1      45.008  29.080  30.284  1.00  0.00    -0.248 NA
ATOM     55  C   UNL A   1      46.338  30.650  31.389  1.00  0.00     0.031 C 
ATOM     56  C   UNL A   1      46.442  25.102  28.936  1.00  0.00     0.029 A 
ATOM     57  C   UNL A   1      46.016  26.341  29.385  1.00  0.00     0.049 A 
ATOM     58  H   UNL A   1      44.084  27.189  29.313  1.00  0.00     0.167 HD
ATOM     59  C   UNL A   1      46.298  28.578  30.412  1.00  0.00     0.074 A 
ATOM     60  C   UNL A   1      47.083  29.603  31.064  1.00  0.00     0.031 C 
ATOM     61  C   UNL A   1      46.788  27.374  30.027  1.00  0.00     0.037 A 
BRANCH  48  62
ATOM     62  C   UNL A   1      42.591  23.602  27.533  1.00  0.00     0.058 A 
ATOM     63  C   UNL A   1      42.764  23.315  26.170  1.00  0.00     0.135 A 
ATOM     64  C   UNL A   1      42.239  22.542  28.386  1.00  0.00     0.135 A 
ATOM     65  F   UNL A   1      43.083  24.293  25.308  1.00  0.00    -0.206 F 
ATOM     66  C   UNL A   1      42.598  22.026  25.673  1.00  0.00     0.059 A 
ATOM     67  C   UNL A   1      42.094  21.241  27.914  1.00  0.00     0.059 A 
ATOM     68  F   UNL A   1      42.057  22.762  29.698  1.00  0.00    -0.206 F 
ATOM     69  C   UNL A   1      42.274  20.994  26.554  1.00  0.00     0.060 A 
BRANCH  69  70
ATOM     70  S   UNL A   1      42.122  19.319  25.899  1.00  0.00     0.124 S 
ATOM     71  O   UNL A   1      40.682  19.220  25.681  1.00  0.00    -0.237 OA
ATOM     72  O   UNL A   1      42.942  19.382  24.693  1.00  0.00    -0.237 OA
ATOM     73  O   UNL A   1      42.652  18.483  26.972  1.00  0.00    -0.744 OA
ENDBRANCH  69  70
ENDBRANCH  48  62
BRANCH  49  74
ATOM     74  C   UNL A   1      44.153  32.587  31.630  1.00  0.00     0.058 A 
ATOM     75  C   UNL A   1      43.908  32.748  33.001  1.00  0.00     0.135 A 
ATOM     76  C   UNL A   1      44.593  33.710  30.910  1.00  0.00     0.135 A 
ATOM     77  F   UNL A   1      43.483  31.707  33.733  1.00  0.00    -0.206 F 
ATOM     78  C   UNL A   1      44.049  33.982  33.628  1.00  0.00     0.059 A 
ATOM     79  C   UNL A   1      44.774  34.946  31.521  1.00  0.00     0.059 A 
ATOM     80  F   UNL A   1      44.861  33.608  29.599  1.00  0.00    -0.206 F 
ATOM     81  C   UNL A   1      44.479  35.077  32.876  1.00  0.00     0.060 A 
BRANCH  81  82
ATOM     82  S   UNL A   1      44.663  36.675  33.697  1.00  0.00     0.124 S 
ATOM     83  O   UNL A   1      43.325  37.235  33.546  1.00  0.00    -0.237 OA
ATOM     84  O   UNL A   1      45.045  36.284  35.049  1.00  0.00    -0.237 OA
ATOM     85  O   UNL A   1      45.712  37.331  32.922  1.00  0.00    -0.744 OA
ENDBRANCH  81  82
ENDBRANCH  49  74
BRANCH  61  86
ATOM     86  C   UNL A   1      48.248  27.108  30.275  1.00  0.00     0.058 A 
ATOM     87  C   UNL A   1      49.239  27.526  29.372  1.00  0.00     0.135 A 
ATOM     88  C   UNL A   1      48.666  26.470  31.454  1.00  0.00     0.135 A 
ATOM     89  F   UNL A   1      48.894  28.136  28.226  1.00  0.00    -0.206 F 
ATOM     90  C   UNL A   1      50.588  27.297  29.616  1.00  0.00     0.059 A 
ATOM     91  C   UNL A   1      50.012  26.260  31.735  1.00  0.00     0.059 A 
ATOM     92  F   UNL A   1      47.762  26.058  32.357  1.00  0.00    -0.206 F 
ATOM     93  C   UNL A   1      50.966  26.665  30.802  1.00  0.00     0.060 A 
BRANCH  93  94
ATOM     94  S   UNL A   1      52.723  26.405  31.120  1.00  0.00     0.124 S 
ATOM     95  O   UNL A   1      53.073  27.619  31.850  1.00  0.00    -0.237 OA
ATOM     96  O   UNL A   1      52.719  25.173  31.902  1.00  0.00    -0.237 OA
ATOM     97  O   UNL A   1      53.298  26.289  29.783  1.00  0.00    -0.744 OA
ENDBRANCH  93  94
ENDBRANCH  61  86
ENDBRANCH  35  36
ENDBRANCH  27  30
ENDBRANCH  25  26
ENDBRANCH  24  25
ENDBRANCH  23  24
ENDBRANCH   1  23
TORSDOF 19
ENDMDL
MODEL 3
REMARK VINA RESULT:     -10.3      6.723     12.183
REMARK SMILES C[C@H](C(=O)NCCCCCCNC(=O)c1ccc(-c2c3nc(c(-c4c(F)cc(S(=O)(=O)[O-])cc4F)c4ccc([nH]4)c(-c4c(F)cc(S(=O)(=O)[O-])cc4F)c4nc(c(-c5c(F)cc(S(=O)(=O)[O-])cc5F)c5ccc2[nH]5)C=C4)C=C3)cc1)[C@H](C)[NH+]1CCN(S(C)(=O)=O)CC1
REMARK SMILES IDX 8 1 7 2 6 3 5 4 3 5 4 6 2 8 1 9 81 10 82 11 83 12 84 13
REMARK SMILES IDX 92 14 85 16 91 17 86 18 87 19 88 20 89 21 90 22 9 23 10 24
REMARK SMILES IDX 11 25 12 26 13 27 14 29 15 30 16 31 80 32 17 33 79 34 18 35
REMARK SMILES IDX 19 36 20 37 73 38 21 39 78 40 72 41 74 42 22 43 77 44 71 45
REMARK SMILES IDX 70 46 23 48 57 49 36 50 56 51 37 52 40 53 55 54 75 55 38 56
REMARK SMILES IDX 39 57 54 59 76 60 41 61 24 62 25 63 34 64 26 65 27 66 33 67
REMARK SMILES IDX 35 68 28 69 29 70 30 71 31 72 32 73 58 74 59 75 68 76 60 77
REMARK SMILES IDX 61 78 67 79 69 80 62 81 63 82 64 83 65 84 66 85 42 86 43 87
REMARK SMILES IDX 52 88 44 89 45 90 51 91 53 92 46 93 47 94 48 95 49 96 50 97
REMARK H PARENT 5 7 83 15 12 28 74 47 40 58
REMARK Flexibility Score: inf
ROOT
ATOM      1  C   UNL A   1      35.927  22.448  24.231  1.00  0.00     0.002 C 
ENDROOT
BRANCH   1   2
ATOM      2  C   UNL A   1      35.188  22.952  22.985  1.00  0.00     0.021 C 
BRANCH   2   3
ATOM      3  C   UNL A   1      33.668  23.013  23.131  1.00  0.00     0.116 C 
BRANCH   3   4
ATOM      4  N   UNL A   1      33.152  21.800  23.730  1.00  0.00    -0.356 N 
ATOM      5  C   UNL A   1      32.211  21.632  24.692  1.00  0.00     0.228 C 
ATOM      6  O   UNL A   1      31.955  20.481  25.050  1.00  0.00    -0.275 OA
ATOM      7  H   UNL A   1      33.545  20.966  23.383  1.00  0.00     0.163 HD
BRANCH   5   8
ATOM      8  C   UNL A   1      31.544  22.849  25.326  1.00  0.00     0.133 C 
ATOM      9  C   UNL A   1      30.384  22.336  26.183  1.00  0.00     0.024 C 
BRANCH   8  10
ATOM     10  C   UNL A   1      32.611  23.767  26.024  1.00  0.00     0.193 C 
ATOM     11  C   UNL A   1      33.092  23.231  27.378  1.00  0.00     0.076 C 
BRANCH  10  12
ATOM     12  N   UNL A   1      32.230  25.199  26.021  1.00  0.00    -0.330 N 
ATOM     13  C   UNL A   1      33.328  26.179  26.047  1.00  0.00     0.279 C 
ATOM     14  C   UNL A   1      31.210  25.569  25.014  1.00  0.00     0.279 C 
ATOM     15  H   UNL A   1      31.792  25.269  26.940  1.00  0.00     0.348 HD
ATOM     16  C   UNL A   1      33.872  26.663  24.696  1.00  0.00     0.163 C 
ATOM     17  C   UNL A   1      31.705  26.109  23.654  1.00  0.00     0.163 C 
ATOM     18  N   UNL A   1      32.786  27.110  23.806  1.00  0.00    -0.191 NA
BRANCH  18  19
ATOM     19  S   UNL A   1      32.466  28.747  23.642  1.00  0.00     0.211 S 
ATOM     20  C   UNL A   1      31.016  28.800  22.611  1.00  0.00     0.176 C 
ATOM     21  O   UNL A   1      32.093  29.262  24.942  1.00  0.00    -0.212 OA
ATOM     22  O   UNL A   1      33.555  29.340  22.894  1.00  0.00    -0.212 OA
ENDBRANCH  18  19
ENDBRANCH  10  12
ENDBRANCH   8  10
ENDBRANCH   5   8
ENDBRANCH   3   4
ENDBRANCH   2   3
ENDBRANCH   1   2
BRANCH   1  23
ATOM     23  C   UNL A   1      36.214  23.515  25.293  1.00  0.00     0.002 C 
BRANCH  23  24
ATOM     24  C   UNL A   1      37.461  23.263  26.142  1.00  0.00     0.021 C 
BRANCH  24  25
ATOM     25  C   UNL A   1      38.502  24.375  26.083  1.00  0.00     0.116 C 
BRANCH  25  26
ATOM     26  N   UNL A   1      39.858  23.861  26.192  1.00  0.00    -0.352 N 
ATOM     27  C   UNL A   1      40.941  24.394  26.846  1.00  0.00     0.251 C 
ATOM     28  H   UNL A   1      40.022  23.006  25.730  1.00  0.00     0.163 HD
ATOM     29  O   UNL A   1      42.059  23.925  26.659  1.00  0.00    -0.269 OA
BRANCH  27  30
ATOM     30  C   UNL A   1      40.757  25.547  27.752  1.00  0.00     0.039 A 
ATOM     31  C   UNL A   1      39.662  25.554  28.620  1.00  0.00     0.014 A 
ATOM     32  C   UNL A   1      41.663  26.612  27.756  1.00  0.00     0.014 A 
ATOM     33  C   UNL A   1      39.519  26.592  29.541  1.00  0.00     0.010 A 
ATOM     34  C   UNL A   1      41.558  27.609  28.723  1.00  0.00     0.010 A 
ATOM     35  C   UNL A   1      40.489  27.604  29.633  1.00  0.00    -0.014 A 
BRANCH  35  36
ATOM     36  C   UNL A   1      40.423  28.633  30.704  1.00  0.00     0.031 A 
ATOM     37  C   UNL A   1      41.297  28.525  31.925  1.00  0.00     0.074 A 
ATOM     38  C   UNL A   1      39.524  29.634  30.600  1.00  0.00     0.049 A 
ATOM     39  N   UNL A   1      41.332  29.296  32.980  1.00  0.00    -0.248 NA
ATOM     40  C   UNL A   1      42.238  27.394  31.979  1.00  0.00     0.031 C 
ATOM     41  C   UNL A   1      38.585  29.815  29.488  1.00  0.00     0.029 A 
ATOM     42  N   UNL A   1      39.240  30.681  31.443  1.00  0.00    -0.354 N 
ATOM     43  C   UNL A   1      42.286  28.743  33.827  1.00  0.00     0.074 A 
ATOM     44  C   UNL A   1      42.779  27.546  33.180  1.00  0.00     0.031 C 
ATOM     45  C   UNL A   1      37.846  30.913  29.710  1.00  0.00     0.029 A 
ATOM     46  C   UNL A   1      38.221  31.490  30.996  1.00  0.00     0.049 A 
ATOM     47  H   UNL A   1      39.721  30.838  32.287  1.00  0.00     0.167 HD
ATOM     48  C   UNL A   1      42.723  29.202  35.023  1.00  0.00     0.037 A 
ATOM     49  C   UNL A   1      37.639  32.564  31.566  1.00  0.00     0.037 A 
ATOM     50  C   UNL A   1      42.247  30.411  35.646  1.00  0.00     0.049 A 
ATOM     51  C   UNL A   1      38.139  33.043  32.903  1.00  0.00     0.074 A 
ATOM     52  C   UNL A   1      42.686  30.999  36.820  1.00  0.00     0.029 A 
ATOM     53  N   UNL A   1      41.227  31.211  35.158  1.00  0.00    -0.354 N 
ATOM     54  N   UNL A   1      39.106  32.556  33.644  1.00  0.00    -0.248 NA
ATOM     55  C   UNL A   1      37.475  34.220  33.480  1.00  0.00     0.031 C 
ATOM     56  C   UNL A   1      41.889  32.119  37.074  1.00  0.00     0.029 A 
ATOM     57  C   UNL A   1      40.996  32.267  36.026  1.00  0.00     0.049 A 
ATOM     58  H   UNL A   1      40.737  31.054  34.318  1.00  0.00     0.167 HD
ATOM     59  C   UNL A   1      39.180  33.381  34.761  1.00  0.00     0.074 A 
ATOM     60  C   UNL A   1      38.179  34.411  34.587  1.00  0.00     0.031 C 
ATOM     61  C   UNL A   1      40.001  33.291  35.836  1.00  0.00     0.037 A 
BRANCH  48  62
ATOM     62  C   UNL A   1      43.773  28.411  35.753  1.00  0.00     0.058 A 
ATOM     63  C   UNL A   1      45.141  28.681  35.599  1.00  0.00     0.135 A 
ATOM     64  C   UNL A   1      43.400  27.440  36.699  1.00  0.00     0.135 A 
ATOM     65  F   UNL A   1      45.555  29.585  34.697  1.00  0.00    -0.206 F 
ATOM     66  C   UNL A   1      46.102  28.017  36.356  1.00  0.00     0.059 A 
ATOM     67  C   UNL A   1      44.342  26.785  37.485  1.00  0.00     0.059 A 
ATOM     68  F   UNL A   1      42.105  27.139  36.883  1.00  0.00    -0.206 F 
ATOM     69  C   UNL A   1      45.693  27.079  37.304  1.00  0.00     0.060 A 
BRANCH  69  70
ATOM     70  S   UNL A   1      46.951  26.275  38.317  1.00  0.00     0.124 S 
ATOM     71  O   UNL A   1      46.193  25.955  39.523  1.00  0.00    -0.237 OA
ATOM     72  O   UNL A   1      47.334  25.136  37.489  1.00  0.00    -0.237 OA
ATOM     73  O   UNL A   1      47.973  27.305  38.476  1.00  0.00    -0.744 OA
ENDBRANCH  69  70
ENDBRANCH  48  62
BRANCH  49  74
ATOM     74  C   UNL A   1      36.506  33.256  30.889  1.00  0.00     0.058 A 
ATOM     75  C   UNL A   1      36.718  34.077  29.772  1.00  0.00     0.135 A 
ATOM     76  C   UNL A   1      35.192  33.138  31.371  1.00  0.00     0.135 A 
ATOM     77  F   UNL A   1      37.956  34.226  29.274  1.00  0.00    -0.206 F 
ATOM     78  C   UNL A   1      35.678  34.788  29.181  1.00  0.00     0.059 A 
ATOM     79  C   UNL A   1      34.131  33.813  30.777  1.00  0.00     0.059 A 
ATOM     80  F   UNL A   1      34.929  32.351  32.426  1.00  0.00    -0.206 F 
ATOM     81  C   UNL A   1      34.388  34.653  29.695  1.00  0.00     0.060 A 
BRANCH  81  82
ATOM     82  S   UNL A   1      33.044  35.577  28.922  1.00  0.00     0.124 S 
ATOM     83  O   UNL A   1      33.775  36.635  28.234  1.00  0.00    -0.237 OA
ATOM     84  O   UNL A   1      32.426  34.566  28.070  1.00  0.00    -0.237 OA
ATOM     85  O   UNL A   1      32.234  36.006  30.059  1.00  0.00    -0.744 OA
ENDBRANCH  81  82
ENDBRANCH  49  74
BRANCH  61  86
ATOM     86  C   UNL A   1      39.873  34.351  36.897  1.00  0.00     0.058 A 
ATOM     87  C   UNL A   1      40.536  35.584  36.794  1.00  0.00     0.135 A 
ATOM     88  C   UNL A   1      39.037  34.149  38.008  1.00  0.00     0.135 A 
ATOM     89  F   UNL A   1      41.352  35.827  35.756  1.00  0.00    -0.206 F 
ATOM     90  C   UNL A   1      40.397  36.568  37.766  1.00  0.00     0.059 A 
ATOM     91  C   UNL A   1      38.856  35.132  38.976  1.00  0.00     0.059 A 
ATOM     92  F   UNL A   1      38.370  32.993  38.152  1.00  0.00    -0.206 F 
ATOM     93  C   UNL A   1      39.552  36.334  38.853  1.00  0.00     0.060 A 
BRANCH  93  94
ATOM     94  S   UNL A   1      39.357  37.633  40.089  1.00  0.00     0.124 S 
ATOM     95  O   UNL A   1      40.651  38.305  40.017  1.00  0.00    -0.237 OA
ATOM     96  O   UNL A   1      38.221  38.389  39.571  1.00  0.00    -0.237 OA
ATOM     97  O   UNL A   1      39.101  36.895  41.323  1.00  0.00    -0.744 OA
ENDBRANCH  93  94
ENDBRANCH  61  86
ENDBRANCH  35  36
ENDBRANCH  27  30
ENDBRANCH  25  26
ENDBRANCH  24  25
ENDBRANCH  23  24
ENDBRANCH   1  23
TORSDOF 19
ENDMDL
