MODEL 1
REMARK VINA RESULT:     -11.0      0.000      0.000
REMARK SMILES CCC[C@@](C)(NC(=O)N1CCN(C)C(=O)C1(C)C)C(=O)NCCCCCCNC(=O)c1ccc(-c2c3nc(c(-c4c(F)cc(S(=O)(=O)[O-])cc4F)c4ccc([nH]4)c(-c4c(F)cc(S(=O)(=O)[O-])cc4F)c4nc(c(-c5c(F)cc(S(=O)(=O)[O-])cc5F)c5ccc2[nH]5)C=C4)C=C3)cc1
REMARK SMILES IDX 25 1 24 2 23 3 22 4 21 5 19 6 20 7 4 9 5 10 3 11 2 12 1 13
REMARK SMILES IDX 6 14 7 15 8 17 9 18 10 19 16 20 11 21 14 22 17 23 18 24
REMARK SMILES IDX 12 25 15 26 13 27 26 28 27 29 28 30 29 31 30 33 31 34 32 35
REMARK SMILES IDX 96 36 33 37 95 38 34 39 35 40 36 41 89 42 37 43 94 44 88 45
REMARK SMILES IDX 90 46 38 47 93 48 87 49 86 50 39 52 73 53 52 54 72 55 53 56
REMARK SMILES IDX 56 57 71 58 91 59 54 60 55 61 70 63 92 64 57 65 40 66 41 67
REMARK SMILES IDX 50 68 42 69 43 70 49 71 51 72 44 73 45 74 46 75 47 76 48 77
REMARK SMILES IDX 74 78 75 79 84 80 76 81 77 82 83 83 85 84 78 85 79 86 80 87
REMARK SMILES IDX 81 88 82 89 58 90 59 91 68 92 60 93 61 94 67 95 69 96 62 97
REMARK SMILES IDX 63 98 64 99 65 100 66 101
REMARK H PARENT 21 8 6 16 28 32 90 51 56 62
REMARK Flexibility Score: inf
ROOT
ATOM      1  C   UNL A   1      32.860  29.354  24.925  1.00  0.00     0.002 C 
ENDROOT
BRANCH   1   2
ATOM      2  C   UNL A   1      32.893  28.947  23.463  1.00  0.00     0.002 C 
BRANCH   2   3
ATOM      3  C   UNL A   1      31.538  28.625  22.785  1.00  0.00     0.021 C 
BRANCH   3   4
ATOM      4  C   UNL A   1      30.699  27.284  22.936  1.00  0.00     0.116 C 
BRANCH   4   5
ATOM      5  N   UNL A   1      31.265  25.866  23.010  1.00  0.00    -0.354 N 
ATOM      6  C   UNL A   1      31.155  24.715  23.785  1.00  0.00     0.245 C 
ATOM      7  O   UNL A   1      30.568  23.825  23.134  1.00  0.00    -0.272 OA
ATOM      8  H   UNL A   1      31.911  25.722  22.281  1.00  0.00     0.163 HD
BRANCH   6   9
ATOM      9  C   UNL A   1      31.539  24.340  25.400  1.00  0.00     0.117 C 
ATOM     10  C   UNL A   1      32.153  25.690  25.864  1.00  0.00     0.045 C 
BRANCH   9  11
ATOM     11  C   UNL A   1      30.234  24.077  26.264  1.00  0.00     0.038 C 
BRANCH  11  12
ATOM     12  C   UNL A   1      30.089  22.913  27.253  1.00  0.00    -0.000 C 
ATOM     13  C   UNL A   1      28.681  22.324  27.285  1.00  0.00     0.004 C 
ENDBRANCH  11  12
ENDBRANCH   9  11
BRANCH   9  14
ATOM     14  N   UNL A   1      32.490  23.249  26.062  1.00  0.00    -0.324 N 
ATOM     15  C   UNL A   1      33.572  22.440  25.728  1.00  0.00     0.319 C 
ATOM     16  H   UNL A   1      32.233  23.100  27.000  1.00  0.00     0.166 HD
ATOM     17  O   UNL A   1      33.583  21.272  26.113  1.00  0.00    -0.249 OA
BRANCH  15  18
ATOM     18  N   UNL A   1      34.699  23.038  25.187  1.00  0.00    -0.309 N 
ATOM     19  C   UNL A   1      35.418  24.164  25.716  1.00  0.00     0.144 C 
ATOM     20  C   UNL A   1      35.286  22.413  24.055  1.00  0.00     0.118 C 
ATOM     21  C   UNL A   1      36.715  23.627  26.309  1.00  0.00     0.140 C 
ATOM     22  C   UNL A   1      36.184  21.486  25.006  1.00  0.00     0.247 C 
ATOM     23  C   UNL A   1      34.122  22.705  23.078  1.00  0.00     0.045 C 
ATOM     24  C   UNL A   1      36.500  22.793  23.193  1.00  0.00     0.045 C 
ATOM     25  N   UNL A   1      37.125  22.318  25.754  1.00  0.00    -0.342 N 
ATOM     26  O   UNL A   1      36.384  20.285  24.874  1.00  0.00    -0.272 OA
ATOM     27  C   UNL A   1      38.551  22.081  25.582  1.00  0.00     0.146 C 
ENDBRANCH  15  18
ENDBRANCH   9  14
ENDBRANCH   6   9
ENDBRANCH   4   5
ENDBRANCH   3   4
ENDBRANCH   2   3
ENDBRANCH   1   2
BRANCH   1  28
ATOM     28  C   UNL A   1      33.939  28.643  25.723  1.00  0.00     0.021 C 
BRANCH  28  29
ATOM     29  C   UNL A   1      33.734  28.730  27.232  1.00  0.00     0.116 C 
BRANCH  29  30
ATOM     30  N   UNL A   1      33.729  30.110  27.708  1.00  0.00    -0.352 N 
ATOM     31  C   UNL A   1      34.734  30.738  28.431  1.00  0.00     0.251 C 
ATOM     32  H   UNL A   1      32.933  30.649  27.496  1.00  0.00     0.163 HD
ATOM     33  O   UNL A   1      34.594  31.789  28.975  1.00  0.00    -0.269 OA
BRANCH  31  34
ATOM     34  C   UNL A   1      36.010  29.992  28.446  1.00  0.00     0.039 A 
ATOM     35  C   UNL A   1      36.881  30.108  27.364  1.00  0.00     0.014 A 
ATOM     36  C   UNL A   1      36.422  29.478  29.681  1.00  0.00     0.014 A 
ATOM     37  C   UNL A   1      38.212  29.736  27.539  1.00  0.00     0.010 A 
ATOM     38  C   UNL A   1      37.765  29.211  29.873  1.00  0.00     0.010 A 
ATOM     39  C   UNL A   1      38.667  29.321  28.802  1.00  0.00    -0.014 A 
BRANCH  39  40
ATOM     40  C   UNL A   1      40.082  28.950  29.028  1.00  0.00     0.031 A 
ATOM     41  C   UNL A   1      41.017  29.989  29.582  1.00  0.00     0.074 A 
ATOM     42  C   UNL A   1      40.529  27.728  28.676  1.00  0.00     0.049 A 
ATOM     43  N   UNL A   1      42.304  29.912  29.793  1.00  0.00    -0.248 NA
ATOM     44  C   UNL A   1      40.436  31.305  29.903  1.00  0.00     0.031 C 
ATOM     45  C   UNL A   1      39.721  26.669  28.063  1.00  0.00     0.029 A 
ATOM     46  N   UNL A   1      41.778  27.171  28.776  1.00  0.00    -0.354 N 
ATOM     47  C   UNL A   1      42.682  31.168  30.250  1.00  0.00     0.074 A 
ATOM     48  C   UNL A   1      41.511  32.011  30.212  1.00  0.00     0.031 C 
ATOM     49  C   UNL A   1      40.488  25.583  27.871  1.00  0.00     0.029 A 
ATOM     50  C   UNL A   1      41.848  25.877  28.312  1.00  0.00     0.049 A 
ATOM     51  H   UNL A   1      42.554  27.652  29.144  1.00  0.00     0.167 HD
ATOM     52  C   UNL A   1      43.891  31.571  30.699  1.00  0.00     0.037 A 
ATOM     53  C   UNL A   1      42.896  25.032  28.250  1.00  0.00     0.037 A 
ATOM     54  C   UNL A   1      45.035  30.707  30.773  1.00  0.00     0.049 A 
ATOM     55  C   UNL A   1      44.230  25.500  28.770  1.00  0.00     0.074 A 
ATOM     56  C   UNL A   1      46.289  30.983  31.284  1.00  0.00     0.029 A 
ATOM     57  N   UNL A   1      45.061  29.394  30.323  1.00  0.00    -0.354 N 
ATOM     58  N   UNL A   1      44.551  26.665  29.283  1.00  0.00    -0.248 NA
ATOM     59  C   UNL A   1      45.342  24.542  28.709  1.00  0.00     0.031 C 
ATOM     60  C   UNL A   1      47.089  29.853  31.096  1.00  0.00     0.029 A 
ATOM     61  C   UNL A   1      46.320  28.855  30.517  1.00  0.00     0.049 A 
ATOM     62  H   UNL A   1      44.298  28.919  29.924  1.00  0.00     0.167 HD
ATOM     63  C   UNL A   1      45.896  26.575  29.622  1.00  0.00     0.074 A 
ATOM     64  C   UNL A   1      46.322  25.233  29.276  1.00  0.00     0.031 C 
ATOM     65  C   UNL A   1      46.710  27.514  30.165  1.00  0.00     0.037 A 
BRANCH  52  66
ATOM     66  C   UNL A   1      44.026  32.996  31.160  1.00  0.00     0.058 A 
ATOM     67  C   UNL A   1      43.854  33.357  32.506  1.00  0.00     0.135 A 
ATOM     68  C   UNL A   1      44.359  34.010  30.248  1.00  0.00     0.135 A 
ATOM     69  F   UNL A   1      43.508  32.432  33.416  1.00  0.00    -0.206 F 
ATOM     70  C   UNL A   1      43.988  34.674  32.929  1.00  0.00     0.059 A 
ATOM     71  C   UNL A   1      44.529  35.330  30.654  1.00  0.00     0.059 A 
ATOM     72  F   UNL A   1      44.523  33.723  28.947  1.00  0.00    -0.206 F 
ATOM     73  C   UNL A   1      44.331  35.653  31.996  1.00  0.00     0.060 A 
BRANCH  73  74
ATOM     74  S   UNL A   1      44.530  37.352  32.569  1.00  0.00     0.124 S 
ATOM     75  O   UNL A   1      44.665  38.072  31.306  1.00  0.00    -0.237 OA
ATOM     76  O   UNL A   1      43.287  37.581  33.299  1.00  0.00    -0.237 OA
ATOM     77  O   UNL A   1      45.734  37.295  33.391  1.00  0.00    -0.744 OA
ENDBRANCH  73  74
ENDBRANCH  52  66
BRANCH  53  78
ATOM     78  C   UNL A   1      42.724  23.660  27.697  1.00  0.00     0.058 A 
ATOM     79  C   UNL A   1      42.820  23.416  26.318  1.00  0.00     0.135 A 
ATOM     80  C   UNL A   1      42.462  22.564  28.534  1.00  0.00     0.135 A 
ATOM     81  F   UNL A   1      43.065  24.430  25.474  1.00  0.00    -0.206 F 
ATOM     82  C   UNL A   1      42.640  22.143  25.786  1.00  0.00     0.059 A 
ATOM     83  C   UNL A   1      42.305  21.277  28.029  1.00  0.00     0.059 A 
ATOM     84  F   UNL A   1      42.379  22.736  29.863  1.00  0.00    -0.206 F 
ATOM     85  C   UNL A   1      42.384  21.078  26.652  1.00  0.00     0.060 A 
BRANCH  85  86
ATOM     86  S   UNL A   1      42.190  19.423  25.956  1.00  0.00     0.124 S 
ATOM     87  O   UNL A   1      40.747  19.357  25.750  1.00  0.00    -0.237 OA
ATOM     88  O   UNL A   1      43.005  19.502  24.747  1.00  0.00    -0.237 OA
ATOM     89  O   UNL A   1      42.719  18.554  27.003  1.00  0.00    -0.744 OA
ENDBRANCH  85  86
ENDBRANCH  53  78
BRANCH  65  90
ATOM     90  C   UNL A   1      48.135  27.120  30.433  1.00  0.00     0.058 A 
ATOM     91  C   UNL A   1      49.151  27.362  29.496  1.00  0.00     0.135 A 
ATOM     92  C   UNL A   1      48.498  26.560  31.669  1.00  0.00     0.135 A 
ATOM     93  F   UNL A   1      48.854  27.890  28.298  1.00  0.00    -0.206 F 
ATOM     94  C   UNL A   1      50.477  27.043  29.768  1.00  0.00     0.059 A 
ATOM     95  C   UNL A   1      49.822  26.263  31.974  1.00  0.00     0.059 A 
ATOM     96  F   UNL A   1      47.564  26.322  32.604  1.00  0.00    -0.206 F 
ATOM     97  C   UNL A   1      50.802  26.499  31.011  1.00  0.00     0.060 A 
BRANCH  97  98
ATOM     98  S   UNL A   1      52.532  26.129  31.365  1.00  0.00     0.124 S 
ATOM     99  O   UNL A   1      53.111  26.126  30.025  1.00  0.00    -0.237 OA
ATOM    100  O   UNL A   1      52.920  27.247  32.221  1.00  0.00    -0.237 OA
ATOM    101  O   UNL A   1      52.475  24.831  32.028  1.00  0.00    -0.744 OA
ENDBRANCH  97  98
ENDBRANCH  65  90
ENDBRANCH  39  40
ENDBRANCH  31  34
ENDBRANCH  29  30
ENDBRANCH  28  29
ENDBRANCH   1  28
TORSDOF 20
ENDMDL
MODEL 2
REMARK VINA RESULT:     -10.8      4.777      9.568
REMARK SMILES CCC[C@@](C)(NC(=O)N1CCN(C)C(=O)C1(C)C)C(=O)NCCCCCCNC(=O)c1ccc(-c2c3nc(c(-c4c(F)cc(S(=O)(=O)[O-])cc4F)c4ccc([nH]4)c(-c4c(F)cc(S(=O)(=O)[O-])cc4F)c4nc(c(-c5c(F)cc(S(=O)(=O)[O-])cc5F)c5ccc2[nH]5)C=C4)C=C3)cc1
REMARK SMILES IDX 25 1 24 2 23 3 22 4 21 5 19 6 20 7 4 9 5 10 3 11 2 12 1 13
REMARK SMILES IDX 6 14 7 15 8 17 9 18 10 19 16 20 11 21 14 22 17 23 18 24
REMARK SMILES IDX 12 25 15 26 13 27 26 28 27 29 28 30 29 31 30 33 31 34 32 35
REMARK SMILES IDX 96 36 33 37 95 38 34 39 35 40 36 41 89 42 37 43 94 44 88 45
REMARK SMILES IDX 90 46 38 47 93 48 87 49 86 50 39 52 73 53 52 54 72 55 53 56
REMARK SMILES IDX 56 57 71 58 91 59 54 60 55 61 70 63 92 64 57 65 40 66 41 67
REMARK SMILES IDX 50 68 42 69 43 70 49 71 51 72 44 73 45 74 46 75 47 76 48 77
REMARK SMILES IDX 74 78 75 79 84 80 76 81 77 82 83 83 85 84 78 85 79 86 80 87
REMARK SMILES IDX 81 88 82 89 58 90 59 91 68 92 60 93 61 94 67 95 69 96 62 97
REMARK SMILES IDX 63 98 64 99 65 100 66 101
REMARK H PARENT 21 8 6 16 28 32 90 51 56 62
REMARK Flexibility Score: inf
ROOT
ATOM      1  C   UNL A   1      35.060  30.296  27.864  1.00  0.00     0.002 C 
ENDROOT
BRANCH   1   2
ATOM      2  C   UNL A   1      34.468  29.025  27.283  1.00  0.00     0.002 C 
BRANCH   2   3
ATOM      3  C   UNL A   1      32.972  29.057  26.880  1.00  0.00     0.021 C 
BRANCH   3   4
ATOM      4  C   UNL A   1      31.777  28.310  27.614  1.00  0.00     0.116 C 
BRANCH   4   5
ATOM      5  N   UNL A   1      30.933  27.172  27.042  1.00  0.00    -0.354 N 
ATOM      6  C   UNL A   1      31.042  26.113  26.145  1.00  0.00     0.245 C 
ATOM      7  O   UNL A   1      31.034  25.031  26.769  1.00  0.00    -0.272 OA
ATOM      8  H   UNL A   1      30.028  27.196  27.429  1.00  0.00     0.163 HD
BRANCH   6   9
ATOM      9  C   UNL A   1      31.289  26.012  24.465  1.00  0.00     0.117 C 
ATOM     10  C   UNL A   1      29.818  25.974  23.966  1.00  0.00     0.045 C 
BRANCH   9  11
ATOM     11  C   UNL A   1      31.962  27.330  23.893  1.00  0.00     0.038 C 
BRANCH  11  12
ATOM     12  C   UNL A   1      31.195  28.411  23.120  1.00  0.00    -0.000 C 
ATOM     13  C   UNL A   1      30.578  29.473  24.025  1.00  0.00     0.004 C 
ENDBRANCH  11  12
ENDBRANCH   9  11
BRANCH   9  14
ATOM     14  N   UNL A   1      32.024  24.945  23.540  1.00  0.00    -0.324 N 
ATOM     15  C   UNL A   1      33.271  24.344  23.397  1.00  0.00     0.319 C 
ATOM     16  H   UNL A   1      31.404  24.605  22.856  1.00  0.00     0.166 HD
ATOM     17  O   UNL A   1      33.737  24.201  22.267  1.00  0.00    -0.249 OA
BRANCH  15  18
ATOM     18  N   UNL A   1      33.831  23.716  24.498  1.00  0.00    -0.309 N 
ATOM     19  C   UNL A   1      33.287  22.604  25.228  1.00  0.00     0.144 C 
ATOM     20  C   UNL A   1      35.132  24.128  24.890  1.00  0.00     0.118 C 
ATOM     21  C   UNL A   1      34.113  21.379  24.854  1.00  0.00     0.140 C 
ATOM     22  C   UNL A   1      35.792  23.058  23.894  1.00  0.00     0.247 C 
ATOM     23  C   UNL A   1      34.728  25.549  25.351  1.00  0.00     0.045 C 
ATOM     24  C   UNL A   1      36.038  23.685  26.048  1.00  0.00     0.045 C 
ATOM     25  N   UNL A   1      35.460  21.706  24.338  1.00  0.00    -0.342 N 
ATOM     26  O   UNL A   1      36.738  23.252  23.141  1.00  0.00    -0.272 OA
ATOM     27  C   UNL A   1      36.548  20.802  24.686  1.00  0.00     0.146 C 
ENDBRANCH  15  18
ENDBRANCH   9  14
ENDBRANCH   6   9
ENDBRANCH   4   5
ENDBRANCH   3   4
ENDBRANCH   2   3
ENDBRANCH   1   2
BRANCH   1  28
ATOM     28  C   UNL A   1      34.037  31.418  27.901  1.00  0.00     0.021 C 
BRANCH  28  29
ATOM     29  C   UNL A   1      34.647  32.802  27.709  1.00  0.00     0.116 C 
BRANCH  29  30
ATOM     30  N   UNL A   1      33.688  33.868  27.981  1.00  0.00    -0.352 N 
ATOM     31  C   UNL A   1      33.469  34.492  29.201  1.00  0.00     0.251 C 
ATOM     32  H   UNL A   1      33.140  34.176  27.222  1.00  0.00     0.163 HD
ATOM     33  O   UNL A   1      32.536  35.201  29.420  1.00  0.00    -0.269 OA
BRANCH  31  34
ATOM     34  C   UNL A   1      34.516  34.214  30.207  1.00  0.00     0.039 A 
ATOM     35  C   UNL A   1      34.243  33.331  31.250  1.00  0.00     0.014 A 
ATOM     36  C   UNL A   1      35.822  34.590  29.873  1.00  0.00     0.014 A 
ATOM     37  C   UNL A   1      35.313  32.780  31.951  1.00  0.00     0.010 A 
ATOM     38  C   UNL A   1      36.877  33.958  30.506  1.00  0.00     0.010 A 
ATOM     39  C   UNL A   1      36.633  33.062  31.560  1.00  0.00    -0.014 A 
BRANCH  39  40
ATOM     40  C   UNL A   1      37.791  32.466  32.264  1.00  0.00     0.031 A 
ATOM     41  C   UNL A   1      38.511  31.316  31.616  1.00  0.00     0.074 A 
ATOM     42  C   UNL A   1      38.140  32.904  33.489  1.00  0.00     0.049 A 
ATOM     43  N   UNL A   1      39.498  30.597  32.077  1.00  0.00    -0.248 NA
ATOM     44  C   UNL A   1      38.028  30.890  30.289  1.00  0.00     0.031 C 
ATOM     45  C   UNL A   1      37.463  33.967  34.239  1.00  0.00     0.029 A 
ATOM     46  N   UNL A   1      39.151  32.505  34.326  1.00  0.00    -0.354 N 
ATOM     47  C   UNL A   1      39.738  29.629  31.109  1.00  0.00     0.074 A 
ATOM     48  C   UNL A   1      38.747  29.800  30.074  1.00  0.00     0.031 C 
ATOM     49  C   UNL A   1      38.096  34.154  35.409  1.00  0.00     0.029 A 
ATOM     50  C   UNL A   1      39.199  33.204  35.511  1.00  0.00     0.049 A 
ATOM     51  H   UNL A   1      39.782  31.785  34.101  1.00  0.00     0.167 HD
ATOM     52  C   UNL A   1      40.723  28.705  31.068  1.00  0.00     0.037 A 
ATOM     53  C   UNL A   1      40.041  33.084  36.557  1.00  0.00     0.037 A 
ATOM     54  C   UNL A   1      41.729  28.578  32.085  1.00  0.00     0.049 A 
ATOM     55  C   UNL A   1      41.139  32.055  36.482  1.00  0.00     0.074 A 
ATOM     56  C   UNL A   1      42.821  27.731  32.111  1.00  0.00     0.029 A 
ATOM     57  N   UNL A   1      41.765  29.322  33.256  1.00  0.00    -0.354 N 
ATOM     58  N   UNL A   1      41.407  31.206  35.517  1.00  0.00    -0.248 NA
ATOM     59  C   UNL A   1      42.051  31.970  37.630  1.00  0.00     0.031 C 
ATOM     60  C   UNL A   1      43.489  27.928  33.323  1.00  0.00     0.029 A 
ATOM     61  C   UNL A   1      42.845  28.934  34.027  1.00  0.00     0.049 A 
ATOM     62  H   UNL A   1      41.118  30.021  33.500  1.00  0.00     0.167 HD
ATOM     63  C   UNL A   1      42.529  30.498  35.934  1.00  0.00     0.074 A 
ATOM     64  C   UNL A   1      42.901  31.035  37.228  1.00  0.00     0.031 C 
ATOM     65  C   UNL A   1      43.191  29.492  35.310  1.00  0.00     0.037 A 
BRANCH  52  66
ATOM     66  C   UNL A   1      40.766  27.782  29.883  1.00  0.00     0.058 A 
ATOM     67  C   UNL A   1      39.813  26.766  29.702  1.00  0.00     0.135 A 
ATOM     68  C   UNL A   1      41.757  27.931  28.900  1.00  0.00     0.135 A 
ATOM     69  F   UNL A   1      38.859  26.561  30.625  1.00  0.00    -0.206 F 
ATOM     70  C   UNL A   1      39.852  25.919  28.601  1.00  0.00     0.059 A 
ATOM     71  C   UNL A   1      41.797  27.116  27.774  1.00  0.00     0.059 A 
ATOM     72  F   UNL A   1      42.700  28.878  29.029  1.00  0.00    -0.206 F 
ATOM     73  C   UNL A   1      40.846  26.105  27.639  1.00  0.00     0.060 A 
BRANCH  73  74
ATOM     74  S   UNL A   1      40.861  25.017  26.200  1.00  0.00     0.124 S 
ATOM     75  O   UNL A   1      41.266  25.937  25.142  1.00  0.00    -0.237 OA
ATOM     76  O   UNL A   1      41.852  24.014  26.581  1.00  0.00    -0.237 OA
ATOM     77  O   UNL A   1      39.486  24.536  26.122  1.00  0.00    -0.744 OA
ENDBRANCH  73  74
ENDBRANCH  52  66
BRANCH  53  78
ATOM     78  C   UNL A   1      39.892  33.965  37.748  1.00  0.00     0.058 A 
ATOM     79  C   UNL A   1      39.107  33.578  38.844  1.00  0.00     0.135 A 
ATOM     80  C   UNL A   1      40.533  35.212  37.816  1.00  0.00     0.135 A 
ATOM     81  F   UNL A   1      38.469  32.397  38.827  1.00  0.00    -0.206 F 
ATOM     82  C   UNL A   1      38.942  34.402  39.953  1.00  0.00     0.059 A 
ATOM     83  C   UNL A   1      40.405  36.043  38.925  1.00  0.00     0.059 A 
ATOM     84  F   UNL A   1      41.312  35.625  36.803  1.00  0.00    -0.206 F 
ATOM     85  C   UNL A   1      39.598  35.633  39.984  1.00  0.00     0.060 A 
BRANCH  85  86
ATOM     86  S   UNL A   1      39.409  36.679  41.445  1.00  0.00     0.124 S 
ATOM     87  O   UNL A   1      38.936  37.927  40.855  1.00  0.00    -0.237 OA
ATOM     88  O   UNL A   1      38.432  35.933  42.231  1.00  0.00    -0.237 OA
ATOM     89  O   UNL A   1      40.756  36.717  42.006  1.00  0.00    -0.744 OA
ENDBRANCH  85  86
ENDBRANCH  53  78
BRANCH  65  90
ATOM     90  C   UNL A   1      44.391  28.919  36.008  1.00  0.00     0.058 A 
ATOM     91  C   UNL A   1      44.288  27.793  36.839  1.00  0.00     0.135 A 
ATOM     92  C   UNL A   1      45.668  29.459  35.786  1.00  0.00     0.135 A 
ATOM     93  F   UNL A   1      43.089  27.243  37.086  1.00  0.00    -0.206 F 
ATOM     94  C   UNL A   1      45.408  27.233  37.442  1.00  0.00     0.059 A 
ATOM     95  C   UNL A   1      46.806  28.897  36.354  1.00  0.00     0.059 A 
ATOM     96  F   UNL A   1      45.821  30.529  34.989  1.00  0.00    -0.206 F 
ATOM     97  C   UNL A   1      46.663  27.790  37.190  1.00  0.00     0.060 A 
BRANCH  97  98
ATOM     98  S   UNL A   1      48.113  27.028  37.947  1.00  0.00     0.124 S 
ATOM     99  O   UNL A   1      47.509  26.263  39.032  1.00  0.00    -0.237 OA
ATOM    100  O   UNL A   1      48.661  26.242  36.844  1.00  0.00    -0.237 OA
ATOM    101  O   UNL A   1      48.923  28.169  38.357  1.00  0.00    -0.744 OA
ENDBRANCH  97  98
ENDBRANCH  65  90
ENDBRANCH  39  40
ENDBRANCH  31  34
ENDBRANCH  29  30
ENDBRANCH  28  29
ENDBRANCH   1  28
TORSDOF 20
ENDMDL
MODEL 3
REMARK VINA RESULT:     -10.8      3.387      8.357
REMARK SMILES CCC[C@@](C)(NC(=O)N1CCN(C)C(=O)C1(C)C)C(=O)NCCCCCCNC(=O)c1ccc(-c2c3nc(c(-c4c(F)cc(S(=O)(=O)[O-])cc4F)c4ccc([nH]4)c(-c4c(F)cc(S(=O)(=O)[O-])cc4F)c4nc(c(-c5c(F)cc(S(=O)(=O)[O-])cc5F)c5ccc2[nH]5)C=C4)C=C3)cc1
REMARK SMILES IDX 25 1 24 2 23 3 22 4 21 5 19 6 20 7 4 9 5 10 3 11 2 12 1 13
REMARK SMILES IDX 6 14 7 15 8 17 9 18 10 19 16 20 11 21 14 22 17 23 18 24
REMARK SMILES IDX 12 25 15 26 13 27 26 28 27 29 28 30 29 31 30 33 31 34 32 35
REMARK SMILES IDX 96 36 33 37 95 38 34 39 35 40 36 41 89 42 37 43 94 44 88 45
REMARK SMILES IDX 90 46 38 47 93 48 87 49 86 50 39 52 73 53 52 54 72 55 53 56
REMARK SMILES IDX 56 57 71 58 91 59 54 60 55 61 70 63 92 64 57 65 40 66 41 67
REMARK SMILES IDX 50 68 42 69 43 70 49 71 51 72 44 73 45 74 46 75 47 76 48 77
REMARK SMILES IDX 74 78 75 79 84 80 76 81 77 82 83 83 85 84 78 85 79 86 80 87
REMARK SMILES IDX 81 88 82 89 58 90 59 91 68 92 60 93 61 94 67 95 69 96 62 97
REMARK SMILES IDX 63 98 64 99 65 100 66 101
REMARK H PARENT 21 8 6 16 28 32 90 51 56 62
REMARK Flexibility Score: inf
ROOT
ATOM      1  C   UNL A   1      38.866  23.366  26.380  1.00  0.00     0.002 C 
ENDROOT
BRANCH   1   2
ATOM      2  C   UNL A   1      37.362  23.565  26.344  1.00  0.00     0.002 C 
BRANCH   2   3
ATOM      3  C   UNL A   1      36.719  23.877  24.969  1.00  0.00     0.021 C 
BRANCH   3   4
ATOM      4  C   UNL A   1      36.001  22.839  24.003  1.00  0.00     0.116 C 
BRANCH   4   5
ATOM      5  N   UNL A   1      34.501  22.751  23.723  1.00  0.00    -0.354 N 
ATOM      6  C   UNL A   1      33.325  23.441  24.001  1.00  0.00     0.245 C 
ATOM      7  O   UNL A   1      32.900  23.983  22.959  1.00  0.00    -0.272 OA
ATOM      8  H   UNL A   1      34.306  21.957  23.175  1.00  0.00     0.163 HD
BRANCH   6   9
ATOM      9  C   UNL A   1      32.460  23.771  25.429  1.00  0.00     0.117 C 
ATOM     10  C   UNL A   1      31.525  22.531  25.485  1.00  0.00     0.045 C 
BRANCH   9  11
ATOM     11  C   UNL A   1      33.402  23.728  26.705  1.00  0.00     0.038 C 
BRANCH  11  12
ATOM     12  C   UNL A   1      33.529  22.509  27.628  1.00  0.00    -0.000 C 
ATOM     13  C   UNL A   1      34.446  21.425  27.068  1.00  0.00     0.004 C 
ENDBRANCH  11  12
ENDBRANCH   9  11
BRANCH   9  14
ATOM     14  N   UNL A   1      31.513  24.972  25.868  1.00  0.00    -0.324 N 
ATOM     15  C   UNL A   1      31.411  26.352  25.724  1.00  0.00     0.319 C 
ATOM     16  H   UNL A   1      30.767  24.633  26.413  1.00  0.00     0.166 HD
ATOM     17  O   UNL A   1      31.102  27.032  26.701  1.00  0.00    -0.249 OA
BRANCH  15  18
ATOM     18  N   UNL A   1      31.424  26.883  24.444  1.00  0.00    -0.309 N 
ATOM     19  C   UNL A   1      30.552  26.536  23.355  1.00  0.00     0.144 C 
ATOM     20  C   UNL A   1      32.308  27.967  24.198  1.00  0.00     0.118 C 
ATOM     21  C   UNL A   1      29.571  27.689  23.183  1.00  0.00     0.140 C 
ATOM     22  C   UNL A   1      31.187  29.014  24.666  1.00  0.00     0.247 C 
ATOM     23  C   UNL A   1      33.617  27.156  24.352  1.00  0.00     0.045 C 
ATOM     24  C   UNL A   1      32.605  28.775  22.926  1.00  0.00     0.045 C 
ATOM     25  N   UNL A   1      30.059  28.972  23.736  1.00  0.00    -0.342 N 
ATOM     26  O   UNL A   1      31.354  29.982  25.398  1.00  0.00    -0.272 OA
ATOM     27  C   UNL A   1      29.704  30.188  23.019  1.00  0.00     0.146 C 
ENDBRANCH  15  18
ENDBRANCH   9  14
ENDBRANCH   6   9
ENDBRANCH   4   5
ENDBRANCH   3   4
ENDBRANCH   2   3
ENDBRANCH   1   2
BRANCH   1  28
ATOM     28  C   UNL A   1      39.243  21.924  26.091  1.00  0.00     0.021 C 
BRANCH  28  29
ATOM     29  C   UNL A   1      40.168  21.317  27.140  1.00  0.00     0.116 C 
BRANCH  29  30
ATOM     30  N   UNL A   1      40.739  20.047  26.702  1.00  0.00    -0.352 N 
ATOM     31  C   UNL A   1      41.981  19.859  26.111  1.00  0.00     0.251 C 
ATOM     32  H   UNL A   1      40.187  19.243  26.838  1.00  0.00     0.163 HD
ATOM     33  O   UNL A   1      42.311  18.844  25.582  1.00  0.00    -0.269 OA
BRANCH  31  34
ATOM     34  C   UNL A   1      42.874  21.032  26.219  1.00  0.00     0.039 A 
ATOM     35  C   UNL A   1      43.027  21.876  25.121  1.00  0.00     0.014 A 
ATOM     36  C   UNL A   1      43.254  21.416  27.510  1.00  0.00     0.014 A 
ATOM     37  C   UNL A   1      43.537  23.156  25.331  1.00  0.00     0.010 A 
ATOM     38  C   UNL A   1      43.660  22.720  27.723  1.00  0.00     0.010 A 
ATOM     39  C   UNL A   1      43.821  23.595  26.636  1.00  0.00    -0.014 A 
BRANCH  39  40
ATOM     40  C   UNL A   1      44.334  24.959  26.896  1.00  0.00     0.031 A 
ATOM     41  C   UNL A   1      43.368  26.012  27.365  1.00  0.00     0.074 A 
ATOM     42  C   UNL A   1      45.623  25.260  26.647  1.00  0.00     0.049 A 
ATOM     43  N   UNL A   1      43.576  27.282  27.585  1.00  0.00    -0.248 NA
ATOM     44  C   UNL A   1      41.971  25.588  27.575  1.00  0.00     0.031 C 
ATOM     45  C   UNL A   1      46.628  24.330  26.121  1.00  0.00     0.029 A 
ATOM     46  N   UNL A   1      46.311  26.437  26.796  1.00  0.00    -0.354 N 
ATOM     47  C   UNL A   1      42.338  27.806  27.938  1.00  0.00     0.074 A 
ATOM     48  C   UNL A   1      41.371  26.740  27.827  1.00  0.00     0.031 C 
ATOM     49  C   UNL A   1      47.808  24.966  26.022  1.00  0.00     0.029 A 
ATOM     50  C   UNL A   1      47.638  26.353  26.440  1.00  0.00     0.049 A 
ATOM     51  H   UNL A   1      45.895  27.265  27.126  1.00  0.00     0.167 HD
ATOM     52  C   UNL A   1      42.042  29.056  28.356  1.00  0.00     0.037 A 
ATOM     53  C   UNL A   1      48.602  27.296  26.452  1.00  0.00     0.037 A 
ATOM     54  C   UNL A   1      43.024  30.094  28.504  1.00  0.00     0.049 A 
ATOM     55  C   UNL A   1      48.250  28.679  26.934  1.00  0.00     0.074 A 
ATOM     56  C   UNL A   1      42.853  31.375  28.994  1.00  0.00     0.029 A 
ATOM     57  N   UNL A   1      44.363  29.965  28.164  1.00  0.00    -0.354 N 
ATOM     58  N   UNL A   1      47.091  29.135  27.350  1.00  0.00    -0.248 NA
ATOM     59  C   UNL A   1      49.331  29.673  26.956  1.00  0.00     0.031 C 
ATOM     60  C   UNL A   1      44.080  32.038  28.901  1.00  0.00     0.029 A 
ATOM     61  C   UNL A   1      45.026  31.154  28.405  1.00  0.00     0.049 A 
ATOM     62  H   UNL A   1      44.778  29.149  27.803  1.00  0.00     0.167 HD
ATOM     63  C   UNL A   1      47.309  30.464  27.700  1.00  0.00     0.074 A 
ATOM     64  C   UNL A   1      48.714  30.730  27.467  1.00  0.00     0.031 C 
ATOM     65  C   UNL A   1      46.428  31.384  28.166  1.00  0.00     0.037 A 
BRANCH  52  66
ATOM     66  C   UNL A   1      40.609  29.358  28.697  1.00  0.00     0.058 A 
ATOM     67  C   UNL A   1      39.630  29.520  27.703  1.00  0.00     0.135 A 
ATOM     68  C   UNL A   1      40.203  29.459  30.037  1.00  0.00     0.135 A 
ATOM     69  F   UNL A   1      39.969  29.460  26.404  1.00  0.00    -0.206 F 
ATOM     70  C   UNL A   1      38.305  29.791  28.023  1.00  0.00     0.059 A 
ATOM     71  C   UNL A   1      38.876  29.698  30.382  1.00  0.00     0.059 A 
ATOM     72  F   UNL A   1      41.099  29.324  31.027  1.00  0.00    -0.206 F 
ATOM     73  C   UNL A   1      37.937  29.873  29.366  1.00  0.00     0.060 A 
BRANCH  73  74
ATOM     74  S   UNL A   1      36.207  30.194  29.763  1.00  0.00     0.124 S 
ATOM     75  O   UNL A   1      35.527  29.571  28.630  1.00  0.00    -0.237 OA
ATOM     76  O   UNL A   1      36.051  29.516  31.046  1.00  0.00    -0.237 OA
ATOM     77  O   UNL A   1      36.134  31.650  29.815  1.00  0.00    -0.744 OA
ENDBRANCH  73  74
ENDBRANCH  52  66
BRANCH  53  78
ATOM     78  C   UNL A   1      49.985  26.963  26.013  1.00  0.00     0.058 A 
ATOM     79  C   UNL A   1      50.392  27.159  24.684  1.00  0.00     0.135 A 
ATOM     80  C   UNL A   1      50.930  26.444  26.912  1.00  0.00     0.135 A 
ATOM     81  F   UNL A   1      49.526  27.649  23.784  1.00  0.00    -0.206 F 
ATOM     82  C   UNL A   1      51.675  26.831  24.256  1.00  0.00     0.059 A 
ATOM     83  C   UNL A   1      52.227  26.134  26.514  1.00  0.00     0.059 A 
ATOM     84  F   UNL A   1      50.600  26.254  28.199  1.00  0.00    -0.206 F 
ATOM     85  C   UNL A   1      52.587  26.320  25.181  1.00  0.00     0.060 A 
BRANCH  85  86
ATOM     86  S   UNL A   1      54.261  25.935  24.625  1.00  0.00     0.124 S 
ATOM     87  O   UNL A   1      54.344  24.506  24.907  1.00  0.00    -0.237 OA
ATOM     88  O   UNL A   1      54.209  26.307  23.215  1.00  0.00    -0.237 OA
ATOM     89  O   UNL A   1      55.098  26.792  25.460  1.00  0.00    -0.744 OA
ENDBRANCH  85  86
ENDBRANCH  53  78
BRANCH  65  90
ATOM     90  C   UNL A   1      46.961  32.756  28.469  1.00  0.00     0.058 A 
ATOM     91  C   UNL A   1      47.500  33.071  29.726  1.00  0.00     0.135 A 
ATOM     92  C   UNL A   1      46.998  33.742  27.470  1.00  0.00     0.135 A 
ATOM     93  F   UNL A   1      47.483  32.165  30.715  1.00  0.00    -0.206 F 
ATOM     94  C   UNL A   1      48.039  34.326  29.988  1.00  0.00     0.059 A 
ATOM     95  C   UNL A   1      47.560  34.993  27.701  1.00  0.00     0.059 A 
ATOM     96  F   UNL A   1      46.506  33.485  26.247  1.00  0.00    -0.206 F 
ATOM     97  C   UNL A   1      48.068  35.278  28.967  1.00  0.00     0.060 A 
BRANCH  97  98
ATOM     98  S   UNL A   1      48.809  36.887  29.310  1.00  0.00     0.124 S 
ATOM     99  O   UNL A   1      50.142  36.724  28.739  1.00  0.00    -0.237 OA
ATOM    100  O   UNL A   1      47.919  37.797  28.594  1.00  0.00    -0.237 OA
ATOM    101  O   UNL A   1      48.755  36.984  30.764  1.00  0.00    -0.744 OA
ENDBRANCH  97  98
ENDBRANCH  65  90
ENDBRANCH  39  40
ENDBRANCH  31  34
ENDBRANCH  29  30
ENDBRANCH  28  29
ENDBRANCH   1  28
TORSDOF 20
ENDMDL
