MODEL 1
REMARK VINA RESULT:     -10.5      0.000      0.000
REMARK SMILES COc1ccc([C@@H]([NH3+])CC(=O)NCCCCCCNC(=O)c2ccc(-c3c4nc(c(-c5c(F)cc(S(=O)(=O)[O-])cc5F)c5ccc([nH]5)c(-c5c(F)cc(S(=O)(=O)[O-])cc5F)c5nc(c(-c6c(F)cc(S(=O)(=O)[O-])cc6F)c6ccc3[nH]6)C=C5)C=C4)cc2)cc1
REMARK SMILES IDX 15 1 14 2 13 3 12 4 10 5 11 6 9 8 7 9 6 10 3 11 4 12 89 13
REMARK SMILES IDX 5 14 88 15 2 16 1 17 8 18 16 22 17 23 18 24 19 25 20 26
REMARK SMILES IDX 21 28 22 29 23 30 87 31 24 32 86 33 25 34 26 35 27 36 80 37
REMARK SMILES IDX 28 38 85 39 79 40 81 41 29 42 84 43 78 44 77 45 30 47 64 48
REMARK SMILES IDX 43 49 63 50 44 51 47 52 62 53 82 54 45 55 46 56 61 58 83 59
REMARK SMILES IDX 48 60 31 61 32 62 41 63 33 64 34 65 40 66 42 67 35 68 36 69
REMARK SMILES IDX 37 70 38 71 39 72 65 73 66 74 75 75 67 76 68 77 74 78 76 79
REMARK SMILES IDX 69 80 70 81 71 82 72 83 73 84 49 85 50 86 59 87 51 88 52 89
REMARK SMILES IDX 58 90 60 91 53 92 54 93 55 94 56 95 57 96
REMARK H PARENT 12 7 8 19 8 20 8 21 19 27 81 46 47 57
REMARK Flexibility Score: inf
ROOT
ATOM      1  C   UNL A   1      41.078  19.897  26.572  1.00  0.00     0.002 C 
ENDROOT
BRANCH   1   2
ATOM      2  C   UNL A   1      42.344  19.864  25.710  1.00  0.00     0.021 C 
BRANCH   2   3
ATOM      3  C   UNL A   1      43.324  18.732  26.030  1.00  0.00     0.116 C 
BRANCH   3   4
ATOM      4  N   UNL A   1      44.165  18.435  24.881  1.00  0.00    -0.356 N 
ATOM      5  C   UNL A   1      45.216  19.127  24.362  1.00  0.00     0.226 C 
ATOM      6  O   UNL A   1      45.677  18.755  23.280  1.00  0.00    -0.275 OA
ATOM      7  H   UNL A   1      43.939  17.604  24.405  1.00  0.00     0.163 HD
BRANCH   5   8
ATOM      8  C   UNL A   1      45.835  20.300  25.095  1.00  0.00     0.170 C 
BRANCH   8   9
ATOM      9  C   UNL A   1      45.068  21.610  24.843  1.00  0.00     0.221 C 
BRANCH   9  10
ATOM     10  C   UNL A   1      45.725  22.827  25.473  1.00  0.00     0.010 A 
ATOM     11  C   UNL A   1      46.925  25.084  26.622  1.00  0.00     0.118 A 
ATOM     12  C   UNL A   1      46.242  24.181  27.429  1.00  0.00     0.047 A 
ATOM     13  C   UNL A   1      47.072  24.843  25.257  1.00  0.00     0.047 A 
ATOM     14  C   UNL A   1      45.647  23.058  26.858  1.00  0.00     0.014 A 
ATOM     15  C   UNL A   1      46.472  23.717  24.685  1.00  0.00     0.014 A 
BRANCH  11  16
ATOM     16  O   UNL A   1      47.462  26.181  27.235  1.00  0.00    -0.497 OA
ATOM     17  C   UNL A   1      47.450  26.047  28.653  1.00  0.00     0.278 C 
ENDBRANCH  11  16
ENDBRANCH   9  10
BRANCH   9  18
ATOM     18  N   UNL A   1      44.946  21.849  23.395  1.00  0.00    -0.351 N 
ATOM     19  H   UNL A   1      44.228  22.553  23.225  1.00  0.00     0.345 HD
ATOM     20  H   UNL A   1      44.687  20.979  22.927  1.00  0.00     0.345 HD
ATOM     21  H   UNL A   1      45.840  22.178  23.028  1.00  0.00     0.345 HD
ENDBRANCH   9  18
ENDBRANCH   8   9
ENDBRANCH   5   8
ENDBRANCH   3   4
ENDBRANCH   2   3
ENDBRANCH   1   2
BRANCH   1  22
ATOM     22  C   UNL A   1      40.266  21.197  26.513  1.00  0.00     0.002 C 
BRANCH  22  23
ATOM     23  C   UNL A   1      40.567  22.240  27.597  1.00  0.00     0.021 C 
BRANCH  23  24
ATOM     24  C   UNL A   1      41.884  23.003  27.450  1.00  0.00     0.116 C 
BRANCH  24  25
ATOM     25  N   UNL A   1      41.950  23.833  26.265  1.00  0.00    -0.352 N 
ATOM     26  C   UNL A   1      41.834  25.197  26.136  1.00  0.00     0.251 C 
ATOM     27  H   UNL A   1      42.100  23.346  25.423  1.00  0.00     0.163 HD
ATOM     28  O   UNL A   1      41.877  25.691  25.009  1.00  0.00    -0.269 OA
BRANCH  26  29
ATOM     29  C   UNL A   1      41.623  26.082  27.312  1.00  0.00     0.039 A 
ATOM     30  C   UNL A   1      40.462  25.899  28.069  1.00  0.00     0.014 A 
ATOM     31  C   UNL A   1      42.498  27.119  27.650  1.00  0.00     0.014 A 
ATOM     32  C   UNL A   1      40.198  26.720  29.171  1.00  0.00     0.010 A 
ATOM     33  C   UNL A   1      42.267  27.898  28.795  1.00  0.00     0.010 A 
ATOM     34  C   UNL A   1      41.104  27.721  29.560  1.00  0.00    -0.014 A 
BRANCH  34  35
ATOM     35  C   UNL A   1      40.796  28.578  30.745  1.00  0.00     0.031 A 
ATOM     36  C   UNL A   1      41.605  28.471  32.013  1.00  0.00     0.074 A 
ATOM     37  C   UNL A   1      39.803  29.490  30.675  1.00  0.00     0.049 A 
ATOM     38  N   UNL A   1      41.560  29.221  33.088  1.00  0.00    -0.248 NA
ATOM     39  C   UNL A   1      42.580  27.373  32.096  1.00  0.00     0.031 C 
ATOM     40  C   UNL A   1      38.898  29.668  29.537  1.00  0.00     0.029 A 
ATOM     41  N   UNL A   1      39.399  30.452  31.571  1.00  0.00    -0.354 N 
ATOM     42  C   UNL A   1      42.500  28.691  33.967  1.00  0.00     0.074 A 
ATOM     43  C   UNL A   1      43.054  27.518  33.325  1.00  0.00     0.031 C 
ATOM     44  C   UNL A   1      38.077  30.702  29.785  1.00  0.00     0.029 A 
ATOM     45  C   UNL A   1      38.381  31.252  31.104  1.00  0.00     0.049 A 
ATOM     46  H   UNL A   1      39.802  30.559  32.463  1.00  0.00     0.167 HD
ATOM     47  C   UNL A   1      42.892  29.153  35.180  1.00  0.00     0.037 A 
ATOM     48  C   UNL A   1      37.770  32.317  31.661  1.00  0.00     0.037 A 
ATOM     49  C   UNL A   1      42.353  30.326  35.819  1.00  0.00     0.049 A 
ATOM     50  C   UNL A   1      38.233  32.821  33.002  1.00  0.00     0.074 A 
ATOM     51  C   UNL A   1      42.725  30.898  37.025  1.00  0.00     0.029 A 
ATOM     52  N   UNL A   1      41.327  31.108  35.311  1.00  0.00    -0.354 N 
ATOM     53  N   UNL A   1      39.184  32.357  33.777  1.00  0.00    -0.248 NA
ATOM     54  C   UNL A   1      37.551  34.009  33.536  1.00  0.00     0.031 C 
ATOM     55  C   UNL A   1      41.894  31.997  37.268  1.00  0.00     0.029 A 
ATOM     56  C   UNL A   1      41.040  32.144  36.188  1.00  0.00     0.049 A 
ATOM     57  H   UNL A   1      40.869  30.950  34.455  1.00  0.00     0.167 HD
ATOM     58  C   UNL A   1      39.234  33.212  34.874  1.00  0.00     0.074 A 
ATOM     59  C   UNL A   1      38.229  34.232  34.654  1.00  0.00     0.031 C 
ATOM     60  C   UNL A   1      40.039  33.157  35.964  1.00  0.00     0.037 A 
BRANCH  47  61
ATOM     61  C   UNL A   1      43.971  28.385  35.901  1.00  0.00     0.058 A 
ATOM     62  C   UNL A   1      43.667  27.293  36.730  1.00  0.00     0.135 A 
ATOM     63  C   UNL A   1      45.325  28.718  35.731  1.00  0.00     0.135 A 
ATOM     64  F   UNL A   1      42.389  26.937  36.938  1.00  0.00    -0.206 F 
ATOM     65  C   UNL A   1      44.661  26.581  37.393  1.00  0.00     0.059 A 
ATOM     66  C   UNL A   1      46.339  28.001  36.360  1.00  0.00     0.059 A 
ATOM     67  F   UNL A   1      45.675  29.748  34.945  1.00  0.00    -0.206 F 
ATOM     68  C   UNL A   1      45.996  26.945  37.203  1.00  0.00     0.060 A 
BRANCH  68  69
ATOM     69  S   UNL A   1      47.276  26.014  38.072  1.00  0.00     0.124 S 
ATOM     70  O   UNL A   1      47.331  26.721  39.350  1.00  0.00    -0.237 OA
ATOM     71  O   UNL A   1      46.706  24.669  38.119  1.00  0.00    -0.237 OA
ATOM     72  O   UNL A   1      48.447  26.166  37.220  1.00  0.00    -0.744 OA
ENDBRANCH  68  69
ENDBRANCH  47  61
BRANCH  48  73
ATOM     73  C   UNL A   1      36.675  33.013  30.930  1.00  0.00     0.058 A 
ATOM     74  C   UNL A   1      36.948  33.846  29.834  1.00  0.00     0.135 A 
ATOM     75  C   UNL A   1      35.335  32.862  31.317  1.00  0.00     0.135 A 
ATOM     76  F   UNL A   1      38.214  34.030  29.431  1.00  0.00    -0.206 F 
ATOM     77  C   UNL A   1      35.934  34.519  29.159  1.00  0.00     0.059 A 
ATOM     78  C   UNL A   1      34.301  33.504  30.641  1.00  0.00     0.059 A 
ATOM     79  F   UNL A   1      35.019  32.065  32.350  1.00  0.00    -0.206 F 
ATOM     80  C   UNL A   1      34.613  34.341  29.571  1.00  0.00     0.060 A 
BRANCH  80  81
ATOM     81  S   UNL A   1      33.299  35.182  28.661  1.00  0.00     0.124 S 
ATOM     82  O   UNL A   1      34.057  36.147  27.874  1.00  0.00    -0.237 OA
ATOM     83  O   UNL A   1      32.692  34.084  27.913  1.00  0.00    -0.237 OA
ATOM     84  O   UNL A   1      32.465  35.744  29.719  1.00  0.00    -0.744 OA
ENDBRANCH  80  81
ENDBRANCH  48  73
BRANCH  60  85
ATOM     85  C   UNL A   1      39.893  34.253  36.988  1.00  0.00     0.058 A 
ATOM     86  C   UNL A   1      40.605  35.461  36.890  1.00  0.00     0.135 A 
ATOM     87  C   UNL A   1      39.020  34.098  38.078  1.00  0.00     0.135 A 
ATOM     88  F   UNL A   1      41.455  35.663  35.871  1.00  0.00    -0.206 F 
ATOM     89  C   UNL A   1      40.490  36.454  37.859  1.00  0.00     0.059 A 
ATOM     90  C   UNL A   1      38.866  35.091  39.041  1.00  0.00     0.059 A 
ATOM     91  F   UNL A   1      38.302  32.972  38.214  1.00  0.00    -0.206 F 
ATOM     92  C   UNL A   1      39.623  36.257  38.935  1.00  0.00     0.060 A 
BRANCH  92  93
ATOM     93  S   UNL A   1      39.488  37.548  40.189  1.00  0.00     0.124 S 
ATOM     94  O   UNL A   1      38.488  38.430  39.597  1.00  0.00    -0.237 OA
ATOM     95  O   UNL A   1      39.055  36.800  41.365  1.00  0.00    -0.237 OA
ATOM     96  O   UNL A   1      40.841  38.092  40.263  1.00  0.00    -0.744 OA
ENDBRANCH  92  93
ENDBRANCH  60  85
ENDBRANCH  34  35
ENDBRANCH  26  29
ENDBRANCH  24  25
ENDBRANCH  23  24
ENDBRANCH  22  23
ENDBRANCH   1  22
TORSDOF 20
ENDMDL
MODEL 2
REMARK VINA RESULT:     -10.5      4.862     12.614
REMARK SMILES COc1ccc([C@@H]([NH3+])CC(=O)NCCCCCCNC(=O)c2ccc(-c3c4nc(c(-c5c(F)cc(S(=O)(=O)[O-])cc5F)c5ccc([nH]5)c(-c5c(F)cc(S(=O)(=O)[O-])cc5F)c5nc(c(-c6c(F)cc(S(=O)(=O)[O-])cc6F)c6ccc3[nH]6)C=C5)C=C4)cc2)cc1
REMARK SMILES IDX 15 1 14 2 13 3 12 4 10 5 11 6 9 8 7 9 6 10 3 11 4 12 89 13
REMARK SMILES IDX 5 14 88 15 2 16 1 17 8 18 16 22 17 23 18 24 19 25 20 26
REMARK SMILES IDX 21 28 22 29 23 30 87 31 24 32 86 33 25 34 26 35 27 36 80 37
REMARK SMILES IDX 28 38 85 39 79 40 81 41 29 42 84 43 78 44 77 45 30 47 64 48
REMARK SMILES IDX 43 49 63 50 44 51 47 52 62 53 82 54 45 55 46 56 61 58 83 59
REMARK SMILES IDX 48 60 31 61 32 62 41 63 33 64 34 65 40 66 42 67 35 68 36 69
REMARK SMILES IDX 37 70 38 71 39 72 65 73 66 74 75 75 67 76 68 77 74 78 76 79
REMARK SMILES IDX 69 80 70 81 71 82 72 83 73 84 49 85 50 86 59 87 51 88 52 89
REMARK SMILES IDX 58 90 60 91 53 92 54 93 55 94 56 95 57 96
REMARK H PARENT 12 7 8 19 8 20 8 21 19 27 81 46 47 57
REMARK Flexibility Score: inf
ROOT
ATOM      1  C   UNL A   1      37.456  34.055  29.860  1.00  0.00     0.002 C 
ENDROOT
BRANCH   1   2
ATOM      2  C   UNL A   1      38.150  33.310  31.006  1.00  0.00     0.021 C 
BRANCH   2   3
ATOM      3  C   UNL A   1      39.071  34.166  31.880  1.00  0.00     0.116 C 
BRANCH   3   4
ATOM      4  N   UNL A   1      39.719  33.355  32.898  1.00  0.00    -0.356 N 
ATOM      5  C   UNL A   1      39.528  33.321  34.245  1.00  0.00     0.226 C 
ATOM      6  O   UNL A   1      40.315  32.657  34.925  1.00  0.00    -0.275 OA
ATOM      7  H   UNL A   1      40.403  32.734  32.559  1.00  0.00     0.163 HD
BRANCH   5   8
ATOM      8  C   UNL A   1      38.370  34.044  34.903  1.00  0.00     0.170 C 
BRANCH   8   9
ATOM      9  C   UNL A   1      37.096  33.182  34.941  1.00  0.00     0.221 C 
BRANCH   9  10
ATOM     10  C   UNL A   1      36.036  33.625  33.946  1.00  0.00     0.010 A 
ATOM     11  C   UNL A   1      34.066  34.429  32.122  1.00  0.00     0.118 A 
ATOM     12  C   UNL A   1      34.822  35.388  32.787  1.00  0.00     0.047 A 
ATOM     13  C   UNL A   1      34.323  33.072  32.307  1.00  0.00     0.047 A 
ATOM     14  C   UNL A   1      35.803  34.988  33.692  1.00  0.00     0.014 A 
ATOM     15  C   UNL A   1      35.305  32.672  33.218  1.00  0.00     0.014 A 
BRANCH  11  16
ATOM     16  O   UNL A   1      33.100  34.883  31.268  1.00  0.00    -0.497 OA
ATOM     17  C   UNL A   1      32.508  36.088  31.742  1.00  0.00     0.278 C 
ENDBRANCH  11  16
ENDBRANCH   9  10
BRANCH   9  18
ATOM     18  N   UNL A   1      37.434  31.776  34.662  1.00  0.00    -0.351 N 
ATOM     19  H   UNL A   1      38.076  31.731  33.870  1.00  0.00     0.345 HD
ATOM     20  H   UNL A   1      36.582  31.260  34.439  1.00  0.00     0.345 HD
ATOM     21  H   UNL A   1      37.876  31.363  35.483  1.00  0.00     0.345 HD
ENDBRANCH   9  18
ENDBRANCH   8   9
ENDBRANCH   5   8
ENDBRANCH   3   4
ENDBRANCH   2   3
ENDBRANCH   1   2
BRANCH   1  22
ATOM     22  C   UNL A   1      37.123  33.213  28.623  1.00  0.00     0.002 C 
BRANCH  22  23
ATOM     23  C   UNL A   1      35.656  33.211  28.172  1.00  0.00     0.021 C 
BRANCH  23  24
ATOM     24  C   UNL A   1      34.691  32.387  29.023  1.00  0.00     0.116 C 
BRANCH  24  25
ATOM     25  N   UNL A   1      34.139  31.237  28.335  1.00  0.00    -0.352 N 
ATOM     26  C   UNL A   1      34.736  30.047  27.988  1.00  0.00     0.251 C 
ATOM     27  H   UNL A   1      33.194  31.320  28.076  1.00  0.00     0.163 HD
ATOM     28  O   UNL A   1      34.081  29.219  27.356  1.00  0.00    -0.269 OA
BRANCH  26  29
ATOM     29  C   UNL A   1      36.155  29.753  28.322  1.00  0.00     0.039 A 
ATOM     30  C   UNL A   1      37.103  29.864  27.301  1.00  0.00     0.014 A 
ATOM     31  C   UNL A   1      36.564  29.316  29.585  1.00  0.00     0.014 A 
ATOM     32  C   UNL A   1      38.449  29.574  27.551  1.00  0.00     0.010 A 
ATOM     33  C   UNL A   1      37.923  29.091  29.852  1.00  0.00     0.010 A 
ATOM     34  C   UNL A   1      38.882  29.199  28.834  1.00  0.00    -0.014 A 
BRANCH  34  35
ATOM     35  C   UNL A   1      40.327  28.901  29.070  1.00  0.00     0.031 A 
ATOM     36  C   UNL A   1      40.916  27.562  28.703  1.00  0.00     0.074 A 
ATOM     37  C   UNL A   1      41.134  29.853  29.586  1.00  0.00     0.049 A 
ATOM     38  N   UNL A   1      42.170  27.177  28.719  1.00  0.00    -0.248 NA
ATOM     39  C   UNL A   1      39.978  26.512  28.278  1.00  0.00     0.031 C 
ATOM     40  C   UNL A   1      40.696  31.174  30.042  1.00  0.00     0.029 A 
ATOM     41  N   UNL A   1      42.493  29.865  29.795  1.00  0.00    -0.354 N 
ATOM     42  C   UNL A   1      42.170  25.850  28.303  1.00  0.00     0.074 A 
ATOM     43  C   UNL A   1      40.786  25.476  28.103  1.00  0.00     0.031 C 
ATOM     44  C   UNL A   1      41.768  31.881  30.436  1.00  0.00     0.029 A 
ATOM     45  C   UNL A   1      42.968  31.063  30.279  1.00  0.00     0.049 A 
ATOM     46  H   UNL A   1      43.072  29.089  29.616  1.00  0.00     0.167 HD
ATOM     47  C   UNL A   1      43.223  25.025  28.075  1.00  0.00     0.037 A 
ATOM     48  C   UNL A   1      44.226  31.468  30.551  1.00  0.00     0.037 A 
ATOM     49  C   UNL A   1      44.603  25.395  28.261  1.00  0.00     0.049 A 
ATOM     50  C   UNL A   1      45.380  30.540  30.275  1.00  0.00     0.074 A 
ATOM     51  C   UNL A   1      45.738  24.642  28.007  1.00  0.00     0.029 A 
ATOM     52  N   UNL A   1      45.040  26.617  28.749  1.00  0.00    -0.354 N 
ATOM     53  N   UNL A   1      45.364  29.318  29.798  1.00  0.00    -0.248 NA
ATOM     54  C   UNL A   1      46.727  31.056  30.557  1.00  0.00     0.031 C 
ATOM     55  C   UNL A   1      46.858  25.391  28.384  1.00  0.00     0.029 A 
ATOM     56  C   UNL A   1      46.426  26.632  28.822  1.00  0.00     0.049 A 
ATOM     57  H   UNL A   1      44.454  27.363  29.006  1.00  0.00     0.167 HD
ATOM     58  C   UNL A   1      46.697  28.932  29.695  1.00  0.00     0.074 A 
ATOM     59  C   UNL A   1      47.493  30.056  30.143  1.00  0.00     0.031 C 
ATOM     60  C   UNL A   1      47.214  27.753  29.268  1.00  0.00     0.037 A 
BRANCH  47  61
ATOM     61  C   UNL A   1      42.921  23.631  27.588  1.00  0.00     0.058 A 
ATOM     62  C   UNL A   1      42.841  22.544  28.474  1.00  0.00     0.135 A 
ATOM     63  C   UNL A   1      42.672  23.384  26.228  1.00  0.00     0.135 A 
ATOM     64  F   UNL A   1      43.080  22.719  29.783  1.00  0.00    -0.206 F 
ATOM     65  C   UNL A   1      42.559  21.258  28.026  1.00  0.00     0.059 A 
ATOM     66  C   UNL A   1      42.359  22.110  25.761  1.00  0.00     0.059 A 
ATOM     67  F   UNL A   1      42.730  24.386  25.336  1.00  0.00    -0.206 F 
ATOM     68  C   UNL A   1      42.321  21.050  26.666  1.00  0.00     0.060 A 
BRANCH  68  69
ATOM     69  S   UNL A   1      41.960  19.375  26.099  1.00  0.00     0.124 S 
ATOM     70  O   UNL A   1      42.873  19.249  24.964  1.00  0.00    -0.237 OA
ATOM     71  O   UNL A   1      42.296  18.569  27.271  1.00  0.00    -0.237 OA
ATOM     72  O   UNL A   1      40.544  19.426  25.762  1.00  0.00    -0.744 OA
ENDBRANCH  68  69
ENDBRANCH  47  61
BRANCH  48  73
ATOM     73  C   UNL A   1      44.469  32.838  31.078  1.00  0.00     0.058 A 
ATOM     74  C   UNL A   1      44.658  33.927  30.212  1.00  0.00     0.135 A 
ATOM     75  C   UNL A   1      44.520  33.086  32.458  1.00  0.00     0.135 A 
ATOM     76  F   UNL A   1      44.626  33.740  28.883  1.00  0.00    -0.206 F 
ATOM     77  C   UNL A   1      44.909  35.208  30.694  1.00  0.00     0.059 A 
ATOM     78  C   UNL A   1      44.744  34.364  32.964  1.00  0.00     0.059 A 
ATOM     79  F   UNL A   1      44.332  32.083  33.328  1.00  0.00    -0.206 F 
ATOM     80  C   UNL A   1      44.949  35.416  32.073  1.00  0.00     0.060 A 
BRANCH  80  81
ATOM     81  S   UNL A   1      45.229  37.090  32.691  1.00  0.00     0.124 S 
ATOM     82  O   UNL A   1      45.663  37.781  31.483  1.00  0.00    -0.237 OA
ATOM     83  O   UNL A   1      43.909  37.456  33.196  1.00  0.00    -0.237 OA
ATOM     84  O   UNL A   1      46.253  36.903  33.715  1.00  0.00    -0.744 OA
ENDBRANCH  80  81
ENDBRANCH  48  73
BRANCH  60  85
ATOM     85  C   UNL A   1      48.715  27.629  29.228  1.00  0.00     0.058 A 
ATOM     86  C   UNL A   1      49.450  27.137  30.320  1.00  0.00     0.135 A 
ATOM     87  C   UNL A   1      49.430  27.997  28.076  1.00  0.00     0.135 A 
ATOM     88  F   UNL A   1      48.819  26.772  31.448  1.00  0.00    -0.206 F 
ATOM     89  C   UNL A   1      50.839  27.058  30.287  1.00  0.00     0.059 A 
ATOM     90  C   UNL A   1      50.816  27.897  28.010  1.00  0.00     0.059 A 
ATOM     91  F   UNL A   1      48.779  28.459  26.996  1.00  0.00    -0.206 F 
ATOM     92  C   UNL A   1      51.514  27.447  29.129  1.00  0.00     0.060 A 
BRANCH  92  93
ATOM     93  S   UNL A   1      53.316  27.349  29.100  1.00  0.00     0.124 S 
ATOM     94  O   UNL A   1      53.543  26.446  27.977  1.00  0.00    -0.237 OA
ATOM     95  O   UNL A   1      53.704  28.739  28.883  1.00  0.00    -0.237 OA
ATOM     96  O   UNL A   1      53.649  26.811  30.416  1.00  0.00    -0.744 OA
ENDBRANCH  92  93
ENDBRANCH  60  85
ENDBRANCH  34  35
ENDBRANCH  26  29
ENDBRANCH  24  25
ENDBRANCH  23  24
ENDBRANCH  22  23
ENDBRANCH   1  22
TORSDOF 20
ENDMDL
MODEL 3
REMARK VINA RESULT:     -10.3      5.902      8.842
REMARK SMILES COc1ccc([C@@H]([NH3+])CC(=O)NCCCCCCNC(=O)c2ccc(-c3c4nc(c(-c5c(F)cc(S(=O)(=O)[O-])cc5F)c5ccc([nH]5)c(-c5c(F)cc(S(=O)(=O)[O-])cc5F)c5nc(c(-c6c(F)cc(S(=O)(=O)[O-])cc6F)c6ccc3[nH]6)C=C5)C=C4)cc2)cc1
REMARK SMILES IDX 15 1 14 2 13 3 12 4 10 5 11 6 9 8 7 9 6 10 3 11 4 12 89 13
REMARK SMILES IDX 5 14 88 15 2 16 1 17 8 18 16 22 17 23 18 24 19 25 20 26
REMARK SMILES IDX 21 28 22 29 23 30 87 31 24 32 86 33 25 34 26 35 27 36 80 37
REMARK SMILES IDX 28 38 85 39 79 40 81 41 29 42 84 43 78 44 77 45 30 47 64 48
REMARK SMILES IDX 43 49 63 50 44 51 47 52 62 53 82 54 45 55 46 56 61 58 83 59
REMARK SMILES IDX 48 60 31 61 32 62 41 63 33 64 34 65 40 66 42 67 35 68 36 69
REMARK SMILES IDX 37 70 38 71 39 72 65 73 66 74 75 75 67 76 68 77 74 78 76 79
REMARK SMILES IDX 69 80 70 81 71 82 72 83 73 84 49 85 50 86 59 87 51 88 52 89
REMARK SMILES IDX 58 90 60 91 53 92 54 93 55 94 56 95 57 96
REMARK H PARENT 12 7 8 19 8 20 8 21 19 27 81 46 47 57
REMARK Flexibility Score: inf
ROOT
ATOM      1  C   UNL A   1      34.610  20.830  25.304  1.00  0.00     0.002 C 
ENDROOT
BRANCH   1   2
ATOM      2  C   UNL A   1      33.342  20.180  24.742  1.00  0.00     0.021 C 
BRANCH   2   3
ATOM      3  C   UNL A   1      32.133  21.111  24.607  1.00  0.00     0.116 C 
BRANCH   3   4
ATOM      4  N   UNL A   1      31.698  21.586  25.910  1.00  0.00    -0.356 N 
ATOM      5  C   UNL A   1      31.369  22.842  26.320  1.00  0.00     0.226 C 
ATOM      6  O   UNL A   1      31.180  23.027  27.526  1.00  0.00    -0.275 OA
ATOM      7  H   UNL A   1      31.633  20.892  26.605  1.00  0.00     0.163 HD
BRANCH   5   8
ATOM      8  C   UNL A   1      31.201  23.981  25.336  1.00  0.00     0.170 C 
BRANCH   8   9
ATOM      9  C   UNL A   1      30.564  25.221  25.987  1.00  0.00     0.221 C 
BRANCH   9  10
ATOM     10  C   UNL A   1      31.564  26.322  26.301  1.00  0.00     0.010 A 
ATOM     11  C   UNL A   1      33.410  28.355  26.858  1.00  0.00     0.118 A 
ATOM     12  C   UNL A   1      32.133  28.417  27.403  1.00  0.00     0.047 A 
ATOM     13  C   UNL A   1      33.800  27.260  26.089  1.00  0.00     0.047 A 
ATOM     14  C   UNL A   1      31.216  27.404  27.127  1.00  0.00     0.014 A 
ATOM     15  C   UNL A   1      32.878  26.246  25.811  1.00  0.00     0.014 A 
BRANCH  11  16
ATOM     16  O   UNL A   1      34.256  29.391  27.140  1.00  0.00    -0.497 OA
ATOM     17  C   UNL A   1      33.560  30.632  27.204  1.00  0.00     0.278 C 
ENDBRANCH  11  16
ENDBRANCH   9  10
BRANCH   9  18
ATOM     18  N   UNL A   1      29.528  25.776  25.100  1.00  0.00    -0.351 N 
ATOM     19  H   UNL A   1      29.970  26.200  24.284  1.00  0.00     0.345 HD
ATOM     20  H   UNL A   1      28.993  26.485  25.604  1.00  0.00     0.345 HD
ATOM     21  H   UNL A   1      28.902  25.029  24.799  1.00  0.00     0.345 HD
ENDBRANCH   9  18
ENDBRANCH   8   9
ENDBRANCH   5   8
ENDBRANCH   3   4
ENDBRANCH   2   3
ENDBRANCH   1   2
BRANCH   1  22
ATOM     22  C   UNL A   1      35.066  22.116  24.602  1.00  0.00     0.002 C 
BRANCH  22  23
ATOM     23  C   UNL A   1      35.050  23.397  25.446  1.00  0.00     0.021 C 
BRANCH  23  24
ATOM     24  C   UNL A   1      36.398  23.855  26.002  1.00  0.00     0.116 C 
BRANCH  24  25
ATOM     25  N   UNL A   1      37.431  22.842  25.937  1.00  0.00    -0.352 N 
ATOM     26  C   UNL A   1      38.755  22.907  26.307  1.00  0.00     0.251 C 
ATOM     27  H   UNL A   1      37.143  21.974  25.574  1.00  0.00     0.163 HD
ATOM     28  O   UNL A   1      39.472  21.925  26.116  1.00  0.00    -0.269 OA
BRANCH  26  29
ATOM     29  C   UNL A   1      39.348  24.139  26.890  1.00  0.00     0.039 A 
ATOM     30  C   UNL A   1      40.011  25.018  26.029  1.00  0.00     0.014 A 
ATOM     31  C   UNL A   1      39.321  24.421  28.260  1.00  0.00     0.014 A 
ATOM     32  C   UNL A   1      40.610  26.180  26.527  1.00  0.00     0.010 A 
ATOM     33  C   UNL A   1      39.865  25.619  28.749  1.00  0.00     0.010 A 
ATOM     34  C   UNL A   1      40.532  26.507  27.891  1.00  0.00    -0.014 A 
BRANCH  34  35
ATOM     35  C   UNL A   1      41.178  27.758  28.391  1.00  0.00     0.031 A 
ATOM     36  C   UNL A   1      42.665  27.973  28.257  1.00  0.00     0.074 A 
ATOM     37  C   UNL A   1      40.421  28.731  28.940  1.00  0.00     0.049 A 
ATOM     38  N   UNL A   1      43.372  29.047  28.518  1.00  0.00    -0.248 NA
ATOM     39  C   UNL A   1      43.467  26.834  27.785  1.00  0.00     0.031 C 
ATOM     40  C   UNL A   1      38.981  28.642  29.189  1.00  0.00     0.029 A 
ATOM     41  N   UNL A   1      40.752  29.995  29.371  1.00  0.00    -0.354 N 
ATOM     42  C   UNL A   1      44.694  28.715  28.237  1.00  0.00     0.074 A 
ATOM     43  C   UNL A   1      44.699  27.321  27.847  1.00  0.00     0.031 C 
ATOM     44  C   UNL A   1      38.546  29.812  29.686  1.00  0.00     0.029 A 
ATOM     45  C   UNL A   1      39.676  30.731  29.810  1.00  0.00     0.049 A 
ATOM     46  H   UNL A   1      41.674  30.341  29.365  1.00  0.00     0.167 HD
ATOM     47  C   UNL A   1      45.798  29.501  28.267  1.00  0.00     0.037 A 
ATOM     48  C   UNL A   1      39.596  32.004  30.246  1.00  0.00     0.037 A 
ATOM     49  C   UNL A   1      45.798  30.892  28.643  1.00  0.00     0.049 A 
ATOM     50  C   UNL A   1      40.833  32.864  30.256  1.00  0.00     0.074 A 
ATOM     51  C   UNL A   1      46.860  31.781  28.655  1.00  0.00     0.029 A 
ATOM     52  N   UNL A   1      44.687  31.599  29.078  1.00  0.00    -0.354 N 
ATOM     53  N   UNL A   1      42.058  32.555  29.902  1.00  0.00    -0.248 NA
ATOM     54  C   UNL A   1      40.672  34.254  30.707  1.00  0.00     0.031 C 
ATOM     55  C   UNL A   1      46.402  33.012  29.139  1.00  0.00     0.029 A 
ATOM     56  C   UNL A   1      45.042  32.906  29.378  1.00  0.00     0.049 A 
ATOM     57  H   UNL A   1      43.780  31.227  29.161  1.00  0.00     0.167 HD
ATOM     58  C   UNL A   1      42.805  33.719  30.060  1.00  0.00     0.074 A 
ATOM     59  C   UNL A   1      41.891  34.742  30.524  1.00  0.00     0.031 C 
ATOM     60  C   UNL A   1      44.128  33.921  29.839  1.00  0.00     0.037 A 
BRANCH  47  61
ATOM     61  C   UNL A   1      47.110  28.873  27.873  1.00  0.00     0.058 A 
ATOM     62  C   UNL A   1      47.971  28.309  28.828  1.00  0.00     0.135 A 
ATOM     63  C   UNL A   1      47.494  28.799  26.524  1.00  0.00     0.135 A 
ATOM     64  F   UNL A   1      47.661  28.360  30.133  1.00  0.00    -0.206 F 
ATOM     65  C   UNL A   1      49.181  27.726  28.464  1.00  0.00     0.059 A 
ATOM     66  C   UNL A   1      48.686  28.194  26.134  1.00  0.00     0.059 A 
ATOM     67  F   UNL A   1      46.707  29.317  25.567  1.00  0.00    -0.206 F 
ATOM     68  C   UNL A   1      49.531  27.675  27.114  1.00  0.00     0.060 A 
BRANCH  68  69
ATOM     69  S   UNL A   1      51.105  26.918  26.657  1.00  0.00     0.124 S 
ATOM     70  O   UNL A   1      51.425  26.162  27.867  1.00  0.00    -0.237 OA
ATOM     71  O   UNL A   1      50.739  26.116  25.491  1.00  0.00    -0.237 OA
ATOM     72  O   UNL A   1      51.967  28.059  26.385  1.00  0.00    -0.744 OA
ENDBRANCH  68  69
ENDBRANCH  47  61
BRANCH  48  73
ATOM     73  C   UNL A   1      38.285  32.565  30.672  1.00  0.00     0.058 A 
ATOM     74  C   UNL A   1      37.454  33.241  29.765  1.00  0.00     0.135 A 
ATOM     75  C   UNL A   1      37.838  32.440  31.997  1.00  0.00     0.135 A 
ATOM     76  F   UNL A   1      37.840  33.394  28.489  1.00  0.00    -0.206 F 
ATOM     77  C   UNL A   1      36.237  33.789  30.158  1.00  0.00     0.059 A 
ATOM     78  C   UNL A   1      36.613  32.956  32.408  1.00  0.00     0.059 A 
ATOM     79  F   UNL A   1      38.589  31.791  32.900  1.00  0.00    -0.206 F 
ATOM     80  C   UNL A   1      35.825  33.640  31.483  1.00  0.00     0.060 A 
BRANCH  80  81
ATOM     81  S   UNL A   1      34.223  34.314  31.975  1.00  0.00     0.124 S 
ATOM     82  O   UNL A   1      33.558  34.462  30.686  1.00  0.00    -0.237 OA
ATOM     83  O   UNL A   1      33.702  33.263  32.844  1.00  0.00    -0.237 OA
ATOM     84  O   UNL A   1      34.575  35.558  32.652  1.00  0.00    -0.744 OA
ENDBRANCH  80  81
ENDBRANCH  48  73
BRANCH  60  85
ATOM     85  C   UNL A   1      44.662  35.312  30.061  1.00  0.00     0.058 A 
ATOM     86  C   UNL A   1      45.179  35.721  31.302  1.00  0.00     0.135 A 
ATOM     87  C   UNL A   1      44.669  36.248  29.013  1.00  0.00     0.135 A 
ATOM     88  F   UNL A   1      45.195  34.869  32.340  1.00  0.00    -0.206 F 
ATOM     89  C   UNL A   1      45.638  37.019  31.508  1.00  0.00     0.059 A 
ATOM     90  C   UNL A   1      45.153  37.541  29.188  1.00  0.00     0.059 A 
ATOM     91  F   UNL A   1      44.203  35.909  27.801  1.00  0.00    -0.206 F 
ATOM     92  C   UNL A   1      45.615  37.924  30.446  1.00  0.00     0.060 A 
BRANCH  92  93
ATOM     93  S   UNL A   1      46.206  39.607  30.726  1.00  0.00     0.124 S 
ATOM     94  O   UNL A   1      47.138  39.411  31.831  1.00  0.00    -0.237 OA
ATOM     95  O   UNL A   1      46.810  39.946  29.441  1.00  0.00    -0.237 OA
ATOM     96  O   UNL A   1      44.989  40.344  31.053  1.00  0.00    -0.744 OA
ENDBRANCH  92  93
ENDBRANCH  60  85
ENDBRANCH  34  35
ENDBRANCH  26  29
ENDBRANCH  24  25
ENDBRANCH  23  24
ENDBRANCH  22  23
ENDBRANCH   1  22
TORSDOF 20
ENDMDL
