MODEL 1
REMARK VINA RESULT:     -10.6      0.000      0.000
REMARK SMILES C[C@@](NC(=O)CSCc1ccccc1)(C(=O)NCCCCCCNC(=O)c1ccc(-c2c3nc(c(-c4c(F)cc(S(=O)(=O)[O-])cc4F)c4ccc([nH]4)c(-c4c(F)cc(S(=O)(=O)[O-])cc4F)c4nc(c(-c5c(F)cc(S(=O)(=O)[O-])cc5F)c5ccc2[nH]5)C=C4)C=C3)cc1)C1CC1
REMARK SMILES IDX 19 1 18 2 17 3 15 4 16 5 2 7 1 8 3 9 4 10 5 12 6 13 7 14
REMARK SMILES IDX 8 15 9 16 10 17 14 18 11 19 13 20 12 21 93 22 94 23 95 24
REMARK SMILES IDX 20 25 21 26 22 27 23 28 24 29 25 30 26 32 27 33 28 34 92 35
REMARK SMILES IDX 29 36 91 37 30 38 31 39 32 40 85 41 33 42 90 43 84 44 86 45
REMARK SMILES IDX 34 46 89 47 83 48 82 49 35 51 69 52 48 53 68 54 49 55 52 56
REMARK SMILES IDX 67 57 87 58 50 59 51 60 66 62 88 63 53 64 36 65 37 66 46 67
REMARK SMILES IDX 38 68 39 69 45 70 47 71 40 72 41 73 42 74 43 75 44 76 70 77
REMARK SMILES IDX 71 78 80 79 72 80 73 81 79 82 81 83 74 84 75 85 76 86 77 87
REMARK SMILES IDX 78 88 54 89 55 90 64 91 56 92 57 93 63 94 65 95 58 96 59 97
REMARK SMILES IDX 60 98 61 99 62 100
REMARK H PARENT 17 6 3 11 24 31 86 50 52 61
REMARK Flexibility Score: inf
ROOT
ATOM      1  C   UNL A   1      38.682  22.388  26.232  1.00  0.00     0.021 C 
ENDROOT
BRANCH   1   2
ATOM      2  C   UNL A   1      37.934  21.978  24.961  1.00  0.00     0.116 C 
BRANCH   2   3
ATOM      3  N   UNL A   1      37.450  20.614  24.998  1.00  0.00    -0.354 N 
ATOM      4  C   UNL A   1      36.192  20.090  24.957  1.00  0.00     0.245 C 
ATOM      5  O   UNL A   1      36.160  18.863  24.812  1.00  0.00    -0.272 OA
ATOM      6  H   UNL A   1      38.162  19.938  25.066  1.00  0.00     0.163 HD
BRANCH   4   7
ATOM      7  C   UNL A   1      34.889  20.959  25.093  1.00  0.00     0.119 C 
ATOM      8  C   UNL A   1      35.005  21.864  26.352  1.00  0.00     0.046 C 
BRANCH   7   9
ATOM      9  N   UNL A   1      34.707  21.878  23.949  1.00  0.00    -0.341 N 
ATOM     10  C   UNL A   1      34.463  23.211  23.886  1.00  0.00     0.230 C 
ATOM     11  H   UNL A   1      34.775  21.442  23.068  1.00  0.00     0.164 HD
ATOM     12  O   UNL A   1      34.741  23.772  22.822  1.00  0.00    -0.274 OA
BRANCH  10  13
ATOM     13  C   UNL A   1      33.829  23.982  25.024  1.00  0.00     0.169 C 
BRANCH  13  14
ATOM     14  S   UNL A   1      34.137  25.781  24.928  1.00  0.00    -0.147 SA
BRANCH  14  15
ATOM     15  C   UNL A   1      32.879  26.426  26.082  1.00  0.00     0.105 C 
BRANCH  15  16
ATOM     16  C   UNL A   1      33.034  27.857  26.554  1.00  0.00    -0.038 A 
ATOM     17  C   UNL A   1      34.258  28.511  26.743  1.00  0.00     0.004 A 
ATOM     18  C   UNL A   1      31.852  28.598  26.755  1.00  0.00     0.004 A 
ATOM     19  C   UNL A   1      34.301  29.861  27.103  1.00  0.00     0.000 A 
ATOM     20  C   UNL A   1      31.894  29.948  27.111  1.00  0.00     0.000 A 
ATOM     21  C   UNL A   1      33.121  30.581  27.279  1.00  0.00     0.000 A 
ENDBRANCH  15  16
ENDBRANCH  14  15
ENDBRANCH  13  14
ENDBRANCH  10  13
ENDBRANCH   7   9
BRANCH   7  22
ATOM     22  C   UNL A   1      33.560  20.179  25.258  1.00  0.00     0.024 C 
ATOM     23  C   UNL A   1      32.138  20.658  25.014  1.00  0.00     0.007 C 
ATOM     24  C   UNL A   1      32.790  19.756  24.015  1.00  0.00     0.007 C 
ENDBRANCH   7  22
ENDBRANCH   4   7
ENDBRANCH   2   3
ENDBRANCH   1   2
BRANCH   1  25
ATOM     25  C   UNL A   1      40.091  21.816  26.437  1.00  0.00     0.002 C 
BRANCH  25  26
ATOM     26  C   UNL A   1      40.775  22.115  27.771  1.00  0.00     0.002 C 
BRANCH  26  27
ATOM     27  C   UNL A   1      42.295  21.964  27.807  1.00  0.00     0.021 C 
BRANCH  27  28
ATOM     28  C   UNL A   1      43.098  23.245  27.616  1.00  0.00     0.116 C 
BRANCH  28  29
ATOM     29  N   UNL A   1      42.842  23.893  26.340  1.00  0.00    -0.352 N 
ATOM     30  C   UNL A   1      42.297  25.126  26.081  1.00  0.00     0.251 C 
ATOM     31  H   UNL A   1      43.095  23.370  25.546  1.00  0.00     0.163 HD
ATOM     32  O   UNL A   1      42.037  25.439  24.919  1.00  0.00    -0.269 OA
BRANCH  30  33
ATOM     33  C   UNL A   1      41.994  26.074  27.182  1.00  0.00     0.039 A 
ATOM     34  C   UNL A   1      40.925  25.789  28.037  1.00  0.00     0.014 A 
ATOM     35  C   UNL A   1      42.731  27.248  27.366  1.00  0.00     0.014 A 
ATOM     36  C   UNL A   1      40.631  26.647  29.101  1.00  0.00     0.010 A 
ATOM     37  C   UNL A   1      42.489  28.061  28.474  1.00  0.00     0.010 A 
ATOM     38  C   UNL A   1      41.430  27.776  29.348  1.00  0.00    -0.014 A 
BRANCH  38  39
ATOM     39  C   UNL A   1      41.164  28.659  30.516  1.00  0.00     0.031 A 
ATOM     40  C   UNL A   1      42.000  28.549  31.765  1.00  0.00     0.074 A 
ATOM     41  C   UNL A   1      40.140  29.533  30.468  1.00  0.00     0.049 A 
ATOM     42  N   UNL A   1      41.915  29.232  32.878  1.00  0.00    -0.248 NA
ATOM     43  C   UNL A   1      43.049  27.518  31.775  1.00  0.00     0.031 C 
ATOM     44  C   UNL A   1      39.218  29.693  29.342  1.00  0.00     0.029 A 
ATOM     45  N   UNL A   1      39.701  30.453  31.388  1.00  0.00    -0.354 N 
ATOM     46  C   UNL A   1      42.884  28.703  33.725  1.00  0.00     0.074 A 
ATOM     47  C   UNL A   1      43.507  27.608  33.015  1.00  0.00     0.031 C 
ATOM     48  C   UNL A   1      38.350  30.680  29.618  1.00  0.00     0.029 A 
ATOM     49  C   UNL A   1      38.633  31.202  30.952  1.00  0.00     0.049 A 
ATOM     50  H   UNL A   1      40.113  30.567  32.274  1.00  0.00     0.167 HD
ATOM     51  C   UNL A   1      43.238  29.107  34.969  1.00  0.00     0.037 A 
ATOM     52  C   UNL A   1      37.961  32.202  31.555  1.00  0.00     0.037 A 
ATOM     53  C   UNL A   1      42.635  30.220  35.658  1.00  0.00     0.049 A 
ATOM     54  C   UNL A   1      38.387  32.650  32.925  1.00  0.00     0.074 A 
ATOM     55  C   UNL A   1      42.976  30.762  36.884  1.00  0.00     0.029 A 
ATOM     56  N   UNL A   1      41.561  30.958  35.182  1.00  0.00    -0.354 N 
ATOM     57  N   UNL A   1      39.358  32.192  33.678  1.00  0.00    -0.248 NA
ATOM     58  C   UNL A   1      37.631  33.757  33.525  1.00  0.00     0.031 C 
ATOM     59  C   UNL A   1      42.081  31.799  37.170  1.00  0.00     0.029 A 
ATOM     60  C   UNL A   1      41.209  31.934  36.101  1.00  0.00     0.049 A 
ATOM     61  H   UNL A   1      41.114  30.810  34.318  1.00  0.00     0.167 HD
ATOM     62  C   UNL A   1      39.342  32.965  34.833  1.00  0.00     0.074 A 
ATOM     63  C   UNL A   1      38.276  33.933  34.671  1.00  0.00     0.031 C 
ATOM     64  C   UNL A   1      40.136  32.882  35.930  1.00  0.00     0.037 A 
BRANCH  51  65
ATOM     65  C   UNL A   1      44.329  28.337  35.664  1.00  0.00     0.058 A 
ATOM     66  C   UNL A   1      45.688  28.635  35.468  1.00  0.00     0.135 A 
ATOM     67  C   UNL A   1      44.013  27.291  36.547  1.00  0.00     0.135 A 
ATOM     68  F   UNL A   1      46.049  29.617  34.626  1.00  0.00    -0.206 F 
ATOM     69  C   UNL A   1      46.692  27.896  36.084  1.00  0.00     0.059 A 
ATOM     70  C   UNL A   1      45.002  26.558  37.198  1.00  0.00     0.059 A 
ATOM     71  F   UNL A   1      42.731  26.964  36.776  1.00  0.00    -0.206 F 
ATOM     72  C   UNL A   1      46.340  26.855  36.942  1.00  0.00     0.060 A 
BRANCH  72  73
ATOM     73  S   UNL A   1      47.653  25.890  37.721  1.00  0.00     0.124 S 
ATOM     74  O   UNL A   1      48.193  26.856  38.675  1.00  0.00    -0.237 OA
ATOM     75  O   UNL A   1      46.914  24.772  38.306  1.00  0.00    -0.237 OA
ATOM     76  O   UNL A   1      48.528  25.546  36.611  1.00  0.00    -0.744 OA
ENDBRANCH  72  73
ENDBRANCH  51  65
BRANCH  52  77
ATOM     77  C   UNL A   1      36.846  32.878  30.840  1.00  0.00     0.058 A 
ATOM     78  C   UNL A   1      35.512  32.546  31.118  1.00  0.00     0.135 A 
ATOM     79  C   UNL A   1      37.087  33.890  29.898  1.00  0.00     0.135 A 
ATOM     80  F   UNL A   1      35.233  31.581  32.007  1.00  0.00    -0.206 F 
ATOM     81  C   UNL A   1      34.453  33.188  30.483  1.00  0.00     0.059 A 
ATOM     82  C   UNL A   1      36.045  34.562  29.266  1.00  0.00     0.059 A 
ATOM     83  F   UNL A   1      38.346  34.254  29.609  1.00  0.00    -0.206 F 
ATOM     84  C   UNL A   1      34.731  34.200  29.562  1.00  0.00     0.060 A 
BRANCH  84  85
ATOM     85  S   UNL A   1      33.349  35.076  28.797  1.00  0.00     0.124 S 
ATOM     86  O   UNL A   1      34.039  36.133  28.067  1.00  0.00    -0.237 OA
ATOM     87  O   UNL A   1      32.737  34.031  27.981  1.00  0.00    -0.237 OA
ATOM     88  O   UNL A   1      32.555  35.511  29.941  1.00  0.00    -0.744 OA
ENDBRANCH  84  85
ENDBRANCH  52  77
BRANCH  64  89
ATOM     89  C   UNL A   1      39.885  33.872  37.034  1.00  0.00     0.058 A 
ATOM     90  C   UNL A   1      40.497  35.135  37.041  1.00  0.00     0.135 A 
ATOM     91  C   UNL A   1      39.010  33.560  38.087  1.00  0.00     0.135 A 
ATOM     92  F   UNL A   1      41.346  35.480  36.061  1.00  0.00    -0.206 F 
ATOM     93  C   UNL A   1      40.275  36.043  38.071  1.00  0.00     0.059 A 
ATOM     94  C   UNL A   1      38.753  34.464  39.113  1.00  0.00     0.059 A 
ATOM     95  F   UNL A   1      38.389  32.370  38.122  1.00  0.00    -0.206 F 
ATOM     96  C   UNL A   1      39.404  35.697  39.106  1.00  0.00     0.060 A 
BRANCH  96  97
ATOM     97  S   UNL A   1      39.119  36.885  40.434  1.00  0.00     0.124 S 
ATOM     98  O   UNL A   1      38.422  37.954  39.725  1.00  0.00    -0.237 OA
ATOM     99  O   UNL A   1      38.311  36.118  41.375  1.00  0.00    -0.237 OA
ATOM    100  O   UNL A   1      40.466  37.210  40.893  1.00  0.00    -0.744 OA
ENDBRANCH  96  97
ENDBRANCH  64  89
ENDBRANCH  38  39
ENDBRANCH  30  33
ENDBRANCH  28  29
ENDBRANCH  27  28
ENDBRANCH  26  27
ENDBRANCH  25  26
ENDBRANCH   1  25
TORSDOF 22
ENDMDL
MODEL 2
REMARK VINA RESULT:     -10.5      1.340      3.778
REMARK SMILES C[C@@](NC(=O)CSCc1ccccc1)(C(=O)NCCCCCCNC(=O)c1ccc(-c2c3nc(c(-c4c(F)cc(S(=O)(=O)[O-])cc4F)c4ccc([nH]4)c(-c4c(F)cc(S(=O)(=O)[O-])cc4F)c4nc(c(-c5c(F)cc(S(=O)(=O)[O-])cc5F)c5ccc2[nH]5)C=C4)C=C3)cc1)C1CC1
REMARK SMILES IDX 19 1 18 2 17 3 15 4 16 5 2 7 1 8 3 9 4 10 5 12 6 13 7 14
REMARK SMILES IDX 8 15 9 16 10 17 14 18 11 19 13 20 12 21 93 22 94 23 95 24
REMARK SMILES IDX 20 25 21 26 22 27 23 28 24 29 25 30 26 32 27 33 28 34 92 35
REMARK SMILES IDX 29 36 91 37 30 38 31 39 32 40 85 41 33 42 90 43 84 44 86 45
REMARK SMILES IDX 34 46 89 47 83 48 82 49 35 51 69 52 48 53 68 54 49 55 52 56
REMARK SMILES IDX 67 57 87 58 50 59 51 60 66 62 88 63 53 64 36 65 37 66 46 67
REMARK SMILES IDX 38 68 39 69 45 70 47 71 40 72 41 73 42 74 43 75 44 76 70 77
REMARK SMILES IDX 71 78 80 79 72 80 73 81 79 82 81 83 74 84 75 85 76 86 77 87
REMARK SMILES IDX 78 88 54 89 55 90 64 91 56 92 57 93 63 94 65 95 58 96 59 97
REMARK SMILES IDX 60 98 61 99 62 100
REMARK H PARENT 17 6 3 11 24 31 86 50 52 61
REMARK Flexibility Score: inf
ROOT
ATOM      1  C   UNL A   1      37.480  22.490  25.374  1.00  0.00     0.021 C 
ENDROOT
BRANCH   1   2
ATOM      2  C   UNL A   1      36.318  23.469  25.188  1.00  0.00     0.116 C 
BRANCH   2   3
ATOM      3  N   UNL A   1      35.174  23.162  26.021  1.00  0.00    -0.354 N 
ATOM      4  C   UNL A   1      33.909  23.670  26.060  1.00  0.00     0.245 C 
ATOM      5  O   UNL A   1      33.130  23.031  26.774  1.00  0.00    -0.272 OA
ATOM      6  H   UNL A   1      35.341  22.454  26.684  1.00  0.00     0.163 HD
BRANCH   4   7
ATOM      7  C   UNL A   1      33.473  24.961  25.277  1.00  0.00     0.119 C 
ATOM      8  C   UNL A   1      34.456  25.202  24.096  1.00  0.00     0.046 C 
BRANCH   7   9
ATOM      9  N   UNL A   1      32.133  24.820  24.667  1.00  0.00    -0.341 N 
ATOM     10  C   UNL A   1      31.643  23.954  23.745  1.00  0.00     0.230 C 
ATOM     11  H   UNL A   1      31.473  25.477  24.988  1.00  0.00     0.164 HD
ATOM     12  O   UNL A   1      30.416  23.821  23.713  1.00  0.00    -0.274 OA
BRANCH  10  13
ATOM     13  C   UNL A   1      32.526  23.222  22.758  1.00  0.00     0.169 C 
BRANCH  13  14
ATOM     14  S   UNL A   1      32.064  21.466  22.549  1.00  0.00    -0.147 SA
BRANCH  14  15
ATOM     15  C   UNL A   1      32.762  20.724  24.063  1.00  0.00     0.105 C 
BRANCH  15  16
ATOM     16  C   UNL A   1      33.242  19.290  23.979  1.00  0.00    -0.038 A 
ATOM     17  C   UNL A   1      32.646  18.289  23.200  1.00  0.00     0.004 A 
ATOM     18  C   UNL A   1      34.414  18.963  24.690  1.00  0.00     0.004 A 
ATOM     19  C   UNL A   1      33.210  17.012  23.123  1.00  0.00     0.000 A 
ATOM     20  C   UNL A   1      34.979  17.689  24.610  1.00  0.00     0.000 A 
ATOM     21  C   UNL A   1      34.379  16.714  23.819  1.00  0.00     0.000 A 
ENDBRANCH  15  16
ENDBRANCH  14  15
ENDBRANCH  13  14
ENDBRANCH  10  13
ENDBRANCH   7   9
BRANCH   7  22
ATOM     22  C   UNL A   1      33.459  26.282  26.088  1.00  0.00     0.024 C 
ATOM     23  C   UNL A   1      33.072  27.678  25.629  1.00  0.00     0.007 C 
ATOM     24  C   UNL A   1      32.124  26.897  26.482  1.00  0.00     0.007 C 
ENDBRANCH   7  22
ENDBRANCH   4   7
ENDBRANCH   2   3
ENDBRANCH   1   2
BRANCH   1  25
ATOM     25  C   UNL A   1      38.545  22.851  26.418  1.00  0.00     0.002 C 
BRANCH  25  26
ATOM     26  C   UNL A   1      39.794  21.971  26.469  1.00  0.00     0.002 C 
BRANCH  26  27
ATOM     27  C   UNL A   1      40.708  22.153  27.680  1.00  0.00     0.021 C 
BRANCH  27  28
ATOM     28  C   UNL A   1      41.969  22.977  27.446  1.00  0.00     0.116 C 
BRANCH  28  29
ATOM     29  N   UNL A   1      41.898  23.801  26.251  1.00  0.00    -0.352 N 
ATOM     30  C   UNL A   1      41.585  25.132  26.126  1.00  0.00     0.251 C 
ATOM     31  H   UNL A   1      42.103  23.337  25.408  1.00  0.00     0.163 HD
ATOM     32  O   UNL A   1      41.447  25.616  25.002  1.00  0.00    -0.269 OA
BRANCH  30  33
ATOM     33  C   UNL A   1      41.386  25.986  27.323  1.00  0.00     0.039 A 
ATOM     34  C   UNL A   1      42.362  26.936  27.640  1.00  0.00     0.014 A 
ATOM     35  C   UNL A   1      40.266  25.845  28.149  1.00  0.00     0.014 A 
ATOM     36  C   UNL A   1      42.190  27.775  28.744  1.00  0.00     0.010 A 
ATOM     37  C   UNL A   1      40.057  26.735  29.203  1.00  0.00     0.010 A 
ATOM     38  C   UNL A   1      41.021  27.703  29.520  1.00  0.00    -0.014 A 
BRANCH  38  39
ATOM     39  C   UNL A   1      40.800  28.635  30.659  1.00  0.00     0.031 A 
ATOM     40  C   UNL A   1      41.639  28.532  31.906  1.00  0.00     0.074 A 
ATOM     41  C   UNL A   1      39.812  29.548  30.587  1.00  0.00     0.049 A 
ATOM     42  N   UNL A   1      41.590  29.254  32.997  1.00  0.00    -0.248 NA
ATOM     43  C   UNL A   1      42.644  27.459  31.946  1.00  0.00     0.031 C 
ATOM     44  C   UNL A   1      38.890  29.709  29.461  1.00  0.00     0.029 A 
ATOM     45  N   UNL A   1      39.418  30.516  31.478  1.00  0.00    -0.354 N 
ATOM     46  C   UNL A   1      42.541  28.714  33.856  1.00  0.00     0.074 A 
ATOM     47  C   UNL A   1      43.114  27.571  33.179  1.00  0.00     0.031 C 
ATOM     48  C   UNL A   1      38.066  30.740  29.709  1.00  0.00     0.029 A 
ATOM     49  C   UNL A   1      38.379  31.293  31.023  1.00  0.00     0.049 A 
ATOM     50  H   UNL A   1      39.840  30.642  32.358  1.00  0.00     0.167 HD
ATOM     51  C   UNL A   1      42.919  29.144  35.084  1.00  0.00     0.037 A 
ATOM     52  C   UNL A   1      37.753  32.341  31.595  1.00  0.00     0.037 A 
ATOM     53  C   UNL A   1      42.368  30.303  35.738  1.00  0.00     0.049 A 
ATOM     54  C   UNL A   1      38.207  32.816  32.947  1.00  0.00     0.074 A 
ATOM     55  C   UNL A   1      42.739  30.871  36.944  1.00  0.00     0.029 A 
ATOM     56  N   UNL A   1      41.322  31.069  35.243  1.00  0.00    -0.354 N 
ATOM     57  N   UNL A   1      39.162  32.343  33.710  1.00  0.00    -0.248 NA
ATOM     58  C   UNL A   1      37.500  33.973  33.514  1.00  0.00     0.031 C 
ATOM     59  C   UNL A   1      41.890  31.954  37.199  1.00  0.00     0.029 A 
ATOM     60  C   UNL A   1      41.017  32.088  36.131  1.00  0.00     0.049 A 
ATOM     61  H   UNL A   1      40.864  30.912  34.386  1.00  0.00     0.167 HD
ATOM     62  C   UNL A   1      39.186  33.154  34.839  1.00  0.00     0.074 A 
ATOM     63  C   UNL A   1      38.159  34.160  34.650  1.00  0.00     0.031 C 
ATOM     64  C   UNL A   1      39.983  33.074  35.933  1.00  0.00     0.037 A 
BRANCH  51  65
ATOM     65  C   UNL A   1      43.982  28.353  35.798  1.00  0.00     0.058 A 
ATOM     66  C   UNL A   1      43.662  27.315  36.689  1.00  0.00     0.135 A 
ATOM     67  C   UNL A   1      45.343  28.629  35.584  1.00  0.00     0.135 A 
ATOM     68  F   UNL A   1      42.378  27.015  36.941  1.00  0.00    -0.206 F 
ATOM     69  C   UNL A   1      44.647  26.611  37.373  1.00  0.00     0.059 A 
ATOM     70  C   UNL A   1      46.347  27.917  36.236  1.00  0.00     0.059 A 
ATOM     71  F   UNL A   1      45.709  29.607  34.741  1.00  0.00    -0.206 F 
ATOM     72  C   UNL A   1      45.987  26.924  37.146  1.00  0.00     0.060 A 
BRANCH  72  73
ATOM     73  S   UNL A   1      47.257  26.018  38.056  1.00  0.00     0.124 S 
ATOM     74  O   UNL A   1      47.455  26.887  39.214  1.00  0.00    -0.237 OA
ATOM     75  O   UNL A   1      46.596  24.743  38.330  1.00  0.00    -0.237 OA
ATOM     76  O   UNL A   1      48.369  25.956  37.120  1.00  0.00    -0.744 OA
ENDBRANCH  72  73
ENDBRANCH  51  65
BRANCH  52  77
ATOM     77  C   UNL A   1      36.663  33.038  30.864  1.00  0.00     0.058 A 
ATOM     78  C   UNL A   1      35.323  32.870  31.246  1.00  0.00     0.135 A 
ATOM     79  C   UNL A   1      36.936  33.911  29.800  1.00  0.00     0.135 A 
ATOM     80  F   UNL A   1      35.012  32.041  32.254  1.00  0.00    -0.206 F 
ATOM     81  C   UNL A   1      34.290  33.537  30.594  1.00  0.00     0.059 A 
ATOM     82  C   UNL A   1      35.922  34.607  29.147  1.00  0.00     0.059 A 
ATOM     83  F   UNL A   1      38.203  34.117  29.407  1.00  0.00    -0.206 F 
ATOM     84  C   UNL A   1      34.602  34.409  29.550  1.00  0.00     0.060 A 
BRANCH  84  85
ATOM     85  S   UNL A   1      33.261  35.325  28.759  1.00  0.00     0.124 S 
ATOM     86  O   UNL A   1      32.591  34.273  28.002  1.00  0.00    -0.237 OA
ATOM     87  O   UNL A   1      32.528  35.849  29.908  1.00  0.00    -0.237 OA
ATOM     88  O   UNL A   1      33.963  36.327  27.964  1.00  0.00    -0.744 OA
ENDBRANCH  84  85
ENDBRANCH  52  77
BRANCH  64  89
ATOM     89  C   UNL A   1      39.780  34.110  37.005  1.00  0.00     0.058 A 
ATOM     90  C   UNL A   1      40.421  35.358  36.952  1.00  0.00     0.135 A 
ATOM     91  C   UNL A   1      38.923  33.859  38.088  1.00  0.00     0.135 A 
ATOM     92  F   UNL A   1      41.255  35.646  35.940  1.00  0.00    -0.206 F 
ATOM     93  C   UNL A   1      40.244  36.308  37.951  1.00  0.00     0.059 A 
ATOM     94  C   UNL A   1      38.710  34.805  39.086  1.00  0.00     0.059 A 
ATOM     95  F   UNL A   1      38.276  32.686  38.182  1.00  0.00    -0.206 F 
ATOM     96  C   UNL A   1      39.390  36.021  39.018  1.00  0.00     0.060 A 
BRANCH  96  97
ATOM     97  S   UNL A   1      39.163  37.264  40.306  1.00  0.00     0.124 S 
ATOM     98  O   UNL A   1      38.302  38.231  39.631  1.00  0.00    -0.237 OA
ATOM     99  O   UNL A   1      38.536  36.497  41.377  1.00  0.00    -0.237 OA
ATOM    100  O   UNL A   1      40.522  37.718  40.581  1.00  0.00    -0.744 OA
ENDBRANCH  96  97
ENDBRANCH  64  89
ENDBRANCH  38  39
ENDBRANCH  30  33
ENDBRANCH  28  29
ENDBRANCH  27  28
ENDBRANCH  26  27
ENDBRANCH  25  26
ENDBRANCH   1  25
TORSDOF 22
ENDMDL
MODEL 3
REMARK VINA RESULT:     -10.1      2.688      9.323
REMARK SMILES C[C@@](NC(=O)CSCc1ccccc1)(C(=O)NCCCCCCNC(=O)c1ccc(-c2c3nc(c(-c4c(F)cc(S(=O)(=O)[O-])cc4F)c4ccc([nH]4)c(-c4c(F)cc(S(=O)(=O)[O-])cc4F)c4nc(c(-c5c(F)cc(S(=O)(=O)[O-])cc5F)c5ccc2[nH]5)C=C4)C=C3)cc1)C1CC1
REMARK SMILES IDX 19 1 18 2 17 3 15 4 16 5 2 7 1 8 3 9 4 10 5 12 6 13 7 14
REMARK SMILES IDX 8 15 9 16 10 17 14 18 11 19 13 20 12 21 93 22 94 23 95 24
REMARK SMILES IDX 20 25 21 26 22 27 23 28 24 29 25 30 26 32 27 33 28 34 92 35
REMARK SMILES IDX 29 36 91 37 30 38 31 39 32 40 85 41 33 42 90 43 84 44 86 45
REMARK SMILES IDX 34 46 89 47 83 48 82 49 35 51 69 52 48 53 68 54 49 55 52 56
REMARK SMILES IDX 67 57 87 58 50 59 51 60 66 62 88 63 53 64 36 65 37 66 46 67
REMARK SMILES IDX 38 68 39 69 45 70 47 71 40 72 41 73 42 74 43 75 44 76 70 77
REMARK SMILES IDX 71 78 80 79 72 80 73 81 79 82 81 83 74 84 75 85 76 86 77 87
REMARK SMILES IDX 78 88 54 89 55 90 64 91 56 92 57 93 63 94 65 95 58 96 59 97
REMARK SMILES IDX 60 98 61 99 62 100
REMARK H PARENT 17 6 3 11 24 31 86 50 52 61
REMARK Flexibility Score: inf
ROOT
ATOM      1  C   UNL A   1      32.660  29.727  27.100  1.00  0.00     0.021 C 
ENDROOT
BRANCH   1   2
ATOM      2  C   UNL A   1      32.252  30.116  25.677  1.00  0.00     0.116 C 
BRANCH   2   3
ATOM      3  N   UNL A   1      33.129  29.570  24.663  1.00  0.00    -0.354 N 
ATOM      4  C   UNL A   1      32.885  28.826  23.547  1.00  0.00     0.245 C 
ATOM      5  O   UNL A   1      33.860  28.700  22.799  1.00  0.00    -0.272 OA
ATOM      6  H   UNL A   1      34.082  29.776  24.805  1.00  0.00     0.163 HD
BRANCH   4   7
ATOM      7  C   UNL A   1      31.490  28.169  23.235  1.00  0.00     0.119 C 
ATOM      8  C   UNL A   1      31.683  27.022  22.204  1.00  0.00     0.046 C 
BRANCH   7   9
ATOM      9  N   UNL A   1      30.887  27.543  24.431  1.00  0.00    -0.341 N 
ATOM     10  C   UNL A   1      31.398  26.714  25.377  1.00  0.00     0.230 C 
ATOM     11  H   UNL A   1      29.938  27.767  24.567  1.00  0.00     0.164 HD
ATOM     12  O   UNL A   1      30.789  26.664  26.450  1.00  0.00    -0.274 OA
BRANCH  10  13
ATOM     13  C   UNL A   1      32.611  25.844  25.133  1.00  0.00     0.169 C 
BRANCH  13  14
ATOM     14  S   UNL A   1      32.182  24.166  24.545  1.00  0.00    -0.147 SA
BRANCH  14  15
ATOM     15  C   UNL A   1      33.268  23.130  25.583  1.00  0.00     0.105 C 
BRANCH  15  16
ATOM     16  C   UNL A   1      34.604  22.717  24.998  1.00  0.00    -0.038 A 
ATOM     17  C   UNL A   1      35.272  23.392  23.969  1.00  0.00     0.004 A 
ATOM     18  C   UNL A   1      35.244  21.606  25.584  1.00  0.00     0.004 A 
ATOM     19  C   UNL A   1      36.542  22.983  23.551  1.00  0.00     0.000 A 
ATOM     20  C   UNL A   1      36.513  21.199  25.168  1.00  0.00     0.000 A 
ATOM     21  C   UNL A   1      37.165  21.894  24.155  1.00  0.00     0.000 A 
ENDBRANCH  15  16
ENDBRANCH  14  15
ENDBRANCH  13  14
ENDBRANCH  10  13
ENDBRANCH   7   9
BRANCH   7  22
ATOM     22  C   UNL A   1      30.414  29.104  22.627  1.00  0.00     0.024 C 
ATOM     23  C   UNL A   1      28.901  28.994  22.710  1.00  0.00     0.007 C 
ATOM     24  C   UNL A   1      29.610  30.008  23.551  1.00  0.00     0.007 C 
ENDBRANCH   7  22
ENDBRANCH   4   7
ENDBRANCH   2   3
ENDBRANCH   1   2
BRANCH   1  25
ATOM     25  C   UNL A   1      34.083  30.085  27.549  1.00  0.00     0.002 C 
BRANCH  25  26
ATOM     26  C   UNL A   1      34.392  31.566  27.765  1.00  0.00     0.002 C 
BRANCH  26  27
ATOM     27  C   UNL A   1      33.200  32.478  28.053  1.00  0.00     0.021 C 
BRANCH  27  28
ATOM     28  C   UNL A   1      33.220  33.838  27.367  1.00  0.00     0.116 C 
BRANCH  28  29
ATOM     29  N   UNL A   1      32.788  34.921  28.235  1.00  0.00    -0.352 N 
ATOM     30  C   UNL A   1      33.183  35.225  29.515  1.00  0.00     0.251 C 
ATOM     31  H   UNL A   1      32.113  35.524  27.850  1.00  0.00     0.163 HD
ATOM     32  O   UNL A   1      32.594  36.112  30.133  1.00  0.00    -0.269 OA
BRANCH  30  33
ATOM     33  C   UNL A   1      34.290  34.484  30.169  1.00  0.00     0.039 A 
ATOM     34  C   UNL A   1      35.579  34.598  29.639  1.00  0.00     0.014 A 
ATOM     35  C   UNL A   1      34.070  33.660  31.277  1.00  0.00     0.014 A 
ATOM     36  C   UNL A   1      36.648  33.935  30.250  1.00  0.00     0.010 A 
ATOM     37  C   UNL A   1      35.147  33.064  31.933  1.00  0.00     0.010 A 
ATOM     38  C   UNL A   1      36.447  33.186  31.421  1.00  0.00    -0.014 A 
BRANCH  38  39
ATOM     39  C   UNL A   1      37.589  32.530  32.113  1.00  0.00     0.031 A 
ATOM     40  C   UNL A   1      38.300  31.361  31.481  1.00  0.00     0.074 A 
ATOM     41  C   UNL A   1      37.960  32.959  33.336  1.00  0.00     0.049 A 
ATOM     42  N   UNL A   1      39.311  30.665  31.935  1.00  0.00    -0.248 NA
ATOM     43  C   UNL A   1      37.789  30.896  30.183  1.00  0.00     0.031 C 
ATOM     44  C   UNL A   1      37.313  34.040  34.083  1.00  0.00     0.029 A 
ATOM     45  N   UNL A   1      38.971  32.542  34.166  1.00  0.00    -0.354 N 
ATOM     46  C   UNL A   1      39.546  29.672  30.989  1.00  0.00     0.074 A 
ATOM     47  C   UNL A   1      38.537  29.824  29.964  1.00  0.00     0.031 C 
ATOM     48  C   UNL A   1      37.967  34.228  35.240  1.00  0.00     0.029 A 
ATOM     49  C   UNL A   1      39.059  33.263  35.333  1.00  0.00     0.049 A 
ATOM     50  H   UNL A   1      39.575  31.797  33.945  1.00  0.00     0.167 HD
ATOM     51  C   UNL A   1      40.525  28.735  30.966  1.00  0.00     0.037 A 
ATOM     52  C   UNL A   1      39.927  33.166  36.359  1.00  0.00     0.037 A 
ATOM     53  C   UNL A   1      41.546  28.610  31.973  1.00  0.00     0.049 A 
ATOM     54  C   UNL A   1      41.020  32.136  36.299  1.00  0.00     0.074 A 
ATOM     55  C   UNL A   1      42.630  27.750  32.001  1.00  0.00     0.029 A 
ATOM     56  N   UNL A   1      41.606  29.363  33.137  1.00  0.00    -0.354 N 
ATOM     57  N   UNL A   1      41.276  31.257  35.360  1.00  0.00    -0.248 NA
ATOM     58  C   UNL A   1      41.948  32.087  37.437  1.00  0.00     0.031 C 
ATOM     59  C   UNL A   1      43.321  27.953  33.201  1.00  0.00     0.029 A 
ATOM     60  C   UNL A   1      42.694  28.971  33.902  1.00  0.00     0.049 A 
ATOM     61  H   UNL A   1      40.971  30.073  33.384  1.00  0.00     0.167 HD
ATOM     62  C   UNL A   1      42.404  30.564  35.783  1.00  0.00     0.074 A 
ATOM     63  C   UNL A   1      42.791  31.138  37.056  1.00  0.00     0.031 C 
ATOM     64  C   UNL A   1      43.059  29.544  35.174  1.00  0.00     0.037 A 
BRANCH  51  65
ATOM     65  C   UNL A   1      40.534  27.771  29.809  1.00  0.00     0.058 A 
ATOM     66  C   UNL A   1      39.591  26.735  29.699  1.00  0.00     0.135 A 
ATOM     67  C   UNL A   1      41.493  27.889  28.790  1.00  0.00     0.135 A 
ATOM     68  F   UNL A   1      38.659  26.567  30.651  1.00  0.00    -0.206 F 
ATOM     69  C   UNL A   1      39.627  25.826  28.648  1.00  0.00     0.059 A 
ATOM     70  C   UNL A   1      41.529  27.008  27.712  1.00  0.00     0.059 A 
ATOM     71  F   UNL A   1      42.416  28.862  28.839  1.00  0.00    -0.206 F 
ATOM     72  C   UNL A   1      40.603  25.965  27.662  1.00  0.00     0.060 A 
BRANCH  72  73
ATOM     73  S   UNL A   1      40.653  24.767  26.312  1.00  0.00     0.124 S 
ATOM     74  O   UNL A   1      41.139  25.595  25.210  1.00  0.00    -0.237 OA
ATOM     75  O   UNL A   1      41.596  23.769  26.814  1.00  0.00    -0.237 OA
ATOM     76  O   UNL A   1      39.272  24.320  26.201  1.00  0.00    -0.744 OA
ENDBRANCH  72  73
ENDBRANCH  51  65
BRANCH  52  77
ATOM     77  C   UNL A   1      39.822  34.106  37.506  1.00  0.00     0.058 A 
ATOM     78  C   UNL A   1      40.510  35.328  37.496  1.00  0.00     0.135 A 
ATOM     79  C   UNL A   1      39.008  33.822  38.614  1.00  0.00     0.135 A 
ATOM     80  F   UNL A   1      41.305  35.641  36.462  1.00  0.00    -0.206 F 
ATOM     81  C   UNL A   1      40.402  36.235  38.546  1.00  0.00     0.059 A 
ATOM     82  C   UNL A   1      38.866  34.723  39.665  1.00  0.00     0.059 A 
ATOM     83  F   UNL A   1      38.317  32.672  38.664  1.00  0.00    -0.206 F 
ATOM     84  C   UNL A   1      39.571  35.925  39.623  1.00  0.00     0.060 A 
BRANCH  84  85
ATOM     85  S   UNL A   1      39.380  37.140  40.946  1.00  0.00     0.124 S 
ATOM     86  O   UNL A   1      40.746  37.628  41.096  1.00  0.00    -0.237 OA
ATOM     87  O   UNL A   1      38.427  38.080  40.363  1.00  0.00    -0.237 OA
ATOM     88  O   UNL A   1      38.865  36.347  42.057  1.00  0.00    -0.744 OA
ENDBRANCH  84  85
ENDBRANCH  52  77
BRANCH  64  89
ATOM     89  C   UNL A   1      44.269  28.992  35.877  1.00  0.00     0.058 A 
ATOM     90  C   UNL A   1      44.171  27.919  36.776  1.00  0.00     0.135 A 
ATOM     91  C   UNL A   1      45.543  29.531  35.635  1.00  0.00     0.135 A 
ATOM     92  F   UNL A   1      42.976  27.371  37.046  1.00  0.00    -0.206 F 
ATOM     93  C   UNL A   1      45.289  27.420  37.436  1.00  0.00     0.059 A 
ATOM     94  C   UNL A   1      46.679  29.030  36.264  1.00  0.00     0.059 A 
ATOM     95  F   UNL A   1      45.694  30.551  34.775  1.00  0.00    -0.206 F 
ATOM     96  C   UNL A   1      46.539  27.986  37.177  1.00  0.00     0.060 A 
BRANCH  96  97
ATOM     97  S   UNL A   1      47.984  27.326  38.034  1.00  0.00     0.124 S 
ATOM     98  O   UNL A   1      48.429  26.293  37.104  1.00  0.00    -0.237 OA
ATOM     99  O   UNL A   1      48.847  28.497  38.142  1.00  0.00    -0.237 OA
ATOM    100  O   UNL A   1      47.436  26.841  39.296  1.00  0.00    -0.744 OA
ENDBRANCH  96  97
ENDBRANCH  64  89
ENDBRANCH  38  39
ENDBRANCH  30  33
ENDBRANCH  28  29
ENDBRANCH  27  28
ENDBRANCH  26  27
ENDBRANCH  25  26
ENDBRANCH   1  25
TORSDOF 22
ENDMDL
