MODEL 1
REMARK VINA RESULT:     -11.0      0.000      0.000
REMARK SMILES C[C@H](Sc1ccnc(C(=O)NCCCCCCNC(=O)c2ccc(-c3c4nc(c(-c5c(F)cc(S(=O)(=O)[O-])cc5F)c5ccc([nH]5)c(-c5c(F)cc(S(=O)(=O)[O-])cc5F)c5nc(c(-c6c(F)cc(S(=O)(=O)[O-])cc6F)c6ccc3[nH]6)C=C5)C=C4)cc2)c1)[C@@H](C)O
REMARK SMILES IDX 14 1 13 2 12 3 11 4 9 5 10 6 8 8 4 9 5 10 87 11 6 12 7 13
REMARK SMILES IDX 3 14 2 15 1 16 88 17 89 18 90 19 15 21 16 22 17 23 18 24
REMARK SMILES IDX 19 25 20 27 21 28 22 29 86 30 23 31 85 32 24 33 25 34 26 35
REMARK SMILES IDX 79 36 27 37 84 38 78 39 80 40 28 41 83 42 77 43 76 44 29 46
REMARK SMILES IDX 63 47 42 48 62 49 43 50 46 51 61 52 81 53 44 54 45 55 60 57
REMARK SMILES IDX 82 58 47 59 30 60 31 61 40 62 32 63 33 64 39 65 41 66 34 67
REMARK SMILES IDX 35 68 36 69 37 70 38 71 64 72 65 73 74 74 66 75 67 76 73 77
REMARK SMILES IDX 75 78 68 79 69 80 70 81 71 82 72 83 48 84 49 85 58 86 50 87
REMARK SMILES IDX 51 88 57 89 59 90 52 91 53 92 54 93 55 94 56 95
REMARK H PARENT 11 7 90 20 18 26 80 45 46 56
REMARK Flexibility Score: inf
ROOT
ATOM      1  C   UNL A   1      32.415  27.846  26.447  1.00  0.00     0.002 C 
ENDROOT
BRANCH   1   2
ATOM      2  C   UNL A   1      33.054  26.754  25.591  1.00  0.00     0.021 C 
BRANCH   2   3
ATOM      3  C   UNL A   1      33.272  25.409  26.274  1.00  0.00     0.116 C 
BRANCH   3   4
ATOM      4  N   UNL A   1      32.065  24.851  26.856  1.00  0.00    -0.351 N 
ATOM      5  C   UNL A   1      31.286  23.762  26.511  1.00  0.00     0.269 C 
ATOM      6  O   UNL A   1      30.275  23.564  27.187  1.00  0.00    -0.268 OA
ATOM      7  H   UNL A   1      31.739  25.340  27.645  1.00  0.00     0.163 HD
BRANCH   5   8
ATOM      8  C   UNL A   1      31.605  22.857  25.351  1.00  0.00     0.129 A 
ATOM      9  C   UNL A   1      32.731  20.974  24.356  1.00  0.00     0.011 A 
ATOM     10  C   UNL A   1      32.256  21.396  23.122  1.00  0.00     0.035 A 
ATOM     11  C   UNL A   1      32.304  21.668  25.492  1.00  0.00     0.049 A 
ATOM     12  C   UNL A   1      31.470  22.536  23.069  1.00  0.00     0.113 A 
ATOM     13  N   UNL A   1      31.167  23.290  24.143  1.00  0.00    -0.251 NA
BRANCH   9  14
ATOM     14  S   UNL A   1      33.893  19.655  24.683  1.00  0.00    -0.120 SA
BRANCH  14  15
ATOM     15  C   UNL A   1      33.099  18.053  24.226  1.00  0.00     0.077 C 
ATOM     16  C   UNL A   1      34.052  17.256  23.333  1.00  0.00     0.022 C 
BRANCH  15  17
ATOM     17  C   UNL A   1      32.433  17.242  25.366  1.00  0.00     0.124 C 
ATOM     18  C   UNL A   1      33.066  15.873  25.603  1.00  0.00     0.039 C 
BRANCH  17  19
ATOM     19  O   UNL A   1      32.503  17.974  26.597  1.00  0.00    -0.392 OA
ATOM     20  H   UNL A   1      31.727  17.768  27.140  1.00  0.00     0.210 HD
ENDBRANCH  17  19
ENDBRANCH  15  17
ENDBRANCH  14  15
ENDBRANCH   9  14
ENDBRANCH   5   8
ENDBRANCH   3   4
ENDBRANCH   2   3
ENDBRANCH   1   2
BRANCH   1  21
ATOM     21  C   UNL A   1      33.248  29.115  26.650  1.00  0.00     0.002 C 
BRANCH  21  22
ATOM     22  C   UNL A   1      34.532  28.950  27.466  1.00  0.00     0.021 C 
BRANCH  22  23
ATOM     23  C   UNL A   1      35.324  30.231  27.707  1.00  0.00     0.116 C 
BRANCH  23  24
ATOM     24  N   UNL A   1      35.320  30.626  29.105  1.00  0.00    -0.352 N 
ATOM     25  C   UNL A   1      36.278  30.431  30.070  1.00  0.00     0.251 C 
ATOM     26  H   UNL A   1      34.513  31.104  29.404  1.00  0.00     0.163 HD
ATOM     27  O   UNL A   1      36.014  30.659  31.246  1.00  0.00    -0.269 OA
BRANCH  25  28
ATOM     28  C   UNL A   1      37.618  29.931  29.692  1.00  0.00     0.039 A 
ATOM     29  C   UNL A   1      38.006  29.985  28.351  1.00  0.00     0.014 A 
ATOM     30  C   UNL A   1      38.483  29.396  30.651  1.00  0.00     0.014 A 
ATOM     31  C   UNL A   1      39.281  29.553  27.980  1.00  0.00     0.010 A 
ATOM     32  C   UNL A   1      39.780  29.036  30.292  1.00  0.00     0.010 A 
ATOM     33  C   UNL A   1      40.191  29.104  28.953  1.00  0.00    -0.014 A 
BRANCH  33  34
ATOM     34  C   UNL A   1      41.574  28.703  28.586  1.00  0.00     0.031 A 
ATOM     35  C   UNL A   1      42.676  29.727  28.551  1.00  0.00     0.074 A 
ATOM     36  C   UNL A   1      41.823  27.427  28.225  1.00  0.00     0.049 A 
ATOM     37  N   UNL A   1      43.929  29.580  28.204  1.00  0.00    -0.248 NA
ATOM     38  C   UNL A   1      42.317  31.102  28.930  1.00  0.00     0.031 C 
ATOM     39  C   UNL A   1      40.828  26.354  28.176  1.00  0.00     0.029 A 
ATOM     40  N   UNL A   1      42.986  26.820  27.824  1.00  0.00    -0.354 N 
ATOM     41  C   UNL A   1      44.502  30.842  28.309  1.00  0.00     0.074 A 
ATOM     42  C   UNL A   1      43.447  31.752  28.698  1.00  0.00     0.031 C 
ATOM     43  C   UNL A   1      41.428  25.215  27.795  1.00  0.00     0.029 A 
ATOM     44  C   UNL A   1      42.839  25.483  27.532  1.00  0.00     0.049 A 
ATOM     45  H   UNL A   1      43.845  27.295  27.753  1.00  0.00     0.167 HD
ATOM     46  C   UNL A   1      45.794  31.205  28.120  1.00  0.00     0.037 A 
ATOM     47  C   UNL A   1      43.735  24.578  27.096  1.00  0.00     0.037 A 
ATOM     48  C   UNL A   1      46.841  30.286  27.750  1.00  0.00     0.049 A 
ATOM     49  C   UNL A   1      45.162  25.006  26.883  1.00  0.00     0.074 A 
ATOM     50  C   UNL A   1      48.192  30.540  27.595  1.00  0.00     0.029 A 
ATOM     51  N   UNL A   1      46.654  28.940  27.471  1.00  0.00    -0.354 N 
ATOM     52  N   UNL A   1      45.702  26.189  27.053  1.00  0.00    -0.248 NA
ATOM     53  C   UNL A   1      46.104  23.976  26.423  1.00  0.00     0.031 C 
ATOM     54  C   UNL A   1      48.812  29.362  27.168  1.00  0.00     0.029 A 
ATOM     55  C   UNL A   1      47.860  28.357  27.116  1.00  0.00     0.049 A 
ATOM     56  H   UNL A   1      45.791  28.468  27.519  1.00  0.00     0.167 HD
ATOM     57  C   UNL A   1      47.051  26.039  26.750  1.00  0.00     0.074 A 
ATOM     58  C   UNL A   1      47.246  24.647  26.397  1.00  0.00     0.031 C 
ATOM     59  C   UNL A   1      48.039  26.968  26.767  1.00  0.00     0.037 A 
BRANCH  46  60
ATOM     60  C   UNL A   1      46.144  32.659  28.300  1.00  0.00     0.058 A 
ATOM     61  C   UNL A   1      46.595  33.166  29.531  1.00  0.00     0.135 A 
ATOM     62  C   UNL A   1      46.050  33.554  27.222  1.00  0.00     0.135 A 
ATOM     63  F   UNL A   1      46.693  32.359  30.600  1.00  0.00    -0.206 F 
ATOM     64  C   UNL A   1      46.900  34.513  29.696  1.00  0.00     0.059 A 
ATOM     65  C   UNL A   1      46.381  34.899  27.356  1.00  0.00     0.059 A 
ATOM     66  F   UNL A   1      45.628  33.126  26.022  1.00  0.00    -0.206 F 
ATOM     67  C   UNL A   1      46.787  35.373  28.603  1.00  0.00     0.060 A 
BRANCH  67  68
ATOM     68  S   UNL A   1      47.174  37.120  28.837  1.00  0.00     0.124 S 
ATOM     69  O   UNL A   1      48.517  37.199  28.267  1.00  0.00    -0.237 OA
ATOM     70  O   UNL A   1      46.122  37.779  28.070  1.00  0.00    -0.237 OA
ATOM     71  O   UNL A   1      47.097  37.297  30.284  1.00  0.00    -0.744 OA
ENDBRANCH  67  68
ENDBRANCH  46  60
BRANCH  47  72
ATOM     72  C   UNL A   1      43.312  23.172  26.860  1.00  0.00     0.058 A 
ATOM     73  C   UNL A   1      43.211  22.658  25.559  1.00  0.00     0.135 A 
ATOM     74  C   UNL A   1      43.029  22.305  27.928  1.00  0.00     0.135 A 
ATOM     75  F   UNL A   1      43.465  23.448  24.505  1.00  0.00    -0.206 F 
ATOM     76  C   UNL A   1      42.835  21.340  25.322  1.00  0.00     0.059 A 
ATOM     77  C   UNL A   1      42.676  20.975  27.718  1.00  0.00     0.059 A 
ATOM     78  F   UNL A   1      43.126  22.744  29.193  1.00  0.00    -0.206 F 
ATOM     79  C   UNL A   1      42.574  20.504  26.410  1.00  0.00     0.060 A 
BRANCH  79  80
ATOM     80  S   UNL A   1      42.146  18.779  26.093  1.00  0.00     0.124 S 
ATOM     81  O   UNL A   1      43.081  18.435  25.028  1.00  0.00    -0.237 OA
ATOM     82  O   UNL A   1      42.398  18.159  27.390  1.00  0.00    -0.237 OA
ATOM     83  O   UNL A   1      40.741  18.847  25.702  1.00  0.00    -0.744 OA
ENDBRANCH  79  80
ENDBRANCH  47  72
BRANCH  59  84
ATOM     84  C   UNL A   1      49.431  26.508  26.425  1.00  0.00     0.058 A 
ATOM     85  C   UNL A   1      49.971  26.673  25.140  1.00  0.00     0.135 A 
ATOM     86  C   UNL A   1      50.253  25.942  27.414  1.00  0.00     0.135 A 
ATOM     87  F   UNL A   1      49.225  27.201  24.156  1.00  0.00    -0.206 F 
ATOM     88  C   UNL A   1      51.269  26.272  24.840  1.00  0.00     0.059 A 
ATOM     89  C   UNL A   1      51.564  25.563  27.145  1.00  0.00     0.059 A 
ATOM     90  F   UNL A   1      49.791  25.772  28.662  1.00  0.00    -0.206 F 
ATOM     91  C   UNL A   1      52.059  25.720  25.851  1.00  0.00     0.060 A 
BRANCH  91  92
ATOM     92  S   UNL A   1      53.753  25.237  25.457  1.00  0.00     0.124 S 
ATOM     93  O   UNL A   1      53.945  25.873  24.157  1.00  0.00    -0.237 OA
ATOM     94  O   UNL A   1      54.508  25.818  26.563  1.00  0.00    -0.237 OA
ATOM     95  O   UNL A   1      53.697  23.780  25.441  1.00  0.00    -0.744 OA
ENDBRANCH  91  92
ENDBRANCH  59  84
ENDBRANCH  33  34
ENDBRANCH  25  28
ENDBRANCH  23  24
ENDBRANCH  22  23
ENDBRANCH  21  22
ENDBRANCH   1  21
TORSDOF 20
ENDMDL
MODEL 2
REMARK VINA RESULT:     -10.6      1.551      2.611
REMARK SMILES C[C@H](Sc1ccnc(C(=O)NCCCCCCNC(=O)c2ccc(-c3c4nc(c(-c5c(F)cc(S(=O)(=O)[O-])cc5F)c5ccc([nH]5)c(-c5c(F)cc(S(=O)(=O)[O-])cc5F)c5nc(c(-c6c(F)cc(S(=O)(=O)[O-])cc6F)c6ccc3[nH]6)C=C5)C=C4)cc2)c1)[C@@H](C)O
REMARK SMILES IDX 14 1 13 2 12 3 11 4 9 5 10 6 8 8 4 9 5 10 87 11 6 12 7 13
REMARK SMILES IDX 3 14 2 15 1 16 88 17 89 18 90 19 15 21 16 22 17 23 18 24
REMARK SMILES IDX 19 25 20 27 21 28 22 29 86 30 23 31 85 32 24 33 25 34 26 35
REMARK SMILES IDX 79 36 27 37 84 38 78 39 80 40 28 41 83 42 77 43 76 44 29 46
REMARK SMILES IDX 63 47 42 48 62 49 43 50 46 51 61 52 81 53 44 54 45 55 60 57
REMARK SMILES IDX 82 58 47 59 30 60 31 61 40 62 32 63 33 64 39 65 41 66 34 67
REMARK SMILES IDX 35 68 36 69 37 70 38 71 64 72 65 73 74 74 66 75 67 76 73 77
REMARK SMILES IDX 75 78 68 79 69 80 70 81 71 82 72 83 48 84 49 85 58 86 50 87
REMARK SMILES IDX 51 88 57 89 59 90 52 91 53 92 54 93 55 94 56 95
REMARK H PARENT 11 7 90 20 18 26 80 45 46 56
REMARK Flexibility Score: inf
ROOT
ATOM      1  C   UNL A   1      34.218  28.302  25.852  1.00  0.00     0.002 C 
ENDROOT
BRANCH   1   2
ATOM      2  C   UNL A   1      33.835  28.029  24.399  1.00  0.00     0.021 C 
BRANCH   2   3
ATOM      3  C   UNL A   1      32.980  26.791  24.153  1.00  0.00     0.116 C 
BRANCH   3   4
ATOM      4  N   UNL A   1      32.930  26.387  22.759  1.00  0.00    -0.351 N 
ATOM      5  C   UNL A   1      33.294  25.218  22.118  1.00  0.00     0.269 C 
ATOM      6  O   UNL A   1      33.170  25.192  20.892  1.00  0.00    -0.268 OA
ATOM      7  H   UNL A   1      32.569  27.076  22.157  1.00  0.00     0.163 HD
BRANCH   5   8
ATOM      8  C   UNL A   1      33.850  24.021  22.843  1.00  0.00     0.129 A 
ATOM      9  C   UNL A   1      33.643  22.132  24.324  1.00  0.00     0.011 A 
ATOM     10  C   UNL A   1      35.022  21.983  24.258  1.00  0.00     0.035 A 
ATOM     11  C   UNL A   1      33.053  23.108  23.516  1.00  0.00     0.049 A 
ATOM     12  C   UNL A   1      35.747  22.868  23.477  1.00  0.00     0.113 A 
ATOM     13  N   UNL A   1      35.200  23.898  22.803  1.00  0.00    -0.251 NA
BRANCH   9  14
ATOM     14  S   UNL A   1      32.501  21.250  25.379  1.00  0.00    -0.120 SA
BRANCH  14  15
ATOM     15  C   UNL A   1      32.125  22.308  26.843  1.00  0.00     0.077 C 
ATOM     16  C   UNL A   1      33.315  23.230  27.116  1.00  0.00     0.022 C 
BRANCH  15  17
ATOM     17  C   UNL A   1      30.738  22.994  26.884  1.00  0.00     0.124 C 
ATOM     18  C   UNL A   1      30.668  24.295  26.086  1.00  0.00     0.039 C 
BRANCH  17  19
ATOM     19  O   UNL A   1      29.735  22.111  26.363  1.00  0.00    -0.392 OA
ATOM     20  H   UNL A   1      28.973  22.098  26.962  1.00  0.00     0.210 HD
ENDBRANCH  17  19
ENDBRANCH  15  17
ENDBRANCH  14  15
ENDBRANCH   9  14
ENDBRANCH   5   8
ENDBRANCH   3   4
ENDBRANCH   2   3
ENDBRANCH   1   2
BRANCH   1  21
ATOM     21  C   UNL A   1      33.381  29.356  26.581  1.00  0.00     0.002 C 
BRANCH  21  22
ATOM     22  C   UNL A   1      34.164  30.493  27.243  1.00  0.00     0.021 C 
BRANCH  22  23
ATOM     23  C   UNL A   1      35.409  30.069  28.014  1.00  0.00     0.116 C 
BRANCH  23  24
ATOM     24  N   UNL A   1      35.371  30.498  29.401  1.00  0.00    -0.352 N 
ATOM     25  C   UNL A   1      36.362  30.468  30.353  1.00  0.00     0.251 C 
ATOM     26  H   UNL A   1      34.508  30.864  29.704  1.00  0.00     0.163 HD
ATOM     27  O   UNL A   1      36.087  30.688  31.527  1.00  0.00    -0.269 OA
BRANCH  25  28
ATOM     28  C   UNL A   1      37.754  30.153  29.961  1.00  0.00     0.039 A 
ATOM     29  C   UNL A   1      38.670  29.793  30.953  1.00  0.00     0.014 A 
ATOM     30  C   UNL A   1      38.160  30.229  28.626  1.00  0.00     0.014 A 
ATOM     31  C   UNL A   1      39.978  29.456  30.599  1.00  0.00     0.010 A 
ATOM     32  C   UNL A   1      39.442  29.820  28.267  1.00  0.00     0.010 A 
ATOM     33  C   UNL A   1      40.367  29.436  29.249  1.00  0.00    -0.014 A 
BRANCH  33  34
ATOM     34  C   UNL A   1      41.735  29.016  28.848  1.00  0.00     0.031 A 
ATOM     35  C   UNL A   1      42.854  30.021  28.807  1.00  0.00     0.074 A 
ATOM     36  C   UNL A   1      41.953  27.742  28.463  1.00  0.00     0.049 A 
ATOM     37  N   UNL A   1      44.097  29.858  28.432  1.00  0.00    -0.248 NA
ATOM     38  C   UNL A   1      42.527  31.396  29.213  1.00  0.00     0.031 C 
ATOM     39  C   UNL A   1      40.939  26.688  28.418  1.00  0.00     0.029 A 
ATOM     40  N   UNL A   1      43.097  27.120  28.030  1.00  0.00    -0.354 N 
ATOM     41  C   UNL A   1      44.695  31.108  28.545  1.00  0.00     0.074 A 
ATOM     42  C   UNL A   1      43.665  32.030  28.968  1.00  0.00     0.031 C 
ATOM     43  C   UNL A   1      41.510  25.544  28.008  1.00  0.00     0.029 A 
ATOM     44  C   UNL A   1      42.920  25.791  27.721  1.00  0.00     0.049 A 
ATOM     45  H   UNL A   1      43.963  27.581  27.949  1.00  0.00     0.167 HD
ATOM     46  C   UNL A   1      45.990  31.450  28.335  1.00  0.00     0.037 A 
ATOM     47  C   UNL A   1      43.791  24.877  27.253  1.00  0.00     0.037 A 
ATOM     48  C   UNL A   1      47.012  30.519  27.931  1.00  0.00     0.049 A 
ATOM     49  C   UNL A   1      45.221  25.282  27.018  1.00  0.00     0.074 A 
ATOM     50  C   UNL A   1      48.364  30.751  27.752  1.00  0.00     0.029 A 
ATOM     51  N   UNL A   1      46.795  29.181  27.635  1.00  0.00    -0.354 N 
ATOM     52  N   UNL A   1      45.786  26.454  27.195  1.00  0.00    -0.248 NA
ATOM     53  C   UNL A   1      46.135  24.243  26.524  1.00  0.00     0.031 C 
ATOM     54  C   UNL A   1      48.954  29.569  27.295  1.00  0.00     0.029 A 
ATOM     55  C   UNL A   1      47.983  28.582  27.247  1.00  0.00     0.049 A 
ATOM     56  H   UNL A   1      45.925  28.723  27.694  1.00  0.00     0.167 HD
ATOM     57  C   UNL A   1      47.126  26.284  26.863  1.00  0.00     0.074 A 
ATOM     58  C   UNL A   1      47.288  24.895  26.485  1.00  0.00     0.031 C 
ATOM     59  C   UNL A   1      48.130  27.196  26.874  1.00  0.00     0.037 A 
BRANCH  46  60
ATOM     60  C   UNL A   1      46.369  32.894  28.530  1.00  0.00     0.058 A 
ATOM     61  C   UNL A   1      46.332  33.820  27.473  1.00  0.00     0.135 A 
ATOM     62  C   UNL A   1      46.755  33.366  29.795  1.00  0.00     0.135 A 
ATOM     63  F   UNL A   1      45.983  33.423  26.238  1.00  0.00    -0.206 F 
ATOM     64  C   UNL A   1      46.701  35.149  27.655  1.00  0.00     0.059 A 
ATOM     65  C   UNL A   1      47.096  34.699  30.007  1.00  0.00     0.059 A 
ATOM     66  F   UNL A   1      46.807  32.528  30.843  1.00  0.00    -0.206 F 
ATOM     67  C   UNL A   1      47.085  35.578  28.925  1.00  0.00     0.060 A 
BRANCH  67  68
ATOM     68  S   UNL A   1      47.572  37.303  29.142  1.00  0.00     0.124 S 
ATOM     69  O   UNL A   1      46.746  37.698  30.279  1.00  0.00    -0.237 OA
ATOM     70  O   UNL A   1      49.002  37.191  29.408  1.00  0.00    -0.237 OA
ATOM     71  O   UNL A   1      47.220  37.920  27.867  1.00  0.00    -0.744 OA
ENDBRANCH  67  68
ENDBRANCH  46  60
BRANCH  47  72
ATOM     72  C   UNL A   1      43.339  23.482  27.005  1.00  0.00     0.058 A 
ATOM     73  C   UNL A   1      43.134  23.012  25.699  1.00  0.00     0.135 A 
ATOM     74  C   UNL A   1      43.128  22.583  28.063  1.00  0.00     0.135 A 
ATOM     75  F   UNL A   1      43.314  23.835  24.655  1.00  0.00    -0.206 F 
ATOM     76  C   UNL A   1      42.728  21.706  25.450  1.00  0.00     0.059 A 
ATOM     77  C   UNL A   1      42.748  21.264  27.838  1.00  0.00     0.059 A 
ATOM     78  F   UNL A   1      43.326  22.979  29.331  1.00  0.00    -0.206 F 
ATOM     79  C   UNL A   1      42.543  20.836  26.526  1.00  0.00     0.060 A 
BRANCH  79  80
ATOM     80  S   UNL A   1      42.076  19.125  26.187  1.00  0.00     0.124 S 
ATOM     81  O   UNL A   1      42.331  18.491  27.475  1.00  0.00    -0.237 OA
ATOM     82  O   UNL A   1      40.673  19.262  25.809  1.00  0.00    -0.237 OA
ATOM     83  O   UNL A   1      42.974  18.739  25.104  1.00  0.00    -0.744 OA
ENDBRANCH  79  80
ENDBRANCH  47  72
BRANCH  59  84
ATOM     84  C   UNL A   1      49.506  26.716  26.497  1.00  0.00     0.058 A 
ATOM     85  C   UNL A   1      50.303  25.979  27.386  1.00  0.00     0.135 A 
ATOM     86  C   UNL A   1      50.010  26.952  25.207  1.00  0.00     0.135 A 
ATOM     87  F   UNL A   1      49.872  25.731  28.634  1.00  0.00    -0.206 F 
ATOM     88  C   UNL A   1      51.562  25.513  27.020  1.00  0.00     0.059 A 
ATOM     89  C   UNL A   1      51.252  26.469  24.809  1.00  0.00     0.059 A 
ATOM     90  F   UNL A   1      49.285  27.642  24.313  1.00  0.00    -0.206 F 
ATOM     91  C   UNL A   1      52.026  25.761  25.726  1.00  0.00     0.060 A 
BRANCH  91  92
ATOM     92  S   UNL A   1      53.646  25.120  25.252  1.00  0.00     0.124 S 
ATOM     93  O   UNL A   1      53.722  25.519  23.851  1.00  0.00    -0.237 OA
ATOM     94  O   UNL A   1      54.541  25.829  26.162  1.00  0.00    -0.237 OA
ATOM     95  O   UNL A   1      53.527  23.685  25.490  1.00  0.00    -0.744 OA
ENDBRANCH  91  92
ENDBRANCH  59  84
ENDBRANCH  33  34
ENDBRANCH  25  28
ENDBRANCH  23  24
ENDBRANCH  22  23
ENDBRANCH  21  22
ENDBRANCH   1  21
TORSDOF 20
ENDMDL
MODEL 3
REMARK VINA RESULT:     -10.5      3.624      9.843
REMARK SMILES C[C@H](Sc1ccnc(C(=O)NCCCCCCNC(=O)c2ccc(-c3c4nc(c(-c5c(F)cc(S(=O)(=O)[O-])cc5F)c5ccc([nH]5)c(-c5c(F)cc(S(=O)(=O)[O-])cc5F)c5nc(c(-c6c(F)cc(S(=O)(=O)[O-])cc6F)c6ccc3[nH]6)C=C5)C=C4)cc2)c1)[C@@H](C)O
REMARK SMILES IDX 14 1 13 2 12 3 11 4 9 5 10 6 8 8 4 9 5 10 87 11 6 12 7 13
REMARK SMILES IDX 3 14 2 15 1 16 88 17 89 18 90 19 15 21 16 22 17 23 18 24
REMARK SMILES IDX 19 25 20 27 21 28 22 29 86 30 23 31 85 32 24 33 25 34 26 35
REMARK SMILES IDX 79 36 27 37 84 38 78 39 80 40 28 41 83 42 77 43 76 44 29 46
REMARK SMILES IDX 63 47 42 48 62 49 43 50 46 51 61 52 81 53 44 54 45 55 60 57
REMARK SMILES IDX 82 58 47 59 30 60 31 61 40 62 32 63 33 64 39 65 41 66 34 67
REMARK SMILES IDX 35 68 36 69 37 70 38 71 64 72 65 73 74 74 66 75 67 76 73 77
REMARK SMILES IDX 75 78 68 79 69 80 70 81 71 82 72 83 48 84 49 85 58 86 50 87
REMARK SMILES IDX 51 88 57 89 59 90 52 91 53 92 54 93 55 94 56 95
REMARK H PARENT 11 7 90 20 18 26 80 45 46 56
REMARK Flexibility Score: inf
ROOT
ATOM      1  C   UNL A   1      33.514  22.810  26.423  1.00  0.00     0.002 C 
ENDROOT
BRANCH   1   2
ATOM      2  C   UNL A   1      33.001  22.999  24.997  1.00  0.00     0.021 C 
BRANCH   2   3
ATOM      3  C   UNL A   1      31.595  22.482  24.718  1.00  0.00     0.116 C 
BRANCH   3   4
ATOM      4  N   UNL A   1      30.674  22.672  25.824  1.00  0.00    -0.351 N 
ATOM      5  C   UNL A   1      30.188  23.809  26.442  1.00  0.00     0.269 C 
ATOM      6  O   UNL A   1      29.438  23.642  27.406  1.00  0.00    -0.268 OA
ATOM      7  H   UNL A   1      30.332  21.833  26.207  1.00  0.00     0.163 HD
BRANCH   5   8
ATOM      8  C   UNL A   1      30.559  25.202  26.011  1.00  0.00     0.129 A 
ATOM      9  C   UNL A   1      30.604  27.005  24.412  1.00  0.00     0.011 A 
ATOM     10  C   UNL A   1      31.456  27.688  25.270  1.00  0.00     0.035 A 
ATOM     11  C   UNL A   1      30.074  25.788  24.851  1.00  0.00     0.049 A 
ATOM     12  C   UNL A   1      31.814  27.086  26.466  1.00  0.00     0.113 A 
ATOM     13  N   UNL A   1      31.417  25.854  26.835  1.00  0.00    -0.251 NA
BRANCH   9  14
ATOM     14  S   UNL A   1      30.128  27.467  22.752  1.00  0.00    -0.120 SA
BRANCH  14  15
ATOM     15  C   UNL A   1      29.541  29.217  22.781  1.00  0.00     0.077 C 
ATOM     16  C   UNL A   1      30.470  30.073  21.918  1.00  0.00     0.022 C 
BRANCH  15  17
ATOM     17  C   UNL A   1      28.028  29.459  22.559  1.00  0.00     0.124 C 
ATOM     18  C   UNL A   1      27.441  30.555  23.445  1.00  0.00     0.039 C 
BRANCH  17  19
ATOM     19  O   UNL A   1      27.782  29.825  21.194  1.00  0.00    -0.392 OA
ATOM     20  H   UNL A   1      28.337  30.585  20.958  1.00  0.00     0.210 HD
ENDBRANCH  17  19
ENDBRANCH  15  17
ENDBRANCH  14  15
ENDBRANCH   9  14
ENDBRANCH   5   8
ENDBRANCH   3   4
ENDBRANCH   2   3
ENDBRANCH   1   2
BRANCH   1  21
ATOM     21  C   UNL A   1      35.018  23.012  26.628  1.00  0.00     0.002 C 
BRANCH  21  22
ATOM     22  C   UNL A   1      35.659  24.145  25.823  1.00  0.00     0.021 C 
BRANCH  22  23
ATOM     23  C   UNL A   1      36.850  23.742  24.960  1.00  0.00     0.116 C 
BRANCH  23  24
ATOM     24  N   UNL A   1      37.613  22.654  25.548  1.00  0.00    -0.352 N 
ATOM     25  C   UNL A   1      38.795  22.694  26.248  1.00  0.00     0.251 C 
ATOM     26  H   UNL A   1      37.226  21.757  25.426  1.00  0.00     0.163 HD
ATOM     27  O   UNL A   1      39.392  21.653  26.495  1.00  0.00    -0.269 OA
BRANCH  25  28
ATOM     28  C   UNL A   1      39.351  23.993  26.686  1.00  0.00     0.039 A 
ATOM     29  C   UNL A   1      39.182  24.386  28.016  1.00  0.00     0.014 A 
ATOM     30  C   UNL A   1      40.020  24.829  25.788  1.00  0.00     0.014 A 
ATOM     31  C   UNL A   1      39.733  25.591  28.458  1.00  0.00     0.010 A 
ATOM     32  C   UNL A   1      40.633  25.993  26.247  1.00  0.00     0.010 A 
ATOM     33  C   UNL A   1      40.490  26.391  27.585  1.00  0.00    -0.014 A 
BRANCH  33  34
ATOM     34  C   UNL A   1      41.139  27.642  28.054  1.00  0.00     0.031 A 
ATOM     35  C   UNL A   1      42.634  27.795  27.980  1.00  0.00     0.074 A 
ATOM     36  C   UNL A   1      40.385  28.617  28.602  1.00  0.00     0.049 A 
ATOM     37  N   UNL A   1      43.384  28.786  28.389  1.00  0.00    -0.248 NA
ATOM     38  C   UNL A   1      43.387  26.675  27.396  1.00  0.00     0.031 C 
ATOM     39  C   UNL A   1      38.931  28.567  28.769  1.00  0.00     0.029 A 
ATOM     40  N   UNL A   1      40.737  29.835  29.126  1.00  0.00    -0.354 N 
ATOM     41  C   UNL A   1      44.694  28.404  28.125  1.00  0.00     0.074 A 
ATOM     42  C   UNL A   1      44.640  27.068  27.573  1.00  0.00     0.031 C 
ATOM     43  C   UNL A   1      38.512  29.712  29.330  1.00  0.00     0.029 A 
ATOM     44  C   UNL A   1      39.669  30.561  29.601  1.00  0.00     0.049 A 
ATOM     45  H   UNL A   1      41.665  30.159  29.159  1.00  0.00     0.167 HD
ATOM     46  C   UNL A   1      45.836  29.111  28.305  1.00  0.00     0.037 A 
ATOM     47  C   UNL A   1      39.626  31.770  30.194  1.00  0.00     0.037 A 
ATOM     48  C   UNL A   1      45.877  30.449  28.839  1.00  0.00     0.049 A 
ATOM     49  C   UNL A   1      40.907  32.533  30.394  1.00  0.00     0.074 A 
ATOM     50  C   UNL A   1      46.974  31.275  29.004  1.00  0.00     0.029 A 
ATOM     51  N   UNL A   1      44.775  31.153  29.302  1.00  0.00    -0.354 N 
ATOM     52  N   UNL A   1      42.132  32.185  30.075  1.00  0.00    -0.248 NA
ATOM     53  C   UNL A   1      40.803  33.853  31.029  1.00  0.00     0.031 C 
ATOM     54  C   UNL A   1      46.544  32.456  29.618  1.00  0.00     0.029 A 
ATOM     55  C   UNL A   1      45.170  32.393  29.779  1.00  0.00     0.049 A 
ATOM     56  H   UNL A   1      43.848  30.821  29.291  1.00  0.00     0.167 HD
ATOM     57  C   UNL A   1      42.939  33.256  30.444  1.00  0.00     0.074 A 
ATOM     58  C   UNL A   1      42.062  34.266  30.999  1.00  0.00     0.031 C 
ATOM     59  C   UNL A   1      44.284  33.391  30.329  1.00  0.00     0.037 A 
BRANCH  46  60
ATOM     60  C   UNL A   1      47.135  28.446  27.931  1.00  0.00     0.058 A 
ATOM     61  C   UNL A   1      47.897  27.729  28.869  1.00  0.00     0.135 A 
ATOM     62  C   UNL A   1      47.614  28.508  26.613  1.00  0.00     0.135 A 
ATOM     63  F   UNL A   1      47.495  27.647  30.148  1.00  0.00    -0.206 F 
ATOM     64  C   UNL A   1      49.105  27.132  28.523  1.00  0.00     0.059 A 
ATOM     65  C   UNL A   1      48.804  27.890  26.236  1.00  0.00     0.059 A 
ATOM     66  F   UNL A   1      46.927  29.177  25.674  1.00  0.00    -0.206 F 
ATOM     67  C   UNL A   1      49.552  27.221  27.204  1.00  0.00     0.060 A 
BRANCH  67  68
ATOM     68  S   UNL A   1      51.127  26.451  26.773  1.00  0.00     0.124 S 
ATOM     69  O   UNL A   1      51.018  26.359  25.320  1.00  0.00    -0.237 OA
ATOM     70  O   UNL A   1      52.095  27.421  27.274  1.00  0.00    -0.237 OA
ATOM     71  O   UNL A   1      51.091  25.178  27.486  1.00  0.00    -0.744 OA
ENDBRANCH  67  68
ENDBRANCH  46  60
BRANCH  47  72
ATOM     72  C   UNL A   1      38.319  32.343  30.613  1.00  0.00     0.058 A 
ATOM     73  C   UNL A   1      37.817  32.124  31.905  1.00  0.00     0.135 A 
ATOM     74  C   UNL A   1      37.558  33.141  29.743  1.00  0.00     0.135 A 
ATOM     75  F   UNL A   1      38.503  31.362  32.770  1.00  0.00    -0.206 F 
ATOM     76  C   UNL A   1      36.606  32.668  32.318  1.00  0.00     0.059 A 
ATOM     77  C   UNL A   1      36.356  33.717  30.143  1.00  0.00     0.059 A 
ATOM     78  F   UNL A   1      38.001  33.393  28.502  1.00  0.00    -0.206 F 
ATOM     79  C   UNL A   1      35.884  33.468  31.431  1.00  0.00     0.060 A 
BRANCH  79  80
ATOM     80  S   UNL A   1      34.343  34.218  31.998  1.00  0.00     0.124 S 
ATOM     81  O   UNL A   1      33.660  34.478  30.736  1.00  0.00    -0.237 OA
ATOM     82  O   UNL A   1      33.774  33.159  32.826  1.00  0.00    -0.237 OA
ATOM     83  O   UNL A   1      34.792  35.400  32.728  1.00  0.00    -0.744 OA
ENDBRANCH  79  80
ENDBRANCH  47  72
BRANCH  59  84
ATOM     84  C   UNL A   1      44.892  34.690  30.782  1.00  0.00     0.058 A 
ATOM     85  C   UNL A   1      45.402  34.858  32.079  1.00  0.00     0.135 A 
ATOM     86  C   UNL A   1      45.015  35.766  29.887  1.00  0.00     0.135 A 
ATOM     87  F   UNL A   1      45.304  33.864  32.978  1.00  0.00    -0.206 F 
ATOM     88  C   UNL A   1      45.989  36.053  32.481  1.00  0.00     0.059 A 
ATOM     89  C   UNL A   1      45.626  36.959  30.257  1.00  0.00     0.059 A 
ATOM     90  F   UNL A   1      44.555  35.656  28.630  1.00  0.00    -0.206 F 
ATOM     91  C   UNL A   1      46.100  37.097  31.560  1.00  0.00     0.060 A 
BRANCH  91  92
ATOM     92  S   UNL A   1      46.897  38.630  32.084  1.00  0.00     0.124 S 
ATOM     93  O   UNL A   1      45.760  39.543  32.157  1.00  0.00    -0.237 OA
ATOM     94  O   UNL A   1      47.488  38.253  33.364  1.00  0.00    -0.237 OA
ATOM     95  O   UNL A   1      47.851  38.901  31.014  1.00  0.00    -0.744 OA
ENDBRANCH  91  92
ENDBRANCH  59  84
ENDBRANCH  33  34
ENDBRANCH  25  28
ENDBRANCH  23  24
ENDBRANCH  22  23
ENDBRANCH  21  22
ENDBRANCH   1  21
TORSDOF 20
ENDMDL
