MODEL 1
REMARK VINA RESULT:     -11.4      0.000      0.000
REMARK SMILES CO[C@H]1C[C@H](C(=O)NCCCCCCNC(=O)c2ccc(-c3c4nc(c(-c5c(F)cc(S(=O)(=O)[O-])cc5F)c5ccc([nH]5)c(-c5c(F)cc(S(=O)(=O)[O-])cc5F)c5nc(c(-c6c(F)cc(S(=O)(=O)[O-])cc6F)c6ccc3[nH]6)C=C5)C=C4)cc2)N(C(=O)c2cc(Cl)c(Cl)n2C)C1
REMARK SMILES IDX 12 1 11 2 10 3 9 4 8 5 6 6 7 7 5 9 3 10 4 11 95 12 84 13
REMARK SMILES IDX 2 14 1 15 85 16 86 17 87 18 88 19 93 20 89 21 91 22 94 23
REMARK SMILES IDX 90 24 92 25 13 26 14 27 15 28 16 29 17 31 18 32 19 33 83 34
REMARK SMILES IDX 20 35 82 36 21 37 22 38 23 39 76 40 24 41 81 42 75 43 77 44
REMARK SMILES IDX 25 45 80 46 74 47 73 48 26 50 60 51 39 52 59 53 40 54 43 55
REMARK SMILES IDX 58 56 78 57 41 58 42 59 57 61 79 62 44 63 27 64 28 65 37 66
REMARK SMILES IDX 29 67 30 68 36 69 38 70 31 71 32 72 33 73 34 74 35 75 61 76
REMARK SMILES IDX 62 77 71 78 63 79 64 80 70 81 72 82 65 83 66 84 67 85 68 86
REMARK SMILES IDX 69 87 45 88 46 89 55 90 47 91 48 92 54 93 56 94 49 95 50 96
REMARK SMILES IDX 51 97 52 98 53 99
REMARK H PARENT 8 8 15 30 77 49 43 60
REMARK Flexibility Score: inf
ROOT
ATOM      1  C   UNL A   1      32.522  29.961  27.272  1.00  0.00     0.002 C 
ENDROOT
BRANCH   1   2
ATOM      2  C   UNL A   1      31.636  28.735  27.518  1.00  0.00     0.002 C 
BRANCH   2   3
ATOM      3  C   UNL A   1      31.650  27.673  26.412  1.00  0.00     0.021 C 
BRANCH   3   4
ATOM      4  C   UNL A   1      32.773  26.638  26.524  1.00  0.00     0.116 C 
BRANCH   4   5
ATOM      5  N   UNL A   1      32.245  25.289  26.566  1.00  0.00    -0.354 N 
ATOM      6  C   UNL A   1      32.740  24.096  26.140  1.00  0.00     0.242 C 
ATOM      7  O   UNL A   1      31.948  23.146  26.151  1.00  0.00    -0.273 OA
ATOM      8  H   UNL A   1      31.356  25.221  26.984  1.00  0.00     0.163 HD
BRANCH   6   9
ATOM      9  C   UNL A   1      34.141  23.901  25.515  1.00  0.00     0.177 C 
ATOM     10  C   UNL A   1      35.236  21.721  25.611  1.00  0.00     0.139 C 
ATOM     11  C   UNL A   1      35.050  23.028  26.382  1.00  0.00     0.069 C 
ATOM     12  C   UNL A   1      35.026  22.120  24.154  1.00  0.00     0.152 C 
ATOM     13  N   UNL A   1      34.203  23.316  24.180  1.00  0.00    -0.323 N 
BRANCH  10  14
ATOM     14  O   UNL A   1      36.541  21.182  25.799  1.00  0.00    -0.380 OA
ATOM     15  C   UNL A   1      37.335  21.229  24.620  1.00  0.00     0.195 C 
ENDBRANCH  10  14
BRANCH  13  16
ATOM     16  C   UNL A   1      33.752  23.865  22.994  1.00  0.00     0.271 C 
ATOM     17  O   UNL A   1      33.853  23.248  21.935  1.00  0.00    -0.267 OA
BRANCH  16  18
ATOM     18  C   UNL A   1      33.148  25.181  23.034  1.00  0.00     0.109 A 
ATOM     19  C   UNL A   1      33.772  26.419  22.911  1.00  0.00     0.055 A 
ATOM     20  N   UNL A   1      31.782  25.429  23.049  1.00  0.00    -0.329 N 
ATOM     21  C   UNL A   1      32.778  27.421  22.876  1.00  0.00     0.078 A 
ATOM     22  C   UNL A   1      31.571  26.779  22.956  1.00  0.00     0.128 A 
ATOM     23  C   UNL A   1      30.759  24.406  23.135  1.00  0.00     0.151 C 
ATOM     24  Cl  UNL A   1      33.087  29.082  22.713  1.00  0.00    -0.081 Cl
ATOM     25  Cl  UNL A   1      29.987  27.417  22.912  1.00  0.00    -0.063 Cl
ENDBRANCH  16  18
ENDBRANCH  13  16
ENDBRANCH   6   9
ENDBRANCH   4   5
ENDBRANCH   3   4
ENDBRANCH   2   3
ENDBRANCH   1   2
BRANCH   1  26
ATOM     26  C   UNL A   1      33.857  29.703  26.562  1.00  0.00     0.021 C 
BRANCH  26  27
ATOM     27  C   UNL A   1      35.050  29.378  27.464  1.00  0.00     0.116 C 
BRANCH  27  28
ATOM     28  N   UNL A   1      35.040  30.141  28.697  1.00  0.00    -0.352 N 
ATOM     29  C   UNL A   1      36.067  30.395  29.574  1.00  0.00     0.251 C 
ATOM     30  H   UNL A   1      34.172  30.535  28.942  1.00  0.00     0.163 HD
ATOM     31  O   UNL A   1      35.827  30.949  30.643  1.00  0.00    -0.269 OA
BRANCH  29  32
ATOM     32  C   UNL A   1      37.456  29.988  29.254  1.00  0.00     0.039 A 
ATOM     33  C   UNL A   1      38.331  29.715  30.311  1.00  0.00     0.014 A 
ATOM     34  C   UNL A   1      37.917  29.937  27.934  1.00  0.00     0.014 A 
ATOM     35  C   UNL A   1      39.653  29.345  30.048  1.00  0.00     0.010 A 
ATOM     36  C   UNL A   1      39.236  29.555  27.671  1.00  0.00     0.010 A 
ATOM     37  C   UNL A   1      40.111  29.252  28.726  1.00  0.00    -0.014 A 
BRANCH  37  38
ATOM     38  C   UNL A   1      41.503  28.834  28.436  1.00  0.00     0.031 A 
ATOM     39  C   UNL A   1      42.621  29.835  28.464  1.00  0.00     0.074 A 
ATOM     40  C   UNL A   1      41.762  27.552  28.118  1.00  0.00     0.049 A 
ATOM     41  N   UNL A   1      43.876  29.678  28.131  1.00  0.00    -0.248 NA
ATOM     42  C   UNL A   1      42.280  31.191  28.918  1.00  0.00     0.031 C 
ATOM     43  C   UNL A   1      40.767  26.481  28.050  1.00  0.00     0.029 A 
ATOM     44  N   UNL A   1      42.942  26.938  27.786  1.00  0.00    -0.354 N 
ATOM     45  C   UNL A   1      44.472  30.919  28.302  1.00  0.00     0.074 A 
ATOM     46  C   UNL A   1      43.444  31.816  28.788  1.00  0.00     0.031 C 
ATOM     47  C   UNL A   1      41.381  25.338  27.702  1.00  0.00     0.029 A 
ATOM     48  C   UNL A   1      42.805  25.601  27.509  1.00  0.00     0.049 A 
ATOM     49  H   UNL A   1      43.805  27.411  27.752  1.00  0.00     0.167 HD
ATOM     50  C   UNL A   1      45.754  31.283  28.060  1.00  0.00     0.037 A 
ATOM     51  C   UNL A   1      43.723  24.690  27.135  1.00  0.00     0.037 A 
ATOM     52  C   UNL A   1      46.785  30.398  27.588  1.00  0.00     0.049 A 
ATOM     53  C   UNL A   1      45.157  25.095  26.965  1.00  0.00     0.074 A 
ATOM     54  C   UNL A   1      48.094  30.694  27.248  1.00  0.00     0.029 A 
ATOM     55  N   UNL A   1      46.627  29.032  27.412  1.00  0.00    -0.354 N 
ATOM     56  N   UNL A   1      45.689  26.287  27.073  1.00  0.00    -0.248 NA
ATOM     57  C   UNL A   1      46.113  24.032  26.626  1.00  0.00     0.031 C 
ATOM     58  C   UNL A   1      48.734  29.501  26.879  1.00  0.00     0.029 A 
ATOM     59  C   UNL A   1      47.821  28.466  26.994  1.00  0.00     0.049 A 
ATOM     60  H   UNL A   1      45.790  28.537  27.562  1.00  0.00     0.167 HD
ATOM     61  C   UNL A   1      47.042  26.122  26.802  1.00  0.00     0.074 A 
ATOM     62  C   UNL A   1      47.251  24.711  26.546  1.00  0.00     0.031 C 
ATOM     63  C   UNL A   1      48.019  27.060  26.757  1.00  0.00     0.037 A 
BRANCH  50  64
ATOM     64  C   UNL A   1      46.093  32.724  28.281  1.00  0.00     0.058 A 
ATOM     65  C   UNL A   1      46.579  33.176  29.516  1.00  0.00     0.135 A 
ATOM     66  C   UNL A   1      45.904  33.665  27.258  1.00  0.00     0.135 A 
ATOM     67  F   UNL A   1      46.758  32.311  30.528  1.00  0.00    -0.206 F 
ATOM     68  C   UNL A   1      46.846  34.522  29.741  1.00  0.00     0.059 A 
ATOM     69  C   UNL A   1      46.168  35.015  27.459  1.00  0.00     0.059 A 
ATOM     70  F   UNL A   1      45.430  33.279  26.063  1.00  0.00    -0.206 F 
ATOM     71  C   UNL A   1      46.621  35.437  28.710  1.00  0.00     0.060 A 
BRANCH  71  72
ATOM     72  S   UNL A   1      46.917  37.196  28.992  1.00  0.00     0.124 S 
ATOM     73  O   UNL A   1      45.920  37.800  28.113  1.00  0.00    -0.237 OA
ATOM     74  O   UNL A   1      46.671  37.347  30.423  1.00  0.00    -0.237 OA
ATOM     75  O   UNL A   1      48.308  37.362  28.580  1.00  0.00    -0.744 OA
ENDBRANCH  71  72
ENDBRANCH  50  64
BRANCH  51  76
ATOM     76  C   UNL A   1      43.299  23.291  26.900  1.00  0.00     0.058 A 
ATOM     77  C   UNL A   1      43.086  22.816  25.599  1.00  0.00     0.135 A 
ATOM     78  C   UNL A   1      43.148  22.397  27.967  1.00  0.00     0.135 A 
ATOM     79  F   UNL A   1      43.221  23.645  24.551  1.00  0.00    -0.206 F 
ATOM     80  C   UNL A   1      42.743  21.490  25.359  1.00  0.00     0.059 A 
ATOM     81  C   UNL A   1      42.811  21.066  27.752  1.00  0.00     0.059 A 
ATOM     82  F   UNL A   1      43.353  22.812  29.226  1.00  0.00    -0.206 F 
ATOM     83  C   UNL A   1      42.610  20.622  26.443  1.00  0.00     0.060 A 
BRANCH  83  84
ATOM     84  S   UNL A   1      42.255  18.874  26.154  1.00  0.00     0.124 S 
ATOM     85  O   UNL A   1      42.456  18.312  27.484  1.00  0.00    -0.237 OA
ATOM     86  O   UNL A   1      40.877  18.896  25.674  1.00  0.00    -0.237 OA
ATOM     87  O   UNL A   1      43.252  18.512  25.151  1.00  0.00    -0.744 OA
ENDBRANCH  83  84
ENDBRANCH  51  76
BRANCH  63  88
ATOM     88  C   UNL A   1      49.398  26.586  26.418  1.00  0.00     0.058 A 
ATOM     89  C   UNL A   1      50.214  25.987  27.389  1.00  0.00     0.135 A 
ATOM     90  C   UNL A   1      49.903  26.715  25.116  1.00  0.00     0.135 A 
ATOM     91  F   UNL A   1      49.772  25.846  28.648  1.00  0.00    -0.206 F 
ATOM     92  C   UNL A   1      51.494  25.539  27.083  1.00  0.00     0.059 A 
ATOM     93  C   UNL A   1      51.180  26.273  24.787  1.00  0.00     0.059 A 
ATOM     94  F   UNL A   1      49.158  27.287  24.157  1.00  0.00    -0.206 F 
ATOM     95  C   UNL A   1      51.973  25.695  25.780  1.00  0.00     0.060 A 
BRANCH  95  96
ATOM     96  S   UNL A   1      53.628  25.103  25.364  1.00  0.00     0.124 S 
ATOM     97  O   UNL A   1      54.447  25.821  26.334  1.00  0.00    -0.237 OA
ATOM     98  O   UNL A   1      53.522  23.661  25.572  1.00  0.00    -0.237 OA
ATOM     99  O   UNL A   1      53.784  25.517  23.973  1.00  0.00    -0.744 OA
ENDBRANCH  95  96
ENDBRANCH  63  88
ENDBRANCH  37  38
ENDBRANCH  29  32
ENDBRANCH  27  28
ENDBRANCH  26  27
ENDBRANCH   1  26
TORSDOF 19
ENDMDL
MODEL 2
REMARK VINA RESULT:     -11.3      6.600     11.359
REMARK SMILES CO[C@H]1C[C@H](C(=O)NCCCCCCNC(=O)c2ccc(-c3c4nc(c(-c5c(F)cc(S(=O)(=O)[O-])cc5F)c5ccc([nH]5)c(-c5c(F)cc(S(=O)(=O)[O-])cc5F)c5nc(c(-c6c(F)cc(S(=O)(=O)[O-])cc6F)c6ccc3[nH]6)C=C5)C=C4)cc2)N(C(=O)c2cc(Cl)c(Cl)n2C)C1
REMARK SMILES IDX 12 1 11 2 10 3 9 4 8 5 6 6 7 7 5 9 3 10 4 11 95 12 84 13
REMARK SMILES IDX 2 14 1 15 85 16 86 17 87 18 88 19 93 20 89 21 91 22 94 23
REMARK SMILES IDX 90 24 92 25 13 26 14 27 15 28 16 29 17 31 18 32 19 33 83 34
REMARK SMILES IDX 20 35 82 36 21 37 22 38 23 39 76 40 24 41 81 42 75 43 77 44
REMARK SMILES IDX 25 45 80 46 74 47 73 48 26 50 60 51 39 52 59 53 40 54 43 55
REMARK SMILES IDX 58 56 78 57 41 58 42 59 57 61 79 62 44 63 27 64 28 65 37 66
REMARK SMILES IDX 29 67 30 68 36 69 38 70 31 71 32 72 33 73 34 74 35 75 61 76
REMARK SMILES IDX 62 77 71 78 63 79 64 80 70 81 72 82 65 83 66 84 67 85 68 86
REMARK SMILES IDX 69 87 45 88 46 89 55 90 47 91 48 92 54 93 56 94 49 95 50 96
REMARK SMILES IDX 51 97 52 98 53 99
REMARK H PARENT 8 8 15 30 77 49 43 60
REMARK Flexibility Score: inf
ROOT
ATOM      1  C   UNL A   1      41.644  21.616  26.254  1.00  0.00     0.002 C 
ENDROOT
BRANCH   1   2
ATOM      2  C   UNL A   1      40.166  21.239  26.402  1.00  0.00     0.002 C 
BRANCH   2   3
ATOM      3  C   UNL A   1      39.179  22.412  26.411  1.00  0.00     0.021 C 
BRANCH   3   4
ATOM      4  C   UNL A   1      37.934  22.216  25.543  1.00  0.00     0.116 C 
BRANCH   4   5
ATOM      5  N   UNL A   1      36.721  22.297  26.332  1.00  0.00    -0.354 N 
ATOM      6  C   UNL A   1      35.424  21.993  26.055  1.00  0.00     0.242 C 
ATOM      7  O   UNL A   1      34.591  22.364  26.892  1.00  0.00    -0.273 OA
ATOM      8  H   UNL A   1      36.861  22.640  27.244  1.00  0.00     0.163 HD
BRANCH   6   9
ATOM      9  C   UNL A   1      34.934  21.371  24.727  1.00  0.00     0.177 C 
ATOM     10  C   UNL A   1      32.886  20.042  24.677  1.00  0.00     0.139 C 
ATOM     11  C   UNL A   1      34.395  19.951  24.912  1.00  0.00     0.069 C 
ATOM     12  C   UNL A   1      32.728  21.252  23.763  1.00  0.00     0.152 C 
ATOM     13  N   UNL A   1      33.893  22.087  23.997  1.00  0.00    -0.323 N 
BRANCH  10  14
ATOM     14  O   UNL A   1      32.383  18.869  24.044  1.00  0.00    -0.380 OA
ATOM     15  C   UNL A   1      33.399  17.917  23.753  1.00  0.00     0.195 C 
ENDBRANCH  10  14
BRANCH  13  16
ATOM     16  C   UNL A   1      33.987  23.322  23.383  1.00  0.00     0.271 C 
ATOM     17  O   UNL A   1      34.456  23.430  22.251  1.00  0.00    -0.267 OA
BRANCH  16  18
ATOM     18  C   UNL A   1      33.511  24.485  24.104  1.00  0.00     0.109 A 
ATOM     19  C   UNL A   1      34.231  25.338  24.934  1.00  0.00     0.055 A 
ATOM     20  N   UNL A   1      32.249  25.046  23.961  1.00  0.00    -0.329 N 
ATOM     21  C   UNL A   1      33.392  26.409  25.313  1.00  0.00     0.078 A 
ATOM     22  C   UNL A   1      32.188  26.202  24.695  1.00  0.00     0.128 A 
ATOM     23  C   UNL A   1      31.186  24.490  23.149  1.00  0.00     0.151 C 
ATOM     24  Cl  UNL A   1      33.865  27.701  26.308  1.00  0.00    -0.081 Cl
ATOM     25  Cl  UNL A   1      30.774  27.159  24.704  1.00  0.00    -0.063 Cl
ENDBRANCH  16  18
ENDBRANCH  13  16
ENDBRANCH   6   9
ENDBRANCH   4   5
ENDBRANCH   3   4
ENDBRANCH   2   3
ENDBRANCH   1   2
BRANCH   1  26
ATOM     26  C   UNL A   1      42.343  22.131  27.519  1.00  0.00     0.021 C 
BRANCH  26  27
ATOM     27  C   UNL A   1      42.966  23.526  27.427  1.00  0.00     0.116 C 
BRANCH  27  28
ATOM     28  N   UNL A   1      42.550  24.244  26.236  1.00  0.00    -0.352 N 
ATOM     29  C   UNL A   1      41.898  25.448  26.128  1.00  0.00     0.251 C 
ATOM     30  H   UNL A   1      42.767  23.805  25.383  1.00  0.00     0.163 HD
ATOM     31  O   UNL A   1      41.506  25.826  25.028  1.00  0.00    -0.269 OA
BRANCH  29  32
ATOM     32  C   UNL A   1      41.643  26.284  27.325  1.00  0.00     0.039 A 
ATOM     33  C   UNL A   1      42.495  27.365  27.576  1.00  0.00     0.014 A 
ATOM     34  C   UNL A   1      40.621  25.976  28.227  1.00  0.00     0.014 A 
ATOM     35  C   UNL A   1      42.295  28.166  28.704  1.00  0.00     0.010 A 
ATOM     36  C   UNL A   1      40.414  26.784  29.350  1.00  0.00     0.010 A 
ATOM     37  C   UNL A   1      41.247  27.887  29.592  1.00  0.00    -0.014 A 
BRANCH  37  38
ATOM     38  C   UNL A   1      41.012  28.746  30.778  1.00  0.00     0.031 A 
ATOM     39  C   UNL A   1      39.906  29.760  30.776  1.00  0.00     0.074 A 
ATOM     40  C   UNL A   1      41.814  28.632  31.852  1.00  0.00     0.049 A 
ATOM     41  N   UNL A   1      39.623  30.670  31.673  1.00  0.00    -0.248 NA
ATOM     42  C   UNL A   1      39.010  29.757  29.612  1.00  0.00     0.031 C 
ATOM     43  C   UNL A   1      42.927  27.691  31.981  1.00  0.00     0.029 A 
ATOM     44  N   UNL A   1      41.817  29.322  33.038  1.00  0.00    -0.354 N 
ATOM     45  C   UNL A   1      38.536  31.371  31.170  1.00  0.00     0.074 A 
ATOM     46  C   UNL A   1      38.198  30.767  29.897  1.00  0.00     0.031 C 
ATOM     47  C   UNL A   1      43.504  27.860  33.182  1.00  0.00     0.029 A 
ATOM     48  C   UNL A   1      42.811  28.928  33.899  1.00  0.00     0.049 A 
ATOM     49  H   UNL A   1      41.168  30.031  33.251  1.00  0.00     0.167 HD
ATOM     50  C   UNL A   1      37.888  32.431  31.711  1.00  0.00     0.037 A 
ATOM     51  C   UNL A   1      43.132  29.382  35.125  1.00  0.00     0.037 A 
ATOM     52  C   UNL A   1      38.208  33.030  32.979  1.00  0.00     0.049 A 
ATOM     53  C   UNL A   1      42.341  30.494  35.744  1.00  0.00     0.074 A 
ATOM     54  C   UNL A   1      37.652  34.150  33.574  1.00  0.00     0.029 A 
ATOM     55  N   UNL A   1      39.158  32.540  33.862  1.00  0.00    -0.354 N 
ATOM     56  N   UNL A   1      41.354  31.184  35.228  1.00  0.00    -0.248 NA
ATOM     57  C   UNL A   1      42.704  30.886  37.114  1.00  0.00     0.031 C 
ATOM     58  C   UNL A   1      38.259  34.329  34.827  1.00  0.00     0.029 A 
ATOM     59  C   UNL A   1      39.188  33.318  35.008  1.00  0.00     0.049 A 
ATOM     60  H   UNL A   1      39.729  31.755  33.698  1.00  0.00     0.167 HD
ATOM     61  C   UNL A   1      40.985  32.103  36.203  1.00  0.00     0.074 A 
ATOM     62  C   UNL A   1      41.841  31.867  37.349  1.00  0.00     0.031 C 
ATOM     63  C   UNL A   1      40.032  33.064  36.145  1.00  0.00     0.037 A 
BRANCH  50  64
ATOM     64  C   UNL A   1      36.779  33.022  30.898  1.00  0.00     0.058 A 
ATOM     65  C   UNL A   1      37.037  33.969  29.897  1.00  0.00     0.135 A 
ATOM     66  C   UNL A   1      35.446  32.660  31.143  1.00  0.00     0.135 A 
ATOM     67  F   UNL A   1      38.296  34.358  29.643  1.00  0.00    -0.206 F 
ATOM     68  C   UNL A   1      36.004  34.559  29.175  1.00  0.00     0.059 A 
ATOM     69  C   UNL A   1      34.398  33.234  30.431  1.00  0.00     0.059 A 
ATOM     70  F   UNL A   1      35.152  31.766  32.099  1.00  0.00    -0.206 F 
ATOM     71  C   UNL A   1      34.686  34.197  29.462  1.00  0.00     0.060 A 
BRANCH  71  72
ATOM     72  S   UNL A   1      33.327  34.981  28.569  1.00  0.00     0.124 S 
ATOM     73  O   UNL A   1      34.052  35.880  27.675  1.00  0.00    -0.237 OA
ATOM     74  O   UNL A   1      32.660  33.855  27.925  1.00  0.00    -0.237 OA
ATOM     75  O   UNL A   1      32.567  35.627  29.635  1.00  0.00    -0.744 OA
ENDBRANCH  71  72
ENDBRANCH  50  64
BRANCH  51  76
ATOM     76  C   UNL A   1      44.268  28.767  35.848  1.00  0.00     0.058 A 
ATOM     77  C   UNL A   1      44.065  27.680  36.709  1.00  0.00     0.135 A 
ATOM     78  C   UNL A   1      45.577  29.224  35.652  1.00  0.00     0.135 A 
ATOM     79  F   UNL A   1      42.823  27.216  36.923  1.00  0.00    -0.206 F 
ATOM     80  C   UNL A   1      45.129  27.055  37.351  1.00  0.00     0.059 A 
ATOM     81  C   UNL A   1      46.657  28.613  36.278  1.00  0.00     0.059 A 
ATOM     82  F   UNL A   1      45.813  30.255  34.827  1.00  0.00    -0.206 F 
ATOM     83  C   UNL A   1      46.422  27.529  37.126  1.00  0.00     0.060 A 
BRANCH  83  84
ATOM     84  S   UNL A   1      47.830  26.679  37.875  1.00  0.00     0.124 S 
ATOM     85  O   UNL A   1      47.622  25.310  37.418  1.00  0.00    -0.237 OA
ATOM     86  O   UNL A   1      48.976  27.375  37.298  1.00  0.00    -0.237 OA
ATOM     87  O   UNL A   1      47.619  26.915  39.300  1.00  0.00    -0.744 OA
ENDBRANCH  83  84
ENDBRANCH  51  76
BRANCH  63  88
ATOM     88  C   UNL A   1      39.868  33.928  37.357  1.00  0.00     0.058 A 
ATOM     89  C   UNL A   1      38.915  33.620  38.339  1.00  0.00     0.135 A 
ATOM     90  C   UNL A   1      40.673  35.060  37.547  1.00  0.00     0.135 A 
ATOM     91  F   UNL A   1      38.121  32.548  38.196  1.00  0.00    -0.206 F 
ATOM     92  C   UNL A   1      38.759  34.414  39.471  1.00  0.00     0.059 A 
ATOM     93  C   UNL A   1      40.535  35.868  38.671  1.00  0.00     0.059 A 
ATOM     94  F   UNL A   1      41.594  35.395  36.629  1.00  0.00    -0.206 F 
ATOM     95  C   UNL A   1      39.567  35.542  39.623  1.00  0.00     0.060 A 
BRANCH  95  96
ATOM     96  S   UNL A   1      39.386  36.573  41.095  1.00  0.00     0.124 S 
ATOM     97  O   UNL A   1      38.751  37.764  40.541  1.00  0.00    -0.237 OA
ATOM     98  O   UNL A   1      38.544  35.757  41.965  1.00  0.00    -0.237 OA
ATOM     99  O   UNL A   1      40.763  36.742  41.549  1.00  0.00    -0.744 OA
ENDBRANCH  95  96
ENDBRANCH  63  88
ENDBRANCH  37  38
ENDBRANCH  29  32
ENDBRANCH  27  28
ENDBRANCH  26  27
ENDBRANCH   1  26
TORSDOF 19
ENDMDL
MODEL 3
REMARK VINA RESULT:     -11.1      6.640     11.356
REMARK SMILES CO[C@H]1C[C@H](C(=O)NCCCCCCNC(=O)c2ccc(-c3c4nc(c(-c5c(F)cc(S(=O)(=O)[O-])cc5F)c5ccc([nH]5)c(-c5c(F)cc(S(=O)(=O)[O-])cc5F)c5nc(c(-c6c(F)cc(S(=O)(=O)[O-])cc6F)c6ccc3[nH]6)C=C5)C=C4)cc2)N(C(=O)c2cc(Cl)c(Cl)n2C)C1
REMARK SMILES IDX 12 1 11 2 10 3 9 4 8 5 6 6 7 7 5 9 3 10 4 11 95 12 84 13
REMARK SMILES IDX 2 14 1 15 85 16 86 17 87 18 88 19 93 20 89 21 91 22 94 23
REMARK SMILES IDX 90 24 92 25 13 26 14 27 15 28 16 29 17 31 18 32 19 33 83 34
REMARK SMILES IDX 20 35 82 36 21 37 22 38 23 39 76 40 24 41 81 42 75 43 77 44
REMARK SMILES IDX 25 45 80 46 74 47 73 48 26 50 60 51 39 52 59 53 40 54 43 55
REMARK SMILES IDX 58 56 78 57 41 58 42 59 57 61 79 62 44 63 27 64 28 65 37 66
REMARK SMILES IDX 29 67 30 68 36 69 38 70 31 71 32 72 33 73 34 74 35 75 61 76
REMARK SMILES IDX 62 77 71 78 63 79 64 80 70 81 72 82 65 83 66 84 67 85 68 86
REMARK SMILES IDX 69 87 45 88 46 89 55 90 47 91 48 92 54 93 56 94 49 95 50 96
REMARK SMILES IDX 51 97 52 98 53 99
REMARK H PARENT 8 8 15 30 77 49 43 60
REMARK Flexibility Score: inf
ROOT
ATOM      1  C   UNL A   1      37.832  23.045  25.857  1.00  0.00     0.002 C 
ENDROOT
BRANCH   1   2
ATOM      2  C   UNL A   1      36.678  22.039  25.791  1.00  0.00     0.002 C 
BRANCH   2   3
ATOM      3  C   UNL A   1      35.575  22.360  24.775  1.00  0.00     0.021 C 
BRANCH   3   4
ATOM      4  C   UNL A   1      35.261  23.849  24.613  1.00  0.00     0.116 C 
BRANCH   4   5
ATOM      5  N   UNL A   1      34.719  24.135  23.298  1.00  0.00    -0.354 N 
ATOM      6  C   UNL A   1      33.579  24.753  22.891  1.00  0.00     0.242 C 
ATOM      7  O   UNL A   1      33.315  24.663  21.685  1.00  0.00    -0.273 OA
ATOM      8  H   UNL A   1      35.286  23.820  22.557  1.00  0.00     0.163 HD
BRANCH   6   9
ATOM      9  C   UNL A   1      32.547  25.405  23.841  1.00  0.00     0.177 C 
ATOM     10  C   UNL A   1      32.316  24.604  26.136  1.00  0.00     0.139 C 
ATOM     11  C   UNL A   1      31.821  24.374  24.708  1.00  0.00     0.069 C 
ATOM     12  C   UNL A   1      32.732  26.071  26.150  1.00  0.00     0.152 C 
ATOM     13  N   UNL A   1      33.039  26.414  24.772  1.00  0.00    -0.323 N 
BRANCH  10  14
ATOM     14  O   UNL A   1      31.287  24.368  27.092  1.00  0.00    -0.380 OA
ATOM     15  C   UNL A   1      30.620  23.127  26.894  1.00  0.00     0.195 C 
ENDBRANCH  10  14
BRANCH  13  16
ATOM     16  C   UNL A   1      33.551  27.663  24.473  1.00  0.00     0.271 C 
ATOM     17  O   UNL A   1      34.177  27.856  23.432  1.00  0.00    -0.267 OA
BRANCH  16  18
ATOM     18  C   UNL A   1      33.322  28.741  25.414  1.00  0.00     0.109 A 
ATOM     19  C   UNL A   1      34.189  29.238  26.382  1.00  0.00     0.055 A 
ATOM     20  N   UNL A   1      32.218  29.583  25.404  1.00  0.00    -0.329 N 
ATOM     21  C   UNL A   1      33.595  30.374  26.975  1.00  0.00     0.078 A 
ATOM     22  C   UNL A   1      32.393  30.561  26.348  1.00  0.00     0.128 A 
ATOM     23  C   UNL A   1      31.081  29.444  24.516  1.00  0.00     0.151 C 
ATOM     24  Cl  UNL A   1      34.313  31.313  28.193  1.00  0.00    -0.081 Cl
ATOM     25  Cl  UNL A   1      31.223  31.786  26.566  1.00  0.00    -0.063 Cl
ENDBRANCH  16  18
ENDBRANCH  13  16
ENDBRANCH   6   9
ENDBRANCH   4   5
ENDBRANCH   3   4
ENDBRANCH   2   3
ENDBRANCH   1   2
BRANCH   1  26
ATOM     26  C   UNL A   1      39.143  22.534  26.470  1.00  0.00     0.021 C 
BRANCH  26  27
ATOM     27  C   UNL A   1      40.075  23.598  27.054  1.00  0.00     0.116 C 
BRANCH  27  28
ATOM     28  N   UNL A   1      40.816  24.312  26.031  1.00  0.00    -0.352 N 
ATOM     29  C   UNL A   1      41.248  25.616  26.018  1.00  0.00     0.251 C 
ATOM     30  H   UNL A   1      41.044  23.786  25.232  1.00  0.00     0.163 HD
ATOM     31  O   UNL A   1      41.742  26.079  24.994  1.00  0.00    -0.269 OA
BRANCH  29  32
ATOM     32  C   UNL A   1      41.103  26.476  27.216  1.00  0.00     0.039 A 
ATOM     33  C   UNL A   1      40.075  26.190  28.122  1.00  0.00     0.014 A 
ATOM     34  C   UNL A   1      41.922  27.591  27.419  1.00  0.00     0.014 A 
ATOM     35  C   UNL A   1      39.898  26.988  29.255  1.00  0.00     0.010 A 
ATOM     36  C   UNL A   1      41.751  28.383  28.558  1.00  0.00     0.010 A 
ATOM     37  C   UNL A   1      40.742  28.084  29.485  1.00  0.00    -0.014 A 
BRANCH  37  38
ATOM     38  C   UNL A   1      40.578  28.923  30.697  1.00  0.00     0.031 A 
ATOM     39  C   UNL A   1      39.512  29.977  30.756  1.00  0.00     0.074 A 
ATOM     40  C   UNL A   1      41.410  28.754  31.742  1.00  0.00     0.049 A 
ATOM     41  N   UNL A   1      39.292  30.874  31.683  1.00  0.00    -0.248 NA
ATOM     42  C   UNL A   1      38.578  30.035  29.623  1.00  0.00     0.031 C 
ATOM     43  C   UNL A   1      42.490  27.769  31.811  1.00  0.00     0.029 A 
ATOM     44  N   UNL A   1      41.478  29.414  32.941  1.00  0.00    -0.354 N 
ATOM     45  C   UNL A   1      38.216  31.627  31.233  1.00  0.00     0.074 A 
ATOM     46  C   UNL A   1      37.814  31.067  29.959  1.00  0.00     0.031 C 
ATOM     47  C   UNL A   1      43.112  27.888  32.995  1.00  0.00     0.029 A 
ATOM     48  C   UNL A   1      42.485  28.963  33.759  1.00  0.00     0.049 A 
ATOM     49  H   UNL A   1      40.864  30.141  33.193  1.00  0.00     0.167 HD
ATOM     50  C   UNL A   1      37.627  32.696  31.820  1.00  0.00     0.037 A 
ATOM     51  C   UNL A   1      42.863  29.375  34.984  1.00  0.00     0.037 A 
ATOM     52  C   UNL A   1      38.011  33.253  33.090  1.00  0.00     0.049 A 
ATOM     53  C   UNL A   1      42.134  30.500  35.655  1.00  0.00     0.074 A 
ATOM     54  C   UNL A   1      37.518  34.378  33.729  1.00  0.00     0.029 A 
ATOM     55  N   UNL A   1      38.971  32.707  33.929  1.00  0.00    -0.354 N 
ATOM     56  N   UNL A   1      41.158  31.238  35.189  1.00  0.00    -0.248 NA
ATOM     57  C   UNL A   1      42.557  30.845  37.020  1.00  0.00     0.031 C 
ATOM     58  C   UNL A   1      38.171  34.504  34.964  1.00  0.00     0.029 A 
ATOM     59  C   UNL A   1      39.067  33.455  35.091  1.00  0.00     0.049 A 
ATOM     60  H   UNL A   1      39.506  31.906  33.727  1.00  0.00     0.167 HD
ATOM     61  C   UNL A   1      40.856  32.146  36.197  1.00  0.00     0.074 A 
ATOM     62  C   UNL A   1      41.739  31.851  37.307  1.00  0.00     0.031 C 
ATOM     63  C   UNL A   1      39.938  33.143  36.193  1.00  0.00     0.037 A 
BRANCH  50  64
ATOM     64  C   UNL A   1      36.515  33.348  31.059  1.00  0.00     0.058 A 
ATOM     65  C   UNL A   1      36.773  34.144  29.934  1.00  0.00     0.135 A 
ATOM     66  C   UNL A   1      35.184  33.198  31.475  1.00  0.00     0.135 A 
ATOM     67  F   UNL A   1      38.034  34.330  29.513  1.00  0.00    -0.206 F 
ATOM     68  C   UNL A   1      35.746  34.793  29.256  1.00  0.00     0.059 A 
ATOM     69  C   UNL A   1      34.142  33.833  30.810  1.00  0.00     0.059 A 
ATOM     70  F   UNL A   1      34.892  32.454  32.554  1.00  0.00    -0.206 F 
ATOM     71  C   UNL A   1      34.435  34.645  29.712  1.00  0.00     0.060 A 
BRANCH  71  72
ATOM     72  S   UNL A   1      33.091  35.512  28.875  1.00  0.00     0.124 S 
ATOM     73  O   UNL A   1      33.830  36.495  28.088  1.00  0.00    -0.237 OA
ATOM     74  O   UNL A   1      32.439  34.454  28.111  1.00  0.00    -0.237 OA
ATOM     75  O   UNL A   1      32.309  36.050  29.984  1.00  0.00    -0.744 OA
ENDBRANCH  71  72
ENDBRANCH  50  64
BRANCH  51  76
ATOM     76  C   UNL A   1      43.998  28.701  35.654  1.00  0.00     0.058 A 
ATOM     77  C   UNL A   1      43.781  27.609  36.505  1.00  0.00     0.135 A 
ATOM     78  C   UNL A   1      45.317  29.107  35.416  1.00  0.00     0.135 A 
ATOM     79  F   UNL A   1      42.530  27.192  36.758  1.00  0.00    -0.206 F 
ATOM     80  C   UNL A   1      44.841  26.930  37.096  1.00  0.00     0.059 A 
ATOM     81  C   UNL A   1      46.392  28.441  35.991  1.00  0.00     0.059 A 
ATOM     82  F   UNL A   1      45.565  30.141  34.599  1.00  0.00    -0.206 F 
ATOM     83  C   UNL A   1      46.144  27.353  36.830  1.00  0.00     0.060 A 
BRANCH  83  84
ATOM     84  S   UNL A   1      47.542  26.434  37.512  1.00  0.00     0.124 S 
ATOM     85  O   UNL A   1      47.067  25.059  37.405  1.00  0.00    -0.237 OA
ATOM     86  O   UNL A   1      48.639  26.799  36.622  1.00  0.00    -0.237 OA
ATOM     87  O   UNL A   1      47.642  26.970  38.866  1.00  0.00    -0.744 OA
ENDBRANCH  83  84
ENDBRANCH  51  76
BRANCH  63  88
ATOM     88  C   UNL A   1      39.847  33.983  37.429  1.00  0.00     0.058 A 
ATOM     89  C   UNL A   1      40.660  35.113  37.594  1.00  0.00     0.135 A 
ATOM     90  C   UNL A   1      38.934  33.668  38.446  1.00  0.00     0.135 A 
ATOM     91  F   UNL A   1      41.550  35.449  36.647  1.00  0.00    -0.206 F 
ATOM     92  C   UNL A   1      40.579  35.903  38.736  1.00  0.00     0.059 A 
ATOM     93  C   UNL A   1      38.835  34.445  39.596  1.00  0.00     0.059 A 
ATOM     94  F   UNL A   1      38.140  32.592  38.332  1.00  0.00    -0.206 F 
ATOM     95  C   UNL A   1      39.670  35.555  39.737  1.00  0.00     0.060 A 
BRANCH  95  96
ATOM     96  S   UNL A   1      39.542  36.581  41.219  1.00  0.00     0.124 S 
ATOM     97  O   UNL A   1      40.940  36.678  41.627  1.00  0.00    -0.237 OA
ATOM     98  O   UNL A   1      38.945  37.813  40.713  1.00  0.00    -0.237 OA
ATOM     99  O   UNL A   1      38.681  35.789  42.092  1.00  0.00    -0.744 OA
ENDBRANCH  95  96
ENDBRANCH  63  88
ENDBRANCH  37  38
ENDBRANCH  29  32
ENDBRANCH  27  28
ENDBRANCH  26  27
ENDBRANCH   1  26
TORSDOF 19
ENDMDL
