MODEL 1
REMARK VINA RESULT:     -10.8      0.000      0.000
REMARK SMILES COC[C@@H](C)N(C)c1nc(C(C)C)c(C(=O)NCCCCCCNC(=O)c2ccc(-c3c4nc(c(-c5c(F)cc(S(=O)(=O)[O-])cc5F)c5ccc([nH]5)c(-c5c(F)cc(S(=O)(=O)[O-])cc5F)c5nc(c(-c6c(F)cc(S(=O)(=O)[O-])cc6F)c6ccc3[nH]6)C=C5)C=C4)cc2)s1
REMARK SMILES IDX 20 1 19 2 18 3 17 4 15 5 16 6 14 8 8 9 9 10 93 11 10 12 6 13
REMARK SMILES IDX 7 14 4 15 5 16 3 17 2 18 1 19 11 20 12 21 13 22 21 23 22 24
REMARK SMILES IDX 23 25 24 26 25 27 26 29 27 30 28 31 92 32 29 33 91 34 30 35
REMARK SMILES IDX 31 36 32 37 85 38 33 39 90 40 84 41 86 42 34 43 89 44 83 45
REMARK SMILES IDX 82 46 35 48 69 49 48 50 68 51 49 52 52 53 67 54 87 55 50 56
REMARK SMILES IDX 51 57 66 59 88 60 53 61 36 62 37 63 46 64 38 65 39 66 45 67
REMARK SMILES IDX 47 68 40 69 41 70 42 71 43 72 44 73 70 74 71 75 80 76 72 77
REMARK SMILES IDX 73 78 79 79 81 80 74 81 75 82 76 83 77 84 78 85 54 86 55 87
REMARK SMILES IDX 64 88 56 89 57 90 63 91 65 92 58 93 59 94 60 95 61 96 62 97
REMARK H PARENT 17 7 24 28 86 47 52 58
REMARK Flexibility Score: inf
ROOT
ATOM      1  C   UNL A   1      35.003  24.051  25.705  1.00  0.00     0.002 C 
ENDROOT
BRANCH   1   2
ATOM      2  C   UNL A   1      33.583  23.547  25.958  1.00  0.00     0.021 C 
BRANCH   2   3
ATOM      3  C   UNL A   1      32.527  24.206  25.072  1.00  0.00     0.116 C 
BRANCH   3   4
ATOM      4  N   UNL A   1      31.305  24.482  25.778  1.00  0.00    -0.351 N 
ATOM      5  C   UNL A   1      30.447  25.544  25.874  1.00  0.00     0.263 C 
ATOM      6  O   UNL A   1      29.452  25.237  26.551  1.00  0.00    -0.268 OA
ATOM      7  H   UNL A   1      31.014  23.719  26.326  1.00  0.00     0.163 HD
BRANCH   5   8
ATOM      8  C   UNL A   1      30.596  26.876  25.280  1.00  0.00     0.117 A 
ATOM      9  C   UNL A   1      30.112  28.688  23.626  1.00  0.00     0.186 A 
ATOM     10  N   UNL A   1      31.101  28.986  24.414  1.00  0.00    -0.224 NA
ATOM     11  S   UNL A   1      29.455  27.151  23.954  1.00  0.00    -0.091 S 
ATOM     12  C   UNL A   1      31.311  28.067  25.431  1.00  0.00     0.069 A 
BRANCH   9  13
ATOM     13  N   UNL A   1      29.692  29.530  22.643  1.00  0.00    -0.346 N 
ATOM     14  C   UNL A   1      30.605  29.992  21.619  1.00  0.00     0.146 C 
BRANCH  13  15
ATOM     15  C   UNL A   1      28.275  29.953  22.592  1.00  0.00     0.107 C 
ATOM     16  C   UNL A   1      27.895  30.256  21.139  1.00  0.00     0.033 C 
BRANCH  15  17
ATOM     17  C   UNL A   1      27.942  31.109  23.570  1.00  0.00     0.184 C 
BRANCH  17  18
ATOM     18  O   UNL A   1      29.039  32.012  23.769  1.00  0.00    -0.383 OA
ATOM     19  C   UNL A   1      28.899  33.239  23.059  1.00  0.00     0.194 C 
ENDBRANCH  17  18
ENDBRANCH  15  17
ENDBRANCH  13  15
ENDBRANCH   9  13
BRANCH  12  20
ATOM     20  C   UNL A   1      32.254  28.648  26.452  1.00  0.00     0.034 C 
ATOM     21  C   UNL A   1      33.492  27.774  26.662  1.00  0.00     0.014 C 
ATOM     22  C   UNL A   1      32.451  30.162  26.343  1.00  0.00     0.014 C 
ENDBRANCH  12  20
ENDBRANCH   5   8
ENDBRANCH   3   4
ENDBRANCH   2   3
ENDBRANCH   1   2
BRANCH   1  23
ATOM     23  C   UNL A   1      36.125  23.072  26.072  1.00  0.00     0.002 C 
BRANCH  23  24
ATOM     24  C   UNL A   1      37.507  23.381  25.486  1.00  0.00     0.021 C 
BRANCH  24  25
ATOM     25  C   UNL A   1      38.377  24.315  26.325  1.00  0.00     0.116 C 
BRANCH  25  26
ATOM     26  N   UNL A   1      39.775  23.911  26.325  1.00  0.00    -0.352 N 
ATOM     27  C   UNL A   1      40.873  24.530  26.863  1.00  0.00     0.251 C 
ATOM     28  H   UNL A   1      39.963  23.060  25.865  1.00  0.00     0.163 HD
ATOM     29  O   UNL A   1      42.003  24.136  26.564  1.00  0.00    -0.269 OA
BRANCH  27  30
ATOM     30  C   UNL A   1      40.711  25.671  27.784  1.00  0.00     0.039 A 
ATOM     31  C   UNL A   1      39.646  25.667  28.689  1.00  0.00     0.014 A 
ATOM     32  C   UNL A   1      41.598  26.750  27.746  1.00  0.00     0.014 A 
ATOM     33  C   UNL A   1      39.515  26.710  29.608  1.00  0.00     0.010 A 
ATOM     34  C   UNL A   1      41.503  27.756  28.703  1.00  0.00     0.010 A 
ATOM     35  C   UNL A   1      40.468  27.740  29.650  1.00  0.00    -0.014 A 
BRANCH  35  36
ATOM     36  C   UNL A   1      40.430  28.789  30.701  1.00  0.00     0.031 A 
ATOM     37  C   UNL A   1      41.270  28.655  31.938  1.00  0.00     0.074 A 
ATOM     38  C   UNL A   1      39.559  29.809  30.581  1.00  0.00     0.049 A 
ATOM     39  N   UNL A   1      41.281  29.399  33.013  1.00  0.00    -0.248 NA
ATOM     40  C   UNL A   1      42.204  27.519  31.982  1.00  0.00     0.031 C 
ATOM     41  C   UNL A   1      38.657  30.018  29.446  1.00  0.00     0.029 A 
ATOM     42  N   UNL A   1      39.266  30.845  31.433  1.00  0.00    -0.354 N 
ATOM     43  C   UNL A   1      42.211  28.818  33.868  1.00  0.00     0.074 A 
ATOM     44  C   UNL A   1      42.706  27.630  33.203  1.00  0.00     0.031 C 
ATOM     45  C   UNL A   1      37.909  31.109  29.674  1.00  0.00     0.029 A 
ATOM     46  C   UNL A   1      38.244  31.650  30.987  1.00  0.00     0.049 A 
ATOM     47  H   UNL A   1      39.742  30.997  32.280  1.00  0.00     0.167 HD
ATOM     48  C   UNL A   1      42.625  29.245  35.085  1.00  0.00     0.037 A 
ATOM     49  C   UNL A   1      37.624  32.690  31.580  1.00  0.00     0.037 A 
ATOM     50  C   UNL A   1      42.124  30.430  35.734  1.00  0.00     0.049 A 
ATOM     51  C   UNL A   1      38.075  33.133  32.943  1.00  0.00     0.074 A 
ATOM     52  C   UNL A   1      42.523  30.986  36.936  1.00  0.00     0.029 A 
ATOM     53  N   UNL A   1      41.103  31.232  35.244  1.00  0.00    -0.354 N 
ATOM     54  N   UNL A   1      39.014  32.622  33.703  1.00  0.00    -0.248 NA
ATOM     55  C   UNL A   1      37.388  34.290  33.530  1.00  0.00     0.031 C 
ATOM     56  C   UNL A   1      41.706  32.091  37.199  1.00  0.00     0.029 A 
ATOM     57  C   UNL A   1      40.832  32.256  36.136  1.00  0.00     0.049 A 
ATOM     58  H   UNL A   1      40.639  31.093  34.386  1.00  0.00     0.167 HD
ATOM     59  C   UNL A   1      39.036  33.397  34.856  1.00  0.00     0.074 A 
ATOM     60  C   UNL A   1      38.029  34.426  34.685  1.00  0.00     0.031 C 
ATOM     61  C   UNL A   1      39.817  33.267  35.958  1.00  0.00     0.037 A 
BRANCH  48  62
ATOM     62  C   UNL A   1      43.660  28.415  35.794  1.00  0.00     0.058 A 
ATOM     63  C   UNL A   1      43.302  27.347  36.634  1.00  0.00     0.135 A 
ATOM     64  C   UNL A   1      45.029  28.685  35.632  1.00  0.00     0.135 A 
ATOM     65  F   UNL A   1      42.008  27.049  36.833  1.00  0.00    -0.206 F 
ATOM     66  C   UNL A   1      44.259  26.612  37.327  1.00  0.00     0.059 A 
ATOM     67  C   UNL A   1      46.005  27.942  36.291  1.00  0.00     0.059 A 
ATOM     68  F   UNL A   1      45.430  29.689  34.837  1.00  0.00    -0.206 F 
ATOM     69  C   UNL A   1      45.608  26.924  37.156  1.00  0.00     0.060 A 
BRANCH  69  70
ATOM     70  S   UNL A   1      46.835  25.985  38.090  1.00  0.00     0.124 S 
ATOM     71  O   UNL A   1      46.668  26.544  39.428  1.00  0.00    -0.237 OA
ATOM     72  O   UNL A   1      46.375  24.610  37.918  1.00  0.00    -0.237 OA
ATOM     73  O   UNL A   1      48.092  26.311  37.426  1.00  0.00    -0.744 OA
ENDBRANCH  69  70
ENDBRANCH  48  62
BRANCH  49  74
ATOM     74  C   UNL A   1      36.500  33.363  30.877  1.00  0.00     0.058 A 
ATOM     75  C   UNL A   1      35.186  33.265  31.351  1.00  0.00     0.135 A 
ATOM     76  C   UNL A   1      36.732  34.171  29.750  1.00  0.00     0.135 A 
ATOM     77  F   UNL A   1      34.914  32.500  32.419  1.00  0.00    -0.206 F 
ATOM     78  C   UNL A   1      34.139  33.949  30.740  1.00  0.00     0.059 A 
ATOM     79  C   UNL A   1      35.706  34.881  29.137  1.00  0.00     0.059 A 
ATOM     80  F   UNL A   1      37.976  34.309  29.267  1.00  0.00    -0.206 F 
ATOM     81  C   UNL A   1      34.411  34.763  29.638  1.00  0.00     0.060 A 
BRANCH  81  82
ATOM     82  S   UNL A   1      33.061  35.716  28.910  1.00  0.00     0.124 S 
ATOM     83  O   UNL A   1      32.416  34.717  28.066  1.00  0.00    -0.237 OA
ATOM     84  O   UNL A   1      32.313  36.135  30.090  1.00  0.00    -0.237 OA
ATOM     85  O   UNL A   1      33.753  36.790  28.203  1.00  0.00    -0.744 OA
ENDBRANCH  81  82
ENDBRANCH  49  74
BRANCH  61  86
ATOM     86  C   UNL A   1      39.618  34.257  37.072  1.00  0.00     0.058 A 
ATOM     87  C   UNL A   1      38.895  33.922  38.226  1.00  0.00     0.135 A 
ATOM     88  C   UNL A   1      40.228  35.521  37.023  1.00  0.00     0.135 A 
ATOM     89  F   UNL A   1      38.282  32.731  38.319  1.00  0.00    -0.206 F 
ATOM     90  C   UNL A   1      38.778  34.807  39.293  1.00  0.00     0.059 A 
ATOM     91  C   UNL A   1      40.146  36.413  38.088  1.00  0.00     0.059 A 
ATOM     92  F   UNL A   1      40.935  35.889  35.943  1.00  0.00    -0.206 F 
ATOM     93  C   UNL A   1      39.416  36.047  39.218  1.00  0.00     0.060 A 
BRANCH  93  94
ATOM     94  S   UNL A   1      39.315  37.158  40.639  1.00  0.00     0.124 S 
ATOM     95  O   UNL A   1      38.766  36.276  41.664  1.00  0.00    -0.237 OA
ATOM     96  O   UNL A   1      40.707  37.555  40.823  1.00  0.00    -0.237 OA
ATOM     97  O   UNL A   1      38.422  38.218  40.180  1.00  0.00    -0.744 OA
ENDBRANCH  93  94
ENDBRANCH  61  86
ENDBRANCH  35  36
ENDBRANCH  27  30
ENDBRANCH  25  26
ENDBRANCH  24  25
ENDBRANCH  23  24
ENDBRANCH   1  23
TORSDOF 21
ENDMDL
MODEL 2
REMARK VINA RESULT:     -10.3      6.643     12.307
REMARK SMILES COC[C@@H](C)N(C)c1nc(C(C)C)c(C(=O)NCCCCCCNC(=O)c2ccc(-c3c4nc(c(-c5c(F)cc(S(=O)(=O)[O-])cc5F)c5ccc([nH]5)c(-c5c(F)cc(S(=O)(=O)[O-])cc5F)c5nc(c(-c6c(F)cc(S(=O)(=O)[O-])cc6F)c6ccc3[nH]6)C=C5)C=C4)cc2)s1
REMARK SMILES IDX 20 1 19 2 18 3 17 4 15 5 16 6 14 8 8 9 9 10 93 11 10 12 6 13
REMARK SMILES IDX 7 14 4 15 5 16 3 17 2 18 1 19 11 20 12 21 13 22 21 23 22 24
REMARK SMILES IDX 23 25 24 26 25 27 26 29 27 30 28 31 92 32 29 33 91 34 30 35
REMARK SMILES IDX 31 36 32 37 85 38 33 39 90 40 84 41 86 42 34 43 89 44 83 45
REMARK SMILES IDX 82 46 35 48 69 49 48 50 68 51 49 52 52 53 67 54 87 55 50 56
REMARK SMILES IDX 51 57 66 59 88 60 53 61 36 62 37 63 46 64 38 65 39 66 45 67
REMARK SMILES IDX 47 68 40 69 41 70 42 71 43 72 44 73 70 74 71 75 80 76 72 77
REMARK SMILES IDX 73 78 79 79 81 80 74 81 75 82 76 83 77 84 78 85 54 86 55 87
REMARK SMILES IDX 64 88 56 89 57 90 63 91 65 92 58 93 59 94 60 95 61 96 62 97
REMARK H PARENT 17 7 24 28 86 47 52 58
REMARK Flexibility Score: inf
ROOT
ATOM      1  C   UNL A   1      34.771  31.347  27.651  1.00  0.00     0.002 C 
ENDROOT
BRANCH   1   2
ATOM      2  C   UNL A   1      33.402  30.796  27.255  1.00  0.00     0.021 C 
BRANCH   2   3
ATOM      3  C   UNL A   1      33.461  29.435  26.562  1.00  0.00     0.116 C 
BRANCH   3   4
ATOM      4  N   UNL A   1      33.681  29.543  25.146  1.00  0.00    -0.351 N 
ATOM      5  C   UNL A   1      33.289  28.846  24.036  1.00  0.00     0.263 C 
ATOM      6  O   UNL A   1      33.673  29.420  23.004  1.00  0.00    -0.268 OA
ATOM      7  H   UNL A   1      34.257  30.309  24.918  1.00  0.00     0.163 HD
BRANCH   5   8
ATOM      8  C   UNL A   1      32.511  27.603  23.984  1.00  0.00     0.117 A 
ATOM      9  C   UNL A   1      32.151  25.142  24.239  1.00  0.00     0.186 A 
ATOM     10  N   UNL A   1      31.140  25.737  23.680  1.00  0.00    -0.224 NA
ATOM     11  S   UNL A   1      33.417  26.219  24.617  1.00  0.00    -0.091 S 
ATOM     12  C   UNL A   1      31.245  27.119  23.646  1.00  0.00     0.069 A 
BRANCH   9  13
ATOM     13  N   UNL A   1      32.168  23.800  24.462  1.00  0.00    -0.346 N 
ATOM     14  C   UNL A   1      31.374  23.212  25.522  1.00  0.00     0.146 C 
BRANCH  13  15
ATOM     15  C   UNL A   1      32.974  22.918  23.590  1.00  0.00     0.107 C 
ATOM     16  C   UNL A   1      32.042  21.943  22.863  1.00  0.00     0.033 C 
BRANCH  15  17
ATOM     17  C   UNL A   1      34.140  22.217  24.332  1.00  0.00     0.184 C 
BRANCH  17  18
ATOM     18  O   UNL A   1      33.720  21.073  25.087  1.00  0.00    -0.383 OA
ATOM     19  C   UNL A   1      33.994  21.181  26.481  1.00  0.00     0.194 C 
ENDBRANCH  17  18
ENDBRANCH  15  17
ENDBRANCH  13  15
ENDBRANCH   9  13
BRANCH  12  20
ATOM     20  C   UNL A   1      29.915  27.719  23.271  1.00  0.00     0.034 C 
ATOM     21  C   UNL A   1      28.739  26.849  23.720  1.00  0.00     0.014 C 
ATOM     22  C   UNL A   1      29.818  29.230  23.492  1.00  0.00     0.014 C 
ENDBRANCH  12  20
ENDBRANCH   5   8
ENDBRANCH   3   4
ENDBRANCH   2   3
ENDBRANCH   1   2
BRANCH   1  23
ATOM     23  C   UNL A   1      34.753  32.704  28.366  1.00  0.00     0.002 C 
BRANCH  23  24
ATOM     24  C   UNL A   1      36.053  33.512  28.308  1.00  0.00     0.021 C 
BRANCH  24  25
ATOM     25  C   UNL A   1      37.014  33.285  29.473  1.00  0.00     0.116 C 
BRANCH  25  26
ATOM     26  N   UNL A   1      36.426  32.459  30.518  1.00  0.00    -0.352 N 
ATOM     27  C   UNL A   1      36.774  31.208  30.955  1.00  0.00     0.251 C 
ATOM     28  H   UNL A   1      35.657  32.863  30.983  1.00  0.00     0.163 HD
ATOM     29  O   UNL A   1      36.012  30.590  31.703  1.00  0.00    -0.269 OA
BRANCH  27  30
ATOM     30  C   UNL A   1      38.044  30.593  30.526  1.00  0.00     0.039 A 
ATOM     31  C   UNL A   1      38.270  30.382  29.163  1.00  0.00     0.014 A 
ATOM     32  C   UNL A   1      39.005  30.210  31.465  1.00  0.00     0.014 A 
ATOM     33  C   UNL A   1      39.492  29.858  28.737  1.00  0.00     0.010 A 
ATOM     34  C   UNL A   1      40.245  29.747  31.036  1.00  0.00     0.010 A 
ATOM     35  C   UNL A   1      40.505  29.577  29.668  1.00  0.00    -0.014 A 
BRANCH  35  36
ATOM     36  C   UNL A   1      41.858  29.146  29.234  1.00  0.00     0.031 A 
ATOM     37  C   UNL A   1      42.968  30.149  29.101  1.00  0.00     0.074 A 
ATOM     38  C   UNL A   1      42.053  27.866  28.864  1.00  0.00     0.049 A 
ATOM     39  N   UNL A   1      44.174  29.986  28.623  1.00  0.00    -0.248 NA
ATOM     40  C   UNL A   1      42.673  31.521  29.540  1.00  0.00     0.031 C 
ATOM     41  C   UNL A   1      41.037  26.812  28.904  1.00  0.00     0.029 A 
ATOM     42  N   UNL A   1      43.162  27.238  28.353  1.00  0.00    -0.354 N 
ATOM     43  C   UNL A   1      44.781  31.235  28.691  1.00  0.00     0.074 A 
ATOM     44  C   UNL A   1      43.790  32.154  29.211  1.00  0.00     0.031 C 
ATOM     45  C   UNL A   1      41.566  25.673  28.434  1.00  0.00     0.029 A 
ATOM     46  C   UNL A   1      42.942  25.923  28.016  1.00  0.00     0.049 A 
ATOM     47  H   UNL A   1      44.031  27.686  28.238  1.00  0.00     0.167 HD
ATOM     48  C   UNL A   1      46.051  31.578  28.367  1.00  0.00     0.037 A 
ATOM     49  C   UNL A   1      43.745  25.026  27.411  1.00  0.00     0.037 A 
ATOM     50  C   UNL A   1      47.027  30.651  27.852  1.00  0.00     0.049 A 
ATOM     51  C   UNL A   1      45.141  25.431  27.031  1.00  0.00     0.074 A 
ATOM     52  C   UNL A   1      48.358  30.882  27.553  1.00  0.00     0.029 A 
ATOM     53  N   UNL A   1      46.774  29.322  27.542  1.00  0.00    -0.354 N 
ATOM     54  N   UNL A   1      45.727  26.595  27.178  1.00  0.00    -0.248 NA
ATOM     55  C   UNL A   1      45.986  24.406  26.403  1.00  0.00     0.031 C 
ATOM     56  C   UNL A   1      48.894  29.709  27.011  1.00  0.00     0.029 A 
ATOM     57  C   UNL A   1      47.912  28.731  27.020  1.00  0.00     0.049 A 
ATOM     58  H   UNL A   1      45.910  28.868  27.674  1.00  0.00     0.167 HD
ATOM     59  C   UNL A   1      47.012  26.443  26.669  1.00  0.00     0.074 A 
ATOM     60  C   UNL A   1      47.124  25.067  26.228  1.00  0.00     0.031 C 
ATOM     61  C   UNL A   1      48.006  27.361  26.573  1.00  0.00     0.037 A 
BRANCH  48  62
ATOM     62  C   UNL A   1      46.446  33.018  28.549  1.00  0.00     0.058 A 
ATOM     63  C   UNL A   1      47.014  33.483  29.748  1.00  0.00     0.135 A 
ATOM     64  C   UNL A   1      46.260  33.948  27.514  1.00  0.00     0.135 A 
ATOM     65  F   UNL A   1      47.207  32.640  30.775  1.00  0.00    -0.206 F 
ATOM     66  C   UNL A   1      47.333  34.824  29.932  1.00  0.00     0.059 A 
ATOM     67  C   UNL A   1      46.602  35.290  27.664  1.00  0.00     0.059 A 
ATOM     68  F   UNL A   1      45.728  33.561  26.344  1.00  0.00    -0.206 F 
ATOM     69  C   UNL A   1      47.115  35.722  28.886  1.00  0.00     0.060 A 
BRANCH  69  70
ATOM     70  S   UNL A   1      47.500  37.466  29.153  1.00  0.00     0.124 S 
ATOM     71  O   UNL A   1      47.378  37.569  30.604  1.00  0.00    -0.237 OA
ATOM     72  O   UNL A   1      48.856  37.571  28.624  1.00  0.00    -0.237 OA
ATOM     73  O   UNL A   1      46.474  38.163  28.386  1.00  0.00    -0.744 OA
ENDBRANCH  69  70
ENDBRANCH  48  62
BRANCH  49  74
ATOM     74  C   UNL A   1      43.226  23.662  27.123  1.00  0.00     0.058 A 
ATOM     75  C   UNL A   1      42.794  23.308  25.838  1.00  0.00     0.135 A 
ATOM     76  C   UNL A   1      43.212  22.669  28.117  1.00  0.00     0.135 A 
ATOM     77  F   UNL A   1      42.782  24.224  24.858  1.00  0.00    -0.206 F 
ATOM     78  C   UNL A   1      42.373  22.015  25.544  1.00  0.00     0.059 A 
ATOM     79  C   UNL A   1      42.817  21.365  27.841  1.00  0.00     0.059 A 
ATOM     80  F   UNL A   1      43.631  22.955  29.359  1.00  0.00    -0.206 F 
ATOM     81  C   UNL A   1      42.398  21.047  26.550  1.00  0.00     0.060 A 
BRANCH  81  82
ATOM     82  S   UNL A   1      41.935  19.351  26.134  1.00  0.00     0.124 S 
ATOM     83  O   UNL A   1      42.759  19.102  24.956  1.00  0.00    -0.237 OA
ATOM     84  O   UNL A   1      42.312  18.627  27.343  1.00  0.00    -0.237 OA
ATOM     85  O   UNL A   1      40.499  19.446  25.891  1.00  0.00    -0.744 OA
ENDBRANCH  81  82
ENDBRANCH  49  74
BRANCH  61  86
ATOM     86  C   UNL A   1      49.307  26.916  25.965  1.00  0.00     0.058 A 
ATOM     87  C   UNL A   1      49.576  27.096  24.600  1.00  0.00     0.135 A 
ATOM     88  C   UNL A   1      50.327  26.383  26.769  1.00  0.00     0.135 A 
ATOM     89  F   UNL A   1      48.630  27.591  23.785  1.00  0.00    -0.206 F 
ATOM     90  C   UNL A   1      50.809  26.760  24.051  1.00  0.00     0.059 A 
ATOM     91  C   UNL A   1      51.577  26.063  26.247  1.00  0.00     0.059 A 
ATOM     92  F   UNL A   1      50.123  26.195  28.083  1.00  0.00    -0.206 F 
ATOM     93  C   UNL A   1      51.807  26.253  24.886  1.00  0.00     0.060 A 
BRANCH  93  94
ATOM     94  S   UNL A   1      53.425  25.886  24.173  1.00  0.00     0.124 S 
ATOM     95  O   UNL A   1      53.140  25.957  22.743  1.00  0.00    -0.237 OA
ATOM     96  O   UNL A   1      54.252  26.963  24.709  1.00  0.00    -0.237 OA
ATOM     97  O   UNL A   1      53.730  24.555  24.686  1.00  0.00    -0.744 OA
ENDBRANCH  93  94
ENDBRANCH  61  86
ENDBRANCH  35  36
ENDBRANCH  27  30
ENDBRANCH  25  26
ENDBRANCH  24  25
ENDBRANCH  23  24
ENDBRANCH   1  23
TORSDOF 21
ENDMDL
MODEL 3
REMARK VINA RESULT:     -10.3      6.833     11.950
REMARK SMILES COC[C@@H](C)N(C)c1nc(C(C)C)c(C(=O)NCCCCCCNC(=O)c2ccc(-c3c4nc(c(-c5c(F)cc(S(=O)(=O)[O-])cc5F)c5ccc([nH]5)c(-c5c(F)cc(S(=O)(=O)[O-])cc5F)c5nc(c(-c6c(F)cc(S(=O)(=O)[O-])cc6F)c6ccc3[nH]6)C=C5)C=C4)cc2)s1
REMARK SMILES IDX 20 1 19 2 18 3 17 4 15 5 16 6 14 8 8 9 9 10 93 11 10 12 6 13
REMARK SMILES IDX 7 14 4 15 5 16 3 17 2 18 1 19 11 20 12 21 13 22 21 23 22 24
REMARK SMILES IDX 23 25 24 26 25 27 26 29 27 30 28 31 92 32 29 33 91 34 30 35
REMARK SMILES IDX 31 36 32 37 85 38 33 39 90 40 84 41 86 42 34 43 89 44 83 45
REMARK SMILES IDX 82 46 35 48 69 49 48 50 68 51 49 52 52 53 67 54 87 55 50 56
REMARK SMILES IDX 51 57 66 59 88 60 53 61 36 62 37 63 46 64 38 65 39 66 45 67
REMARK SMILES IDX 47 68 40 69 41 70 42 71 43 72 44 73 70 74 71 75 80 76 72 77
REMARK SMILES IDX 73 78 79 79 81 80 74 81 75 82 76 83 77 84 78 85 54 86 55 87
REMARK SMILES IDX 64 88 56 89 57 90 63 91 65 92 58 93 59 94 60 95 61 96 62 97
REMARK H PARENT 17 7 24 28 86 47 52 58
REMARK Flexibility Score: inf
ROOT
ATOM      1  C   UNL A   1      32.577  30.562  26.924  1.00  0.00     0.002 C 
ENDROOT
BRANCH   1   2
ATOM      2  C   UNL A   1      32.098  29.263  26.277  1.00  0.00     0.021 C 
BRANCH   2   3
ATOM      3  C   UNL A   1      32.151  28.053  27.208  1.00  0.00     0.116 C 
BRANCH   3   4
ATOM      4  N   UNL A   1      31.095  27.112  26.957  1.00  0.00    -0.351 N 
ATOM      5  C   UNL A   1      30.947  25.984  26.195  1.00  0.00     0.263 C 
ATOM      6  O   UNL A   1      29.843  25.458  26.409  1.00  0.00    -0.268 OA
ATOM      7  H   UNL A   1      30.276  27.332  27.456  1.00  0.00     0.163 HD
BRANCH   5   8
ATOM      8  C   UNL A   1      31.909  25.403  25.254  1.00  0.00     0.117 A 
ATOM      9  C   UNL A   1      33.740  23.851  24.552  1.00  0.00     0.186 A 
ATOM     10  N   UNL A   1      33.459  24.733  23.640  1.00  0.00    -0.224 NA
ATOM     11  S   UNL A   1      32.783  24.028  25.950  1.00  0.00    -0.091 S 
ATOM     12  C   UNL A   1      32.360  25.522  23.937  1.00  0.00     0.069 A 
BRANCH   9  13
ATOM     13  N   UNL A   1      34.715  22.917  24.379  1.00  0.00    -0.346 N 
ATOM     14  C   UNL A   1      35.644  23.009  23.272  1.00  0.00     0.146 C 
BRANCH  13  15
ATOM     15  C   UNL A   1      34.858  21.813  25.353  1.00  0.00     0.107 C 
ATOM     16  C   UNL A   1      36.311  21.754  25.835  1.00  0.00     0.033 C 
BRANCH  15  17
ATOM     17  C   UNL A   1      34.329  20.454  24.825  1.00  0.00     0.184 C 
BRANCH  17  18
ATOM     18  O   UNL A   1      33.044  20.105  25.359  1.00  0.00    -0.383 OA
ATOM     19  C   UNL A   1      32.796  18.702  25.368  1.00  0.00     0.194 C 
ENDBRANCH  17  18
ENDBRANCH  15  17
ENDBRANCH  13  15
ENDBRANCH   9  13
BRANCH  12  20
ATOM     20  C   UNL A   1      31.935  26.283  22.707  1.00  0.00     0.034 C 
ATOM     21  C   UNL A   1      31.901  27.794  22.942  1.00  0.00     0.014 C 
ATOM     22  C   UNL A   1      32.551  25.771  21.403  1.00  0.00     0.014 C 
ENDBRANCH  12  20
ENDBRANCH   5   8
ENDBRANCH   3   4
ENDBRANCH   2   3
ENDBRANCH   1   2
BRANCH   1  23
ATOM     23  C   UNL A   1      34.070  30.610  27.276  1.00  0.00     0.002 C 
BRANCH  23  24
ATOM     24  C   UNL A   1      34.547  31.867  28.010  1.00  0.00     0.021 C 
BRANCH  24  25
ATOM     25  C   UNL A   1      35.901  31.741  28.706  1.00  0.00     0.116 C 
BRANCH  25  26
ATOM     26  N   UNL A   1      35.816  30.969  29.937  1.00  0.00    -0.352 N 
ATOM     27  C   UNL A   1      36.698  30.071  30.479  1.00  0.00     0.251 C 
ATOM     28  H   UNL A   1      34.997  31.115  30.464  1.00  0.00     0.163 HD
ATOM     29  O   UNL A   1      36.341  29.358  31.420  1.00  0.00    -0.269 OA
BRANCH  27  30
ATOM     30  C   UNL A   1      38.063  29.942  29.933  1.00  0.00     0.039 A 
ATOM     31  C   UNL A   1      39.144  29.880  30.817  1.00  0.00     0.014 A 
ATOM     32  C   UNL A   1      38.278  29.896  28.554  1.00  0.00     0.014 A 
ATOM     33  C   UNL A   1      40.435  29.695  30.319  1.00  0.00     0.010 A 
ATOM     34  C   UNL A   1      39.557  29.649  28.062  1.00  0.00     0.010 A 
ATOM     35  C   UNL A   1      40.645  29.536  28.940  1.00  0.00    -0.014 A 
BRANCH  35  36
ATOM     36  C   UNL A   1      41.986  29.205  28.393  1.00  0.00     0.031 A 
ATOM     37  C   UNL A   1      42.316  27.797  27.991  1.00  0.00     0.074 A 
ATOM     38  C   UNL A   1      42.935  30.160  28.357  1.00  0.00     0.049 A 
ATOM     39  N   UNL A   1      43.462  27.294  27.611  1.00  0.00    -0.248 NA
ATOM     40  C   UNL A   1      41.218  26.820  28.048  1.00  0.00     0.031 C 
ATOM     41  C   UNL A   1      42.745  31.553  28.768  1.00  0.00     0.029 A 
ATOM     42  N   UNL A   1      44.256  30.101  27.988  1.00  0.00    -0.354 N 
ATOM     43  C   UNL A   1      43.229  25.941  27.395  1.00  0.00     0.074 A 
ATOM     44  C   UNL A   1      41.843  25.694  27.734  1.00  0.00     0.031 C 
ATOM     45  C   UNL A   1      43.905  32.214  28.633  1.00  0.00     0.029 A 
ATOM     46  C   UNL A   1      44.931  31.284  28.170  1.00  0.00     0.049 A 
ATOM     47  H   UNL A   1      44.678  29.289  27.626  1.00  0.00     0.167 HD
ATOM     48  C   UNL A   1      44.088  24.996  26.938  1.00  0.00     0.037 A 
ATOM     49  C   UNL A   1      46.236  31.584  28.014  1.00  0.00     0.037 A 
ATOM     50  C   UNL A   1      45.464  25.257  26.603  1.00  0.00     0.049 A 
ATOM     51  C   UNL A   1      47.181  30.517  27.536  1.00  0.00     0.074 A 
ATOM     52  C   UNL A   1      46.400  24.387  26.072  1.00  0.00     0.029 A 
ATOM     53  N   UNL A   1      46.109  26.473  26.782  1.00  0.00    -0.354 N 
ATOM     54  N   UNL A   1      46.927  29.261  27.256  1.00  0.00    -0.248 NA
ATOM     55  C   UNL A   1      48.585  30.904  27.351  1.00  0.00     0.031 C 
ATOM     56  C   UNL A   1      47.622  25.060  25.982  1.00  0.00     0.029 A 
ATOM     57  C   UNL A   1      47.438  26.366  26.408  1.00  0.00     0.049 A 
ATOM     58  H   UNL A   1      45.682  27.292  27.126  1.00  0.00     0.167 HD
ATOM     59  C   UNL A   1      48.137  28.707  26.855  1.00  0.00     0.074 A 
ATOM     60  C   UNL A   1      49.120  29.771  26.910  1.00  0.00     0.031 C 
ATOM     61  C   UNL A   1      48.409  27.433  26.480  1.00  0.00     0.037 A 
BRANCH  48  62
ATOM     62  C   UNL A   1      43.559  23.595  26.791  1.00  0.00     0.058 A 
ATOM     63  C   UNL A   1      43.265  23.046  25.532  1.00  0.00     0.135 A 
ATOM     64  C   UNL A   1      43.347  22.788  27.920  1.00  0.00     0.135 A 
ATOM     65  F   UNL A   1      43.441  23.775  24.418  1.00  0.00    -0.206 F 
ATOM     66  C   UNL A   1      42.731  21.768  25.401  1.00  0.00     0.059 A 
ATOM     67  C   UNL A   1      42.842  21.494  27.810  1.00  0.00     0.059 A 
ATOM     68  F   UNL A   1      43.616  23.257  29.148  1.00  0.00    -0.206 F 
ATOM     69  C   UNL A   1      42.515  21.003  26.548  1.00  0.00     0.060 A 
BRANCH  69  70
ATOM     70  S   UNL A   1      41.787  19.361  26.364  1.00  0.00     0.124 S 
ATOM     71  O   UNL A   1      42.234  18.708  27.591  1.00  0.00    -0.237 OA
ATOM     72  O   UNL A   1      40.359  19.658  26.291  1.00  0.00    -0.237 OA
ATOM     73  O   UNL A   1      42.384  18.858  25.133  1.00  0.00    -0.744 OA
ENDBRANCH  69  70
ENDBRANCH  48  62
BRANCH  49  74
ATOM     74  C   UNL A   1      46.711  32.956  28.331  1.00  0.00     0.058 A 
ATOM     75  C   UNL A   1      46.652  33.982  27.378  1.00  0.00     0.135 A 
ATOM     76  C   UNL A   1      47.176  33.282  29.617  1.00  0.00     0.135 A 
ATOM     77  F   UNL A   1      46.223  33.718  26.135  1.00  0.00    -0.206 F 
ATOM     78  C   UNL A   1      47.029  35.285  27.688  1.00  0.00     0.059 A 
ATOM     79  C   UNL A   1      47.536  34.581  29.956  1.00  0.00     0.059 A 
ATOM     80  F   UNL A   1      47.236  32.338  30.568  1.00  0.00    -0.206 F 
ATOM     81  C   UNL A   1      47.460  35.577  28.984  1.00  0.00     0.060 A 
BRANCH  81  82
ATOM     82  S   UNL A   1      47.860  37.289  29.400  1.00  0.00     0.124 S 
ATOM     83  O   UNL A   1      49.139  37.135  30.084  1.00  0.00    -0.237 OA
ATOM     84  O   UNL A   1      47.909  37.918  28.084  1.00  0.00    -0.237 OA
ATOM     85  O   UNL A   1      46.738  37.699  30.240  1.00  0.00    -0.744 OA
ENDBRANCH  81  82
ENDBRANCH  49  74
BRANCH  61  86
ATOM     86  C   UNL A   1      49.827  27.108  26.099  1.00  0.00     0.058 A 
ATOM     87  C   UNL A   1      50.739  26.602  27.038  1.00  0.00     0.135 A 
ATOM     88  C   UNL A   1      50.254  27.222  24.766  1.00  0.00     0.135 A 
ATOM     89  F   UNL A   1      50.385  26.485  28.328  1.00  0.00    -0.206 F 
ATOM     90  C   UNL A   1      52.026  26.225  26.671  1.00  0.00     0.059 A 
ATOM     91  C   UNL A   1      51.528  26.827  24.371  1.00  0.00     0.059 A 
ATOM     92  F   UNL A   1      49.419  27.695  23.827  1.00  0.00    -0.206 F 
ATOM     93  C   UNL A   1      52.408  26.332  25.332  1.00  0.00     0.060 A 
BRANCH  93  94
ATOM     94  S   UNL A   1      54.059  25.772  24.857  1.00  0.00     0.124 S 
ATOM     95  O   UNL A   1      54.889  26.406  25.877  1.00  0.00    -0.237 OA
ATOM     96  O   UNL A   1      53.935  24.321  24.953  1.00  0.00    -0.237 OA
ATOM     97  O   UNL A   1      54.220  26.294  23.504  1.00  0.00    -0.744 OA
ENDBRANCH  93  94
ENDBRANCH  61  86
ENDBRANCH  35  36
ENDBRANCH  27  30
ENDBRANCH  25  26
ENDBRANCH  24  25
ENDBRANCH  23  24
ENDBRANCH   1  23
TORSDOF 21
ENDMDL
