MODEL 1
REMARK VINA RESULT:     -12.2      0.000      0.000
REMARK SMILES Cc1ccc(S(=O)(=O)Nc2ccc(C(=O)CCC(=O)NCCCCCCNC(=O)c3ccc(-c4c5nc(c(-c6c(F)cc(S(=O)(=O)[O-])cc6F)c6ccc([nH]6)c(-c6c(F)cc(S(=O)(=O)[O-])cc6F)c6nc(c(-c7c(F)cc(S(=O)(=O)[O-])cc7F)c7ccc4[nH]7)C=C6)C=C5)cc3)cc2)c(C)c1
REMARK SMILES IDX 22 1 21 2 20 3 18 4 19 5 17 7 16 8 14 9 15 10 13 11 10 12
REMARK SMILES IDX 11 13 97 14 12 15 96 16 9 17 6 19 7 20 8 21 5 22 1 23 2 24
REMARK SMILES IDX 3 25 100 26 4 27 98 28 99 29 23 30 24 31 25 32 26 33 27 34
REMARK SMILES IDX 28 35 29 37 30 38 31 39 95 40 32 41 94 42 33 43 34 44 35 45
REMARK SMILES IDX 88 46 36 47 93 48 87 49 89 50 37 51 92 52 86 53 85 54 38 56
REMARK SMILES IDX 72 57 51 58 71 59 52 60 55 61 70 62 90 63 53 64 54 65 69 67
REMARK SMILES IDX 91 68 56 69 39 70 40 71 49 72 41 73 42 74 48 75 50 76 43 77
REMARK SMILES IDX 44 78 45 79 46 80 47 81 73 82 74 83 83 84 75 85 76 86 82 87
REMARK SMILES IDX 84 88 77 89 78 90 79 91 80 92 81 93 57 94 58 95 67 96 59 97
REMARK SMILES IDX 60 98 66 99 68 100 61 101 62 102 63 103 64 104 65 105
REMARK H PARENT 20 6 9 18 27 36 89 55 55 66
REMARK Flexibility Score: inf
ROOT
ATOM      1  C   UNL A   1      34.761  29.866  27.498  1.00  0.00     0.021 C 
ENDROOT
BRANCH   1   2
ATOM      2  C   UNL A   1      33.365  29.038  27.247  1.00  0.00     0.116 C 
BRANCH   2   3
ATOM      3  N   UNL A   1      32.286  30.054  27.209  1.00  0.00    -0.356 N 
ATOM      4  C   UNL A   1      31.660  30.563  26.092  1.00  0.00     0.220 C 
ATOM      5  O   UNL A   1      31.136  31.676  26.175  1.00  0.00    -0.275 OA
ATOM      6  H   UNL A   1      31.984  30.404  28.079  1.00  0.00     0.163 HD
BRANCH   4   7
ATOM      7  C   UNL A   1      31.630  29.769  24.772  1.00  0.00     0.108 C 
BRANCH   7   8
ATOM      8  C   UNL A   1      30.324  29.891  23.936  1.00  0.00     0.091 C 
BRANCH   8   9
ATOM      9  C   UNL A   1      30.245  29.053  22.628  1.00  0.00     0.163 C 
ATOM     10  O   UNL A   1      29.845  29.516  21.564  1.00  0.00    -0.294 OA
BRANCH   9  11
ATOM     11  C   UNL A   1      30.499  27.568  22.718  1.00  0.00     0.018 A 
ATOM     12  C   UNL A   1      31.811  24.992  24.943  1.00  0.00     0.049 A 
ATOM     13  C   UNL A   1      30.051  25.474  25.030  1.00  0.00     0.027 A 
ATOM     14  C   UNL A   1      32.874  25.761  23.729  1.00  0.00     0.027 A 
ATOM     15  C   UNL A   1      29.390  26.741  23.909  1.00  0.00     0.014 A 
ATOM     16  C   UNL A   1      32.213  27.043  22.616  1.00  0.00     0.014 A 
BRANCH  12  17
ATOM     17  N   UNL A   1      32.158  23.755  25.596  1.00  0.00    -0.280 N 
ATOM     18  H   UNL A   1      32.519  23.826  26.509  1.00  0.00     0.180 HD
BRANCH  17  19
ATOM     19  S   UNL A   1      32.012  22.216  24.967  1.00  0.00     0.262 S 
ATOM     20  O   UNL A   1      31.937  22.316  23.527  1.00  0.00    -0.201 OA
ATOM     21  O   UNL A   1      30.947  21.603  25.732  1.00  0.00    -0.201 OA
BRANCH  19  22
ATOM     22  C   UNL A   1      33.503  21.380  25.405  1.00  0.00     0.090 A 
ATOM     23  C   UNL A   1      37.557  20.244  24.827  1.00  0.00     0.044 C 
ATOM     24  C   UNL A   1      36.129  20.556  25.152  1.00  0.00    -0.051 A 
ATOM     25  C   UNL A   1      35.829  21.684  25.915  1.00  0.00     0.005 A 
ATOM     26  C   UNL A   1      35.087  19.723  24.722  1.00  0.00     0.008 A 
ATOM     27  C   UNL A   1      34.507  22.081  26.066  1.00  0.00     0.023 A 
ATOM     28  C   UNL A   1      33.752  20.120  24.856  1.00  0.00    -0.030 A 
ATOM     29  C   UNL A   1      32.639  19.156  24.555  1.00  0.00     0.046 C 
ENDBRANCH  19  22
ENDBRANCH  17  19
ENDBRANCH  12  17
ENDBRANCH   9  11
ENDBRANCH   8   9
ENDBRANCH   7   8
ENDBRANCH   4   7
ENDBRANCH   2   3
ENDBRANCH   1   2
BRANCH   1  30
ATOM     30  C   UNL A   1      35.536  31.884  27.684  1.00  0.00     0.002 C 
BRANCH  30  31
ATOM     31  C   UNL A   1      35.989  32.908  28.983  1.00  0.00     0.002 C 
BRANCH  31  32
ATOM     32  C   UNL A   1      37.450  33.281  29.201  1.00  0.00     0.021 C 
BRANCH  32  33
ATOM     33  C   UNL A   1      37.997  32.576  30.417  1.00  0.00     0.116 C 
BRANCH  33  34
ATOM     34  N   UNL A   1      37.068  31.552  30.910  1.00  0.00    -0.352 N 
ATOM     35  C   UNL A   1      37.077  30.202  30.651  1.00  0.00     0.251 C 
ATOM     36  H   UNL A   1      36.347  31.872  31.499  1.00  0.00     0.163 HD
ATOM     37  O   UNL A   1      36.118  29.491  30.921  1.00  0.00    -0.269 OA
BRANCH  35  38
ATOM     38  C   UNL A   1      38.285  29.655  30.015  1.00  0.00     0.039 A 
ATOM     39  C   UNL A   1      38.435  29.708  28.630  1.00  0.00     0.014 A 
ATOM     40  C   UNL A   1      39.331  29.246  30.846  1.00  0.00     0.014 A 
ATOM     41  C   UNL A   1      39.681  29.418  28.080  1.00  0.00     0.010 A 
ATOM     42  C   UNL A   1      40.596  29.115  30.312  1.00  0.00     0.010 A 
ATOM     43  C   UNL A   1      40.776  29.164  28.923  1.00  0.00    -0.014 A 
BRANCH  43  44
ATOM     44  C   UNL A   1      42.126  28.878  28.397  1.00  0.00     0.031 A 
ATOM     45  C   UNL A   1      42.436  27.477  27.946  1.00  0.00     0.074 A 
ATOM     46  C   UNL A   1      43.078  29.829  28.435  1.00  0.00     0.049 A 
ATOM     47  N   UNL A   1      43.577  26.962  27.576  1.00  0.00    -0.248 NA
ATOM     48  C   UNL A   1      41.323  26.510  27.968  1.00  0.00     0.031 C 
ATOM     49  C   UNL A   1      42.895  31.195  28.930  1.00  0.00     0.029 A 
ATOM     50  N   UNL A   1      44.399  29.782  28.070  1.00  0.00    -0.354 N 
ATOM     51  C   UNL A   1      43.323  25.614  27.357  1.00  0.00     0.074 A 
ATOM     52  C   UNL A   1      41.944  25.372  27.709  1.00  0.00     0.031 C 
ATOM     53  C   UNL A   1      44.056  31.861  28.823  1.00  0.00     0.029 A 
ATOM     54  C   UNL A   1      45.073  30.958  28.293  1.00  0.00     0.049 A 
ATOM     55  H   UNL A   1      44.823  28.981  27.685  1.00  0.00     0.167 HD
ATOM     56  C   UNL A   1      44.160  24.669  26.875  1.00  0.00     0.037 A 
ATOM     57  C   UNL A   1      46.372  31.263  28.107  1.00  0.00     0.037 A 
ATOM     58  C   UNL A   1      45.516  24.946  26.492  1.00  0.00     0.049 A 
ATOM     59  C   UNL A   1      47.283  30.207  27.545  1.00  0.00     0.074 A 
ATOM     60  C   UNL A   1      46.428  24.102  25.889  1.00  0.00     0.029 A 
ATOM     61  N   UNL A   1      46.156  26.163  26.687  1.00  0.00    -0.354 N 
ATOM     62  N   UNL A   1      47.003  28.963  27.230  1.00  0.00    -0.248 NA
ATOM     63  C   UNL A   1      48.681  30.587  27.309  1.00  0.00     0.031 C 
ATOM     64  C   UNL A   1      47.641  24.790  25.778  1.00  0.00     0.029 A 
ATOM     65  C   UNL A   1      47.468  26.080  26.258  1.00  0.00     0.049 A 
ATOM     66  H   UNL A   1      45.736  26.965  27.073  1.00  0.00     0.167 HD
ATOM     67  C   UNL A   1      48.187  28.412  26.757  1.00  0.00     0.074 A 
ATOM     68  C   UNL A   1      49.180  29.468  26.802  1.00  0.00     0.031 C 
ATOM     69  C   UNL A   1      48.435  27.148  26.331  1.00  0.00     0.037 A 
BRANCH  56  70
ATOM     70  C   UNL A   1      43.628  23.268  26.745  1.00  0.00     0.058 A 
ATOM     71  C   UNL A   1      43.407  22.447  27.864  1.00  0.00     0.135 A 
ATOM     72  C   UNL A   1      43.341  22.734  25.479  1.00  0.00     0.135 A 
ATOM     73  F   UNL A   1      43.684  22.897  29.099  1.00  0.00    -0.206 F 
ATOM     74  C   UNL A   1      42.962  21.136  27.731  1.00  0.00     0.059 A 
ATOM     75  C   UNL A   1      42.862  21.436  25.324  1.00  0.00     0.059 A 
ATOM     76  F   UNL A   1      43.539  23.469  24.375  1.00  0.00    -0.206 F 
ATOM     77  C   UNL A   1      42.694  20.640  26.455  1.00  0.00     0.060 A 
BRANCH  77  78
ATOM     78  S   UNL A   1      42.125  18.934  26.299  1.00  0.00     0.124 S 
ATOM     79  O   UNL A   1      42.229  18.465  27.677  1.00  0.00    -0.237 OA
ATOM     80  O   UNL A   1      40.769  19.105  25.789  1.00  0.00    -0.237 OA
ATOM     81  O   UNL A   1      43.074  18.343  25.362  1.00  0.00    -0.744 OA
ENDBRANCH  77  78
ENDBRANCH  56  70
BRANCH  57  82
ATOM     82  C   UNL A   1      46.864  32.623  28.452  1.00  0.00     0.058 A 
ATOM     83  C   UNL A   1      46.845  33.663  27.513  1.00  0.00     0.135 A 
ATOM     84  C   UNL A   1      47.303  32.926  29.751  1.00  0.00     0.135 A 
ATOM     85  F   UNL A   1      46.441  33.425  26.255  1.00  0.00    -0.206 F 
ATOM     86  C   UNL A   1      47.238  34.957  27.848  1.00  0.00     0.059 A 
ATOM     87  C   UNL A   1      47.678  34.215  30.117  1.00  0.00     0.059 A 
ATOM     88  F   UNL A   1      47.324  31.970  30.694  1.00  0.00    -0.206 F 
ATOM     89  C   UNL A   1      47.643  35.224  29.157  1.00  0.00     0.060 A 
BRANCH  89  90
ATOM     90  S   UNL A   1      48.063  36.924  29.604  1.00  0.00     0.124 S 
ATOM     91  O   UNL A   1      47.181  37.156  30.743  1.00  0.00    -0.237 OA
ATOM     92  O   UNL A   1      49.486  36.816  29.908  1.00  0.00    -0.237 OA
ATOM     93  O   UNL A   1      47.744  37.677  28.395  1.00  0.00    -0.744 OA
ENDBRANCH  89  90
ENDBRANCH  57  82
BRANCH  69  94
ATOM     94  C   UNL A   1      49.836  26.831  25.891  1.00  0.00     0.058 A 
ATOM     95  C   UNL A   1      50.250  27.039  24.567  1.00  0.00     0.135 A 
ATOM     96  C   UNL A   1      50.796  26.401  26.823  1.00  0.00     0.135 A 
ATOM     97  F   UNL A   1      49.368  27.442  23.639  1.00  0.00    -0.206 F 
ATOM     98  C   UNL A   1      51.566  26.824  24.178  1.00  0.00     0.059 A 
ATOM     99  C   UNL A   1      52.124  26.209  26.462  1.00  0.00     0.059 A 
ATOM    100  F   UNL A   1      50.452  26.197  28.104  1.00  0.00    -0.206 F 
ATOM    101  C   UNL A   1      52.498  26.418  25.135  1.00  0.00     0.060 A 
BRANCH 101 102
ATOM    102  S   UNL A   1      54.216  26.203  24.626  1.00  0.00     0.124 S 
ATOM    103  O   UNL A   1      54.424  24.782  24.885  1.00  0.00    -0.237 OA
ATOM    104  O   UNL A   1      54.174  26.591  23.219  1.00  0.00    -0.237 OA
ATOM    105  O   UNL A   1      54.947  27.114  25.501  1.00  0.00    -0.744 OA
ENDBRANCH 101 102
ENDBRANCH  69  94
ENDBRANCH  43  44
ENDBRANCH  35  38
ENDBRANCH  33  34
ENDBRANCH  32  33
ENDBRANCH  31  32
ENDBRANCH  30  31
ENDBRANCH   1  30
TORSDOF 22
ENDMDL
MODEL 2
REMARK VINA RESULT:     -12.2      6.281     10.901
REMARK SMILES Cc1ccc(S(=O)(=O)Nc2ccc(C(=O)CCC(=O)NCCCCCCNC(=O)c3ccc(-c4c5nc(c(-c6c(F)cc(S(=O)(=O)[O-])cc6F)c6ccc([nH]6)c(-c6c(F)cc(S(=O)(=O)[O-])cc6F)c6nc(c(-c7c(F)cc(S(=O)(=O)[O-])cc7F)c7ccc4[nH]7)C=C6)C=C5)cc3)cc2)c(C)c1
REMARK SMILES IDX 22 1 21 2 20 3 18 4 19 5 17 7 16 8 14 9 15 10 13 11 10 12
REMARK SMILES IDX 11 13 97 14 12 15 96 16 9 17 6 19 7 20 8 21 5 22 1 23 2 24
REMARK SMILES IDX 3 25 100 26 4 27 98 28 99 29 23 30 24 31 25 32 26 33 27 34
REMARK SMILES IDX 28 35 29 37 30 38 31 39 95 40 32 41 94 42 33 43 34 44 35 45
REMARK SMILES IDX 88 46 36 47 93 48 87 49 89 50 37 51 92 52 86 53 85 54 38 56
REMARK SMILES IDX 72 57 51 58 71 59 52 60 55 61 70 62 90 63 53 64 54 65 69 67
REMARK SMILES IDX 91 68 56 69 39 70 40 71 49 72 41 73 42 74 48 75 50 76 43 77
REMARK SMILES IDX 44 78 45 79 46 80 47 81 73 82 74 83 83 84 75 85 76 86 82 87
REMARK SMILES IDX 84 88 77 89 78 90 79 91 80 92 81 93 57 94 58 95 67 96 59 97
REMARK SMILES IDX 60 98 66 99 68 100 61 101 62 102 63 103 64 104 65 105
REMARK H PARENT 20 6 9 18 27 36 89 55 55 66
REMARK Flexibility Score: inf
ROOT
ATOM      1  C   UNL A   1      35.581  30.391  28.026  1.00  0.00     0.021 C 
ENDROOT
BRANCH   1   2
ATOM      2  C   UNL A   1      34.337  29.456  27.500  1.00  0.00     0.116 C 
BRANCH   2   3
ATOM      3  N   UNL A   1      33.122  30.300  27.589  1.00  0.00    -0.356 N 
ATOM      4  C   UNL A   1      32.246  30.611  26.571  1.00  0.00     0.220 C 
ATOM      5  O   UNL A   1      31.576  31.641  26.674  1.00  0.00    -0.275 OA
ATOM      6  H   UNL A   1      32.918  30.681  28.474  1.00  0.00     0.163 HD
BRANCH   4   7
ATOM      7  C   UNL A   1      32.121  29.703  25.333  1.00  0.00     0.108 C 
BRANCH   7   8
ATOM      8  C   UNL A   1      30.806  29.849  24.515  1.00  0.00     0.091 C 
BRANCH   8   9
ATOM      9  C   UNL A   1      30.745  29.118  23.143  1.00  0.00     0.163 C 
ATOM     10  O   UNL A   1      30.390  29.673  22.108  1.00  0.00    -0.294 OA
BRANCH   9  11
ATOM     11  C   UNL A   1      30.958  27.624  23.124  1.00  0.00     0.018 A 
ATOM     12  C   UNL A   1      32.067  24.837  25.200  1.00  0.00     0.049 A 
ATOM     13  C   UNL A   1      30.318  25.360  25.220  1.00  0.00     0.027 A 
ATOM     14  C   UNL A   1      33.223  25.672  24.121  1.00  0.00     0.027 A 
ATOM     15  C   UNL A   1      29.758  26.733  24.171  1.00  0.00     0.014 A 
ATOM     16  C   UNL A   1      32.664  27.061  23.082  1.00  0.00     0.014 A 
BRANCH  12  17
ATOM     17  N   UNL A   1      32.344  23.541  25.767  1.00  0.00    -0.280 N 
ATOM     18  H   UNL A   1      32.640  23.525  26.705  1.00  0.00     0.180 HD
BRANCH  17  19
ATOM     19  S   UNL A   1      32.215  22.064  24.999  1.00  0.00     0.262 S 
ATOM     20  O   UNL A   1      32.190  22.292  23.572  1.00  0.00    -0.201 OA
ATOM     21  O   UNL A   1      31.121  21.393  25.669  1.00  0.00    -0.201 OA
BRANCH  19  22
ATOM     22  C   UNL A   1      33.687  21.184  25.412  1.00  0.00     0.090 A 
ATOM     23  C   UNL A   1      37.684  19.901  24.752  1.00  0.00     0.044 C 
ATOM     24  C   UNL A   1      36.276  20.266  25.107  1.00  0.00    -0.051 A 
ATOM     25  C   UNL A   1      36.033  21.413  25.862  1.00  0.00     0.005 A 
ATOM     26  C   UNL A   1      35.196  19.464  24.714  1.00  0.00     0.008 A 
ATOM     27  C   UNL A   1      34.730  21.859  26.039  1.00  0.00     0.023 A 
ATOM     28  C   UNL A   1      33.879  19.908  24.875  1.00  0.00    -0.030 A 
ATOM     29  C   UNL A   1      32.726  18.980  24.614  1.00  0.00     0.046 C 
ENDBRANCH  19  22
ENDBRANCH  17  19
ENDBRANCH  12  17
ENDBRANCH   9  11
ENDBRANCH   8   9
ENDBRANCH   7   8
ENDBRANCH   4   7
ENDBRANCH   2   3
ENDBRANCH   1   2
BRANCH   1  30
ATOM     30  C   UNL A   1      36.277  32.445  28.049  1.00  0.00     0.002 C 
BRANCH  30  31
ATOM     31  C   UNL A   1      35.828  33.883  28.871  1.00  0.00     0.002 C 
BRANCH  31  32
ATOM     32  C   UNL A   1      34.569  34.641  28.470  1.00  0.00     0.021 C 
BRANCH  32  33
ATOM     33  C   UNL A   1      33.397  34.193  29.307  1.00  0.00     0.116 C 
BRANCH  33  34
ATOM     34  N   UNL A   1      32.795  35.315  30.037  1.00  0.00    -0.352 N 
ATOM     35  C   UNL A   1      32.937  35.636  31.366  1.00  0.00     0.251 C 
ATOM     36  H   UNL A   1      32.217  35.911  29.509  1.00  0.00     0.163 HD
ATOM     37  O   UNL A   1      32.200  36.448  31.911  1.00  0.00    -0.269 OA
BRANCH  35  38
ATOM     38  C   UNL A   1      34.001  34.944  32.108  1.00  0.00     0.039 A 
ATOM     39  C   UNL A   1      33.755  33.703  32.694  1.00  0.00     0.014 A 
ATOM     40  C   UNL A   1      35.289  35.482  32.057  1.00  0.00     0.014 A 
ATOM     41  C   UNL A   1      34.833  32.961  33.168  1.00  0.00     0.010 A 
ATOM     42  C   UNL A   1      36.362  34.680  32.381  1.00  0.00     0.010 A 
ATOM     43  C   UNL A   1      36.144  33.428  32.973  1.00  0.00    -0.014 A 
BRANCH  43  44
ATOM     44  C   UNL A   1      37.327  32.671  33.428  1.00  0.00     0.031 A 
ATOM     45  C   UNL A   1      37.989  33.084  34.714  1.00  0.00     0.074 A 
ATOM     46  C   UNL A   1      37.856  31.713  32.644  1.00  0.00     0.049 A 
ATOM     47  N   UNL A   1      39.105  32.660  35.242  1.00  0.00    -0.248 NA
ATOM     48  C   UNL A   1      37.336  34.161  35.481  1.00  0.00     0.031 C 
ATOM     49  C   UNL A   1      37.332  31.296  31.342  1.00  0.00     0.029 A 
ATOM     50  N   UNL A   1      38.968  30.932  32.820  1.00  0.00    -0.354 N 
ATOM     51  C   UNL A   1      39.300  33.438  36.376  1.00  0.00     0.074 A 
ATOM     52  C   UNL A   1      38.234  34.410  36.420  1.00  0.00     0.031 C 
ATOM     53  C   UNL A   1      38.113  30.324  30.844  1.00  0.00     0.029 A 
ATOM     54  C   UNL A   1      39.214  30.081  31.769  1.00  0.00     0.049 A 
ATOM     55  H   UNL A   1      39.537  30.976  33.622  1.00  0.00     0.167 HD
ATOM     56  C   UNL A   1      40.266  33.329  37.314  1.00  0.00     0.037 A 
ATOM     57  C   UNL A   1      40.228  29.215  31.572  1.00  0.00     0.037 A 
ATOM     58  C   UNL A   1      41.291  32.323  37.269  1.00  0.00     0.049 A 
ATOM     59  C   UNL A   1      41.280  29.088  32.638  1.00  0.00     0.074 A 
ATOM     60  C   UNL A   1      42.259  32.040  38.212  1.00  0.00     0.029 A 
ATOM     61  N   UNL A   1      41.484  31.444  36.211  1.00  0.00    -0.354 N 
ATOM     62  N   UNL A   1      41.390  29.750  33.767  1.00  0.00    -0.248 NA
ATOM     63  C   UNL A   1      42.343  28.101  32.413  1.00  0.00     0.031 C 
ATOM     64  C   UNL A   1      43.078  31.030  37.697  1.00  0.00     0.029 A 
ATOM     65  C   UNL A   1      42.586  30.645  36.458  1.00  0.00     0.049 A 
ATOM     66  H   UNL A   1      40.920  31.396  35.407  1.00  0.00     0.167 HD
ATOM     67  C   UNL A   1      42.532  29.259  34.389  1.00  0.00     0.074 A 
ATOM     68  C   UNL A   1      43.061  28.225  33.522  1.00  0.00     0.031 C 
ATOM     69  C   UNL A   1      43.095  29.633  35.565  1.00  0.00     0.037 A 
BRANCH  56  70
ATOM     70  C   UNL A   1      40.253  34.318  38.447  1.00  0.00     0.058 A 
ATOM     71  C   UNL A   1      39.455  34.134  39.589  1.00  0.00     0.135 A 
ATOM     72  C   UNL A   1      41.047  35.473  38.387  1.00  0.00     0.135 A 
ATOM     73  F   UNL A   1      38.659  33.057  39.693  1.00  0.00    -0.206 F 
ATOM     74  C   UNL A   1      39.413  35.079  40.609  1.00  0.00     0.059 A 
ATOM     75  C   UNL A   1      41.047  36.416  39.411  1.00  0.00     0.059 A 
ATOM     76  F   UNL A   1      41.824  35.705  37.318  1.00  0.00    -0.206 F 
ATOM     77  C   UNL A   1      40.212  36.218  40.509  1.00  0.00     0.060 A 
BRANCH  77  78
ATOM     78  S   UNL A   1      40.139  37.437  41.837  1.00  0.00     0.124 S 
ATOM     79  O   UNL A   1      39.263  38.450  41.256  1.00  0.00    -0.237 OA
ATOM     80  O   UNL A   1      39.572  36.665  42.938  1.00  0.00    -0.237 OA
ATOM     81  O   UNL A   1      41.532  37.837  42.009  1.00  0.00    -0.744 OA
ENDBRANCH  77  78
ENDBRANCH  56  70
BRANCH  57  82
ATOM     82  C   UNL A   1      40.275  28.412  30.321  1.00  0.00     0.058 A 
ATOM     83  C   UNL A   1      41.170  28.725  29.289  1.00  0.00     0.135 A 
ATOM     84  C   UNL A   1      39.468  27.274  30.162  1.00  0.00     0.135 A 
ATOM     85  F   UNL A   1      41.959  29.806  29.390  1.00  0.00    -0.206 F 
ATOM     86  C   UNL A   1      41.270  27.936  28.146  1.00  0.00     0.059 A 
ATOM     87  C   UNL A   1      39.566  26.456  29.039  1.00  0.00     0.059 A 
ATOM     88  F   UNL A   1      38.606  26.918  31.128  1.00  0.00    -0.206 F 
ATOM     89  C   UNL A   1      40.470  26.798  28.035  1.00  0.00     0.060 A 
BRANCH  89  90
ATOM     90  S   UNL A   1      40.673  25.733  26.590  1.00  0.00     0.124 S 
ATOM     91  O   UNL A   1      39.353  25.121  26.487  1.00  0.00    -0.237 OA
ATOM     92  O   UNL A   1      41.015  26.696  25.548  1.00  0.00    -0.237 OA
ATOM     93  O   UNL A   1      41.756  24.836  26.984  1.00  0.00    -0.744 OA
ENDBRANCH  89  90
ENDBRANCH  57  82
BRANCH  69  94
ATOM     94  C   UNL A   1      44.358  28.931  35.979  1.00  0.00     0.058 A 
ATOM     95  C   UNL A   1      45.620  29.464  35.680  1.00  0.00     0.135 A 
ATOM     96  C   UNL A   1      44.302  27.763  36.758  1.00  0.00     0.135 A 
ATOM     97  F   UNL A   1      45.725  30.574  34.932  1.00  0.00    -0.206 F 
ATOM     98  C   UNL A   1      46.786  28.860  36.133  1.00  0.00     0.059 A 
ATOM     99  C   UNL A   1      45.454  27.160  37.247  1.00  0.00     0.059 A 
ATOM    100  F   UNL A   1      43.117  27.219  37.080  1.00  0.00    -0.206 F 
ATOM    101  C   UNL A   1      46.692  27.713  36.924  1.00  0.00     0.060 A 
BRANCH 101 102
ATOM    102  S   UNL A   1      48.215  26.976  37.554  1.00  0.00     0.124 S 
ATOM    103  O   UNL A   1      49.027  28.160  37.817  1.00  0.00    -0.237 OA
ATOM    104  O   UNL A   1      47.745  26.254  38.733  1.00  0.00    -0.237 OA
ATOM    105  O   UNL A   1      48.669  26.136  36.449  1.00  0.00    -0.744 OA
ENDBRANCH 101 102
ENDBRANCH  69  94
ENDBRANCH  43  44
ENDBRANCH  35  38
ENDBRANCH  33  34
ENDBRANCH  32  33
ENDBRANCH  31  32
ENDBRANCH  30  31
ENDBRANCH   1  30
TORSDOF 22
ENDMDL
MODEL 3
REMARK VINA RESULT:     -11.7      1.506      2.567
REMARK SMILES Cc1ccc(S(=O)(=O)Nc2ccc(C(=O)CCC(=O)NCCCCCCNC(=O)c3ccc(-c4c5nc(c(-c6c(F)cc(S(=O)(=O)[O-])cc6F)c6ccc([nH]6)c(-c6c(F)cc(S(=O)(=O)[O-])cc6F)c6nc(c(-c7c(F)cc(S(=O)(=O)[O-])cc7F)c7ccc4[nH]7)C=C6)C=C5)cc3)cc2)c(C)c1
REMARK SMILES IDX 22 1 21 2 20 3 18 4 19 5 17 7 16 8 14 9 15 10 13 11 10 12
REMARK SMILES IDX 11 13 97 14 12 15 96 16 9 17 6 19 7 20 8 21 5 22 1 23 2 24
REMARK SMILES IDX 3 25 100 26 4 27 98 28 99 29 23 30 24 31 25 32 26 33 27 34
REMARK SMILES IDX 28 35 29 37 30 38 31 39 95 40 32 41 94 42 33 43 34 44 35 45
REMARK SMILES IDX 88 46 36 47 93 48 87 49 89 50 37 51 92 52 86 53 85 54 38 56
REMARK SMILES IDX 72 57 51 58 71 59 52 60 55 61 70 62 90 63 53 64 54 65 69 67
REMARK SMILES IDX 91 68 56 69 39 70 40 71 49 72 41 73 42 74 48 75 50 76 43 77
REMARK SMILES IDX 44 78 45 79 46 80 47 81 73 82 74 83 83 84 75 85 76 86 82 87
REMARK SMILES IDX 84 88 77 89 78 90 79 91 80 92 81 93 57 94 58 95 67 96 59 97
REMARK SMILES IDX 60 98 66 99 68 100 61 101 62 102 63 103 64 104 65 105
REMARK H PARENT 20 6 9 18 27 36 89 55 55 66
REMARK Flexibility Score: inf
ROOT
ATOM      1  C   UNL A   1      33.936  34.719  30.222  1.00  0.00     0.021 C 
ENDROOT
BRANCH   1   2
ATOM      2  C   UNL A   1      33.597  34.130  28.727  1.00  0.00     0.116 C 
BRANCH   2   3
ATOM      3  N   UNL A   1      34.842  33.484  28.248  1.00  0.00    -0.356 N 
ATOM      4  C   UNL A   1      35.035  32.148  27.972  1.00  0.00     0.220 C 
ATOM      5  O   UNL A   1      36.184  31.702  28.024  1.00  0.00    -0.275 OA
ATOM      6  H   UNL A   1      35.618  34.076  28.112  1.00  0.00     0.163 HD
BRANCH   4   7
ATOM      7  C   UNL A   1      33.846  31.233  27.623  1.00  0.00     0.108 C 
BRANCH   7   8
ATOM      8  C   UNL A   1      34.208  29.853  27.007  1.00  0.00     0.091 C 
BRANCH   8   9
ATOM      9  C   UNL A   1      33.278  29.318  25.880  1.00  0.00     0.163 C 
ATOM     10  O   UNL A   1      32.239  29.880  25.552  1.00  0.00    -0.294 OA
BRANCH   9  11
ATOM     11  C   UNL A   1      33.578  27.958  25.297  1.00  0.00     0.018 A 
ATOM     12  C   UNL A   1      32.012  25.131  23.604  1.00  0.00     0.049 A 
ATOM     13  C   UNL A   1      32.660  26.539  22.637  1.00  0.00     0.027 A 
ATOM     14  C   UNL A   1      32.192  25.129  25.383  1.00  0.00     0.027 A 
ATOM     15  C   UNL A   1      33.460  27.938  23.475  1.00  0.00     0.014 A 
ATOM     16  C   UNL A   1      32.979  26.541  26.224  1.00  0.00     0.014 A 
BRANCH  12  17
ATOM     17  N   UNL A   1      31.733  23.930  22.858  1.00  0.00    -0.280 N 
ATOM     18  H   UNL A   1      30.784  23.702  22.730  1.00  0.00     0.180 HD
BRANCH  17  19
ATOM     19  S   UNL A   1      32.850  22.886  22.188  1.00  0.00     0.262 S 
ATOM     20  O   UNL A   1      33.396  23.503  21.000  1.00  0.00    -0.201 OA
ATOM     21  O   UNL A   1      32.171  21.609  22.124  1.00  0.00    -0.201 OA
BRANCH  19  22
ATOM     22  C   UNL A   1      34.131  22.725  23.390  1.00  0.00     0.090 A 
ATOM     23  C   UNL A   1      37.664  20.997  25.001  1.00  0.00     0.044 C 
ATOM     24  C   UNL A   1      36.413  21.691  24.557  1.00  0.00    -0.051 A 
ATOM     25  C   UNL A   1      36.505  22.810  23.730  1.00  0.00     0.005 A 
ATOM     26  C   UNL A   1      35.150  21.251  24.975  1.00  0.00     0.008 A 
ATOM     27  C   UNL A   1      35.355  23.347  23.166  1.00  0.00     0.023 A 
ATOM     28  C   UNL A   1      33.985  21.775  24.404  1.00  0.00    -0.030 A 
ATOM     29  C   UNL A   1      32.637  21.429  24.973  1.00  0.00     0.046 C 
ENDBRANCH  19  22
ENDBRANCH  17  19
ENDBRANCH  12  17
ENDBRANCH   9  11
ENDBRANCH   8   9
ENDBRANCH   7   8
ENDBRANCH   4   7
ENDBRANCH   2   3
ENDBRANCH   1   2
BRANCH   1  30
ATOM     30  C   UNL A   1      34.147  34.099  32.290  1.00  0.00     0.002 C 
BRANCH  30  31
ATOM     31  C   UNL A   1      35.191  33.046  33.154  1.00  0.00     0.002 C 
BRANCH  31  32
ATOM     32  C   UNL A   1      36.667  33.385  33.319  1.00  0.00     0.021 C 
BRANCH  32  33
ATOM     33  C   UNL A   1      37.524  32.331  32.665  1.00  0.00     0.116 C 
BRANCH  33  34
ATOM     34  N   UNL A   1      36.730  31.165  32.260  1.00  0.00    -0.352 N 
ATOM     35  C   UNL A   1      37.077  30.168  31.380  1.00  0.00     0.251 C 
ATOM     36  H   UNL A   1      35.838  31.088  32.668  1.00  0.00     0.163 HD
ATOM     37  O   UNL A   1      36.245  29.383  30.940  1.00  0.00    -0.269 OA
BRANCH  35  38
ATOM     38  C   UNL A   1      38.489  30.099  30.974  1.00  0.00     0.039 A 
ATOM     39  C   UNL A   1      39.422  29.457  31.786  1.00  0.00     0.014 A 
ATOM     40  C   UNL A   1      38.820  30.538  29.690  1.00  0.00     0.014 A 
ATOM     41  C   UNL A   1      40.686  29.187  31.269  1.00  0.00     0.010 A 
ATOM     42  C   UNL A   1      40.012  30.130  29.131  1.00  0.00     0.010 A 
ATOM     43  C   UNL A   1      40.970  29.483  29.925  1.00  0.00    -0.014 A 
BRANCH  43  44
ATOM     44  C   UNL A   1      42.283  29.193  29.314  1.00  0.00     0.031 A 
ATOM     45  C   UNL A   1      42.514  27.825  28.732  1.00  0.00     0.074 A 
ATOM     46  C   UNL A   1      43.275  30.100  29.386  1.00  0.00     0.049 A 
ATOM     47  N   UNL A   1      43.616  27.301  28.268  1.00  0.00    -0.248 NA
ATOM     48  C   UNL A   1      41.364  26.902  28.726  1.00  0.00     0.031 C 
ATOM     49  C   UNL A   1      43.170  31.425  30.003  1.00  0.00     0.029 A 
ATOM     50  N   UNL A   1      44.574  30.035  28.958  1.00  0.00    -0.354 N 
ATOM     51  C   UNL A   1      43.296  25.987  27.949  1.00  0.00     0.074 A 
ATOM     52  C   UNL A   1      41.925  25.768  28.343  1.00  0.00     0.031 C 
ATOM     53  C   UNL A   1      44.352  32.053  29.897  1.00  0.00     0.029 A 
ATOM     54  C   UNL A   1      45.306  31.162  29.247  1.00  0.00     0.049 A 
ATOM     55  H   UNL A   1      44.949  29.255  28.487  1.00  0.00     0.167 HD
ATOM     56  C   UNL A   1      44.072  25.056  27.350  1.00  0.00     0.037 A 
ATOM     57  C   UNL A   1      46.607  31.432  29.025  1.00  0.00     0.037 A 
ATOM     58  C   UNL A   1      45.421  25.313  26.928  1.00  0.00     0.049 A 
ATOM     59  C   UNL A   1      47.449  30.394  28.335  1.00  0.00     0.074 A 
ATOM     60  C   UNL A   1      46.270  24.491  26.215  1.00  0.00     0.029 A 
ATOM     61  N   UNL A   1      46.118  26.484  27.195  1.00  0.00    -0.354 N 
ATOM     62  N   UNL A   1      47.104  29.194  27.930  1.00  0.00    -0.248 NA
ATOM     63  C   UNL A   1      48.849  30.741  28.066  1.00  0.00     0.031 C 
ATOM     64  C   UNL A   1      47.504  25.139  26.106  1.00  0.00     0.029 A 
ATOM     65  C   UNL A   1      47.405  26.389  26.700  1.00  0.00     0.049 A 
ATOM     66  H   UNL A   1      45.750  27.266  27.666  1.00  0.00     0.167 HD
ATOM     67  C   UNL A   1      48.242  28.641  27.358  1.00  0.00     0.074 A 
ATOM     68  C   UNL A   1      49.279  29.651  27.444  1.00  0.00     0.031 C 
ATOM     69  C   UNL A   1      48.419  27.410  26.816  1.00  0.00     0.037 A 
BRANCH  56  70
ATOM     70  C   UNL A   1      43.478  23.692  27.129  1.00  0.00     0.058 A 
ATOM     71  C   UNL A   1      43.337  22.761  28.172  1.00  0.00     0.135 A 
ATOM     72  C   UNL A   1      43.046  23.307  25.850  1.00  0.00     0.135 A 
ATOM     73  F   UNL A   1      43.752  23.066  29.412  1.00  0.00    -0.206 F 
ATOM     74  C   UNL A   1      42.832  21.485  27.947  1.00  0.00     0.059 A 
ATOM     75  C   UNL A   1      42.506  22.047  25.608  1.00  0.00     0.059 A 
ATOM     76  F   UNL A   1      43.161  24.152  24.814  1.00  0.00    -0.206 F 
ATOM     77  C   UNL A   1      42.420  21.137  26.660  1.00  0.00     0.060 A 
BRANCH  77  78
ATOM     78  S   UNL A   1      41.774  19.475  26.385  1.00  0.00     0.124 S 
ATOM     79  O   UNL A   1      42.441  19.106  25.140  1.00  0.00    -0.237 OA
ATOM     80  O   UNL A   1      42.223  18.765  27.578  1.00  0.00    -0.237 OA
ATOM     81  O   UNL A   1      40.333  19.682  26.287  1.00  0.00    -0.744 OA
ENDBRANCH  77  78
ENDBRANCH  56  70
BRANCH  57  82
ATOM     82  C   UNL A   1      47.170  32.739  29.460  1.00  0.00     0.058 A 
ATOM     83  C   UNL A   1      47.799  32.882  30.704  1.00  0.00     0.135 A 
ATOM     84  C   UNL A   1      47.148  33.855  28.608  1.00  0.00     0.135 A 
ATOM     85  F   UNL A   1      47.842  31.847  31.557  1.00  0.00    -0.206 F 
ATOM     86  C   UNL A   1      48.390  34.082  31.089  1.00  0.00     0.059 A 
ATOM     87  C   UNL A   1      47.752  35.058  28.959  1.00  0.00     0.059 A 
ATOM     88  F   UNL A   1      46.574  33.766  27.397  1.00  0.00    -0.206 F 
ATOM     89  C   UNL A   1      48.370  35.162  30.204  1.00  0.00     0.060 A 
BRANCH  89  90
ATOM     90  S   UNL A   1      49.220  36.685  30.676  1.00  0.00     0.124 S 
ATOM     91  O   UNL A   1      48.140  37.446  31.293  1.00  0.00    -0.237 OA
ATOM     92  O   UNL A   1      50.252  36.190  31.581  1.00  0.00    -0.237 OA
ATOM     93  O   UNL A   1      49.711  37.204  29.402  1.00  0.00    -0.744 OA
ENDBRANCH  89  90
ENDBRANCH  57  82
BRANCH  69  94
ATOM     94  C   UNL A   1      49.785  27.079  26.286  1.00  0.00     0.058 A 
ATOM     95  C   UNL A   1      50.801  26.610  27.132  1.00  0.00     0.135 A 
ATOM     96  C   UNL A   1      50.051  27.144  24.908  1.00  0.00     0.135 A 
ATOM     97  F   UNL A   1      50.598  26.537  28.457  1.00  0.00    -0.206 F 
ATOM     98  C   UNL A   1      52.039  26.226  26.631  1.00  0.00     0.059 A 
ATOM     99  C   UNL A   1      51.271  26.736  24.383  1.00  0.00     0.059 A 
ATOM    100  F   UNL A   1      49.107  27.576  24.056  1.00  0.00    -0.206 F 
ATOM    101  C   UNL A   1      52.261  26.283  25.254  1.00  0.00     0.060 A 
BRANCH 101 102
ATOM    102  S   UNL A   1      53.852  25.721  24.615  1.00  0.00     0.124 S 
ATOM    103  O   UNL A   1      53.674  24.273  24.615  1.00  0.00    -0.237 OA
ATOM    104  O   UNL A   1      53.901  26.355  23.301  1.00  0.00    -0.237 OA
ATOM    105  O   UNL A   1      54.811  26.235  25.590  1.00  0.00    -0.744 OA
ENDBRANCH 101 102
ENDBRANCH  69  94
ENDBRANCH  43  44
ENDBRANCH  35  38
ENDBRANCH  33  34
ENDBRANCH  32  33
ENDBRANCH  31  32
ENDBRANCH  30  31
ENDBRANCH   1  30
TORSDOF 22
ENDMDL
