MODEL 1
REMARK VINA RESULT:     -11.8      0.000      0.000
REMARK SMILES O=C(NCCCCCCNC(=O)[C@@H]1CS[C@H](c2cccc([N+](=O)[O-])c2)[NH2+]1)c1ccc(-c2c3nc(c(-c4c(F)cc(S(=O)(=O)[O-])cc4F)c4ccc([nH]4)c(-c4c(F)cc(S(=O)(=O)[O-])cc4F)c4nc(c(-c5c(F)cc(S(=O)(=O)[O-])cc5F)c5ccc2[nH]5)C=C4)C=C3)cc1
REMARK SMILES IDX 6 1 5 2 4 3 3 4 1 5 2 6 27 8 28 9 92 10 29 11 91 12 30 13
REMARK SMILES IDX 31 14 32 15 85 16 33 17 90 18 84 19 86 20 34 21 89 22 83 23
REMARK SMILES IDX 82 24 35 26 69 27 48 28 68 29 49 30 52 31 67 32 87 33 50 34
REMARK SMILES IDX 51 35 66 37 88 38 53 39 36 40 37 41 46 42 38 43 39 44 45 45
REMARK SMILES IDX 47 46 40 47 41 48 42 49 43 50 44 51 70 52 71 53 80 54 72 55
REMARK SMILES IDX 73 56 79 57 81 58 74 59 75 60 76 61 77 62 78 63 54 64 55 65
REMARK SMILES IDX 64 66 56 67 57 68 63 69 65 70 58 71 59 72 60 73 61 74 62 75
REMARK SMILES IDX 7 76 8 77 9 78 10 79 11 80 12 82 13 83 14 84 26 85 15 86
REMARK SMILES IDX 16 87 17 90 18 91 25 92 19 93 21 94 20 95 22 96 23 97 24 98
REMARK H PARENT 3 7 86 25 52 36 10 81 26 88 26 89
REMARK Flexibility Score: inf
ROOT
ATOM      1  C   UNL A   1      35.935  23.863  25.817  1.00  0.00     0.002 C 
ENDROOT
BRANCH   1   2
ATOM      2  C   UNL A   1      37.414  23.541  25.593  1.00  0.00     0.021 C 
BRANCH   2   3
ATOM      3  C   UNL A   1      38.375  24.244  26.544  1.00  0.00     0.116 C 
BRANCH   3   4
ATOM      4  N   UNL A   1      39.739  24.261  26.047  1.00  0.00    -0.352 N 
ATOM      5  O   UNL A   1      41.811  25.121  25.763  1.00  0.00    -0.269 OA
ATOM      6  C   UNL A   1      40.765  25.115  26.392  1.00  0.00     0.251 C 
ATOM      7  H   UNL A   1      39.961  23.573  25.378  1.00  0.00     0.163 HD
BRANCH   6   8
ATOM      8  C   UNL A   1      40.563  26.044  27.526  1.00  0.00     0.039 A 
ATOM      9  C   UNL A   1      41.342  27.199  27.630  1.00  0.00     0.014 A 
ATOM     10  C   UNL A   1      39.617  25.740  28.509  1.00  0.00     0.014 A 
ATOM     11  C   UNL A   1      41.279  27.966  28.786  1.00  0.00     0.010 A 
ATOM     12  C   UNL A   1      39.488  26.570  29.628  1.00  0.00     0.010 A 
ATOM     13  C   UNL A   1      40.337  27.675  29.789  1.00  0.00    -0.014 A 
BRANCH  13  14
ATOM     14  C   UNL A   1      40.222  28.603  30.944  1.00  0.00     0.031 A 
ATOM     15  C   UNL A   1      41.134  28.505  32.135  1.00  0.00     0.074 A 
ATOM     16  C   UNL A   1      39.305  29.588  30.872  1.00  0.00     0.049 A 
ATOM     17  N   UNL A   1      41.196  29.282  33.186  1.00  0.00    -0.248 NA
ATOM     18  C   UNL A   1      42.095  27.390  32.159  1.00  0.00     0.031 C 
ATOM     19  C   UNL A   1      38.343  29.760  29.778  1.00  0.00     0.029 A 
ATOM     20  N   UNL A   1      39.047  30.643  31.706  1.00  0.00    -0.354 N 
ATOM     21  C   UNL A   1      42.191  28.753  34.000  1.00  0.00     0.074 A 
ATOM     22  C   UNL A   1      42.689  27.567  33.334  1.00  0.00     0.031 C 
ATOM     23  C   UNL A   1      37.644  30.886  29.977  1.00  0.00     0.029 A 
ATOM     24  C   UNL A   1      38.061  31.482  31.240  1.00  0.00     0.049 A 
ATOM     25  H   UNL A   1      39.521  30.788  32.557  1.00  0.00     0.167 HD
ATOM     26  C   UNL A   1      42.651  29.219  35.187  1.00  0.00     0.037 A 
ATOM     27  C   UNL A   1      37.540  32.602  31.771  1.00  0.00     0.037 A 
ATOM     28  C   UNL A   1      42.151  30.405  35.840  1.00  0.00     0.049 A 
ATOM     29  C   UNL A   1      38.080  33.103  33.077  1.00  0.00     0.074 A 
ATOM     30  C   UNL A   1      42.553  30.960  37.044  1.00  0.00     0.029 A 
ATOM     31  N   UNL A   1      41.146  31.222  35.344  1.00  0.00    -0.354 N 
ATOM     32  N   UNL A   1      39.029  32.593  33.824  1.00  0.00    -0.248 NA
ATOM     33  C   UNL A   1      37.480  34.331  33.614  1.00  0.00     0.031 C 
ATOM     34  C   UNL A   1      41.769  32.096  37.287  1.00  0.00     0.029 A 
ATOM     35  C   UNL A   1      40.909  32.271  36.217  1.00  0.00     0.049 A 
ATOM     36  H   UNL A   1      40.670  31.077  34.493  1.00  0.00     0.167 HD
ATOM     37  C   UNL A   1      39.138  33.434  34.923  1.00  0.00     0.074 A 
ATOM     38  C   UNL A   1      38.185  34.507  34.723  1.00  0.00     0.031 C 
ATOM     39  C   UNL A   1      39.946  33.322  36.007  1.00  0.00     0.037 A 
BRANCH  26  40
ATOM     40  C   UNL A   1      43.752  28.449  35.867  1.00  0.00     0.058 A 
ATOM     41  C   UNL A   1      45.102  28.793  35.693  1.00  0.00     0.135 A 
ATOM     42  C   UNL A   1      43.454  27.398  36.749  1.00  0.00     0.135 A 
ATOM     43  F   UNL A   1      45.445  29.780  34.850  1.00  0.00    -0.206 F 
ATOM     44  C   UNL A   1      46.119  28.113  36.358  1.00  0.00     0.059 A 
ATOM     45  C   UNL A   1      44.454  26.718  37.442  1.00  0.00     0.059 A 
ATOM     46  F   UNL A   1      42.180  27.027  36.953  1.00  0.00    -0.206 F 
ATOM     47  C   UNL A   1      45.784  27.076  37.231  1.00  0.00     0.060 A 
BRANCH  47  48
ATOM     48  S   UNL A   1      47.115  26.217  38.099  1.00  0.00     0.124 S 
ATOM     49  O   UNL A   1      46.465  25.875  39.360  1.00  0.00    -0.237 OA
ATOM     50  O   UNL A   1      47.395  25.095  37.208  1.00  0.00    -0.237 OA
ATOM     51  O   UNL A   1      48.168  27.223  38.186  1.00  0.00    -0.744 OA
ENDBRANCH  47  48
ENDBRANCH  26  40
BRANCH  27  52
ATOM     52  C   UNL A   1      36.437  33.306  31.067  1.00  0.00     0.058 A 
ATOM     53  C   UNL A   1      35.124  33.277  31.557  1.00  0.00     0.135 A 
ATOM     54  C   UNL A   1      36.687  34.049  29.903  1.00  0.00     0.135 A 
ATOM     55  F   UNL A   1      34.837  32.581  32.668  1.00  0.00    -0.206 F 
ATOM     56  C   UNL A   1      34.091  33.947  30.908  1.00  0.00     0.059 A 
ATOM     57  C   UNL A   1      35.678  34.749  29.252  1.00  0.00     0.059 A 
ATOM     58  F   UNL A   1      37.932  34.126  29.407  1.00  0.00    -0.206 F 
ATOM     59  C   UNL A   1      34.380  34.681  29.755  1.00  0.00     0.060 A 
BRANCH  59  60
ATOM     60  S   UNL A   1      33.048  35.590  28.944  1.00  0.00     0.124 S 
ATOM     61  O   UNL A   1      33.794  36.616  28.222  1.00  0.00    -0.237 OA
ATOM     62  O   UNL A   1      32.424  34.559  28.123  1.00  0.00    -0.237 OA
ATOM     63  O   UNL A   1      32.239  36.064  30.063  1.00  0.00    -0.744 OA
ENDBRANCH  59  60
ENDBRANCH  27  52
BRANCH  39  64
ATOM     64  C   UNL A   1      39.826  34.397  37.048  1.00  0.00     0.058 A 
ATOM     65  C   UNL A   1      40.502  35.621  36.917  1.00  0.00     0.135 A 
ATOM     66  C   UNL A   1      39.030  34.204  38.187  1.00  0.00     0.135 A 
ATOM     67  F   UNL A   1      41.282  35.851  35.849  1.00  0.00    -0.206 F 
ATOM     68  C   UNL A   1      40.424  36.602  37.899  1.00  0.00     0.059 A 
ATOM     69  C   UNL A   1      38.918  35.181  39.171  1.00  0.00     0.059 A 
ATOM     70  F   UNL A   1      38.356  33.055  38.354  1.00  0.00    -0.206 F 
ATOM     71  C   UNL A   1      39.635  36.369  39.027  1.00  0.00     0.060 A 
BRANCH  71  72
ATOM     72  S   UNL A   1      39.544  37.644  40.301  1.00  0.00     0.124 S 
ATOM     73  O   UNL A   1      40.956  37.937  40.523  1.00  0.00    -0.237 OA
ATOM     74  O   UNL A   1      38.774  38.694  39.642  1.00  0.00    -0.237 OA
ATOM     75  O   UNL A   1      38.859  36.973  41.402  1.00  0.00    -0.744 OA
ENDBRANCH  71  72
ENDBRANCH  39  64
ENDBRANCH  13  14
ENDBRANCH   6   8
ENDBRANCH   3   4
ENDBRANCH   2   3
ENDBRANCH   1   2
BRANCH   1  76
ATOM     76  C   UNL A   1      34.952  22.852  25.221  1.00  0.00     0.002 C 
BRANCH  76  77
ATOM     77  C   UNL A   1      33.476  23.131  25.525  1.00  0.00     0.021 C 
BRANCH  77  78
ATOM     78  C   UNL A   1      32.890  24.362  24.847  1.00  0.00     0.116 C 
BRANCH  78  79
ATOM     79  N   UNL A   1      31.999  25.091  25.729  1.00  0.00    -0.351 N 
ATOM     80  C   UNL A   1      31.985  26.326  26.282  1.00  0.00     0.279 C 
ATOM     81  H   UNL A   1      31.213  24.558  25.989  1.00  0.00     0.163 HD
ATOM     82  O   UNL A   1      31.017  26.543  27.028  1.00  0.00    -0.268 OA
BRANCH  80  83
ATOM     83  C   UNL A   1      33.032  27.447  26.096  1.00  0.00     0.283 C 
ATOM     84  C   UNL A   1      33.146  28.607  27.060  1.00  0.00     0.151 C 
ATOM     85  N   UNL A   1      33.056  27.949  24.692  1.00  0.00    -0.321 N 
ATOM     86  S   UNL A   1      32.351  29.998  26.228  1.00  0.00    -0.088 SA
ATOM     87  C   UNL A   1      32.280  29.188  24.600  1.00  0.00     0.274 C 
ATOM     88  H   UNL A   1      32.648  27.247  24.074  1.00  0.00     0.348 HD
ATOM     89  H   UNL A   1      34.020  28.131  24.415  1.00  0.00     0.348 HD
BRANCH  87  90
ATOM     90  C   UNL A   1      30.862  29.015  24.073  1.00  0.00     0.027 A 
ATOM     91  C   UNL A   1      30.345  27.718  23.861  1.00  0.00     0.011 A 
ATOM     92  C   UNL A   1      30.014  30.108  23.807  1.00  0.00     0.096 A 
ATOM     93  C   UNL A   1      29.066  27.516  23.333  1.00  0.00     0.008 A 
ATOM     94  C   UNL A   1      28.740  29.902  23.255  1.00  0.00     0.269 A 
ATOM     95  C   UNL A   1      28.263  28.608  23.014  1.00  0.00     0.085 A 
BRANCH  94  96
ATOM     96  N   UNL A   1      27.924  31.056  22.854  1.00  0.00     0.062 N 
ATOM     97  O   UNL A   1      27.119  31.507  23.682  1.00  0.00    -0.258 OA
ATOM     98  O   UNL A   1      28.075  31.505  21.709  1.00  0.00    -0.258 OA
ENDBRANCH  94  96
ENDBRANCH  87  90
ENDBRANCH  80  83
ENDBRANCH  78  79
ENDBRANCH  77  78
ENDBRANCH  76  77
ENDBRANCH   1  76
TORSDOF 18
ENDMDL
MODEL 2
REMARK VINA RESULT:     -11.7      6.826     11.976
REMARK SMILES O=C(NCCCCCCNC(=O)[C@@H]1CS[C@H](c2cccc([N+](=O)[O-])c2)[NH2+]1)c1ccc(-c2c3nc(c(-c4c(F)cc(S(=O)(=O)[O-])cc4F)c4ccc([nH]4)c(-c4c(F)cc(S(=O)(=O)[O-])cc4F)c4nc(c(-c5c(F)cc(S(=O)(=O)[O-])cc5F)c5ccc2[nH]5)C=C4)C=C3)cc1
REMARK SMILES IDX 6 1 5 2 4 3 3 4 1 5 2 6 27 8 28 9 92 10 29 11 91 12 30 13
REMARK SMILES IDX 31 14 32 15 85 16 33 17 90 18 84 19 86 20 34 21 89 22 83 23
REMARK SMILES IDX 82 24 35 26 69 27 48 28 68 29 49 30 52 31 67 32 87 33 50 34
REMARK SMILES IDX 51 35 66 37 88 38 53 39 36 40 37 41 46 42 38 43 39 44 45 45
REMARK SMILES IDX 47 46 40 47 41 48 42 49 43 50 44 51 70 52 71 53 80 54 72 55
REMARK SMILES IDX 73 56 79 57 81 58 74 59 75 60 76 61 77 62 78 63 54 64 55 65
REMARK SMILES IDX 64 66 56 67 57 68 63 69 65 70 58 71 59 72 60 73 61 74 62 75
REMARK SMILES IDX 7 76 8 77 9 78 10 79 11 80 12 82 13 83 14 84 26 85 15 86
REMARK SMILES IDX 16 87 17 90 18 91 25 92 19 93 21 94 20 95 22 96 23 97 24 98
REMARK H PARENT 3 7 86 25 52 36 10 81 26 88 26 89
REMARK Flexibility Score: inf
ROOT
ATOM      1  C   UNL A   1      33.101  28.778  27.457  1.00  0.00     0.002 C 
ENDROOT
BRANCH   1   2
ATOM      2  C   UNL A   1      34.271  29.711  27.141  1.00  0.00     0.021 C 
BRANCH   2   3
ATOM      3  C   UNL A   1      35.507  29.509  28.009  1.00  0.00     0.116 C 
BRANCH   3   4
ATOM      4  N   UNL A   1      35.436  30.242  29.261  1.00  0.00    -0.352 N 
ATOM      5  O   UNL A   1      36.217  31.003  31.242  1.00  0.00    -0.269 OA
ATOM      6  C   UNL A   1      36.456  30.528  30.143  1.00  0.00     0.251 C 
ATOM      7  H   UNL A   1      34.546  30.579  29.510  1.00  0.00     0.163 HD
BRANCH   6   8
ATOM      8  C   UNL A   1      37.848  30.224  29.742  1.00  0.00     0.039 A 
ATOM      9  C   UNL A   1      38.205  30.242  28.391  1.00  0.00     0.014 A 
ATOM     10  C   UNL A   1      38.790  29.886  30.717  1.00  0.00     0.014 A 
ATOM     11  C   UNL A   1      39.456  29.779  28.007  1.00  0.00     0.010 A 
ATOM     12  C   UNL A   1      40.082  29.511  30.331  1.00  0.00     0.010 A 
ATOM     13  C   UNL A   1      40.418  29.428  28.972  1.00  0.00    -0.014 A 
BRANCH  13  14
ATOM     14  C   UNL A   1      41.783  29.063  28.512  1.00  0.00     0.031 A 
ATOM     15  C   UNL A   1      42.913  30.055  28.514  1.00  0.00     0.074 A 
ATOM     16  C   UNL A   1      42.004  27.785  28.145  1.00  0.00     0.049 A 
ATOM     17  N   UNL A   1      44.170  29.866  28.205  1.00  0.00    -0.248 NA
ATOM     18  C   UNL A   1      42.596  31.439  28.904  1.00  0.00     0.031 C 
ATOM     19  C   UNL A   1      40.972  26.744  28.073  1.00  0.00     0.029 A 
ATOM     20  N   UNL A   1      43.156  27.133  27.795  1.00  0.00    -0.354 N 
ATOM     21  C   UNL A   1      44.795  31.099  28.352  1.00  0.00     0.074 A 
ATOM     22  C   UNL A   1      43.770  32.040  28.752  1.00  0.00     0.031 C 
ATOM     23  C   UNL A   1      41.548  25.574  27.763  1.00  0.00     0.029 A 
ATOM     24  C   UNL A   1      42.974  25.792  27.553  1.00  0.00     0.049 A 
ATOM     25  H   UNL A   1      44.030  27.581  27.725  1.00  0.00     0.167 HD
ATOM     26  C   UNL A   1      46.102  31.413  28.178  1.00  0.00     0.037 A 
ATOM     27  C   UNL A   1      43.852  24.840  27.190  1.00  0.00     0.037 A 
ATOM     28  C   UNL A   1      47.116  30.465  27.784  1.00  0.00     0.049 A 
ATOM     29  C   UNL A   1      45.295  25.212  27.022  1.00  0.00     0.074 A 
ATOM     30  C   UNL A   1      48.469  30.684  27.582  1.00  0.00     0.029 A 
ATOM     31  N   UNL A   1      46.893  29.118  27.536  1.00  0.00    -0.354 N 
ATOM     32  N   UNL A   1      45.865  26.382  27.177  1.00  0.00    -0.248 NA
ATOM     33  C   UNL A   1      46.214  24.137  26.628  1.00  0.00     0.031 C 
ATOM     34  C   UNL A   1      49.056  29.476  27.185  1.00  0.00     0.029 A 
ATOM     35  C   UNL A   1      48.078  28.496  27.178  1.00  0.00     0.049 A 
ATOM     36  H   UNL A   1      46.018  28.669  27.605  1.00  0.00     0.167 HD
ATOM     37  C   UNL A   1      47.210  26.187  26.896  1.00  0.00     0.074 A 
ATOM     38  C   UNL A   1      47.374  24.778  26.599  1.00  0.00     0.031 C 
ATOM     39  C   UNL A   1      48.219  27.094  26.873  1.00  0.00     0.037 A 
BRANCH  26  40
ATOM     40  C   UNL A   1      46.521  32.840  28.410  1.00  0.00     0.058 A 
ATOM     41  C   UNL A   1      46.976  33.276  29.664  1.00  0.00     0.135 A 
ATOM     42  C   UNL A   1      46.526  33.767  27.355  1.00  0.00     0.135 A 
ATOM     43  F   UNL A   1      46.979  32.436  30.712  1.00  0.00    -0.206 F 
ATOM     44  C   UNL A   1      47.410  34.582  29.868  1.00  0.00     0.059 A 
ATOM     45  C   UNL A   1      46.976  35.074  27.531  1.00  0.00     0.059 A 
ATOM     46  F   UNL A   1      46.101  33.404  26.134  1.00  0.00    -0.206 F 
ATOM     47  C   UNL A   1      47.406  35.475  28.795  1.00  0.00     0.060 A 
BRANCH  47  48
ATOM     48  S   UNL A   1      47.987  37.162  29.074  1.00  0.00     0.124 S 
ATOM     49  O   UNL A   1      48.254  37.143  30.509  1.00  0.00    -0.237 OA
ATOM     50  O   UNL A   1      49.163  37.234  28.213  1.00  0.00    -0.237 OA
ATOM     51  O   UNL A   1      46.856  37.985  28.656  1.00  0.00    -0.744 OA
ENDBRANCH  47  48
ENDBRANCH  26  40
BRANCH  27  52
ATOM     52  C   UNL A   1      43.377  23.453  26.951  1.00  0.00     0.058 A 
ATOM     53  C   UNL A   1      43.230  22.946  25.652  1.00  0.00     0.135 A 
ATOM     54  C   UNL A   1      43.089  22.596  28.025  1.00  0.00     0.135 A 
ATOM     55  F   UNL A   1      43.494  23.727  24.593  1.00  0.00    -0.206 F 
ATOM     56  C   UNL A   1      42.798  21.643  25.424  1.00  0.00     0.059 A 
ATOM     57  C   UNL A   1      42.683  21.283  27.824  1.00  0.00     0.059 A 
ATOM     58  F   UNL A   1      43.236  23.028  29.288  1.00  0.00    -0.206 F 
ATOM     59  C   UNL A   1      42.528  20.819  26.518  1.00  0.00     0.060 A 
BRANCH  59  60
ATOM     60  S   UNL A   1      42.016  19.114  26.221  1.00  0.00     0.124 S 
ATOM     61  O   UNL A   1      40.604  19.286  25.898  1.00  0.00    -0.237 OA
ATOM     62  O   UNL A   1      42.880  18.719  25.114  1.00  0.00    -0.237 OA
ATOM     63  O   UNL A   1      42.300  18.455  27.492  1.00  0.00    -0.744 OA
ENDBRANCH  59  60
ENDBRANCH  27  52
BRANCH  39  64
ATOM     64  C   UNL A   1      49.582  26.575  26.519  1.00  0.00     0.058 A 
ATOM     65  C   UNL A   1      50.418  25.995  27.488  1.00  0.00     0.135 A 
ATOM     66  C   UNL A   1      50.059  26.658  25.202  1.00  0.00     0.135 A 
ATOM     67  F   UNL A   1      50.010  25.900  28.763  1.00  0.00    -0.206 F 
ATOM     68  C   UNL A   1      51.696  25.551  27.169  1.00  0.00     0.059 A 
ATOM     69  C   UNL A   1      51.325  26.198  24.856  1.00  0.00     0.059 A 
ATOM     70  F   UNL A   1      49.295  27.196  24.238  1.00  0.00    -0.206 F 
ATOM     71  C   UNL A   1      52.144  25.663  25.852  1.00  0.00     0.060 A 
BRANCH  71  72
ATOM     72  S   UNL A   1      53.807  25.090  25.448  1.00  0.00     0.124 S 
ATOM     73  O   UNL A   1      54.046  25.760  24.174  1.00  0.00    -0.237 OA
ATOM     74  O   UNL A   1      54.592  25.578  26.578  1.00  0.00    -0.237 OA
ATOM     75  O   UNL A   1      53.657  23.640  25.379  1.00  0.00    -0.744 OA
ENDBRANCH  71  72
ENDBRANCH  39  64
ENDBRANCH  13  14
ENDBRANCH   6   8
ENDBRANCH   3   4
ENDBRANCH   2   3
ENDBRANCH   1   2
BRANCH   1  76
ATOM     76  C   UNL A   1      32.673  27.859  26.310  1.00  0.00     0.002 C 
BRANCH  76  77
ATOM     77  C   UNL A   1      33.716  26.816  25.895  1.00  0.00     0.021 C 
BRANCH  77  78
ATOM     78  C   UNL A   1      33.291  25.363  26.064  1.00  0.00     0.116 C 
BRANCH  78  79
ATOM     79  N   UNL A   1      31.891  25.249  26.427  1.00  0.00    -0.351 N 
ATOM     80  C   UNL A   1      30.878  24.408  26.114  1.00  0.00     0.279 C 
ATOM     81  H   UNL A   1      31.609  25.956  27.051  1.00  0.00     0.163 HD
ATOM     82  O   UNL A   1      29.791  24.697  26.639  1.00  0.00    -0.268 OA
BRANCH  80  83
ATOM     83  C   UNL A   1      30.938  23.175  25.184  1.00  0.00     0.283 C 
ATOM     84  C   UNL A   1      32.147  22.267  25.133  1.00  0.00     0.151 C 
ATOM     85  N   UNL A   1      30.494  23.509  23.801  1.00  0.00    -0.321 N 
ATOM     86  S   UNL A   1      33.028  22.730  23.626  1.00  0.00    -0.088 SA
ATOM     87  C   UNL A   1      31.665  23.727  22.947  1.00  0.00     0.274 C 
ATOM     88  H   UNL A   1      29.927  24.357  23.821  1.00  0.00     0.348 HD
ATOM     89  H   UNL A   1      29.943  22.738  23.427  1.00  0.00     0.348 HD
BRANCH  87  90
ATOM     90  C   UNL A   1      32.035  25.189  22.734  1.00  0.00     0.027 A 
ATOM     91  C   UNL A   1      33.373  25.542  22.453  1.00  0.00     0.011 A 
ATOM     92  C   UNL A   1      31.081  26.225  22.778  1.00  0.00     0.096 A 
ATOM     93  C   UNL A   1      33.762  26.876  22.299  1.00  0.00     0.008 A 
ATOM     94  C   UNL A   1      31.480  27.565  22.647  1.00  0.00     0.269 A 
ATOM     95  C   UNL A   1      32.820  27.895  22.409  1.00  0.00     0.085 A 
BRANCH  94  96
ATOM     96  N   UNL A   1      30.497  28.640  22.835  1.00  0.00     0.062 N 
ATOM     97  O   UNL A   1      29.924  29.078  21.826  1.00  0.00    -0.258 OA
ATOM     98  O   UNL A   1      30.305  29.058  23.985  1.00  0.00    -0.258 OA
ENDBRANCH  94  96
ENDBRANCH  87  90
ENDBRANCH  80  83
ENDBRANCH  78  79
ENDBRANCH  77  78
ENDBRANCH  76  77
ENDBRANCH   1  76
TORSDOF 18
ENDMDL
MODEL 3
REMARK VINA RESULT:     -11.7      6.928     12.375
REMARK SMILES O=C(NCCCCCCNC(=O)[C@@H]1CS[C@H](c2cccc([N+](=O)[O-])c2)[NH2+]1)c1ccc(-c2c3nc(c(-c4c(F)cc(S(=O)(=O)[O-])cc4F)c4ccc([nH]4)c(-c4c(F)cc(S(=O)(=O)[O-])cc4F)c4nc(c(-c5c(F)cc(S(=O)(=O)[O-])cc5F)c5ccc2[nH]5)C=C4)C=C3)cc1
REMARK SMILES IDX 6 1 5 2 4 3 3 4 1 5 2 6 27 8 28 9 92 10 29 11 91 12 30 13
REMARK SMILES IDX 31 14 32 15 85 16 33 17 90 18 84 19 86 20 34 21 89 22 83 23
REMARK SMILES IDX 82 24 35 26 69 27 48 28 68 29 49 30 52 31 67 32 87 33 50 34
REMARK SMILES IDX 51 35 66 37 88 38 53 39 36 40 37 41 46 42 38 43 39 44 45 45
REMARK SMILES IDX 47 46 40 47 41 48 42 49 43 50 44 51 70 52 71 53 80 54 72 55
REMARK SMILES IDX 73 56 79 57 81 58 74 59 75 60 76 61 77 62 78 63 54 64 55 65
REMARK SMILES IDX 64 66 56 67 57 68 63 69 65 70 58 71 59 72 60 73 61 74 62 75
REMARK SMILES IDX 7 76 8 77 9 78 10 79 11 80 12 82 13 83 14 84 26 85 15 86
REMARK SMILES IDX 16 87 17 90 18 91 25 92 19 93 21 94 20 95 22 96 23 97 24 98
REMARK H PARENT 3 7 86 25 52 36 10 81 26 88 26 89
REMARK Flexibility Score: inf
ROOT
ATOM      1  C   UNL A   1      33.362  28.202  27.043  1.00  0.00     0.002 C 
ENDROOT
BRANCH   1   2
ATOM      2  C   UNL A   1      33.993  29.587  27.193  1.00  0.00     0.021 C 
BRANCH   2   3
ATOM      3  C   UNL A   1      35.395  29.592  27.792  1.00  0.00     0.116 C 
BRANCH   3   4
ATOM      4  N   UNL A   1      35.412  30.053  29.169  1.00  0.00    -0.352 N 
ATOM      5  O   UNL A   1      36.273  30.285  31.247  1.00  0.00    -0.269 OA
ATOM      6  C   UNL A   1      36.456  30.021  30.069  1.00  0.00     0.251 C 
ATOM      7  H   UNL A   1      34.570  30.439  29.503  1.00  0.00     0.163 HD
BRANCH   6   8
ATOM      8  C   UNL A   1      37.800  29.638  29.583  1.00  0.00     0.039 A 
ATOM      9  C   UNL A   1      38.754  29.152  30.480  1.00  0.00     0.014 A 
ATOM     10  C   UNL A   1      38.118  29.799  28.232  1.00  0.00     0.014 A 
ATOM     11  C   UNL A   1      40.064  28.971  30.055  1.00  0.00     0.010 A 
ATOM     12  C   UNL A   1      39.416  29.522  27.788  1.00  0.00     0.010 A 
ATOM     13  C   UNL A   1      40.407  29.132  28.701  1.00  0.00    -0.014 A 
BRANCH  13  14
ATOM     14  C   UNL A   1      41.791  28.799  28.275  1.00  0.00     0.031 A 
ATOM     15  C   UNL A   1      42.890  29.826  28.276  1.00  0.00     0.074 A 
ATOM     16  C   UNL A   1      42.058  27.521  27.941  1.00  0.00     0.049 A 
ATOM     17  N   UNL A   1      44.158  29.669  27.994  1.00  0.00    -0.248 NA
ATOM     18  C   UNL A   1      42.523  31.207  28.627  1.00  0.00     0.031 C 
ATOM     19  C   UNL A   1      41.061  26.447  27.873  1.00  0.00     0.029 A 
ATOM     20  N   UNL A   1      43.236  26.897  27.628  1.00  0.00    -0.354 N 
ATOM     21  C   UNL A   1      44.742  30.924  28.125  1.00  0.00     0.074 A 
ATOM     22  C   UNL A   1      43.681  31.841  28.484  1.00  0.00     0.031 C 
ATOM     23  C   UNL A   1      41.678  25.289  27.601  1.00  0.00     0.029 A 
ATOM     24  C   UNL A   1      43.100  25.546  27.412  1.00  0.00     0.049 A 
ATOM     25  H   UNL A   1      44.098  27.370  27.563  1.00  0.00     0.167 HD
ATOM     26  C   UNL A   1      46.042  31.274  27.968  1.00  0.00     0.037 A 
ATOM     27  C   UNL A   1      44.014  24.614  27.088  1.00  0.00     0.037 A 
ATOM     28  C   UNL A   1      47.092  30.350  27.614  1.00  0.00     0.049 A 
ATOM     29  C   UNL A   1      45.448  25.026  26.938  1.00  0.00     0.074 A 
ATOM     30  C   UNL A   1      48.441  30.606  27.433  1.00  0.00     0.029 A 
ATOM     31  N   UNL A   1      46.915  28.991  27.393  1.00  0.00    -0.354 N 
ATOM     32  N   UNL A   1      45.979  26.218  27.077  1.00  0.00    -0.248 NA
ATOM     33  C   UNL A   1      46.407  23.973  26.586  1.00  0.00     0.031 C 
ATOM     34  C   UNL A   1      49.073  29.408  27.075  1.00  0.00     0.029 A 
ATOM     35  C   UNL A   1      48.126  28.398  27.072  1.00  0.00     0.049 A 
ATOM     36  H   UNL A   1      46.054  28.517  27.456  1.00  0.00     0.167 HD
ATOM     37  C   UNL A   1      47.335  26.058  26.826  1.00  0.00     0.074 A 
ATOM     38  C   UNL A   1      47.547  24.649  26.564  1.00  0.00     0.031 C 
ATOM     39  C   UNL A   1      48.315  26.995  26.801  1.00  0.00     0.037 A 
BRANCH  26  40
ATOM     40  C   UNL A   1      46.412  32.718  28.175  1.00  0.00     0.058 A 
ATOM     41  C   UNL A   1      46.875  33.186  29.416  1.00  0.00     0.135 A 
ATOM     42  C   UNL A   1      46.364  33.632  27.109  1.00  0.00     0.135 A 
ATOM     43  F   UNL A   1      46.928  32.359  30.473  1.00  0.00    -0.206 F 
ATOM     44  C   UNL A   1      47.264  34.510  29.596  1.00  0.00     0.059 A 
ATOM     45  C   UNL A   1      46.769  34.956  27.262  1.00  0.00     0.059 A 
ATOM     46  F   UNL A   1      45.930  33.238  25.902  1.00  0.00    -0.206 F 
ATOM     47  C   UNL A   1      47.207  35.389  28.512  1.00  0.00     0.060 A 
BRANCH  47  48
ATOM     48  S   UNL A   1      47.731  37.099  28.761  1.00  0.00     0.124 S 
ATOM     49  O   UNL A   1      48.816  36.933  29.723  1.00  0.00    -0.237 OA
ATOM     50  O   UNL A   1      48.132  37.501  27.417  1.00  0.00    -0.237 OA
ATOM     51  O   UNL A   1      46.531  37.751  29.275  1.00  0.00    -0.744 OA
ENDBRANCH  47  48
ENDBRANCH  26  40
BRANCH  27  52
ATOM     52  C   UNL A   1      43.586  23.208  26.871  1.00  0.00     0.058 A 
ATOM     53  C   UNL A   1      43.216  22.385  27.944  1.00  0.00     0.135 A 
ATOM     54  C   UNL A   1      43.511  22.671  25.577  1.00  0.00     0.135 A 
ATOM     55  F   UNL A   1      43.271  22.854  29.200  1.00  0.00    -0.206 F 
ATOM     56  C   UNL A   1      42.802  21.072  27.744  1.00  0.00     0.059 A 
ATOM     57  C   UNL A   1      43.072  21.372  25.348  1.00  0.00     0.059 A 
ATOM     58  F   UNL A   1      43.832  23.427  24.515  1.00  0.00    -0.206 F 
ATOM     59  C   UNL A   1      42.733  20.575  26.441  1.00  0.00     0.060 A 
BRANCH  59  60
ATOM     60  S   UNL A   1      42.147  18.888  26.180  1.00  0.00     0.124 S 
ATOM     61  O   UNL A   1      42.322  18.311  27.508  1.00  0.00    -0.237 OA
ATOM     62  O   UNL A   1      40.768  19.101  25.753  1.00  0.00    -0.237 OA
ATOM     63  O   UNL A   1      43.043  18.381  25.145  1.00  0.00    -0.744 OA
ENDBRANCH  59  60
ENDBRANCH  27  52
BRANCH  39  64
ATOM     64  C   UNL A   1      49.701  26.511  26.484  1.00  0.00     0.058 A 
ATOM     65  C   UNL A   1      50.184  26.492  25.166  1.00  0.00     0.135 A 
ATOM     66  C   UNL A   1      50.552  26.062  27.504  1.00  0.00     0.135 A 
ATOM     67  F   UNL A   1      49.404  26.905  24.154  1.00  0.00    -0.206 F 
ATOM     68  C   UNL A   1      51.452  26.007  24.866  1.00  0.00     0.059 A 
ATOM     69  C   UNL A   1      51.833  25.596  27.230  1.00  0.00     0.059 A 
ATOM     70  F   UNL A   1      50.140  26.070  28.782  1.00  0.00    -0.206 F 
ATOM     71  C   UNL A   1      52.267  25.554  25.905  1.00  0.00     0.060 A 
BRANCH  71  72
ATOM     72  S   UNL A   1      53.909  24.919  25.506  1.00  0.00     0.124 S 
ATOM     73  O   UNL A   1      53.607  23.543  25.128  1.00  0.00    -0.237 OA
ATOM     74  O   UNL A   1      54.331  25.797  24.420  1.00  0.00    -0.237 OA
ATOM     75  O   UNL A   1      54.646  25.083  26.756  1.00  0.00    -0.744 OA
ENDBRANCH  71  72
ENDBRANCH  39  64
ENDBRANCH  13  14
ENDBRANCH   6   8
ENDBRANCH   3   4
ENDBRANCH   2   3
ENDBRANCH   1   2
BRANCH   1  76
ATOM     76  C   UNL A   1      33.365  27.636  25.620  1.00  0.00     0.002 C 
BRANCH  76  77
ATOM     77  C   UNL A   1      33.675  28.658  24.521  1.00  0.00     0.021 C 
BRANCH  77  78
ATOM     78  C   UNL A   1      32.892  28.483  23.226  1.00  0.00     0.116 C 
BRANCH  78  79
ATOM     79  N   UNL A   1      33.391  27.371  22.439  1.00  0.00    -0.351 N 
ATOM     80  C   UNL A   1      32.904  26.172  22.045  1.00  0.00     0.279 C 
ATOM     81  H   UNL A   1      34.307  27.526  22.113  1.00  0.00     0.163 HD
ATOM     82  O   UNL A   1      33.700  25.487  21.383  1.00  0.00    -0.268 OA
BRANCH  80  83
ATOM     83  C   UNL A   1      31.506  25.585  22.344  1.00  0.00     0.283 C 
ATOM     84  C   UNL A   1      30.558  26.233  23.329  1.00  0.00     0.151 C 
ATOM     85  N   UNL A   1      31.569  24.116  22.591  1.00  0.00    -0.321 N 
ATOM     86  S   UNL A   1      30.668  25.232  24.827  1.00  0.00    -0.088 SA
ATOM     87  C   UNL A   1      31.560  23.859  24.034  1.00  0.00     0.274 C 
ATOM     88  H   UNL A   1      32.425  23.740  22.185  1.00  0.00     0.348 HD
ATOM     89  H   UNL A   1      30.760  23.666  22.163  1.00  0.00     0.348 HD
BRANCH  87  90
ATOM     90  C   UNL A   1      32.932  23.598  24.643  1.00  0.00     0.027 A 
ATOM     91  C   UNL A   1      33.153  23.860  26.012  1.00  0.00     0.011 A 
ATOM     92  C   UNL A   1      34.004  23.073  23.895  1.00  0.00     0.096 A 
ATOM     93  C   UNL A   1      34.410  23.680  26.599  1.00  0.00     0.008 A 
ATOM     94  C   UNL A   1      35.271  22.918  24.481  1.00  0.00     0.269 A 
ATOM     95  C   UNL A   1      35.478  23.222  25.832  1.00  0.00     0.085 A 
BRANCH  94  96
ATOM     96  N   UNL A   1      36.411  22.502  23.654  1.00  0.00     0.062 N 
ATOM     97  O   UNL A   1      37.064  21.517  24.027  1.00  0.00    -0.258 OA
ATOM     98  O   UNL A   1      36.665  23.166  22.639  1.00  0.00    -0.258 OA
ENDBRANCH  94  96
ENDBRANCH  87  90
ENDBRANCH  80  83
ENDBRANCH  78  79
ENDBRANCH  77  78
ENDBRANCH  76  77
ENDBRANCH   1  76
TORSDOF 18
ENDMDL
