MODEL 1
REMARK VINA RESULT:     -12.1      0.000      0.000
REMARK SMILES O=C(NCCCCCCNC(=O)[C@H]1CCCN(C(=O)C2CC[NH+](Cc3ccco3)CC2)C1)c1ccc(-c2c3nc(c(-c4c(F)cc(S(=O)(=O)[O-])cc4F)c4ccc([nH]4)c(-c4c(F)cc(S(=O)(=O)[O-])cc4F)c4nc(c(-c5c(F)cc(S(=O)(=O)[O-])cc5F)c5ccc2[nH]5)C=C4)C=C3)cc1
REMARK SMILES IDX 7 1 6 2 5 3 4 4 3 5 1 6 2 7 33 9 34 10 98 11 35 12 97 13
REMARK SMILES IDX 36 14 37 15 38 16 91 17 39 18 96 19 90 20 92 21 40 22 95 23
REMARK SMILES IDX 89 24 88 25 41 27 75 28 54 29 74 30 55 31 58 32 73 33 93 34
REMARK SMILES IDX 56 35 57 36 72 38 94 39 59 40 42 41 43 42 52 43 44 44 45 45
REMARK SMILES IDX 51 46 53 47 46 48 47 49 48 50 49 51 50 52 76 53 77 54 86 55
REMARK SMILES IDX 78 56 79 57 85 58 87 59 80 60 81 61 82 62 83 63 84 64 60 65
REMARK SMILES IDX 61 66 70 67 62 68 63 69 69 70 71 71 64 72 65 73 66 74 67 75
REMARK SMILES IDX 68 76 8 77 9 78 10 79 11 80 12 82 13 83 14 84 32 85 15 86
REMARK SMILES IDX 17 87 16 88 18 89 19 90 20 91 21 92 31 93 22 94 30 95 23 96
REMARK SMILES IDX 24 98 25 99 26 100 29 101 27 102 28 103
REMARK H PARENT 3 8 92 26 58 37 10 81 23 97
REMARK Flexibility Score: inf
ROOT
ATOM      1  C   UNL A   1      36.867  22.445  24.218  1.00  0.00     0.002 C 
ENDROOT
BRANCH   1   2
ATOM      2  C   UNL A   1      36.871  23.469  25.359  1.00  0.00     0.002 C 
BRANCH   2   3
ATOM      3  C   UNL A   1      38.063  23.350  26.313  1.00  0.00     0.021 C 
BRANCH   3   4
ATOM      4  C   UNL A   1      39.042  24.513  26.218  1.00  0.00     0.116 C 
BRANCH   4   5
ATOM      5  N   UNL A   1      40.412  24.041  26.126  1.00  0.00    -0.352 N 
ATOM      6  O   UNL A   1      42.650  24.216  26.304  1.00  0.00    -0.269 OA
ATOM      7  C   UNL A   1      41.544  24.580  26.680  1.00  0.00     0.251 C 
ATOM      8  H   UNL A   1      40.546  23.224  25.594  1.00  0.00     0.163 HD
BRANCH   7   9
ATOM      9  C   UNL A   1      41.401  25.610  27.725  1.00  0.00     0.039 A 
ATOM     10  C   UNL A   1      40.357  25.536  28.654  1.00  0.00     0.014 A 
ATOM     11  C   UNL A   1      42.328  26.651  27.776  1.00  0.00     0.014 A 
ATOM     12  C   UNL A   1      40.177  26.562  29.572  1.00  0.00     0.010 A 
ATOM     13  C   UNL A   1      42.190  27.639  28.748  1.00  0.00     0.010 A 
ATOM     14  C   UNL A   1      41.107  27.611  29.643  1.00  0.00    -0.014 A 
BRANCH  14  15
ATOM     15  C   UNL A   1      40.989  28.645  30.696  1.00  0.00     0.031 A 
ATOM     16  C   UNL A   1      41.825  28.567  31.938  1.00  0.00     0.074 A 
ATOM     17  C   UNL A   1      40.075  29.622  30.544  1.00  0.00     0.049 A 
ATOM     18  N   UNL A   1      41.769  29.305  33.016  1.00  0.00    -0.248 NA
ATOM     19  C   UNL A   1      42.851  27.514  31.980  1.00  0.00     0.031 C 
ATOM     20  C   UNL A   1      39.209  29.789  29.375  1.00  0.00     0.029 A 
ATOM     21  N   UNL A   1      39.705  30.642  31.383  1.00  0.00    -0.354 N 
ATOM     22  C   UNL A   1      42.730  28.791  33.878  1.00  0.00     0.074 A 
ATOM     23  C   UNL A   1      43.337  27.662  33.203  1.00  0.00     0.031 C 
ATOM     24  C   UNL A   1      38.406  30.844  29.572  1.00  0.00     0.029 A 
ATOM     25  C   UNL A   1      38.653  31.383  30.904  1.00  0.00     0.049 A 
ATOM     26  H   UNL A   1      40.149  30.824  32.242  1.00  0.00     0.167 HD
ATOM     27  C   UNL A   1      43.067  29.224  35.117  1.00  0.00     0.037 A 
ATOM     28  C   UNL A   1      37.930  32.358  31.488  1.00  0.00     0.037 A 
ATOM     29  C   UNL A   1      42.440  30.344  35.771  1.00  0.00     0.049 A 
ATOM     30  C   UNL A   1      38.289  32.796  32.877  1.00  0.00     0.074 A 
ATOM     31  C   UNL A   1      42.730  30.890  37.009  1.00  0.00     0.029 A 
ATOM     32  N   UNL A   1      41.384  31.080  35.249  1.00  0.00    -0.354 N 
ATOM     33  N   UNL A   1      39.224  32.328  33.669  1.00  0.00    -0.248 NA
ATOM     34  C   UNL A   1      37.502  33.893  33.456  1.00  0.00     0.031 C 
ATOM     35  C   UNL A   1      41.810  31.912  37.261  1.00  0.00     0.029 A 
ATOM     36  C   UNL A   1      40.991  32.054  36.151  1.00  0.00     0.049 A 
ATOM     37  H   UNL A   1      40.974  30.930  34.366  1.00  0.00     0.167 HD
ATOM     38  C   UNL A   1      39.162  33.092  34.827  1.00  0.00     0.074 A 
ATOM     39  C   UNL A   1      38.091  34.051  34.635  1.00  0.00     0.031 C 
ATOM     40  C   UNL A   1      39.930  33.013  35.941  1.00  0.00     0.037 A 
BRANCH  27  41
ATOM     41  C   UNL A   1      44.126  28.451  35.858  1.00  0.00     0.058 A 
ATOM     42  C   UNL A   1      43.809  27.386  36.717  1.00  0.00     0.135 A 
ATOM     43  C   UNL A   1      45.483  28.785  35.709  1.00  0.00     0.135 A 
ATOM     44  F   UNL A   1      42.530  27.026  36.905  1.00  0.00    -0.206 F 
ATOM     45  C   UNL A   1      44.791  26.720  37.445  1.00  0.00     0.059 A 
ATOM     46  C   UNL A   1      46.485  28.112  36.401  1.00  0.00     0.059 A 
ATOM     47  F   UNL A   1      45.847  29.789  34.896  1.00  0.00    -0.206 F 
ATOM     48  C   UNL A   1      46.126  27.098  37.288  1.00  0.00     0.060 A 
BRANCH  48  49
ATOM     49  S   UNL A   1      47.380  26.264  38.282  1.00  0.00     0.124 S 
ATOM     50  O   UNL A   1      46.765  24.955  38.485  1.00  0.00    -0.237 OA
ATOM     51  O   UNL A   1      48.543  26.286  37.400  1.00  0.00    -0.237 OA
ATOM     52  O   UNL A   1      47.484  27.100  39.473  1.00  0.00    -0.744 OA
ENDBRANCH  48  49
ENDBRANCH  27  41
BRANCH  28  53
ATOM     53  C   UNL A   1      36.796  32.958  30.740  1.00  0.00     0.058 A 
ATOM     54  C   UNL A   1      35.469  32.667  31.082  1.00  0.00     0.135 A 
ATOM     55  C   UNL A   1      37.021  33.909  29.730  1.00  0.00     0.135 A 
ATOM     56  F   UNL A   1      35.206  31.762  32.036  1.00  0.00    -0.206 F 
ATOM     57  C   UNL A   1      34.403  33.305  30.459  1.00  0.00     0.059 A 
ATOM     58  C   UNL A   1      35.972  34.580  29.112  1.00  0.00     0.059 A 
ATOM     59  F   UNL A   1      38.275  34.237  29.382  1.00  0.00    -0.206 F 
ATOM     60  C   UNL A   1      34.665  34.271  29.485  1.00  0.00     0.060 A 
BRANCH  60  61
ATOM     61  S   UNL A   1      33.273  35.165  28.758  1.00  0.00     0.124 S 
ATOM     62  O   UNL A   1      33.957  36.200  27.990  1.00  0.00    -0.237 OA
ATOM     63  O   UNL A   1      32.616  34.121  27.978  1.00  0.00    -0.237 OA
ATOM     64  O   UNL A   1      32.528  35.631  29.923  1.00  0.00    -0.744 OA
ENDBRANCH  60  61
ENDBRANCH  28  53
BRANCH  40  65
ATOM     65  C   UNL A   1      39.694  34.020  37.031  1.00  0.00     0.058 A 
ATOM     66  C   UNL A   1      38.956  33.711  38.184  1.00  0.00     0.135 A 
ATOM     67  C   UNL A   1      40.312  35.280  36.965  1.00  0.00     0.135 A 
ATOM     68  F   UNL A   1      38.334  32.527  38.291  1.00  0.00    -0.206 F 
ATOM     69  C   UNL A   1      38.846  34.614  39.237  1.00  0.00     0.059 A 
ATOM     70  C   UNL A   1      40.239  36.186  38.017  1.00  0.00     0.059 A 
ATOM     71  F   UNL A   1      41.032  35.623  35.885  1.00  0.00    -0.206 F 
ATOM     72  C   UNL A   1      39.504  35.844  39.150  1.00  0.00     0.060 A 
BRANCH  72  73
ATOM     73  S   UNL A   1      39.430  36.967  40.562  1.00  0.00     0.124 S 
ATOM     74  O   UNL A   1      38.895  38.178  39.948  1.00  0.00    -0.237 OA
ATOM     75  O   UNL A   1      38.529  36.265  41.470  1.00  0.00    -0.237 OA
ATOM     76  O   UNL A   1      40.819  37.050  41.004  1.00  0.00    -0.744 OA
ENDBRANCH  72  73
ENDBRANCH  40  65
ENDBRANCH  14  15
ENDBRANCH   7   9
ENDBRANCH   4   5
ENDBRANCH   3   4
ENDBRANCH   2   3
ENDBRANCH   1   2
BRANCH   1  77
ATOM     77  C   UNL A   1      36.424  21.046  24.638  1.00  0.00     0.021 C 
BRANCH  77  78
ATOM     78  C   UNL A   1      35.348  21.082  25.705  1.00  0.00     0.116 C 
BRANCH  78  79
ATOM     79  N   UNL A   1      34.285  20.142  25.384  1.00  0.00    -0.356 N 
ATOM     80  C   UNL A   1      32.974  20.428  25.103  1.00  0.00     0.224 C 
ATOM     81  H   UNL A   1      34.536  19.189  25.365  1.00  0.00     0.163 HD
ATOM     82  O   UNL A   1      32.154  19.521  24.998  1.00  0.00    -0.275 OA
BRANCH  80  83
ATOM     83  C   UNL A   1      32.661  21.877  24.818  1.00  0.00     0.098 C 
ATOM     84  C   UNL A   1      32.293  21.920  23.317  1.00  0.00     0.017 C 
ATOM     85  C   UNL A   1      31.557  22.474  25.726  1.00  0.00     0.133 C 
ATOM     86  C   UNL A   1      31.904  23.323  22.958  1.00  0.00     0.022 C 
ATOM     87  N   UNL A   1      31.033  23.735  25.156  1.00  0.00    -0.342 N 
ATOM     88  C   UNL A   1      30.673  23.601  23.780  1.00  0.00     0.119 C 
BRANCH  87  89
ATOM     89  C   UNL A   1      30.923  24.909  25.874  1.00  0.00     0.226 C 
ATOM     90  O   UNL A   1      29.884  25.149  26.503  1.00  0.00    -0.275 OA
BRANCH  89  91
ATOM     91  C   UNL A   1      32.070  25.976  25.919  1.00  0.00     0.090 C 
ATOM     92  C   UNL A   1      31.680  27.409  26.284  1.00  0.00     0.075 C 
ATOM     93  C   UNL A   1      33.139  25.969  24.823  1.00  0.00     0.075 C 
ATOM     94  C   UNL A   1      31.385  28.333  25.103  1.00  0.00     0.263 C 
ATOM     95  C   UNL A   1      32.992  26.997  23.684  1.00  0.00     0.263 C 
ATOM     96  N   UNL A   1      32.298  28.256  23.967  1.00  0.00    -0.329 N 
ATOM     97  H   UNL A   1      33.066  28.804  24.353  1.00  0.00     0.348 HD
BRANCH  96  98
ATOM     98  C   UNL A   1      31.822  28.955  22.740  1.00  0.00     0.338 C 
BRANCH  98  99
ATOM     99  C   UNL A   1      30.332  29.128  22.551  1.00  0.00     0.157 A 
ATOM    100  C   UNL A   1      29.210  28.547  23.123  1.00  0.00     0.052 A 
ATOM    101  O   UNL A   1      29.924  30.091  21.665  1.00  0.00    -0.463 OA
ATOM    102  C   UNL A   1      28.075  29.123  22.495  1.00  0.00     0.042 A 
ATOM    103  C   UNL A   1      28.563  30.076  21.635  1.00  0.00     0.195 A 
ENDBRANCH  98  99
ENDBRANCH  96  98
ENDBRANCH  89  91
ENDBRANCH  87  89
ENDBRANCH  80  83
ENDBRANCH  78  79
ENDBRANCH  77  78
ENDBRANCH   1  77
TORSDOF 20
ENDMDL
MODEL 2
REMARK VINA RESULT:     -11.8      6.311     11.972
REMARK SMILES O=C(NCCCCCCNC(=O)[C@H]1CCCN(C(=O)C2CC[NH+](Cc3ccco3)CC2)C1)c1ccc(-c2c3nc(c(-c4c(F)cc(S(=O)(=O)[O-])cc4F)c4ccc([nH]4)c(-c4c(F)cc(S(=O)(=O)[O-])cc4F)c4nc(c(-c5c(F)cc(S(=O)(=O)[O-])cc5F)c5ccc2[nH]5)C=C4)C=C3)cc1
REMARK SMILES IDX 7 1 6 2 5 3 4 4 3 5 1 6 2 7 33 9 34 10 98 11 35 12 97 13
REMARK SMILES IDX 36 14 37 15 38 16 91 17 39 18 96 19 90 20 92 21 40 22 95 23
REMARK SMILES IDX 89 24 88 25 41 27 75 28 54 29 74 30 55 31 58 32 73 33 93 34
REMARK SMILES IDX 56 35 57 36 72 38 94 39 59 40 42 41 43 42 52 43 44 44 45 45
REMARK SMILES IDX 51 46 53 47 46 48 47 49 48 50 49 51 50 52 76 53 77 54 86 55
REMARK SMILES IDX 78 56 79 57 85 58 87 59 80 60 81 61 82 62 83 63 84 64 60 65
REMARK SMILES IDX 61 66 70 67 62 68 63 69 69 70 71 71 64 72 65 73 66 74 67 75
REMARK SMILES IDX 68 76 8 77 9 78 10 79 11 80 12 82 13 83 14 84 32 85 15 86
REMARK SMILES IDX 17 87 16 88 18 89 19 90 20 91 21 92 31 93 22 94 30 95 23 96
REMARK SMILES IDX 24 98 25 99 26 100 29 101 27 102 28 103
REMARK H PARENT 3 8 92 26 58 37 10 81 23 97
REMARK Flexibility Score: inf
ROOT
ATOM      1  C   UNL A   1      32.650  28.900  26.872  1.00  0.00     0.002 C 
ENDROOT
BRANCH   1   2
ATOM      2  C   UNL A   1      33.812  29.725  26.309  1.00  0.00     0.002 C 
BRANCH   2   3
ATOM      3  C   UNL A   1      34.486  30.649  27.327  1.00  0.00     0.021 C 
BRANCH   3   4
ATOM      4  C   UNL A   1      35.428  29.927  28.281  1.00  0.00     0.116 C 
BRANCH   4   5
ATOM      5  N   UNL A   1      35.390  30.518  29.607  1.00  0.00    -0.352 N 
ATOM      6  O   UNL A   1      36.088  30.834  31.724  1.00  0.00    -0.269 OA
ATOM      7  C   UNL A   1      36.361  30.519  30.574  1.00  0.00     0.251 C 
ATOM      8  H   UNL A   1      34.553  30.979  29.843  1.00  0.00     0.163 HD
BRANCH   7   9
ATOM      9  C   UNL A   1      37.733  30.125  30.203  1.00  0.00     0.039 A 
ATOM     10  C   UNL A   1      38.580  29.534  31.147  1.00  0.00     0.014 A 
ATOM     11  C   UNL A   1      38.166  30.343  28.894  1.00  0.00     0.014 A 
ATOM     12  C   UNL A   1      39.898  29.255  30.811  1.00  0.00     0.010 A 
ATOM     13  C   UNL A   1      39.465  29.992  28.539  1.00  0.00     0.010 A 
ATOM     14  C   UNL A   1      40.346  29.460  29.498  1.00  0.00    -0.014 A 
BRANCH  14  15
ATOM     15  C   UNL A   1      41.714  29.055  29.102  1.00  0.00     0.031 A 
ATOM     16  C   UNL A   1      42.814  30.069  29.015  1.00  0.00     0.074 A 
ATOM     17  C   UNL A   1      41.936  27.771  28.764  1.00  0.00     0.049 A 
ATOM     18  N   UNL A   1      44.034  29.924  28.567  1.00  0.00    -0.248 NA
ATOM     19  C   UNL A   1      42.499  31.429  29.479  1.00  0.00     0.031 C 
ATOM     20  C   UNL A   1      40.935  26.702  28.812  1.00  0.00     0.029 A 
ATOM     21  N   UNL A   1      43.064  27.150  28.292  1.00  0.00    -0.354 N 
ATOM     22  C   UNL A   1      44.626  31.177  28.668  1.00  0.00     0.074 A 
ATOM     23  C   UNL A   1      43.621  32.074  29.198  1.00  0.00     0.031 C 
ATOM     24  C   UNL A   1      41.491  25.561  28.383  1.00  0.00     0.029 A 
ATOM     25  C   UNL A   1      42.862  25.831  27.967  1.00  0.00     0.049 A 
ATOM     26  H   UNL A   1      43.932  27.605  28.196  1.00  0.00     0.167 HD
ATOM     27  C   UNL A   1      45.892  31.538  28.345  1.00  0.00     0.037 A 
ATOM     28  C   UNL A   1      43.672  24.944  27.356  1.00  0.00     0.037 A 
ATOM     29  C   UNL A   1      46.872  30.627  27.809  1.00  0.00     0.049 A 
ATOM     30  C   UNL A   1      45.055  25.373  26.965  1.00  0.00     0.074 A 
ATOM     31  C   UNL A   1      48.192  30.880  27.482  1.00  0.00     0.029 A 
ATOM     32  N   UNL A   1      46.633  29.293  27.504  1.00  0.00    -0.354 N 
ATOM     33  N   UNL A   1      45.617  26.551  27.100  1.00  0.00    -0.248 NA
ATOM     34  C   UNL A   1      45.917  24.361  26.342  1.00  0.00     0.031 C 
ATOM     35  C   UNL A   1      48.732  29.718  26.921  1.00  0.00     0.029 A 
ATOM     36  C   UNL A   1      47.772  28.718  26.965  1.00  0.00     0.049 A 
ATOM     37  H   UNL A   1      45.779  28.825  27.649  1.00  0.00     0.167 HD
ATOM     38  C   UNL A   1      46.910  26.415  26.609  1.00  0.00     0.074 A 
ATOM     39  C   UNL A   1      47.045  25.040  26.169  1.00  0.00     0.031 C 
ATOM     40  C   UNL A   1      47.896  27.342  26.543  1.00  0.00     0.037 A 
BRANCH  27  41
ATOM     41  C   UNL A   1      46.265  32.986  28.516  1.00  0.00     0.058 A 
ATOM     42  C   UNL A   1      46.765  33.490  29.729  1.00  0.00     0.135 A 
ATOM     43  C   UNL A   1      46.118  33.889  27.449  1.00  0.00     0.135 A 
ATOM     44  F   UNL A   1      46.921  32.678  30.786  1.00  0.00    -0.206 F 
ATOM     45  C   UNL A   1      47.048  34.843  29.895  1.00  0.00     0.059 A 
ATOM     46  C   UNL A   1      46.426  35.239  27.582  1.00  0.00     0.059 A 
ATOM     47  F   UNL A   1      45.653  33.464  26.263  1.00  0.00    -0.206 F 
ATOM     48  C   UNL A   1      46.864  35.712  28.817  1.00  0.00     0.060 A 
BRANCH  48  49
ATOM     49  S   UNL A   1      47.180  37.471  29.066  1.00  0.00     0.124 S 
ATOM     50  O   UNL A   1      46.955  37.998  27.723  1.00  0.00    -0.237 OA
ATOM     51  O   UNL A   1      46.178  37.832  30.063  1.00  0.00    -0.237 OA
ATOM     52  O   UNL A   1      48.563  37.508  29.530  1.00  0.00    -0.744 OA
ENDBRANCH  48  49
ENDBRANCH  27  41
BRANCH  28  53
ATOM     53  C   UNL A   1      43.162  23.577  27.082  1.00  0.00     0.058 A 
ATOM     54  C   UNL A   1      42.784  23.192  25.789  1.00  0.00     0.135 A 
ATOM     55  C   UNL A   1      43.137  22.600  28.092  1.00  0.00     0.135 A 
ATOM     56  F   UNL A   1      42.788  24.091  24.794  1.00  0.00    -0.206 F 
ATOM     57  C   UNL A   1      42.408  21.884  25.502  1.00  0.00     0.059 A 
ATOM     58  C   UNL A   1      42.791  21.280  27.824  1.00  0.00     0.059 A 
ATOM     59  F   UNL A   1      43.511  22.915  29.342  1.00  0.00    -0.206 F 
ATOM     60  C   UNL A   1      42.429  20.932  26.524  1.00  0.00     0.060 A 
BRANCH  60  61
ATOM     61  S   UNL A   1      42.038  19.217  26.114  1.00  0.00     0.124 S 
ATOM     62  O   UNL A   1      42.409  18.529  27.346  1.00  0.00    -0.237 OA
ATOM     63  O   UNL A   1      40.608  19.291  25.829  1.00  0.00    -0.237 OA
ATOM     64  O   UNL A   1      42.888  18.945  24.958  1.00  0.00    -0.744 OA
ENDBRANCH  60  61
ENDBRANCH  28  53
BRANCH  40  65
ATOM     65  C   UNL A   1      49.239  26.904  26.026  1.00  0.00     0.058 A 
ATOM     66  C   UNL A   1      49.613  27.076  24.685  1.00  0.00     0.135 A 
ATOM     67  C   UNL A   1      50.202  26.406  26.919  1.00  0.00     0.135 A 
ATOM     68  F   UNL A   1      48.726  27.535  23.789  1.00  0.00    -0.206 F 
ATOM     69  C   UNL A   1      50.900  26.776  24.249  1.00  0.00     0.059 A 
ATOM     70  C   UNL A   1      51.502  26.127  26.510  1.00  0.00     0.059 A 
ATOM     71  F   UNL A   1      49.896  26.227  28.213  1.00  0.00    -0.206 F 
ATOM     72  C   UNL A   1      51.841  26.315  25.172  1.00  0.00     0.060 A 
BRANCH  72  73
ATOM     73  S   UNL A   1      53.532  26.019  24.611  1.00  0.00     0.124 S 
ATOM     74  O   UNL A   1      53.598  24.562  24.630  1.00  0.00    -0.237 OA
ATOM     75  O   UNL A   1      53.533  26.637  23.289  1.00  0.00    -0.237 OA
ATOM     76  O   UNL A   1      54.348  26.697  25.615  1.00  0.00    -0.744 OA
ENDBRANCH  72  73
ENDBRANCH  40  65
ENDBRANCH  14  15
ENDBRANCH   7   9
ENDBRANCH   4   5
ENDBRANCH   3   4
ENDBRANCH   2   3
ENDBRANCH   1   2
BRANCH   1  77
ATOM     77  C   UNL A   1      32.819  27.391  26.705  1.00  0.00     0.021 C 
BRANCH  77  78
ATOM     78  C   UNL A   1      31.509  26.700  26.383  1.00  0.00     0.116 C 
BRANCH  78  79
ATOM     79  N   UNL A   1      31.070  27.046  25.040  1.00  0.00    -0.356 N 
ATOM     80  C   UNL A   1      31.489  26.496  23.856  1.00  0.00     0.224 C 
ATOM     81  H   UNL A   1      30.393  27.758  24.973  1.00  0.00     0.163 HD
ATOM     82  O   UNL A   1      31.143  26.993  22.789  1.00  0.00    -0.275 OA
BRANCH  80  83
ATOM     83  C   UNL A   1      32.271  25.210  23.968  1.00  0.00     0.098 C 
ATOM     84  C   UNL A   1      31.421  24.157  23.219  1.00  0.00     0.017 C 
ATOM     85  C   UNL A   1      33.721  25.304  23.429  1.00  0.00     0.133 C 
ATOM     86  C   UNL A   1      32.158  22.852  23.224  1.00  0.00     0.022 C 
ATOM     87  N   UNL A   1      34.288  23.956  23.206  1.00  0.00    -0.342 N 
ATOM     88  C   UNL A   1      33.417  23.119  22.443  1.00  0.00     0.119 C 
BRANCH  87  89
ATOM     89  C   UNL A   1      35.513  23.553  23.698  1.00  0.00     0.226 C 
ATOM     90  O   UNL A   1      36.537  23.747  23.028  1.00  0.00    -0.275 OA
BRANCH  89  91
ATOM     91  C   UNL A   1      35.669  22.839  25.084  1.00  0.00     0.090 C 
ATOM     92  C   UNL A   1      36.232  21.418  25.081  1.00  0.00     0.075 C 
ATOM     93  C   UNL A   1      34.553  22.975  26.123  1.00  0.00     0.075 C 
ATOM     94  C   UNL A   1      35.194  20.296  25.048  1.00  0.00     0.263 C 
ATOM     95  C   UNL A   1      33.565  21.800  26.259  1.00  0.00     0.263 C 
ATOM     96  N   UNL A   1      34.033  20.454  25.918  1.00  0.00    -0.329 N 
ATOM     97  H   UNL A   1      34.467  20.183  26.800  1.00  0.00     0.348 HD
BRANCH  96  98
ATOM     98  C   UNL A   1      32.924  19.494  25.652  1.00  0.00     0.338 C 
BRANCH  98  99
ATOM     99  C   UNL A   1      33.189  18.341  24.711  1.00  0.00     0.157 A 
ATOM    100  C   UNL A   1      33.786  17.097  24.849  1.00  0.00     0.052 A 
ATOM    101  O   UNL A   1      32.721  18.463  23.428  1.00  0.00    -0.463 OA
ATOM    102  C   UNL A   1      33.754  16.474  23.574  1.00  0.00     0.042 A 
ATOM    103  C   UNL A   1      33.071  17.335  22.751  1.00  0.00     0.195 A 
ENDBRANCH  98  99
ENDBRANCH  96  98
ENDBRANCH  89  91
ENDBRANCH  87  89
ENDBRANCH  80  83
ENDBRANCH  78  79
ENDBRANCH  77  78
ENDBRANCH   1  77
TORSDOF 20
ENDMDL
MODEL 3
REMARK VINA RESULT:     -11.7      1.238      2.398
REMARK SMILES O=C(NCCCCCCNC(=O)[C@H]1CCCN(C(=O)C2CC[NH+](Cc3ccco3)CC2)C1)c1ccc(-c2c3nc(c(-c4c(F)cc(S(=O)(=O)[O-])cc4F)c4ccc([nH]4)c(-c4c(F)cc(S(=O)(=O)[O-])cc4F)c4nc(c(-c5c(F)cc(S(=O)(=O)[O-])cc5F)c5ccc2[nH]5)C=C4)C=C3)cc1
REMARK SMILES IDX 7 1 6 2 5 3 4 4 3 5 1 6 2 7 33 9 34 10 98 11 35 12 97 13
REMARK SMILES IDX 36 14 37 15 38 16 91 17 39 18 96 19 90 20 92 21 40 22 95 23
REMARK SMILES IDX 89 24 88 25 41 27 75 28 54 29 74 30 55 31 58 32 73 33 93 34
REMARK SMILES IDX 56 35 57 36 72 38 94 39 59 40 42 41 43 42 52 43 44 44 45 45
REMARK SMILES IDX 51 46 53 47 46 48 47 49 48 50 49 51 50 52 76 53 77 54 86 55
REMARK SMILES IDX 78 56 79 57 85 58 87 59 80 60 81 61 82 62 83 63 84 64 60 65
REMARK SMILES IDX 61 66 70 67 62 68 63 69 69 70 71 71 64 72 65 73 66 74 67 75
REMARK SMILES IDX 68 76 8 77 9 78 10 79 11 80 12 82 13 83 14 84 32 85 15 86
REMARK SMILES IDX 17 87 16 88 18 89 19 90 20 91 21 92 31 93 22 94 30 95 23 96
REMARK SMILES IDX 24 98 25 99 26 100 29 101 27 102 28 103
REMARK H PARENT 3 8 92 26 58 37 10 81 23 97
REMARK Flexibility Score: inf
ROOT
ATOM      1  C   UNL A   1      36.877  22.736  24.372  1.00  0.00     0.002 C 
ENDROOT
BRANCH   1   2
ATOM      2  C   UNL A   1      37.155  23.341  25.753  1.00  0.00     0.002 C 
BRANCH   2   3
ATOM      3  C   UNL A   1      38.584  23.131  26.261  1.00  0.00     0.021 C 
BRANCH   3   4
ATOM      4  C   UNL A   1      39.394  24.416  26.362  1.00  0.00     0.116 C 
BRANCH   4   5
ATOM      5  N   UNL A   1      40.804  24.171  26.117  1.00  0.00    -0.352 N 
ATOM      6  O   UNL A   1      42.990  24.705  26.055  1.00  0.00    -0.269 OA
ATOM      7  C   UNL A   1      41.888  24.888  26.552  1.00  0.00     0.251 C 
ATOM      8  H   UNL A   1      41.009  23.384  25.563  1.00  0.00     0.163 HD
BRANCH   7   9
ATOM      9  C   UNL A   1      41.696  25.886  27.620  1.00  0.00     0.039 A 
ATOM     10  C   UNL A   1      40.681  25.721  28.570  1.00  0.00     0.014 A 
ATOM     11  C   UNL A   1      42.546  26.991  27.671  1.00  0.00     0.014 A 
ATOM     12  C   UNL A   1      40.450  26.714  29.512  1.00  0.00     0.010 A 
ATOM     13  C   UNL A   1      42.360  27.949  28.664  1.00  0.00     0.010 A 
ATOM     14  C   UNL A   1      41.302  27.826  29.582  1.00  0.00    -0.014 A 
BRANCH  14  15
ATOM     15  C   UNL A   1      41.135  28.830  30.657  1.00  0.00     0.031 A 
ATOM     16  C   UNL A   1      41.969  28.762  31.901  1.00  0.00     0.074 A 
ATOM     17  C   UNL A   1      40.180  29.769  30.523  1.00  0.00     0.049 A 
ATOM     18  N   UNL A   1      41.876  29.472  32.996  1.00  0.00    -0.248 NA
ATOM     19  C   UNL A   1      43.040  27.754  31.925  1.00  0.00     0.031 C 
ATOM     20  C   UNL A   1      39.311  29.924  29.354  1.00  0.00     0.029 A 
ATOM     21  N   UNL A   1      39.762  30.753  31.382  1.00  0.00    -0.354 N 
ATOM     22  C   UNL A   1      42.856  28.982  33.850  1.00  0.00     0.074 A 
ATOM     23  C   UNL A   1      43.515  27.897  33.154  1.00  0.00     0.031 C 
ATOM     24  C   UNL A   1      38.462  30.938  29.570  1.00  0.00     0.029 A 
ATOM     25  C   UNL A   1      38.679  31.457  30.915  1.00  0.00     0.049 A 
ATOM     26  H   UNL A   1      40.194  30.935  32.248  1.00  0.00     0.167 HD
ATOM     27  C   UNL A   1      43.169  29.401  35.100  1.00  0.00     0.037 A 
ATOM     28  C   UNL A   1      37.911  32.386  31.517  1.00  0.00     0.037 A 
ATOM     29  C   UNL A   1      42.490  30.479  35.775  1.00  0.00     0.049 A 
ATOM     30  C   UNL A   1      38.245  32.808  32.918  1.00  0.00     0.074 A 
ATOM     31  C   UNL A   1      42.751  31.009  37.027  1.00  0.00     0.029 A 
ATOM     32  N   UNL A   1      41.404  31.178  35.265  1.00  0.00    -0.354 N 
ATOM     33  N   UNL A   1      39.198  32.365  33.703  1.00  0.00    -0.248 NA
ATOM     34  C   UNL A   1      37.409  33.856  33.516  1.00  0.00     0.031 C 
ATOM     35  C   UNL A   1      41.785  31.983  37.298  1.00  0.00     0.029 A 
ATOM     36  C   UNL A   1      40.965  32.114  36.187  1.00  0.00     0.049 A 
ATOM     37  H   UNL A   1      41.005  31.030  34.377  1.00  0.00     0.167 HD
ATOM     38  C   UNL A   1      39.097  33.099  34.877  1.00  0.00     0.074 A 
ATOM     39  C   UNL A   1      37.986  34.014  34.701  1.00  0.00     0.031 C 
ATOM     40  C   UNL A   1      39.864  33.029  35.993  1.00  0.00     0.037 A 
BRANCH  27  41
ATOM     41  C   UNL A   1      44.258  28.660  35.829  1.00  0.00     0.058 A 
ATOM     42  C   UNL A   1      45.615  28.991  35.680  1.00  0.00     0.135 A 
ATOM     43  C   UNL A   1      43.939  27.595  36.689  1.00  0.00     0.135 A 
ATOM     44  F   UNL A   1      45.982  29.994  34.866  1.00  0.00    -0.206 F 
ATOM     45  C   UNL A   1      46.617  28.259  36.310  1.00  0.00     0.059 A 
ATOM     46  C   UNL A   1      44.922  26.871  37.355  1.00  0.00     0.059 A 
ATOM     47  F   UNL A   1      42.659  27.238  36.877  1.00  0.00    -0.206 F 
ATOM     48  C   UNL A   1      46.260  27.193  37.137  1.00  0.00     0.060 A 
BRANCH  48  49
ATOM     49  S   UNL A   1      47.573  26.218  37.900  1.00  0.00     0.124 S 
ATOM     50  O   UNL A   1      47.547  26.720  39.271  1.00  0.00    -0.237 OA
ATOM     51  O   UNL A   1      47.094  24.851  37.719  1.00  0.00    -0.237 OA
ATOM     52  O   UNL A   1      48.757  26.572  37.125  1.00  0.00    -0.744 OA
ENDBRANCH  48  49
ENDBRANCH  27  41
BRANCH  28  53
ATOM     53  C   UNL A   1      36.756  32.952  30.777  1.00  0.00     0.058 A 
ATOM     54  C   UNL A   1      35.440  32.619  31.127  1.00  0.00     0.135 A 
ATOM     55  C   UNL A   1      36.944  33.911  29.768  1.00  0.00     0.135 A 
ATOM     56  F   UNL A   1      35.211  31.706  32.081  1.00  0.00    -0.206 F 
ATOM     57  C   UNL A   1      34.351  33.226  30.511  1.00  0.00     0.059 A 
ATOM     58  C   UNL A   1      35.871  34.551  29.157  1.00  0.00     0.059 A 
ATOM     59  F   UNL A   1      38.186  34.278  29.412  1.00  0.00    -0.206 F 
ATOM     60  C   UNL A   1      34.577  34.201  29.537  1.00  0.00     0.060 A 
BRANCH  60  61
ATOM     61  S   UNL A   1      33.154  35.052  28.821  1.00  0.00     0.124 S 
ATOM     62  O   UNL A   1      33.785  36.216  28.209  1.00  0.00    -0.237 OA
ATOM     63  O   UNL A   1      32.633  34.049  27.897  1.00  0.00    -0.237 OA
ATOM     64  O   UNL A   1      32.308  35.327  29.979  1.00  0.00    -0.744 OA
ENDBRANCH  60  61
ENDBRANCH  28  53
BRANCH  40  65
ATOM     65  C   UNL A   1      39.579  34.000  37.104  1.00  0.00     0.058 A 
ATOM     66  C   UNL A   1      38.839  33.637  38.240  1.00  0.00     0.135 A 
ATOM     67  C   UNL A   1      40.154  35.282  37.076  1.00  0.00     0.135 A 
ATOM     68  F   UNL A   1      38.258  32.430  38.309  1.00  0.00    -0.206 F 
ATOM     69  C   UNL A   1      38.685  34.510  39.312  1.00  0.00     0.059 A 
ATOM     70  C   UNL A   1      40.036  36.159  38.149  1.00  0.00     0.059 A 
ATOM     71  F   UNL A   1      40.874  35.677  36.015  1.00  0.00    -0.206 F 
ATOM     72  C   UNL A   1      39.299  35.763  39.264  1.00  0.00     0.060 A 
BRANCH  72  73
ATOM     73  S   UNL A   1      39.169  36.849  40.701  1.00  0.00     0.124 S 
ATOM     74  O   UNL A   1      40.572  37.132  40.984  1.00  0.00    -0.237 OA
ATOM     75  O   UNL A   1      38.390  37.965  40.177  1.00  0.00    -0.237 OA
ATOM     76  O   UNL A   1      38.484  36.023  41.691  1.00  0.00    -0.744 OA
ENDBRANCH  72  73
ENDBRANCH  40  65
ENDBRANCH  14  15
ENDBRANCH   7   9
ENDBRANCH   4   5
ENDBRANCH   3   4
ENDBRANCH   2   3
ENDBRANCH   1   2
BRANCH   1  77
ATOM     77  C   UNL A   1      35.861  21.596  24.384  1.00  0.00     0.021 C 
BRANCH  77  78
ATOM     78  C   UNL A   1      34.950  21.654  25.594  1.00  0.00     0.116 C 
BRANCH  78  79
ATOM     79  N   UNL A   1      33.652  21.077  25.277  1.00  0.00    -0.356 N 
ATOM     80  C   UNL A   1      32.457  21.734  25.136  1.00  0.00     0.224 C 
ATOM     81  H   UNL A   1      33.629  20.100  25.148  1.00  0.00     0.163 HD
ATOM     82  O   UNL A   1      31.414  21.098  25.017  1.00  0.00    -0.275 OA
BRANCH  80  83
ATOM     83  C   UNL A   1      32.541  23.236  25.017  1.00  0.00     0.098 C 
ATOM     84  C   UNL A   1      33.317  23.695  26.273  1.00  0.00     0.017 C 
ATOM     85  C   UNL A   1      33.188  23.728  23.698  1.00  0.00     0.133 C 
ATOM     86  C   UNL A   1      33.505  25.182  26.205  1.00  0.00     0.022 C 
ATOM     87  N   UNL A   1      33.592  25.147  23.807  1.00  0.00    -0.342 N 
ATOM     88  C   UNL A   1      34.359  25.404  24.985  1.00  0.00     0.119 C 
BRANCH  87  89
ATOM     89  C   UNL A   1      33.248  26.112  22.882  1.00  0.00     0.226 C 
ATOM     90  O   UNL A   1      33.999  26.337  21.923  1.00  0.00    -0.275 OA
BRANCH  89  91
ATOM     91  C   UNL A   1      31.935  26.959  22.999  1.00  0.00     0.090 C 
ATOM     92  C   UNL A   1      32.062  28.475  22.850  1.00  0.00     0.075 C 
ATOM     93  C   UNL A   1      30.914  26.607  24.085  1.00  0.00     0.075 C 
ATOM     94  C   UNL A   1      32.228  29.254  24.154  1.00  0.00     0.263 C 
ATOM     95  C   UNL A   1      30.916  27.467  25.364  1.00  0.00     0.263 C 
ATOM     96  N   UNL A   1      31.375  28.855  25.269  1.00  0.00    -0.329 N 
ATOM     97  H   UNL A   1      30.513  29.312  24.970  1.00  0.00     0.348 HD
BRANCH  96  98
ATOM     98  C   UNL A   1      31.759  29.440  26.585  1.00  0.00     0.338 C 
BRANCH  98  99
ATOM     99  C   UNL A   1      33.231  29.546  26.916  1.00  0.00     0.157 A 
ATOM    100  C   UNL A   1      34.317  28.696  26.775  1.00  0.00     0.052 A 
ATOM    101  O   UNL A   1      33.670  30.738  27.430  1.00  0.00    -0.463 OA
ATOM    102  C   UNL A   1      35.447  29.371  27.305  1.00  0.00     0.042 A 
ATOM    103  C   UNL A   1      35.005  30.620  27.665  1.00  0.00     0.195 A 
ENDBRANCH  98  99
ENDBRANCH  96  98
ENDBRANCH  89  91
ENDBRANCH  87  89
ENDBRANCH  80  83
ENDBRANCH  78  79
ENDBRANCH  77  78
ENDBRANCH   1  77
TORSDOF 20
ENDMDL
