MODEL 1
REMARK VINA RESULT:      -9.5      0.000      0.000
REMARK SMILES CCCN(C(=O)NCC(=O)NCCCCCCNC(=O)c1ccc(-c2c3nc(c(-c4c(F)cc(S(=O)(=O)[O-])cc4F)c4ccc([nH]4)c(-c4c(F)cc(S(=O)(=O)[O-])cc4F)c4nc(c(-c5c(F)cc(S(=O)(=O)[O-])cc5F)c5ccc2[nH]5)C=C4)C=C3)cc1)C(C)C
REMARK SMILES IDX 14 1 13 2 12 3 11 4 9 5 10 6 8 8 7 9 5 10 6 11 4 13 3 14
REMARK SMILES IDX 2 15 1 16 87 17 88 18 89 19 15 20 16 21 17 22 18 23 19 24
REMARK SMILES IDX 20 26 21 27 22 28 86 29 23 30 85 31 24 32 25 33 26 34 79 35
REMARK SMILES IDX 27 36 84 37 78 38 80 39 28 40 83 41 77 42 76 43 29 45 63 46
REMARK SMILES IDX 42 47 62 48 43 49 46 50 61 51 81 52 44 53 45 54 60 56 82 57
REMARK SMILES IDX 47 58 30 59 31 60 40 61 32 62 33 63 39 64 41 65 34 66 35 67
REMARK SMILES IDX 36 68 37 69 38 70 64 71 65 72 74 73 66 74 67 75 73 76 75 77
REMARK SMILES IDX 68 78 69 79 70 80 71 81 72 82 48 83 49 84 58 85 50 86 51 87
REMARK SMILES IDX 57 88 59 89 52 90 53 91 54 92 55 93 56 94
REMARK H PARENT 11 7 7 12 18 25 80 44 46 55
REMARK Flexibility Score: inf
ROOT
ATOM      1  C   UNL A   1      33.918  21.732  23.635  1.00  0.00     0.002 C 
ENDROOT
BRANCH   1   2
ATOM      2  C   UNL A   1      32.726  21.304  24.493  1.00  0.00     0.021 C 
BRANCH   2   3
ATOM      3  C   UNL A   1      32.883  21.629  25.972  1.00  0.00     0.116 C 
BRANCH   3   4
ATOM      4  N   UNL A   1      31.653  22.096  26.571  1.00  0.00    -0.355 N 
ATOM      5  C   UNL A   1      31.200  23.347  26.848  1.00  0.00     0.239 C 
ATOM      6  O   UNL A   1      30.042  23.424  27.278  1.00  0.00    -0.273 OA
ATOM      7  H   UNL A   1      31.030  21.377  26.825  1.00  0.00     0.163 HD
BRANCH   5   8
ATOM      8  C   UNL A   1      31.957  24.643  26.495  1.00  0.00     0.217 C 
BRANCH   8   9
ATOM      9  N   UNL A   1      31.549  25.912  27.067  1.00  0.00    -0.329 N 
ATOM     10  C   UNL A   1      31.450  27.200  26.705  1.00  0.00     0.318 C 
ATOM     11  O   UNL A   1      30.938  27.914  27.575  1.00  0.00    -0.249 OA
ATOM     12  H   UNL A   1      31.259  25.792  28.000  1.00  0.00     0.165 HD
BRANCH  10  13
ATOM     13  N   UNL A   1      31.939  27.714  25.524  1.00  0.00    -0.322 N 
BRANCH  13  14
ATOM     14  C   UNL A   1      33.299  28.220  25.276  1.00  0.00     0.121 C 
BRANCH  14  15
ATOM     15  C   UNL A   1      33.716  29.434  26.110  1.00  0.00     0.018 C 
ATOM     16  C   UNL A   1      34.609  29.088  27.293  1.00  0.00     0.006 C 
ENDBRANCH  14  15
ENDBRANCH  13  14
BRANCH  13  17
ATOM     17  C   UNL A   1      30.940  27.808  24.419  1.00  0.00     0.080 C 
ATOM     18  C   UNL A   1      30.678  29.237  23.931  1.00  0.00     0.031 C 
ATOM     19  C   UNL A   1      31.245  26.868  23.258  1.00  0.00     0.031 C 
ENDBRANCH  13  17
ENDBRANCH  10  13
ENDBRANCH   8   9
ENDBRANCH   5   8
ENDBRANCH   3   4
ENDBRANCH   2   3
ENDBRANCH   1   2
BRANCH   1  20
ATOM     20  C   UNL A   1      35.233  21.927  24.402  1.00  0.00     0.002 C 
BRANCH  20  21
ATOM     21  C   UNL A   1      35.957  23.249  24.131  1.00  0.00     0.021 C 
BRANCH  21  22
ATOM     22  C   UNL A   1      36.852  23.728  25.270  1.00  0.00     0.116 C 
BRANCH  22  23
ATOM     23  N   UNL A   1      37.948  22.803  25.529  1.00  0.00    -0.352 N 
ATOM     24  C   UNL A   1      39.162  23.038  26.121  1.00  0.00     0.251 C 
ATOM     25  H   UNL A   1      37.793  21.876  25.236  1.00  0.00     0.163 HD
ATOM     26  O   UNL A   1      40.047  22.186  26.069  1.00  0.00    -0.269 OA
BRANCH  24  27
ATOM     27  C   UNL A   1      39.412  24.327  26.800  1.00  0.00     0.039 A 
ATOM     28  C   UNL A   1      38.933  24.515  28.098  1.00  0.00     0.014 A 
ATOM     29  C   UNL A   1      40.131  25.340  26.160  1.00  0.00     0.014 A 
ATOM     30  C   UNL A   1      39.247  25.690  28.785  1.00  0.00     0.010 A 
ATOM     31  C   UNL A   1      40.499  26.480  26.869  1.00  0.00     0.010 A 
ATOM     32  C   UNL A   1      40.072  26.661  28.193  1.00  0.00    -0.014 A 
BRANCH  32  33
ATOM     33  C   UNL A   1      40.527  27.857  28.948  1.00  0.00     0.031 A 
ATOM     34  C   UNL A   1      41.865  27.852  29.636  1.00  0.00     0.074 A 
ATOM     35  C   UNL A   1      39.701  28.915  29.076  1.00  0.00     0.049 A 
ATOM     36  N   UNL A   1      42.379  28.742  30.445  1.00  0.00    -0.248 NA
ATOM     37  C   UNL A   1      42.730  26.686  29.398  1.00  0.00     0.031 C 
ATOM     38  C   UNL A   1      38.367  29.026  28.481  1.00  0.00     0.029 A 
ATOM     39  N   UNL A   1      39.852  30.094  29.765  1.00  0.00    -0.354 N 
ATOM     40  C   UNL A   1      43.626  28.248  30.808  1.00  0.00     0.074 A 
ATOM     41  C   UNL A   1      43.768  26.953  30.179  1.00  0.00     0.031 C 
ATOM     42  C   UNL A   1      37.825  30.205  28.825  1.00  0.00     0.029 A 
ATOM     43  C   UNL A   1      38.748  30.915  29.705  1.00  0.00     0.049 A 
ATOM     44  H   UNL A   1      40.672  30.330  30.256  1.00  0.00     0.167 HD
ATOM     45  C   UNL A   1      44.577  28.834  31.574  1.00  0.00     0.037 A 
ATOM     46  C   UNL A   1      38.497  32.091  30.313  1.00  0.00     0.037 A 
ATOM     47  C   UNL A   1      44.433  30.126  32.194  1.00  0.00     0.049 A 
ATOM     48  C   UNL A   1      39.550  32.691  31.209  1.00  0.00     0.074 A 
ATOM     49  C   UNL A   1      45.346  30.811  32.977  1.00  0.00     0.029 A 
ATOM     50  N   UNL A   1      43.306  30.930  32.102  1.00  0.00    -0.354 N 
ATOM     51  N   UNL A   1      40.741  32.229  31.506  1.00  0.00    -0.248 NA
ATOM     52  C   UNL A   1      39.226  33.971  31.852  1.00  0.00     0.031 C 
ATOM     53  C   UNL A   1      44.757  32.008  33.392  1.00  0.00     0.029 A 
ATOM     54  C   UNL A   1      43.496  32.095  32.827  1.00  0.00     0.049 A 
ATOM     55  H   UNL A   1      42.492  30.705  31.596  1.00  0.00     0.167 HD
ATOM     56  C   UNL A   1      41.318  33.176  32.345  1.00  0.00     0.074 A 
ATOM     57  C   UNL A   1      40.354  34.247  32.491  1.00  0.00     0.031 C 
ATOM     58  C   UNL A   1      42.533  33.161  32.946  1.00  0.00     0.037 A 
BRANCH  45  59
ATOM     59  C   UNL A   1      45.875  28.098  31.771  1.00  0.00     0.058 A 
ATOM     60  C   UNL A   1      46.981  28.337  30.939  1.00  0.00     0.135 A 
ATOM     61  C   UNL A   1      46.043  27.207  32.843  1.00  0.00     0.135 A 
ATOM     62  F   UNL A   1      46.870  29.167  29.888  1.00  0.00    -0.206 F 
ATOM     63  C   UNL A   1      48.204  27.713  31.157  1.00  0.00     0.059 A 
ATOM     64  C   UNL A   1      47.267  26.592  33.097  1.00  0.00     0.059 A 
ATOM     65  F   UNL A   1      45.018  26.939  33.667  1.00  0.00    -0.206 F 
ATOM     66  C   UNL A   1      48.340  26.848  32.244  1.00  0.00     0.060 A 
BRANCH  66  67
ATOM     67  S   UNL A   1      49.948  26.082  32.534  1.00  0.00     0.124 S 
ATOM     68  O   UNL A   1      50.513  26.963  33.551  1.00  0.00    -0.237 OA
ATOM     69  O   UNL A   1      49.576  24.747  32.989  1.00  0.00    -0.237 OA
ATOM     70  O   UNL A   1      50.594  26.139  31.226  1.00  0.00    -0.744 OA
ENDBRANCH  66  67
ENDBRANCH  45  59
BRANCH  46  71
ATOM     71  C   UNL A   1      37.187  32.777  30.125  1.00  0.00     0.058 A 
ATOM     72  C   UNL A   1      36.978  33.660  29.055  1.00  0.00     0.135 A 
ATOM     73  C   UNL A   1      36.135  32.599  31.037  1.00  0.00     0.135 A 
ATOM     74  F   UNL A   1      37.954  33.868  28.157  1.00  0.00    -0.206 F 
ATOM     75  C   UNL A   1      35.794  34.378  28.921  1.00  0.00     0.059 A 
ATOM     76  C   UNL A   1      34.929  33.279  30.906  1.00  0.00     0.059 A 
ATOM     77  F   UNL A   1      36.272  31.750  32.068  1.00  0.00    -0.206 F 
ATOM     78  C   UNL A   1      34.777  34.185  29.858  1.00  0.00     0.060 A 
BRANCH  78  79
ATOM     79  S   UNL A   1      33.246  35.127  29.684  1.00  0.00     0.124 S 
ATOM     80  O   UNL A   1      32.609  34.443  28.563  1.00  0.00    -0.237 OA
ATOM     81  O   UNL A   1      32.619  34.939  30.988  1.00  0.00    -0.237 OA
ATOM     82  O   UNL A   1      33.718  36.482  29.411  1.00  0.00    -0.744 OA
ENDBRANCH  78  79
ENDBRANCH  46  71
BRANCH  58  83
ATOM     83  C   UNL A   1      42.907  34.353  33.785  1.00  0.00     0.058 A 
ATOM     84  C   UNL A   1      42.731  34.361  35.177  1.00  0.00     0.135 A 
ATOM     85  C   UNL A   1      43.498  35.481  33.193  1.00  0.00     0.135 A 
ATOM     86  F   UNL A   1      42.163  33.311  35.793  1.00  0.00    -0.206 F 
ATOM     87  C   UNL A   1      43.106  35.454  35.951  1.00  0.00     0.059 A 
ATOM     88  C   UNL A   1      43.910  36.574  33.951  1.00  0.00     0.059 A 
ATOM     89  F   UNL A   1      43.699  35.522  31.867  1.00  0.00    -0.206 F 
ATOM     90  C   UNL A   1      43.699  36.555  35.328  1.00  0.00     0.060 A 
BRANCH  90  91
ATOM     91  S   UNL A   1      44.216  37.949  36.351  1.00  0.00     0.124 S 
ATOM     92  O   UNL A   1      45.621  37.636  36.590  1.00  0.00    -0.237 OA
ATOM     93  O   UNL A   1      43.961  39.088  35.474  1.00  0.00    -0.237 OA
ATOM     94  O   UNL A   1      43.345  37.858  37.518  1.00  0.00    -0.744 OA
ENDBRANCH  90  91
ENDBRANCH  58  83
ENDBRANCH  32  33
ENDBRANCH  24  27
ENDBRANCH  22  23
ENDBRANCH  21  22
ENDBRANCH  20  21
ENDBRANCH   1  20
TORSDOF 21
ENDMDL
MODEL 2
REMARK VINA RESULT:      -9.4      2.830      9.087
REMARK SMILES CCCN(C(=O)NCC(=O)NCCCCCCNC(=O)c1ccc(-c2c3nc(c(-c4c(F)cc(S(=O)(=O)[O-])cc4F)c4ccc([nH]4)c(-c4c(F)cc(S(=O)(=O)[O-])cc4F)c4nc(c(-c5c(F)cc(S(=O)(=O)[O-])cc5F)c5ccc2[nH]5)C=C4)C=C3)cc1)C(C)C
REMARK SMILES IDX 14 1 13 2 12 3 11 4 9 5 10 6 8 8 7 9 5 10 6 11 4 13 3 14
REMARK SMILES IDX 2 15 1 16 87 17 88 18 89 19 15 20 16 21 17 22 18 23 19 24
REMARK SMILES IDX 20 26 21 27 22 28 86 29 23 30 85 31 24 32 25 33 26 34 79 35
REMARK SMILES IDX 27 36 84 37 78 38 80 39 28 40 83 41 77 42 76 43 29 45 63 46
REMARK SMILES IDX 42 47 62 48 43 49 46 50 61 51 81 52 44 53 45 54 60 56 82 57
REMARK SMILES IDX 47 58 30 59 31 60 40 61 32 62 33 63 39 64 41 65 34 66 35 67
REMARK SMILES IDX 36 68 37 69 38 70 64 71 65 72 74 73 66 74 67 75 73 76 75 77
REMARK SMILES IDX 68 78 69 79 70 80 71 81 72 82 48 83 49 84 58 85 50 86 51 87
REMARK SMILES IDX 57 88 59 89 52 90 53 91 54 92 55 93 56 94
REMARK H PARENT 11 7 7 12 18 25 80 44 46 55
REMARK Flexibility Score: inf
ROOT
ATOM      1  C   UNL A   1      34.384  25.400  25.186  1.00  0.00     0.002 C 
ENDROOT
BRANCH   1   2
ATOM      2  C   UNL A   1      34.152  23.996  25.747  1.00  0.00     0.021 C 
BRANCH   2   3
ATOM      3  C   UNL A   1      32.918  23.305  25.186  1.00  0.00     0.116 C 
BRANCH   3   4
ATOM      4  N   UNL A   1      31.816  23.291  26.123  1.00  0.00    -0.355 N 
ATOM      5  C   UNL A   1      30.867  24.219  26.414  1.00  0.00     0.239 C 
ATOM      6  O   UNL A   1      29.985  23.864  27.206  1.00  0.00    -0.273 OA
ATOM      7  H   UNL A   1      31.740  22.460  26.644  1.00  0.00     0.163 HD
BRANCH   5   8
ATOM      8  C   UNL A   1      30.730  25.577  25.698  1.00  0.00     0.217 C 
BRANCH   8   9
ATOM      9  N   UNL A   1      29.489  25.940  25.040  1.00  0.00    -0.329 N 
ATOM     10  C   UNL A   1      29.078  26.608  23.952  1.00  0.00     0.318 C 
ATOM     11  O   UNL A   1      27.855  26.557  23.780  1.00  0.00    -0.249 OA
ATOM     12  H   UNL A   1      28.717  25.592  25.543  1.00  0.00     0.165 HD
BRANCH  10  13
ATOM     13  N   UNL A   1      29.906  27.356  23.142  1.00  0.00    -0.322 N 
BRANCH  13  14
ATOM     14  C   UNL A   1      30.865  26.848  22.149  1.00  0.00     0.121 C 
BRANCH  14  15
ATOM     15  C   UNL A   1      32.224  26.413  22.704  1.00  0.00     0.018 C 
ATOM     16  C   UNL A   1      33.407  27.107  22.045  1.00  0.00     0.006 C 
ENDBRANCH  14  15
ENDBRANCH  13  14
BRANCH  13  17
ATOM     17  C   UNL A   1      29.838  28.830  23.367  1.00  0.00     0.080 C 
ATOM     18  C   UNL A   1      30.798  29.344  24.445  1.00  0.00     0.031 C 
ATOM     19  C   UNL A   1      29.961  29.636  22.079  1.00  0.00     0.031 C 
ENDBRANCH  13  17
ENDBRANCH  10  13
ENDBRANCH   8   9
ENDBRANCH   5   8
ENDBRANCH   3   4
ENDBRANCH   2   3
ENDBRANCH   1   2
BRANCH   1  20
ATOM     20  C   UNL A   1      34.593  26.494  26.241  1.00  0.00     0.002 C 
BRANCH  20  21
ATOM     21  C   UNL A   1      33.682  27.717  26.103  1.00  0.00     0.021 C 
BRANCH  21  22
ATOM     22  C   UNL A   1      33.195  28.299  27.427  1.00  0.00     0.116 C 
BRANCH  22  23
ATOM     23  N   UNL A   1      33.220  29.755  27.425  1.00  0.00    -0.352 N 
ATOM     24  C   UNL A   1      34.220  30.608  27.815  1.00  0.00     0.251 C 
ATOM     25  H   UNL A   1      32.399  30.189  27.098  1.00  0.00     0.163 HD
ATOM     26  O   UNL A   1      33.991  31.810  27.941  1.00  0.00    -0.269 OA
BRANCH  24  27
ATOM     27  C   UNL A   1      35.568  30.076  28.107  1.00  0.00     0.039 A 
ATOM     28  C   UNL A   1      36.524  30.050  27.089  1.00  0.00     0.014 A 
ATOM     29  C   UNL A   1      35.890  29.617  29.388  1.00  0.00     0.014 A 
ATOM     30  C   UNL A   1      37.828  29.641  27.377  1.00  0.00     0.010 A 
ATOM     31  C   UNL A   1      37.205  29.275  29.687  1.00  0.00     0.010 A 
ATOM     32  C   UNL A   1      38.191  29.295  28.689  1.00  0.00    -0.014 A 
BRANCH  32  33
ATOM     33  C   UNL A   1      39.599  28.983  29.048  1.00  0.00     0.031 A 
ATOM     34  C   UNL A   1      40.479  30.045  29.648  1.00  0.00     0.074 A 
ATOM     35  C   UNL A   1      40.102  27.765  28.762  1.00  0.00     0.049 A 
ATOM     36  N   UNL A   1      41.760  30.005  29.907  1.00  0.00    -0.248 NA
ATOM     37  C   UNL A   1      39.838  31.326  29.986  1.00  0.00     0.031 C 
ATOM     38  C   UNL A   1      39.356  26.662  28.151  1.00  0.00     0.029 A 
ATOM     39  N   UNL A   1      41.367  27.256  28.926  1.00  0.00    -0.354 N 
ATOM     40  C   UNL A   1      42.078  31.248  30.440  1.00  0.00     0.074 A 
ATOM     41  C   UNL A   1      40.869  32.042  30.414  1.00  0.00     0.031 C 
ATOM     42  C   UNL A   1      40.173  25.607  27.998  1.00  0.00     0.029 A 
ATOM     43  C   UNL A   1      41.511  25.971  28.451  1.00  0.00     0.049 A 
ATOM     44  H   UNL A   1      42.101  27.760  29.344  1.00  0.00     0.167 HD
ATOM     45  C   UNL A   1      43.265  31.679  30.931  1.00  0.00     0.037 A 
ATOM     46  C   UNL A   1      42.604  25.187  28.363  1.00  0.00     0.037 A 
ATOM     47  C   UNL A   1      44.465  30.883  30.959  1.00  0.00     0.049 A 
ATOM     48  C   UNL A   1      43.924  25.715  28.862  1.00  0.00     0.074 A 
ATOM     49  C   UNL A   1      45.713  31.225  31.450  1.00  0.00     0.029 A 
ATOM     50  N   UNL A   1      44.568  29.586  30.478  1.00  0.00    -0.354 N 
ATOM     51  N   UNL A   1      44.197  26.879  29.403  1.00  0.00    -0.248 NA
ATOM     52  C   UNL A   1      45.086  24.824  28.740  1.00  0.00     0.031 C 
ATOM     53  C   UNL A   1      46.581  30.153  31.228  1.00  0.00     0.029 A 
ATOM     54  C   UNL A   1      45.863  29.121  30.646  1.00  0.00     0.049 A 
ATOM     55  H   UNL A   1      43.832  29.072  30.077  1.00  0.00     0.167 HD
ATOM     56  C   UNL A   1      45.553  26.847  29.712  1.00  0.00     0.074 A 
ATOM     57  C   UNL A   1      46.040  25.541  29.318  1.00  0.00     0.031 C 
ATOM     58  C   UNL A   1      46.327  27.811  30.266  1.00  0.00     0.037 A 
BRANCH  45  59
ATOM     59  C   UNL A   1      43.327  33.069  31.504  1.00  0.00     0.058 A 
ATOM     60  C   UNL A   1      43.005  33.317  32.848  1.00  0.00     0.135 A 
ATOM     61  C   UNL A   1      43.786  34.148  30.732  1.00  0.00     0.135 A 
ATOM     62  F   UNL A   1      42.543  32.324  33.628  1.00  0.00    -0.206 F 
ATOM     63  C   UNL A   1      43.126  34.586  33.403  1.00  0.00     0.059 A 
ATOM     64  C   UNL A   1      43.941  35.421  31.274  1.00  0.00     0.059 A 
ATOM     65  F   UNL A   1      44.104  33.968  29.440  1.00  0.00    -0.206 F 
ATOM     66  C   UNL A   1      43.604  35.630  32.611  1.00  0.00     0.060 A 
BRANCH  66  67
ATOM     67  S   UNL A   1      43.794  37.259  33.363  1.00  0.00     0.124 S 
ATOM     68  O   UNL A   1      45.115  37.147  33.974  1.00  0.00    -0.237 OA
ATOM     69  O   UNL A   1      43.704  38.146  32.207  1.00  0.00    -0.237 OA
ATOM     70  O   UNL A   1      42.676  37.337  34.298  1.00  0.00    -0.744 OA
ENDBRANCH  66  67
ENDBRANCH  45  59
BRANCH  46  71
ATOM     71  C   UNL A   1      42.515  23.829  27.758  1.00  0.00     0.058 A 
ATOM     72  C   UNL A   1      42.522  22.676  28.558  1.00  0.00     0.135 A 
ATOM     73  C   UNL A   1      42.469  23.655  26.365  1.00  0.00     0.135 A 
ATOM     74  F   UNL A   1      42.569  22.788  29.895  1.00  0.00    -0.206 F 
ATOM     75  C   UNL A   1      42.535  21.401  28.001  1.00  0.00     0.059 A 
ATOM     76  C   UNL A   1      42.447  22.390  25.786  1.00  0.00     0.059 A 
ATOM     77  F   UNL A   1      42.440  24.722  25.552  1.00  0.00    -0.206 F 
ATOM     78  C   UNL A   1      42.504  21.269  26.612  1.00  0.00     0.060 A 
BRANCH  78  79
ATOM     79  S   UNL A   1      42.530  19.611  25.896  1.00  0.00     0.124 S 
ATOM     80  O   UNL A   1      43.610  19.731  24.923  1.00  0.00    -0.237 OA
ATOM     81  O   UNL A   1      42.807  18.778  27.062  1.00  0.00    -0.237 OA
ATOM     82  O   UNL A   1      41.189  19.469  25.337  1.00  0.00    -0.744 OA
ENDBRANCH  78  79
ENDBRANCH  46  71
BRANCH  58  83
ATOM     83  C   UNL A   1      47.774  27.480  30.517  1.00  0.00     0.058 A 
ATOM     84  C   UNL A   1      48.180  26.753  31.647  1.00  0.00     0.135 A 
ATOM     85  C   UNL A   1      48.760  27.851  29.588  1.00  0.00     0.135 A 
ATOM     86  F   UNL A   1      47.279  26.381  32.571  1.00  0.00    -0.206 F 
ATOM     87  C   UNL A   1      49.515  26.426  31.860  1.00  0.00     0.059 A 
ATOM     88  C   UNL A   1      50.097  27.507  29.764  1.00  0.00     0.059 A 
ATOM     89  F   UNL A   1      48.425  28.539  28.485  1.00  0.00    -0.206 F 
ATOM     90  C   UNL A   1      50.465  26.804  30.910  1.00  0.00     0.060 A 
BRANCH  90  91
ATOM     91  S   UNL A   1      52.188  26.337  31.180  1.00  0.00     0.124 S 
ATOM     92  O   UNL A   1      52.614  25.983  29.830  1.00  0.00    -0.237 OA
ATOM     93  O   UNL A   1      52.761  27.564  31.723  1.00  0.00    -0.237 OA
ATOM     94  O   UNL A   1      52.096  25.225  32.121  1.00  0.00    -0.744 OA
ENDBRANCH  90  91
ENDBRANCH  58  83
ENDBRANCH  32  33
ENDBRANCH  24  27
ENDBRANCH  22  23
ENDBRANCH  21  22
ENDBRANCH  20  21
ENDBRANCH   1  20
TORSDOF 21
ENDMDL
MODEL 3
REMARK VINA RESULT:      -9.2      2.811      9.483
REMARK SMILES CCCN(C(=O)NCC(=O)NCCCCCCNC(=O)c1ccc(-c2c3nc(c(-c4c(F)cc(S(=O)(=O)[O-])cc4F)c4ccc([nH]4)c(-c4c(F)cc(S(=O)(=O)[O-])cc4F)c4nc(c(-c5c(F)cc(S(=O)(=O)[O-])cc5F)c5ccc2[nH]5)C=C4)C=C3)cc1)C(C)C
REMARK SMILES IDX 14 1 13 2 12 3 11 4 9 5 10 6 8 8 7 9 5 10 6 11 4 13 3 14
REMARK SMILES IDX 2 15 1 16 87 17 88 18 89 19 15 20 16 21 17 22 18 23 19 24
REMARK SMILES IDX 20 26 21 27 22 28 86 29 23 30 85 31 24 32 25 33 26 34 79 35
REMARK SMILES IDX 27 36 84 37 78 38 80 39 28 40 83 41 77 42 76 43 29 45 63 46
REMARK SMILES IDX 42 47 62 48 43 49 46 50 61 51 81 52 44 53 45 54 60 56 82 57
REMARK SMILES IDX 47 58 30 59 31 60 40 61 32 62 33 63 39 64 41 65 34 66 35 67
REMARK SMILES IDX 36 68 37 69 38 70 64 71 65 72 74 73 66 74 67 75 73 76 75 77
REMARK SMILES IDX 68 78 69 79 70 80 71 81 72 82 48 83 49 84 58 85 50 86 51 87
REMARK SMILES IDX 57 88 59 89 52 90 53 91 54 92 55 93 56 94
REMARK H PARENT 11 7 7 12 18 25 80 44 46 55
REMARK Flexibility Score: inf
ROOT
ATOM      1  C   UNL A   1      33.378  25.895  24.907  1.00  0.00     0.002 C 
ENDROOT
BRANCH   1   2
ATOM      2  C   UNL A   1      34.548  25.070  25.445  1.00  0.00     0.021 C 
BRANCH   2   3
ATOM      3  C   UNL A   1      35.232  24.211  24.390  1.00  0.00     0.116 C 
BRANCH   3   4
ATOM      4  N   UNL A   1      36.532  23.743  24.815  1.00  0.00    -0.355 N 
ATOM      5  C   UNL A   1      36.951  22.537  25.279  1.00  0.00     0.239 C 
ATOM      6  O   UNL A   1      38.169  22.419  25.467  1.00  0.00    -0.273 OA
ATOM      7  H   UNL A   1      37.243  24.422  24.759  1.00  0.00     0.163 HD
BRANCH   5   8
ATOM      8  C   UNL A   1      36.049  21.293  25.406  1.00  0.00     0.217 C 
BRANCH   8   9
ATOM      9  N   UNL A   1      34.971  21.263  26.375  1.00  0.00    -0.329 N 
ATOM     10  C   UNL A   1      33.647  21.044  26.411  1.00  0.00     0.318 C 
ATOM     11  O   UNL A   1      33.182  21.049  27.557  1.00  0.00    -0.249 OA
ATOM     12  H   UNL A   1      35.312  21.462  27.277  1.00  0.00     0.165 HD
BRANCH  10  13
ATOM     13  N   UNL A   1      32.853  20.910  25.293  1.00  0.00    -0.322 N 
BRANCH  13  14
ATOM     14  C   UNL A   1      32.490  19.659  24.610  1.00  0.00     0.121 C 
BRANCH  14  15
ATOM     15  C   UNL A   1      33.202  18.400  25.112  1.00  0.00     0.018 C 
ATOM     16  C   UNL A   1      34.206  17.827  24.123  1.00  0.00     0.006 C 
ENDBRANCH  14  15
ENDBRANCH  13  14
BRANCH  13  17
ATOM     17  C   UNL A   1      32.377  22.197  24.705  1.00  0.00     0.080 C 
ATOM     18  C   UNL A   1      32.252  22.180  23.178  1.00  0.00     0.031 C 
ATOM     19  C   UNL A   1      31.106  22.720  25.364  1.00  0.00     0.031 C 
ENDBRANCH  13  17
ENDBRANCH  10  13
ENDBRANCH   8   9
ENDBRANCH   5   8
ENDBRANCH   3   4
ENDBRANCH   2   3
ENDBRANCH   1   2
BRANCH   1  20
ATOM     20  C   UNL A   1      33.736  27.321  24.469  1.00  0.00     0.002 C 
BRANCH  20  21
ATOM     21  C   UNL A   1      33.031  28.440  25.242  1.00  0.00     0.021 C 
BRANCH  21  22
ATOM     22  C   UNL A   1      33.468  28.579  26.697  1.00  0.00     0.116 C 
BRANCH  22  23
ATOM     23  N   UNL A   1      33.357  29.951  27.171  1.00  0.00    -0.352 N 
ATOM     24  C   UNL A   1      34.229  30.680  27.939  1.00  0.00     0.251 C 
ATOM     25  H   UNL A   1      32.536  30.424  26.902  1.00  0.00     0.163 HD
ATOM     26  O   UNL A   1      33.876  31.756  28.418  1.00  0.00    -0.269 OA
BRANCH  24  27
ATOM     27  C   UNL A   1      35.584  30.156  28.209  1.00  0.00     0.039 A 
ATOM     28  C   UNL A   1      36.527  30.146  27.179  1.00  0.00     0.014 A 
ATOM     29  C   UNL A   1      35.927  29.690  29.482  1.00  0.00     0.014 A 
ATOM     30  C   UNL A   1      37.838  29.744  27.447  1.00  0.00     0.010 A 
ATOM     31  C   UNL A   1      37.248  29.356  29.762  1.00  0.00     0.010 A 
ATOM     32  C   UNL A   1      38.220  29.392  28.751  1.00  0.00    -0.014 A 
BRANCH  32  33
ATOM     33  C   UNL A   1      39.635  29.088  29.090  1.00  0.00     0.031 A 
ATOM     34  C   UNL A   1      40.518  30.156  29.674  1.00  0.00     0.074 A 
ATOM     35  C   UNL A   1      40.141  27.872  28.798  1.00  0.00     0.049 A 
ATOM     36  N   UNL A   1      41.804  30.123  29.913  1.00  0.00    -0.248 NA
ATOM     37  C   UNL A   1      39.876  31.435  30.019  1.00  0.00     0.031 C 
ATOM     38  C   UNL A   1      39.392  26.764  28.202  1.00  0.00     0.029 A 
ATOM     39  N   UNL A   1      41.411  27.370  28.944  1.00  0.00    -0.354 N 
ATOM     40  C   UNL A   1      42.123  31.370  30.439  1.00  0.00     0.074 A 
ATOM     41  C   UNL A   1      40.910  32.157  30.429  1.00  0.00     0.031 C 
ATOM     42  C   UNL A   1      40.212  25.713  28.038  1.00  0.00     0.029 A 
ATOM     43  C   UNL A   1      41.555  26.085  28.470  1.00  0.00     0.049 A 
ATOM     44  H   UNL A   1      42.148  27.879  29.351  1.00  0.00     0.167 HD
ATOM     45  C   UNL A   1      43.315  31.808  30.910  1.00  0.00     0.037 A 
ATOM     46  C   UNL A   1      42.650  25.307  28.367  1.00  0.00     0.037 A 
ATOM     47  C   UNL A   1      44.520  31.018  30.922  1.00  0.00     0.049 A 
ATOM     48  C   UNL A   1      43.975  25.843  28.845  1.00  0.00     0.074 A 
ATOM     49  C   UNL A   1      45.773  31.369  31.393  1.00  0.00     0.029 A 
ATOM     50  N   UNL A   1      44.623  29.721  30.442  1.00  0.00    -0.354 N 
ATOM     51  N   UNL A   1      44.250  27.010  29.379  1.00  0.00    -0.248 NA
ATOM     52  C   UNL A   1      45.140  24.958  28.707  1.00  0.00     0.031 C 
ATOM     53  C   UNL A   1      46.643  30.300  31.161  1.00  0.00     0.029 A 
ATOM     54  C   UNL A   1      45.922  29.264  30.592  1.00  0.00     0.049 A 
ATOM     55  H   UNL A   1      43.883  29.202  30.054  1.00  0.00     0.167 HD
ATOM     56  C   UNL A   1      45.610  26.986  29.667  1.00  0.00     0.074 A 
ATOM     57  C   UNL A   1      46.098  25.682  29.269  1.00  0.00     0.031 C 
ATOM     58  C   UNL A   1      46.388  27.955  30.207  1.00  0.00     0.037 A 
BRANCH  45  59
ATOM     59  C   UNL A   1      43.378  33.199  31.480  1.00  0.00     0.058 A 
ATOM     60  C   UNL A   1      43.225  33.430  32.856  1.00  0.00     0.135 A 
ATOM     61  C   UNL A   1      43.671  34.301  30.660  1.00  0.00     0.135 A 
ATOM     62  F   UNL A   1      42.926  32.415  33.684  1.00  0.00    -0.206 F 
ATOM     63  C   UNL A   1      43.351  34.704  33.399  1.00  0.00     0.059 A 
ATOM     64  C   UNL A   1      43.829  35.581  31.186  1.00  0.00     0.059 A 
ATOM     65  F   UNL A   1      43.824  34.138  29.337  1.00  0.00    -0.206 F 
ATOM     66  C   UNL A   1      43.662  35.773  32.557  1.00  0.00     0.060 A 
BRANCH  66  67
ATOM     67  S   UNL A   1      43.863  37.410  33.289  1.00  0.00     0.124 S 
ATOM     68  O   UNL A   1      42.697  37.485  34.163  1.00  0.00    -0.237 OA
ATOM     69  O   UNL A   1      45.153  37.291  33.961  1.00  0.00    -0.237 OA
ATOM     70  O   UNL A   1      43.841  38.304  32.135  1.00  0.00    -0.744 OA
ENDBRANCH  66  67
ENDBRANCH  45  59
BRANCH  46  71
ATOM     71  C   UNL A   1      42.560  23.947  27.766  1.00  0.00     0.058 A 
ATOM     72  C   UNL A   1      42.535  22.798  28.572  1.00  0.00     0.135 A 
ATOM     73  C   UNL A   1      42.544  23.766  26.374  1.00  0.00     0.135 A 
ATOM     74  F   UNL A   1      42.553  22.916  29.909  1.00  0.00    -0.206 F 
ATOM     75  C   UNL A   1      42.546  21.520  28.021  1.00  0.00     0.059 A 
ATOM     76  C   UNL A   1      42.520  22.499  25.800  1.00  0.00     0.059 A 
ATOM     77  F   UNL A   1      42.545  24.830  25.556  1.00  0.00    -0.206 F 
ATOM     78  C   UNL A   1      42.546  21.382  26.632  1.00  0.00     0.060 A 
BRANCH  78  79
ATOM     79  S   UNL A   1      42.569  19.720  25.925  1.00  0.00     0.124 S 
ATOM     80  O   UNL A   1      42.821  18.904  27.107  1.00  0.00    -0.237 OA
ATOM     81  O   UNL A   1      41.234  19.614  25.346  1.00  0.00    -0.237 OA
ATOM     82  O   UNL A   1      43.661  19.785  24.958  1.00  0.00    -0.744 OA
ENDBRANCH  78  79
ENDBRANCH  46  71
BRANCH  58  83
ATOM     83  C   UNL A   1      47.840  27.633  30.437  1.00  0.00     0.058 A 
ATOM     84  C   UNL A   1      48.264  26.889  31.550  1.00  0.00     0.135 A 
ATOM     85  C   UNL A   1      48.813  28.030  29.506  1.00  0.00     0.135 A 
ATOM     86  F   UNL A   1      47.376  26.492  32.476  1.00  0.00    -0.206 F 
ATOM     87  C   UNL A   1      49.604  26.570  31.742  1.00  0.00     0.059 A 
ATOM     88  C   UNL A   1      50.154  27.695  29.661  1.00  0.00     0.059 A 
ATOM     89  F   UNL A   1      48.460  28.734  28.419  1.00  0.00    -0.206 F 
ATOM     90  C   UNL A   1      50.541  26.973  30.789  1.00  0.00     0.060 A 
BRANCH  90  91
ATOM     91  S   UNL A   1      52.270  26.517  31.033  1.00  0.00     0.124 S 
ATOM     92  O   UNL A   1      52.907  27.825  31.152  1.00  0.00    -0.237 OA
ATOM     93  O   UNL A   1      52.213  25.727  32.259  1.00  0.00    -0.237 OA
ATOM     94  O   UNL A   1      52.599  25.767  29.825  1.00  0.00    -0.744 OA
ENDBRANCH  90  91
ENDBRANCH  58  83
ENDBRANCH  32  33
ENDBRANCH  24  27
ENDBRANCH  22  23
ENDBRANCH  21  22
ENDBRANCH  20  21
ENDBRANCH   1  20
TORSDOF 21
ENDMDL
