MODEL 1
REMARK VINA RESULT:     -10.8      0.000      0.000
REMARK SMILES CCCCNC(=O)COc1ccc(Cl)cc1C(=O)NCCCCCCNC(=O)c1ccc(-c2c3nc(c(-c4c(F)cc(S(=O)(=O)[O-])cc4F)c4ccc([nH]4)c(-c4c(F)cc(S(=O)(=O)[O-])cc4F)c4nc(c(-c5c(F)cc(S(=O)(=O)[O-])cc5F)c5ccc2[nH]5)C=C4)C=C3)cc1
REMARK SMILES IDX 21 1 20 2 19 3 17 4 18 5 16 7 10 8 11 9 12 10 15 11 13 12
REMARK SMILES IDX 14 13 9 14 8 15 6 16 5 17 7 19 4 20 3 21 2 22 1 23 22 24
REMARK SMILES IDX 23 25 24 26 25 27 26 28 27 29 28 31 29 32 30 33 94 34 31 35
REMARK SMILES IDX 93 36 32 37 33 38 34 39 87 40 35 41 92 42 86 43 88 44 36 45
REMARK SMILES IDX 91 46 85 47 84 48 37 50 71 51 50 52 70 53 51 54 54 55 69 56
REMARK SMILES IDX 89 57 52 58 53 59 68 61 90 62 55 63 38 64 39 65 48 66 40 67
REMARK SMILES IDX 41 68 47 69 49 70 42 71 43 72 44 73 45 74 46 75 72 76 73 77
REMARK SMILES IDX 82 78 74 79 75 80 81 81 83 82 76 83 77 84 78 85 79 86 80 87
REMARK SMILES IDX 56 88 57 89 66 90 58 91 59 92 65 93 67 94 60 95 61 96 62 97
REMARK SMILES IDX 63 98 64 99
REMARK H PARENT 19 6 5 18 26 30 88 49 54 60
REMARK Flexibility Score: inf
ROOT
ATOM      1  C   UNL A   1      33.498  28.835  24.292  1.00  0.00     0.021 C 
ENDROOT
BRANCH   1   2
ATOM      2  C   UNL A   1      33.338  29.062  22.784  1.00  0.00     0.116 C 
BRANCH   2   3
ATOM      3  N   UNL A   1      33.533  27.812  22.087  1.00  0.00    -0.352 N 
ATOM      4  C   UNL A   1      33.200  26.516  22.362  1.00  0.00     0.255 C 
ATOM      5  O   UNL A   1      33.638  25.682  21.560  1.00  0.00    -0.269 OA
ATOM      6  H   UNL A   1      34.009  27.916  21.231  1.00  0.00     0.163 HD
BRANCH   4   7
ATOM      7  C   UNL A   1      32.315  26.024  23.468  1.00  0.00     0.083 A 
ATOM      8  C   UNL A   1      32.630  25.185  24.555  1.00  0.00     0.132 A 
ATOM      9  C   UNL A   1      31.614  24.823  25.461  1.00  0.00     0.049 A 
ATOM     10  C   UNL A   1      30.291  25.224  25.272  1.00  0.00     0.024 A 
ATOM     11  C   UNL A   1      30.963  26.412  23.297  1.00  0.00     0.038 A 
ATOM     12  C   UNL A   1      29.969  26.011  24.181  1.00  0.00     0.042 A 
ATOM     13  Cl  UNL A   1      28.338  26.487  23.919  1.00  0.00    -0.084 Cl
BRANCH   8  14
ATOM     14  O   UNL A   1      33.913  24.766  24.755  1.00  0.00    -0.483 OA
BRANCH  14  15
ATOM     15  C   UNL A   1      34.282  24.307  26.047  1.00  0.00     0.329 C 
BRANCH  15  16
ATOM     16  C   UNL A   1      35.429  23.299  26.204  1.00  0.00     0.257 C 
ATOM     17  N   UNL A   1      35.199  22.037  26.656  1.00  0.00    -0.353 N 
ATOM     18  H   UNL A   1      36.007  21.489  26.786  1.00  0.00     0.163 HD
ATOM     19  O   UNL A   1      36.591  23.629  25.952  1.00  0.00    -0.271 OA
BRANCH  17  20
ATOM     20  C   UNL A   1      33.952  21.371  26.977  1.00  0.00     0.116 C 
BRANCH  20  21
ATOM     21  C   UNL A   1      33.423  20.544  25.803  1.00  0.00     0.021 C 
BRANCH  21  22
ATOM     22  C   UNL A   1      33.628  21.174  24.419  1.00  0.00    -0.002 C 
ATOM     23  C   UNL A   1      32.343  21.342  23.622  1.00  0.00     0.004 C 
ENDBRANCH  21  22
ENDBRANCH  20  21
ENDBRANCH  17  20
ENDBRANCH  15  16
ENDBRANCH  14  15
ENDBRANCH   8  14
ENDBRANCH   4   7
ENDBRANCH   2   3
ENDBRANCH   1   2
BRANCH   1  24
ATOM     24  C   UNL A   1      32.478  29.607  25.137  1.00  0.00     0.002 C 
BRANCH  24  25
ATOM     25  C   UNL A   1      32.974  29.973  26.541  1.00  0.00     0.002 C 
BRANCH  25  26
ATOM     26  C   UNL A   1      33.797  28.889  27.243  1.00  0.00     0.021 C 
BRANCH  26  27
ATOM     27  C   UNL A   1      35.224  29.306  27.585  1.00  0.00     0.116 C 
BRANCH  27  28
ATOM     28  N   UNL A   1      35.256  30.175  28.753  1.00  0.00    -0.352 N 
ATOM     29  C   UNL A   1      36.259  30.341  29.672  1.00  0.00     0.251 C 
ATOM     30  H   UNL A   1      34.448  30.717  28.903  1.00  0.00     0.163 HD
ATOM     31  O   UNL A   1      36.027  30.898  30.748  1.00  0.00    -0.269 OA
BRANCH  29  32
ATOM     32  C   UNL A   1      37.617  29.848  29.370  1.00  0.00     0.039 A 
ATOM     33  C   UNL A   1      38.081  29.871  28.052  1.00  0.00     0.014 A 
ATOM     34  C   UNL A   1      38.429  29.357  30.397  1.00  0.00     0.014 A 
ATOM     35  C   UNL A   1      39.385  29.456  27.773  1.00  0.00     0.010 A 
ATOM     36  C   UNL A   1      39.747  29.009  30.127  1.00  0.00     0.010 A 
ATOM     37  C   UNL A   1      40.239  29.051  28.813  1.00  0.00    -0.014 A 
BRANCH  37  38
ATOM     38  C   UNL A   1      41.648  28.654  28.562  1.00  0.00     0.031 A 
ATOM     39  C   UNL A   1      42.727  29.702  28.554  1.00  0.00     0.074 A 
ATOM     40  C   UNL A   1      41.937  27.375  28.250  1.00  0.00     0.049 A 
ATOM     41  N   UNL A   1      43.984  29.591  28.213  1.00  0.00    -0.248 NA
ATOM     42  C   UNL A   1      42.329  31.062  28.955  1.00  0.00     0.031 C 
ATOM     43  C   UNL A   1      40.972  26.276  28.197  1.00  0.00     0.029 A 
ATOM     44  N   UNL A   1      43.127  26.788  27.896  1.00  0.00    -0.354 N 
ATOM     45  C   UNL A   1      44.523  30.866  28.338  1.00  0.00     0.074 A 
ATOM     46  C   UNL A   1      43.446  31.743  28.740  1.00  0.00     0.031 C 
ATOM     47  C   UNL A   1      41.607  25.149  27.839  1.00  0.00     0.029 A 
ATOM     48  C   UNL A   1      43.014  25.451  27.593  1.00  0.00     0.049 A 
ATOM     49  H   UNL A   1      43.980  27.278  27.862  1.00  0.00     0.167 HD
ATOM     50  C   UNL A   1      45.804  31.264  28.152  1.00  0.00     0.037 A 
ATOM     51  C   UNL A   1      43.935  24.574  27.147  1.00  0.00     0.037 A 
ATOM     52  C   UNL A   1      46.874  30.377  27.776  1.00  0.00     0.049 A 
ATOM     53  C   UNL A   1      45.349  25.042  26.931  1.00  0.00     0.074 A 
ATOM     54  C   UNL A   1      48.216  30.671  27.613  1.00  0.00     0.029 A 
ATOM     55  N   UNL A   1      46.723  29.025  27.505  1.00  0.00    -0.354 N 
ATOM     56  N   UNL A   1      45.853  26.241  27.100  1.00  0.00    -0.248 NA
ATOM     57  C   UNL A   1      46.321  24.043  26.466  1.00  0.00     0.031 C 
ATOM     58  C   UNL A   1      48.869  29.506  27.199  1.00  0.00     0.029 A 
ATOM     59  C   UNL A   1      47.945  28.474  27.157  1.00  0.00     0.049 A 
ATOM     60  H   UNL A   1      45.873  28.530  27.554  1.00  0.00     0.167 HD
ATOM     61  C   UNL A   1      47.205  26.132  26.796  1.00  0.00     0.074 A 
ATOM     62  C   UNL A   1      47.442  24.750  26.434  1.00  0.00     0.031 C 
ATOM     63  C   UNL A   1      48.165  27.089  26.818  1.00  0.00     0.037 A 
BRANCH  50  64
ATOM     64  C   UNL A   1      46.120  32.721  28.352  1.00  0.00     0.058 A 
ATOM     65  C   UNL A   1      46.094  33.635  27.286  1.00  0.00     0.135 A 
ATOM     66  C   UNL A   1      46.416  33.218  29.631  1.00  0.00     0.135 A 
ATOM     67  F   UNL A   1      45.830  33.212  26.039  1.00  0.00    -0.206 F 
ATOM     68  C   UNL A   1      46.382  34.982  27.475  1.00  0.00     0.059 A 
ATOM     69  C   UNL A   1      46.678  34.569  29.849  1.00  0.00     0.059 A 
ATOM     70  F   UNL A   1      46.455  32.390  30.687  1.00  0.00    -0.206 F 
ATOM     71  C   UNL A   1      46.674  35.440  28.761  1.00  0.00     0.060 A 
BRANCH  71  72
ATOM     72  S   UNL A   1      47.042  37.192  28.989  1.00  0.00     0.124 S 
ATOM     73  O   UNL A   1      45.831  37.658  29.659  1.00  0.00    -0.237 OA
ATOM     74  O   UNL A   1      48.246  37.153  29.811  1.00  0.00    -0.237 OA
ATOM     75  O   UNL A   1      47.232  37.681  27.626  1.00  0.00    -0.744 OA
ENDBRANCH  71  72
ENDBRANCH  50  64
BRANCH  51  76
ATOM     76  C   UNL A   1      43.549  23.161  26.886  1.00  0.00     0.058 A 
ATOM     77  C   UNL A   1      43.454  22.670  25.576  1.00  0.00     0.135 A 
ATOM     78  C   UNL A   1      43.282  22.270  27.938  1.00  0.00     0.135 A 
ATOM     79  F   UNL A   1      43.694  23.484  24.536  1.00  0.00    -0.206 F 
ATOM     80  C   UNL A   1      43.094  21.352  25.314  1.00  0.00     0.059 A 
ATOM     81  C   UNL A   1      42.946  20.941  27.703  1.00  0.00     0.059 A 
ATOM     82  F   UNL A   1      43.378  22.684  29.211  1.00  0.00    -0.206 F 
ATOM     83  C   UNL A   1      42.844  20.494  26.387  1.00  0.00     0.060 A 
BRANCH  83  84
ATOM     84  S   UNL A   1      42.425  18.772  26.038  1.00  0.00     0.124 S 
ATOM     85  O   UNL A   1      41.020  18.881  25.667  1.00  0.00    -0.237 OA
ATOM     86  O   UNL A   1      43.350  18.446  24.957  1.00  0.00    -0.237 OA
ATOM     87  O   UNL A   1      42.696  18.100  27.307  1.00  0.00    -0.744 OA
ENDBRANCH  83  84
ENDBRANCH  51  76
BRANCH  63  88
ATOM     88  C   UNL A   1      49.574  26.677  26.492  1.00  0.00     0.058 A 
ATOM     89  C   UNL A   1      50.391  26.029  27.431  1.00  0.00     0.135 A 
ATOM     90  C   UNL A   1      50.077  26.851  25.192  1.00  0.00     0.135 A 
ATOM     91  F   UNL A   1      49.960  25.847  28.690  1.00  0.00    -0.206 F 
ATOM     92  C   UNL A   1      51.661  25.574  27.095  1.00  0.00     0.059 A 
ATOM     93  C   UNL A   1      51.333  26.379  24.827  1.00  0.00     0.059 A 
ATOM     94  F   UNL A   1      49.331  27.458  24.255  1.00  0.00    -0.206 F 
ATOM     95  C   UNL A   1      52.119  25.745  25.786  1.00  0.00     0.060 A 
BRANCH  95  96
ATOM     96  S   UNL A   1      53.741  25.086  25.345  1.00  0.00     0.124 S 
ATOM     97  O   UNL A   1      53.497  23.648  25.394  1.00  0.00    -0.237 OA
ATOM     98  O   UNL A   1      53.954  25.648  24.015  1.00  0.00    -0.237 OA
ATOM     99  O   UNL A   1      54.618  25.611  26.388  1.00  0.00    -0.744 OA
ENDBRANCH  95  96
ENDBRANCH  63  88
ENDBRANCH  37  38
ENDBRANCH  29  32
ENDBRANCH  27  28
ENDBRANCH  26  27
ENDBRANCH  25  26
ENDBRANCH  24  25
ENDBRANCH   1  24
TORSDOF 22
ENDMDL
MODEL 2
REMARK VINA RESULT:     -10.8      2.585      8.396
REMARK SMILES CCCCNC(=O)COc1ccc(Cl)cc1C(=O)NCCCCCCNC(=O)c1ccc(-c2c3nc(c(-c4c(F)cc(S(=O)(=O)[O-])cc4F)c4ccc([nH]4)c(-c4c(F)cc(S(=O)(=O)[O-])cc4F)c4nc(c(-c5c(F)cc(S(=O)(=O)[O-])cc5F)c5ccc2[nH]5)C=C4)C=C3)cc1
REMARK SMILES IDX 21 1 20 2 19 3 17 4 18 5 16 7 10 8 11 9 12 10 15 11 13 12
REMARK SMILES IDX 14 13 9 14 8 15 6 16 5 17 7 19 4 20 3 21 2 22 1 23 22 24
REMARK SMILES IDX 23 25 24 26 25 27 26 28 27 29 28 31 29 32 30 33 94 34 31 35
REMARK SMILES IDX 93 36 32 37 33 38 34 39 87 40 35 41 92 42 86 43 88 44 36 45
REMARK SMILES IDX 91 46 85 47 84 48 37 50 71 51 50 52 70 53 51 54 54 55 69 56
REMARK SMILES IDX 89 57 52 58 53 59 68 61 90 62 55 63 38 64 39 65 48 66 40 67
REMARK SMILES IDX 41 68 47 69 49 70 42 71 43 72 44 73 45 74 46 75 72 76 73 77
REMARK SMILES IDX 82 78 74 79 75 80 81 81 83 82 76 83 77 84 78 85 79 86 80 87
REMARK SMILES IDX 56 88 57 89 66 90 58 91 59 92 65 93 67 94 60 95 61 96 62 97
REMARK SMILES IDX 63 98 64 99
REMARK H PARENT 19 6 5 18 26 30 88 49 54 60
REMARK Flexibility Score: inf
ROOT
ATOM      1  C   UNL A   1      36.780  22.984  24.308  1.00  0.00     0.021 C 
ENDROOT
BRANCH   1   2
ATOM      2  C   UNL A   1      35.753  23.734  25.165  1.00  0.00     0.116 C 
BRANCH   2   3
ATOM      3  N   UNL A   1      35.337  22.892  26.263  1.00  0.00    -0.352 N 
ATOM      4  C   UNL A   1      34.439  21.870  26.380  1.00  0.00     0.255 C 
ATOM      5  O   UNL A   1      34.272  21.450  27.532  1.00  0.00    -0.269 OA
ATOM      6  H   UNL A   1      35.799  23.102  27.107  1.00  0.00     0.163 HD
BRANCH   4   7
ATOM      7  C   UNL A   1      33.712  21.171  25.270  1.00  0.00     0.083 A 
ATOM      8  C   UNL A   1      32.703  21.663  24.418  1.00  0.00     0.132 A 
ATOM      9  C   UNL A   1      32.134  20.802  23.459  1.00  0.00     0.049 A 
ATOM     10  C   UNL A   1      32.502  19.459  23.374  1.00  0.00     0.024 A 
ATOM     11  C   UNL A   1      34.063  19.803  25.166  1.00  0.00     0.038 A 
ATOM     12  C   UNL A   1      33.460  18.961  24.239  1.00  0.00     0.042 A 
ATOM     13  Cl  UNL A   1      33.901  17.301  24.166  1.00  0.00    -0.084 Cl
BRANCH   8  14
ATOM     14  O   UNL A   1      32.313  22.968  24.490  1.00  0.00    -0.483 OA
BRANCH  14  15
ATOM     15  C   UNL A   1      31.098  23.277  25.155  1.00  0.00     0.329 C 
BRANCH  15  16
ATOM     16  C   UNL A   1      31.127  23.982  26.518  1.00  0.00     0.257 C 
ATOM     17  N   UNL A   1      30.833  25.306  26.632  1.00  0.00    -0.353 N 
ATOM     18  H   UNL A   1      30.945  25.680  27.536  1.00  0.00     0.163 HD
ATOM     19  O   UNL A   1      31.451  23.365  27.535  1.00  0.00    -0.271 OA
BRANCH  17  20
ATOM     20  C   UNL A   1      30.381  26.252  25.631  1.00  0.00     0.116 C 
BRANCH  20  21
ATOM     21  C   UNL A   1      31.439  27.314  25.324  1.00  0.00     0.021 C 
BRANCH  21  22
ATOM     22  C   UNL A   1      32.764  26.771  24.772  1.00  0.00    -0.002 C 
ATOM     23  C   UNL A   1      33.716  27.850  24.280  1.00  0.00     0.004 C 
ENDBRANCH  21  22
ENDBRANCH  20  21
ENDBRANCH  17  20
ENDBRANCH  15  16
ENDBRANCH  14  15
ENDBRANCH   8  14
ENDBRANCH   4   7
ENDBRANCH   2   3
ENDBRANCH   1   2
BRANCH   1  24
ATOM     24  C   UNL A   1      37.616  21.974  25.103  1.00  0.00     0.002 C 
BRANCH  24  25
ATOM     25  C   UNL A   1      37.498  20.529  24.604  1.00  0.00     0.002 C 
BRANCH  25  26
ATOM     26  C   UNL A   1      38.364  19.511  25.351  1.00  0.00     0.021 C 
BRANCH  26  27
ATOM     27  C   UNL A   1      39.565  20.116  26.072  1.00  0.00     0.116 C 
BRANCH  27  28
ATOM     28  N   UNL A   1      40.695  19.197  26.081  1.00  0.00    -0.352 N 
ATOM     29  C   UNL A   1      42.035  19.484  26.087  1.00  0.00     0.251 C 
ATOM     30  H   UNL A   1      40.464  18.240  26.085  1.00  0.00     0.163 HD
ATOM     31  O   UNL A   1      42.857  18.606  25.814  1.00  0.00    -0.269 OA
BRANCH  29  32
ATOM     32  C   UNL A   1      42.489  20.849  26.417  1.00  0.00     0.039 A 
ATOM     33  C   UNL A   1      42.655  21.215  27.756  1.00  0.00     0.014 A 
ATOM     34  C   UNL A   1      42.746  21.768  25.395  1.00  0.00     0.014 A 
ATOM     35  C   UNL A   1      43.136  22.489  28.067  1.00  0.00     0.010 A 
ATOM     36  C   UNL A   1      43.290  23.009  25.706  1.00  0.00     0.010 A 
ATOM     37  C   UNL A   1      43.487  23.385  27.044  1.00  0.00    -0.014 A 
BRANCH  37  38
ATOM     38  C   UNL A   1      44.053  24.727  27.335  1.00  0.00     0.031 A 
ATOM     39  C   UNL A   1      43.141  25.840  27.771  1.00  0.00     0.074 A 
ATOM     40  C   UNL A   1      45.361  24.963  27.116  1.00  0.00     0.049 A 
ATOM     41  N   UNL A   1      43.406  27.110  27.930  1.00  0.00    -0.248 NA
ATOM     42  C   UNL A   1      41.738  25.480  28.033  1.00  0.00     0.031 C 
ATOM     43  C   UNL A   1      46.339  23.971  26.665  1.00  0.00     0.029 A 
ATOM     44  N   UNL A   1      46.091  26.121  27.223  1.00  0.00    -0.354 N 
ATOM     45  C   UNL A   1      42.202  27.705  28.291  1.00  0.00     0.074 A 
ATOM     46  C   UNL A   1      41.197  26.665  28.280  1.00  0.00     0.031 C 
ATOM     47  C   UNL A   1      47.539  24.560  26.541  1.00  0.00     0.029 A 
ATOM     48  C   UNL A   1      47.409  25.979  26.857  1.00  0.00     0.049 A 
ATOM     49  H   UNL A   1      45.707  26.973  27.531  1.00  0.00     0.167 HD
ATOM     50  C   UNL A   1      41.962  28.997  28.618  1.00  0.00     0.037 A 
ATOM     51  C   UNL A   1      48.396  26.893  26.767  1.00  0.00     0.037 A 
ATOM     52  C   UNL A   1      42.975  30.019  28.650  1.00  0.00     0.049 A 
ATOM     53  C   UNL A   1      48.103  28.326  27.120  1.00  0.00     0.074 A 
ATOM     54  C   UNL A   1      42.845  31.346  29.018  1.00  0.00     0.029 A 
ATOM     55  N   UNL A   1      44.304  29.828  28.299  1.00  0.00    -0.354 N 
ATOM     56  N   UNL A   1      46.970  28.862  27.506  1.00  0.00    -0.248 NA
ATOM     57  C   UNL A   1      49.217  29.279  27.028  1.00  0.00     0.031 C 
ATOM     58  C   UNL A   1      44.085  31.969  28.847  1.00  0.00     0.029 A 
ATOM     59  C   UNL A   1      45.001  31.018  28.424  1.00  0.00     0.049 A 
ATOM     60  H   UNL A   1      44.693  28.972  28.006  1.00  0.00     0.167 HD
ATOM     61  C   UNL A   1      47.243  30.206  27.736  1.00  0.00     0.074 A 
ATOM     62  C   UNL A   1      48.649  30.402  27.447  1.00  0.00     0.031 C 
ATOM     63  C   UNL A   1      46.407  31.189  28.152  1.00  0.00     0.037 A 
BRANCH  50  64
ATOM     64  C   UNL A   1      40.549  29.379  28.969  1.00  0.00     0.058 A 
ATOM     65  C   UNL A   1      39.550  29.491  27.989  1.00  0.00     0.135 A 
ATOM     66  C   UNL A   1      40.181  29.600  30.306  1.00  0.00     0.135 A 
ATOM     67  F   UNL A   1      39.849  29.304  26.694  1.00  0.00    -0.206 F 
ATOM     68  C   UNL A   1      38.244  29.839  28.317  1.00  0.00     0.059 A 
ATOM     69  C   UNL A   1      38.873  29.920  30.661  1.00  0.00     0.059 A 
ATOM     70  F   UNL A   1      41.096  29.506  31.285  1.00  0.00    -0.206 F 
ATOM     71  C   UNL A   1      37.915  30.053  29.657  1.00  0.00     0.060 A 
BRANCH  71  72
ATOM     72  S   UNL A   1      36.216  30.501  30.065  1.00  0.00     0.124 S 
ATOM     73  O   UNL A   1      35.954  29.634  31.210  1.00  0.00    -0.237 OA
ATOM     74  O   UNL A   1      36.331  31.925  30.363  1.00  0.00    -0.237 OA
ATOM     75  O   UNL A   1      35.475  30.176  28.850  1.00  0.00    -0.744 OA
ENDBRANCH  71  72
ENDBRANCH  50  64
BRANCH  51  76
ATOM     76  C   UNL A   1      49.757  26.475  26.335  1.00  0.00     0.058 A 
ATOM     77  C   UNL A   1      50.187  26.674  25.015  1.00  0.00     0.135 A 
ATOM     78  C   UNL A   1      50.660  25.883  27.233  1.00  0.00     0.135 A 
ATOM     79  F   UNL A   1      49.359  27.231  24.118  1.00  0.00    -0.206 F 
ATOM     80  C   UNL A   1      51.455  26.289  24.594  1.00  0.00     0.059 A 
ATOM     81  C   UNL A   1      51.943  25.513  26.843  1.00  0.00     0.059 A 
ATOM     82  F   UNL A   1      50.306  25.688  28.513  1.00  0.00    -0.206 F 
ATOM     83  C   UNL A   1      52.328  25.711  25.518  1.00  0.00     0.060 A 
BRANCH  83  84
ATOM     84  S   UNL A   1      53.990  25.259  24.974  1.00  0.00     0.124 S 
ATOM     85  O   UNL A   1      53.904  23.804  24.945  1.00  0.00    -0.237 OA
ATOM     86  O   UNL A   1      54.077  25.921  23.677  1.00  0.00    -0.237 OA
ATOM     87  O   UNL A   1      54.846  25.822  26.015  1.00  0.00    -0.744 OA
ENDBRANCH  83  84
ENDBRANCH  51  76
BRANCH  63  88
ATOM     88  C   UNL A   1      46.988  32.558  28.373  1.00  0.00     0.058 A 
ATOM     89  C   UNL A   1      47.607  32.911  29.581  1.00  0.00     0.135 A 
ATOM     90  C   UNL A   1      47.007  33.493  27.325  1.00  0.00     0.135 A 
ATOM     91  F   UNL A   1      47.607  32.056  30.616  1.00  0.00    -0.206 F 
ATOM     92  C   UNL A   1      48.219  34.149  29.747  1.00  0.00     0.059 A 
ATOM     93  C   UNL A   1      47.637  34.726  27.460  1.00  0.00     0.059 A 
ATOM     94  F   UNL A   1      46.437  33.200  26.146  1.00  0.00    -0.206 F 
ATOM     95  C   UNL A   1      48.237  35.047  28.676  1.00  0.00     0.060 A 
BRANCH  95  96
ATOM     96  S   UNL A   1      49.096  36.621  28.882  1.00  0.00     0.124 S 
ATOM     97  O   UNL A   1      50.004  36.319  29.984  1.00  0.00    -0.237 OA
ATOM     98  O   UNL A   1      49.723  36.807  27.577  1.00  0.00    -0.237 OA
ATOM     99  O   UNL A   1      48.021  37.558  29.193  1.00  0.00    -0.744 OA
ENDBRANCH  95  96
ENDBRANCH  63  88
ENDBRANCH  37  38
ENDBRANCH  29  32
ENDBRANCH  27  28
ENDBRANCH  26  27
ENDBRANCH  25  26
ENDBRANCH  24  25
ENDBRANCH   1  24
TORSDOF 22
ENDMDL
MODEL 3
REMARK VINA RESULT:     -10.7      5.743      8.751
REMARK SMILES CCCCNC(=O)COc1ccc(Cl)cc1C(=O)NCCCCCCNC(=O)c1ccc(-c2c3nc(c(-c4c(F)cc(S(=O)(=O)[O-])cc4F)c4ccc([nH]4)c(-c4c(F)cc(S(=O)(=O)[O-])cc4F)c4nc(c(-c5c(F)cc(S(=O)(=O)[O-])cc5F)c5ccc2[nH]5)C=C4)C=C3)cc1
REMARK SMILES IDX 21 1 20 2 19 3 17 4 18 5 16 7 10 8 11 9 12 10 15 11 13 12
REMARK SMILES IDX 14 13 9 14 8 15 6 16 5 17 7 19 4 20 3 21 2 22 1 23 22 24
REMARK SMILES IDX 23 25 24 26 25 27 26 28 27 29 28 31 29 32 30 33 94 34 31 35
REMARK SMILES IDX 93 36 32 37 33 38 34 39 87 40 35 41 92 42 86 43 88 44 36 45
REMARK SMILES IDX 91 46 85 47 84 48 37 50 71 51 50 52 70 53 51 54 54 55 69 56
REMARK SMILES IDX 89 57 52 58 53 59 68 61 90 62 55 63 38 64 39 65 48 66 40 67
REMARK SMILES IDX 41 68 47 69 49 70 42 71 43 72 44 73 45 74 46 75 72 76 73 77
REMARK SMILES IDX 82 78 74 79 75 80 81 81 83 82 76 83 77 84 78 85 79 86 80 87
REMARK SMILES IDX 56 88 57 89 66 90 58 91 59 92 65 93 67 94 60 95 61 96 62 97
REMARK SMILES IDX 63 98 64 99
REMARK H PARENT 19 6 5 18 26 30 88 49 54 60
REMARK Flexibility Score: inf
ROOT
ATOM      1  C   UNL A   1      32.675  35.737  30.460  1.00  0.00     0.021 C 
ENDROOT
BRANCH   1   2
ATOM      2  C   UNL A   1      33.701  35.592  31.590  1.00  0.00     0.116 C 
BRANCH   2   3
ATOM      3  N   UNL A   1      33.865  34.193  31.915  1.00  0.00    -0.352 N 
ATOM      4  C   UNL A   1      34.953  33.385  32.082  1.00  0.00     0.255 C 
ATOM      5  O   UNL A   1      34.692  32.187  32.254  1.00  0.00    -0.269 OA
ATOM      6  H   UNL A   1      33.009  33.723  32.040  1.00  0.00     0.163 HD
BRANCH   4   7
ATOM      7  C   UNL A   1      36.391  33.804  32.154  1.00  0.00     0.083 A 
ATOM      8  C   UNL A   1      37.156  34.176  33.277  1.00  0.00     0.132 A 
ATOM      9  C   UNL A   1      38.495  34.572  33.096  1.00  0.00     0.049 A 
ATOM     10  C   UNL A   1      39.063  34.663  31.825  1.00  0.00     0.024 A 
ATOM     11  C   UNL A   1      36.990  33.912  30.875  1.00  0.00     0.038 A 
ATOM     12  C   UNL A   1      38.303  34.343  30.716  1.00  0.00     0.042 A 
ATOM     13  Cl  UNL A   1      38.980  34.481  29.142  1.00  0.00    -0.084 Cl
BRANCH   8  14
ATOM     14  O   UNL A   1      36.620  34.109  34.531  1.00  0.00    -0.483 OA
BRANCH  14  15
ATOM     15  C   UNL A   1      37.465  33.739  35.609  1.00  0.00     0.329 C 
BRANCH  15  16
ATOM     16  C   UNL A   1      37.615  32.260  35.993  1.00  0.00     0.257 C 
ATOM     17  N   UNL A   1      37.770  31.882  37.291  1.00  0.00    -0.353 N 
ATOM     18  H   UNL A   1      37.925  30.919  37.427  1.00  0.00     0.163 HD
ATOM     19  O   UNL A   1      37.628  31.386  35.123  1.00  0.00    -0.271 OA
BRANCH  17  20
ATOM     20  C   UNL A   1      37.744  32.674  38.505  1.00  0.00     0.116 C 
BRANCH  20  21
ATOM     21  C   UNL A   1      36.380  32.622  39.196  1.00  0.00     0.021 C 
BRANCH  21  22
ATOM     22  C   UNL A   1      36.116  31.353  40.019  1.00  0.00    -0.002 C 
ATOM     23  C   UNL A   1      35.618  31.626  41.430  1.00  0.00     0.004 C 
ENDBRANCH  21  22
ENDBRANCH  20  21
ENDBRANCH  17  20
ENDBRANCH  15  16
ENDBRANCH  14  15
ENDBRANCH   8  14
ENDBRANCH   4   7
ENDBRANCH   2   3
ENDBRANCH   1   2
BRANCH   1  24
ATOM     24  C   UNL A   1      33.278  36.261  29.152  1.00  0.00     0.002 C 
BRANCH  24  25
ATOM     25  C   UNL A   1      34.142  35.239  28.404  1.00  0.00     0.002 C 
BRANCH  25  26
ATOM     26  C   UNL A   1      33.498  33.863  28.209  1.00  0.00     0.021 C 
BRANCH  26  27
ATOM     27  C   UNL A   1      34.439  32.688  28.460  1.00  0.00     0.116 C 
BRANCH  27  28
ATOM     28  N   UNL A   1      33.990  31.492  27.762  1.00  0.00    -0.352 N 
ATOM     29  C   UNL A   1      34.686  30.343  27.492  1.00  0.00     0.251 C 
ATOM     30  H   UNL A   1      33.058  31.511  27.442  1.00  0.00     0.163 HD
ATOM     31  O   UNL A   1      34.259  29.542  26.656  1.00  0.00    -0.269 OA
BRANCH  29  32
ATOM     32  C   UNL A   1      35.951  30.070  28.202  1.00  0.00     0.039 A 
ATOM     33  C   UNL A   1      35.917  29.484  29.470  1.00  0.00     0.014 A 
ATOM     34  C   UNL A   1      37.172  30.403  27.608  1.00  0.00     0.014 A 
ATOM     35  C   UNL A   1      37.115  29.176  30.119  1.00  0.00     0.010 A 
ATOM     36  C   UNL A   1      38.362  30.034  28.226  1.00  0.00     0.010 A 
ATOM     37  C   UNL A   1      38.347  29.420  29.488  1.00  0.00    -0.014 A 
BRANCH  37  38
ATOM     38  C   UNL A   1      39.639  29.057  30.123  1.00  0.00     0.031 A 
ATOM     39  C   UNL A   1      40.159  29.875  31.273  1.00  0.00     0.074 A 
ATOM     40  C   UNL A   1      40.382  28.058  29.607  1.00  0.00     0.049 A 
ATOM     41  N   UNL A   1      41.322  29.820  31.867  1.00  0.00    -0.248 NA
ATOM     42  C   UNL A   1      39.260  30.913  31.805  1.00  0.00     0.031 C 
ATOM     43  C   UNL A   1      39.997  27.213  28.474  1.00  0.00     0.029 A 
ATOM     44  N   UNL A   1      41.629  27.599  29.953  1.00  0.00    -0.354 N 
ATOM     45  C   UNL A   1      41.305  30.826  32.826  1.00  0.00     0.074 A 
ATOM     46  C   UNL A   1      40.034  31.506  32.703  1.00  0.00     0.031 C 
ATOM     47  C   UNL A   1      40.982  26.336  28.225  1.00  0.00     0.029 A 
ATOM     48  C   UNL A   1      42.087  26.584  29.146  1.00  0.00     0.049 A 
ATOM     49  H   UNL A   1      42.146  27.962  30.707  1.00  0.00     0.167 HD
ATOM     50  C   UNL A   1      42.255  31.141  33.739  1.00  0.00     0.037 A 
ATOM     51  C   UNL A   1      43.271  25.940  29.136  1.00  0.00     0.037 A 
ATOM     52  C   UNL A   1      43.506  30.441  33.869  1.00  0.00     0.049 A 
ATOM     53  C   UNL A   1      44.319  26.318  30.149  1.00  0.00     0.074 A 
ATOM     54  C   UNL A   1      44.514  30.648  34.794  1.00  0.00     0.029 A 
ATOM     55  N   UNL A   1      43.920  29.400  33.051  1.00  0.00    -0.354 N 
ATOM     56  N   UNL A   1      44.267  27.238  31.082  1.00  0.00    -0.248 NA
ATOM     57  C   UNL A   1      45.584  25.571  30.112  1.00  0.00     0.031 C 
ATOM     58  C   UNL A   1      45.557  29.762  34.507  1.00  0.00     0.029 A 
ATOM     59  C   UNL A   1      45.178  28.967  33.437  1.00  0.00     0.049 A 
ATOM     60  H   UNL A   1      43.397  29.024  32.305  1.00  0.00     0.167 HD
ATOM     61  C   UNL A   1      45.476  27.159  31.763  1.00  0.00     0.074 A 
ATOM     62  C   UNL A   1      46.239  26.098  31.138  1.00  0.00     0.031 C 
ATOM     63  C   UNL A   1      45.914  27.895  32.814  1.00  0.00     0.037 A 
BRANCH  50  64
ATOM     64  C   UNL A   1      41.979  32.291  34.668  1.00  0.00     0.058 A 
ATOM     65  C   UNL A   1      41.379  32.098  35.923  1.00  0.00     0.135 A 
ATOM     66  C   UNL A   1      42.351  33.598  34.316  1.00  0.00     0.135 A 
ATOM     67  F   UNL A   1      40.990  30.872  36.305  1.00  0.00    -0.206 F 
ATOM     68  C   UNL A   1      41.128  33.163  36.781  1.00  0.00     0.059 A 
ATOM     69  C   UNL A   1      42.137  34.676  35.172  1.00  0.00     0.059 A 
ATOM     70  F   UNL A   1      42.928  33.841  33.128  1.00  0.00    -0.206 F 
ATOM     71  C   UNL A   1      41.511  34.449  36.397  1.00  0.00     0.060 A 
BRANCH  71  72
ATOM     72  S   UNL A   1      41.182  35.819  37.525  1.00  0.00     0.124 S 
ATOM     73  O   UNL A   1      40.131  36.537  36.809  1.00  0.00    -0.237 OA
ATOM     74  O   UNL A   1      40.762  35.129  38.740  1.00  0.00    -0.237 OA
ATOM     75  O   UNL A   1      42.466  36.508  37.609  1.00  0.00    -0.744 OA
ENDBRANCH  71  72
ENDBRANCH  50  64
BRANCH  51  76
ATOM     76  C   UNL A   1      43.522  24.864  28.141  1.00  0.00     0.058 A 
ATOM     77  C   UNL A   1      43.114  23.544  28.387  1.00  0.00     0.135 A 
ATOM     78  C   UNL A   1      44.162  25.132  26.920  1.00  0.00     0.135 A 
ATOM     79  F   UNL A   1      42.504  23.237  29.542  1.00  0.00    -0.206 F 
ATOM     80  C   UNL A   1      43.342  22.526  27.468  1.00  0.00     0.059 A 
ATOM     81  C   UNL A   1      44.378  24.136  25.973  1.00  0.00     0.059 A 
ATOM     82  F   UNL A   1      44.555  26.381  26.626  1.00  0.00    -0.206 F 
ATOM     83  C   UNL A   1      43.973  22.833  26.261  1.00  0.00     0.060 A 
BRANCH  83  84
ATOM     84  S   UNL A   1      44.221  21.514  25.053  1.00  0.00     0.124 S 
ATOM     85  O   UNL A   1      43.114  20.618  25.365  1.00  0.00    -0.237 OA
ATOM     86  O   UNL A   1      44.122  22.235  23.788  1.00  0.00    -0.237 OA
ATOM     87  O   UNL A   1      45.553  21.011  25.376  1.00  0.00    -0.744 OA
ENDBRANCH  83  84
ENDBRANCH  51  76
BRANCH  63  88
ATOM     88  C   UNL A   1      47.258  27.554  33.397  1.00  0.00     0.058 A 
ATOM     89  C   UNL A   1      47.415  26.530  34.342  1.00  0.00     0.135 A 
ATOM     90  C   UNL A   1      48.413  28.203  32.930  1.00  0.00     0.135 A 
ATOM     91  F   UNL A   1      46.341  25.886  34.827  1.00  0.00    -0.206 F 
ATOM     92  C   UNL A   1      48.673  26.164  34.811  1.00  0.00     0.059 A 
ATOM     93  C   UNL A   1      49.682  27.834  33.365  1.00  0.00     0.059 A 
ATOM     94  F   UNL A   1      48.317  29.184  32.020  1.00  0.00    -0.206 F 
ATOM     95  C   UNL A   1      49.801  26.816  34.309  1.00  0.00     0.060 A 
BRANCH  95  96
ATOM     96  S   UNL A   1      51.431  26.282  34.873  1.00  0.00     0.124 S 
ATOM     97  O   UNL A   1      52.308  27.182  34.131  1.00  0.00    -0.237 OA
ATOM     98  O   UNL A   1      51.354  26.515  36.312  1.00  0.00    -0.237 OA
ATOM     99  O   UNL A   1      51.487  24.879  34.474  1.00  0.00    -0.744 OA
ENDBRANCH  95  96
ENDBRANCH  63  88
ENDBRANCH  37  38
ENDBRANCH  29  32
ENDBRANCH  27  28
ENDBRANCH  26  27
ENDBRANCH  25  26
ENDBRANCH  24  25
ENDBRANCH   1  24
TORSDOF 22
ENDMDL
