MODEL 1
REMARK VINA RESULT:     -11.5      0.000      0.000
REMARK SMILES C[C@@H]1CCC[C@H]1NC(=O)c1csc(/C=C/C(=O)NCCCCCCNC(=O)c2ccc(-c3c4nc(c(-c5c(F)cc(S(=O)(=O)[O-])cc5F)c5ccc([nH]5)c(-c5c(F)cc(S(=O)(=O)[O-])cc5F)c5nc(c(-c6c(F)cc(S(=O)(=O)[O-])cc6F)c6ccc3[nH]6)C=C5)C=C4)cc2)c1
REMARK SMILES IDX 21 1 20 2 19 3 18 4 16 5 17 6 15 8 14 9 13 10 10 11 11 12
REMARK SMILES IDX 94 13 12 14 8 15 7 16 9 18 6 19 1 20 2 21 3 22 4 23 5 24
REMARK SMILES IDX 22 25 23 26 24 27 25 28 26 29 27 31 28 32 29 33 93 34 30 35
REMARK SMILES IDX 92 36 31 37 32 38 33 39 86 40 34 41 91 42 85 43 87 44 35 45
REMARK SMILES IDX 90 46 84 47 83 48 36 50 70 51 49 52 69 53 50 54 53 55 68 56
REMARK SMILES IDX 88 57 51 58 52 59 67 61 89 62 54 63 37 64 38 65 47 66 39 67
REMARK SMILES IDX 40 68 46 69 48 70 41 71 42 72 43 73 44 74 45 75 71 76 72 77
REMARK SMILES IDX 81 78 73 79 74 80 80 81 82 82 75 83 76 84 77 85 78 86 79 87
REMARK SMILES IDX 55 88 56 89 65 90 57 91 58 92 64 93 66 94 59 95 60 96 61 97
REMARK SMILES IDX 62 98 63 99
REMARK H PARENT 18 7 7 17 25 30 87 49 53 60
REMARK Flexibility Score: inf
ROOT
ATOM      1  C   UNL A   1      32.268  28.087  24.122  1.00  0.00     0.002 C 
ENDROOT
BRANCH   1   2
ATOM      2  C   UNL A   1      31.089  28.088  23.139  1.00  0.00     0.021 C 
BRANCH   2   3
ATOM      3  C   UNL A   1      30.807  26.712  22.533  1.00  0.00     0.116 C 
BRANCH   3   4
ATOM      4  N   UNL A   1      31.621  26.514  21.345  1.00  0.00    -0.353 N 
ATOM      5  C   UNL A   1      32.608  25.623  21.071  1.00  0.00     0.244 C 
ATOM      6  O   UNL A   1      33.130  25.616  19.958  1.00  0.00    -0.270 OA
ATOM      7  H   UNL A   1      31.420  27.136  20.608  1.00  0.00     0.163 HD
BRANCH   5   8
ATOM      8  C   UNL A   1      32.988  24.587  22.054  1.00  0.00     0.072 C 
ATOM      9  C   UNL A   1      33.915  24.756  23.006  1.00  0.00     0.024 C 
BRANCH   9  10
ATOM     10  C   UNL A   1      34.188  23.776  24.002  1.00  0.00     0.028 A 
ATOM     11  C   UNL A   1      35.013  21.804  25.006  1.00  0.00     0.051 A 
ATOM     12  C   UNL A   1      34.304  22.377  26.044  1.00  0.00     0.079 A 
ATOM     13  C   UNL A   1      34.985  22.653  23.853  1.00  0.00     0.033 A 
ATOM     14  S   UNL A   1      33.527  23.827  25.588  1.00  0.00    -0.144 S 
BRANCH  11  15
ATOM     15  C   UNL A   1      35.744  20.548  25.076  1.00  0.00     0.252 C 
ATOM     16  N   UNL A   1      35.076  19.374  24.833  1.00  0.00    -0.349 N 
ATOM     17  H   UNL A   1      35.609  18.556  24.957  1.00  0.00     0.164 HD
ATOM     18  O   UNL A   1      36.951  20.518  25.292  1.00  0.00    -0.269 OA
BRANCH  16  19
ATOM     19  C   UNL A   1      33.693  19.159  24.420  1.00  0.00     0.085 C 
ATOM     20  C   UNL A   1      32.315  18.050  22.609  1.00  0.00     0.010 C 
ATOM     21  C   UNL A   1      33.569  17.951  23.481  1.00  0.00     0.008 C 
ATOM     22  C   UNL A   1      33.499  16.765  24.442  1.00  0.00     0.005 C 
ATOM     23  C   UNL A   1      32.737  17.274  25.661  1.00  0.00     0.002 C 
ATOM     24  C   UNL A   1      32.834  18.801  25.635  1.00  0.00     0.025 C 
ENDBRANCH  16  19
ENDBRANCH  11  15
ENDBRANCH   9  10
ENDBRANCH   5   8
ENDBRANCH   3   4
ENDBRANCH   2   3
ENDBRANCH   1   2
BRANCH   1  25
ATOM     25  C   UNL A   1      31.980  27.408  25.467  1.00  0.00     0.002 C 
BRANCH  25  26
ATOM     26  C   UNL A   1      32.913  27.818  26.609  1.00  0.00     0.021 C 
BRANCH  26  27
ATOM     27  C   UNL A   1      34.060  28.729  26.182  1.00  0.00     0.116 C 
BRANCH  27  28
ATOM     28  N   UNL A   1      33.799  30.114  26.536  1.00  0.00    -0.352 N 
ATOM     29  C   UNL A   1      34.407  30.896  27.484  1.00  0.00     0.251 C 
ATOM     30  H   UNL A   1      33.085  30.554  26.022  1.00  0.00     0.163 HD
ATOM     31  O   UNL A   1      33.893  31.961  27.815  1.00  0.00    -0.269 OA
BRANCH  29  32
ATOM     32  C   UNL A   1      35.675  30.456  28.105  1.00  0.00     0.039 A 
ATOM     33  C   UNL A   1      35.626  29.655  29.249  1.00  0.00     0.014 A 
ATOM     34  C   UNL A   1      36.908  30.871  27.593  1.00  0.00     0.014 A 
ATOM     35  C   UNL A   1      36.813  29.256  29.866  1.00  0.00     0.010 A 
ATOM     36  C   UNL A   1      38.091  30.405  28.159  1.00  0.00     0.010 A 
ATOM     37  C   UNL A   1      38.056  29.620  29.321  1.00  0.00    -0.014 A 
BRANCH  37  38
ATOM     38  C   UNL A   1      39.325  29.242  29.992  1.00  0.00     0.031 A 
ATOM     39  C   UNL A   1      39.759  29.970  31.239  1.00  0.00     0.074 A 
ATOM     40  C   UNL A   1      40.097  28.270  29.468  1.00  0.00     0.049 A 
ATOM     41  N   UNL A   1      40.842  29.810  31.955  1.00  0.00    -0.248 NA
ATOM     42  C   UNL A   1      38.874  31.039  31.728  1.00  0.00     0.031 C 
ATOM     43  C   UNL A   1      39.806  27.528  28.240  1.00  0.00     0.029 A 
ATOM     44  N   UNL A   1      41.287  27.742  29.902  1.00  0.00    -0.354 N 
ATOM     45  C   UNL A   1      40.773  30.763  32.967  1.00  0.00     0.074 A 
ATOM     46  C   UNL A   1      39.576  31.538  32.733  1.00  0.00     0.031 C 
ATOM     47  C   UNL A   1      40.774  26.620  28.036  1.00  0.00     0.029 A 
ATOM     48  C   UNL A   1      41.769  26.736  29.098  1.00  0.00     0.049 A 
ATOM     49  H   UNL A   1      41.751  28.053  30.712  1.00  0.00     0.167 HD
ATOM     50  C   UNL A   1      41.611  30.952  34.013  1.00  0.00     0.037 A 
ATOM     51  C   UNL A   1      42.887  25.993  29.208  1.00  0.00     0.037 A 
ATOM     52  C   UNL A   1      42.786  30.156  34.255  1.00  0.00     0.049 A 
ATOM     53  C   UNL A   1      43.797  26.215  30.387  1.00  0.00     0.074 A 
ATOM     54  C   UNL A   1      43.679  30.233  35.309  1.00  0.00     0.029 A 
ATOM     55  N   UNL A   1      43.229  29.130  33.431  1.00  0.00    -0.354 N 
ATOM     56  N   UNL A   1      43.687  27.083  31.365  1.00  0.00    -0.248 NA
ATOM     57  C   UNL A   1      44.975  25.343  30.486  1.00  0.00     0.031 C 
ATOM     58  C   UNL A   1      44.685  29.284  35.100  1.00  0.00     0.029 A 
ATOM     59  C   UNL A   1      44.389  28.576  33.946  1.00  0.00     0.049 A 
ATOM     60  H   UNL A   1      42.784  28.840  32.603  1.00  0.00     0.167 HD
ATOM     61  C   UNL A   1      44.762  26.839  32.213  1.00  0.00     0.074 A 
ATOM     62  C   UNL A   1      45.500  25.732  31.638  1.00  0.00     0.031 C 
ATOM     63  C   UNL A   1      45.108  27.470  33.363  1.00  0.00     0.037 A 
BRANCH  50  64
ATOM     64  C   UNL A   1      41.281  32.061  34.979  1.00  0.00     0.058 A 
ATOM     65  C   UNL A   1      41.863  33.335  34.867  1.00  0.00     0.135 A 
ATOM     66  C   UNL A   1      40.356  31.856  36.015  1.00  0.00     0.135 A 
ATOM     67  F   UNL A   1      42.767  33.583  33.906  1.00  0.00    -0.206 F 
ATOM     68  C   UNL A   1      41.567  34.353  35.766  1.00  0.00     0.059 A 
ATOM     69  C   UNL A   1      40.020  32.871  36.908  1.00  0.00     0.059 A 
ATOM     70  F   UNL A   1      39.770  30.659  36.172  1.00  0.00    -0.206 F 
ATOM     71  C   UNL A   1      40.643  34.112  36.784  1.00  0.00     0.060 A 
BRANCH  71  72
ATOM     72  S   UNL A   1      40.267  35.445  37.941  1.00  0.00     0.124 S 
ATOM     73  O   UNL A   1      39.935  36.537  37.030  1.00  0.00    -0.237 OA
ATOM     74  O   UNL A   1      39.152  34.893  38.702  1.00  0.00    -0.237 OA
ATOM     75  O   UNL A   1      41.511  35.609  38.687  1.00  0.00    -0.744 OA
ENDBRANCH  71  72
ENDBRANCH  50  64
BRANCH  51  76
ATOM     76  C   UNL A   1      43.188  24.944  28.196  1.00  0.00     0.058 A 
ATOM     77  C   UNL A   1      42.868  23.599  28.432  1.00  0.00     0.135 A 
ATOM     78  C   UNL A   1      43.800  25.265  26.975  1.00  0.00     0.135 A 
ATOM     79  F   UNL A   1      42.286  23.241  29.588  1.00  0.00    -0.206 F 
ATOM     80  C   UNL A   1      43.166  22.604  27.507  1.00  0.00     0.059 A 
ATOM     81  C   UNL A   1      44.082  24.291  26.020  1.00  0.00     0.059 A 
ATOM     82  F   UNL A   1      44.109  26.539  26.691  1.00  0.00    -0.206 F 
ATOM     83  C   UNL A   1      43.773  22.961  26.302  1.00  0.00     0.060 A 
BRANCH  83  84
ATOM     84  S   UNL A   1      44.123  21.666  25.093  1.00  0.00     0.124 S 
ATOM     85  O   UNL A   1      43.076  20.695  25.390  1.00  0.00    -0.237 OA
ATOM     86  O   UNL A   1      43.990  22.383  23.829  1.00  0.00    -0.237 OA
ATOM     87  O   UNL A   1      45.483  21.253  25.429  1.00  0.00    -0.744 OA
ENDBRANCH  83  84
ENDBRANCH  51  76
BRANCH  63  88
ATOM     88  C   UNL A   1      46.311  26.946  34.099  1.00  0.00     0.058 A 
ATOM     89  C   UNL A   1      47.604  27.437  33.856  1.00  0.00     0.135 A 
ATOM     90  C   UNL A   1      46.165  25.943  35.071  1.00  0.00     0.135 A 
ATOM     91  F   UNL A   1      47.802  28.395  32.936  1.00  0.00    -0.206 F 
ATOM     92  C   UNL A   1      48.713  26.919  34.516  1.00  0.00     0.059 A 
ATOM     93  C   UNL A   1      47.257  25.434  35.767  1.00  0.00     0.059 A 
ATOM     94  F   UNL A   1      44.949  25.448  35.356  1.00  0.00    -0.206 F 
ATOM     95  C   UNL A   1      48.530  25.913  35.466  1.00  0.00     0.060 A 
BRANCH  95  96
ATOM     96  S   UNL A   1      49.978  25.242  36.309  1.00  0.00     0.124 S 
ATOM     97  O   UNL A   1      49.405  24.096  37.008  1.00  0.00    -0.237 OA
ATOM     98  O   UNL A   1      50.869  24.926  35.198  1.00  0.00    -0.237 OA
ATOM     99  O   UNL A   1      50.415  26.344  37.161  1.00  0.00    -0.744 OA
ENDBRANCH  95  96
ENDBRANCH  63  88
ENDBRANCH  37  38
ENDBRANCH  29  32
ENDBRANCH  27  28
ENDBRANCH  26  27
ENDBRANCH  25  26
ENDBRANCH   1  25
TORSDOF 19
ENDMDL
MODEL 2
REMARK VINA RESULT:     -11.4      4.818      6.103
REMARK SMILES C[C@@H]1CCC[C@H]1NC(=O)c1csc(/C=C/C(=O)NCCCCCCNC(=O)c2ccc(-c3c4nc(c(-c5c(F)cc(S(=O)(=O)[O-])cc5F)c5ccc([nH]5)c(-c5c(F)cc(S(=O)(=O)[O-])cc5F)c5nc(c(-c6c(F)cc(S(=O)(=O)[O-])cc6F)c6ccc3[nH]6)C=C5)C=C4)cc2)c1
REMARK SMILES IDX 21 1 20 2 19 3 18 4 16 5 17 6 15 8 14 9 13 10 10 11 11 12
REMARK SMILES IDX 94 13 12 14 8 15 7 16 9 18 6 19 1 20 2 21 3 22 4 23 5 24
REMARK SMILES IDX 22 25 23 26 24 27 25 28 26 29 27 31 28 32 29 33 93 34 30 35
REMARK SMILES IDX 92 36 31 37 32 38 33 39 86 40 34 41 91 42 85 43 87 44 35 45
REMARK SMILES IDX 90 46 84 47 83 48 36 50 70 51 49 52 69 53 50 54 53 55 68 56
REMARK SMILES IDX 88 57 51 58 52 59 67 61 89 62 54 63 37 64 38 65 47 66 39 67
REMARK SMILES IDX 40 68 46 69 48 70 41 71 42 72 43 73 44 74 45 75 71 76 72 77
REMARK SMILES IDX 81 78 73 79 74 80 80 81 82 82 75 83 76 84 77 85 78 86 79 87
REMARK SMILES IDX 55 88 56 89 65 90 57 91 58 92 64 93 66 94 59 95 60 96 61 97
REMARK SMILES IDX 62 98 63 99
REMARK H PARENT 18 7 7 17 25 30 87 49 53 60
REMARK Flexibility Score: inf
ROOT
ATOM      1  C   UNL A   1      34.070  28.417  26.203  1.00  0.00     0.002 C 
ENDROOT
BRANCH   1   2
ATOM      2  C   UNL A   1      33.339  29.321  25.201  1.00  0.00     0.021 C 
BRANCH   2   3
ATOM      3  C   UNL A   1      32.281  28.582  24.381  1.00  0.00     0.116 C 
BRANCH   3   4
ATOM      4  N   UNL A   1      32.830  28.194  23.092  1.00  0.00    -0.353 N 
ATOM      5  C   UNL A   1      33.389  27.032  22.667  1.00  0.00     0.244 C 
ATOM      6  O   UNL A   1      33.745  26.921  21.496  1.00  0.00    -0.270 OA
ATOM      7  H   UNL A   1      32.789  28.899  22.405  1.00  0.00     0.163 HD
BRANCH   5   8
ATOM      8  C   UNL A   1      33.471  25.859  23.562  1.00  0.00     0.072 C 
ATOM      9  C   UNL A   1      33.959  24.666  23.196  1.00  0.00     0.024 C 
BRANCH   9  10
ATOM     10  C   UNL A   1      34.119  23.583  24.108  1.00  0.00     0.028 A 
ATOM     11  C   UNL A   1      34.866  21.531  25.005  1.00  0.00     0.051 A 
ATOM     12  C   UNL A   1      33.980  21.960  25.974  1.00  0.00     0.079 A 
ATOM     13  C   UNL A   1      34.978  22.508  23.963  1.00  0.00     0.033 A 
ATOM     14  S   UNL A   1      33.219  23.432  25.564  1.00  0.00    -0.144 S 
BRANCH  11  15
ATOM     15  C   UNL A   1      35.632  20.296  25.050  1.00  0.00     0.252 C 
ATOM     16  N   UNL A   1      34.995  19.106  24.801  1.00  0.00    -0.349 N 
ATOM     17  H   UNL A   1      35.552  18.302  24.908  1.00  0.00     0.164 HD
ATOM     18  O   UNL A   1      36.843  20.297  25.251  1.00  0.00    -0.269 OA
BRANCH  16  19
ATOM     19  C   UNL A   1      33.613  18.857  24.402  1.00  0.00     0.085 C 
ATOM     20  C   UNL A   1      32.233  18.033  22.447  1.00  0.00     0.010 C 
ATOM     21  C   UNL A   1      33.537  17.868  23.231  1.00  0.00     0.008 C 
ATOM     22  C   UNL A   1      33.618  16.504  23.916  1.00  0.00     0.005 C 
ATOM     23  C   UNL A   1      32.885  16.673  25.243  1.00  0.00     0.002 C 
ATOM     24  C   UNL A   1      32.855  18.174  25.542  1.00  0.00     0.025 C 
ENDBRANCH  16  19
ENDBRANCH  11  15
ENDBRANCH   9  10
ENDBRANCH   5   8
ENDBRANCH   3   4
ENDBRANCH   2   3
ENDBRANCH   1   2
BRANCH   1  25
ATOM     25  C   UNL A   1      34.440  29.096  27.527  1.00  0.00     0.002 C 
BRANCH  25  26
ATOM     26  C   UNL A   1      34.539  30.622  27.465  1.00  0.00     0.021 C 
BRANCH  26  27
ATOM     27  C   UNL A   1      35.753  31.199  28.185  1.00  0.00     0.116 C 
BRANCH  27  28
ATOM     28  N   UNL A   1      35.653  31.020  29.624  1.00  0.00    -0.352 N 
ATOM     29  C   UNL A   1      36.478  30.326  30.470  1.00  0.00     0.251 C 
ATOM     30  H   UNL A   1      34.883  31.458  30.052  1.00  0.00     0.163 HD
ATOM     31  O   UNL A   1      36.106  30.074  31.613  1.00  0.00    -0.269 OA
BRANCH  29  32
ATOM     32  C   UNL A   1      37.811  29.882  30.007  1.00  0.00     0.039 A 
ATOM     33  C   UNL A   1      38.763  29.498  30.955  1.00  0.00     0.014 A 
ATOM     34  C   UNL A   1      38.139  29.890  28.648  1.00  0.00     0.014 A 
ATOM     35  C   UNL A   1      40.036  29.106  30.537  1.00  0.00     0.010 A 
ATOM     36  C   UNL A   1      39.380  29.421  28.228  1.00  0.00     0.010 A 
ATOM     37  C   UNL A   1      40.353  29.055  29.170  1.00  0.00    -0.014 A 
BRANCH  37  38
ATOM     38  C   UNL A   1      41.716  28.684  28.714  1.00  0.00     0.031 A 
ATOM     39  C   UNL A   1      42.802  29.729  28.671  1.00  0.00     0.074 A 
ATOM     40  C   UNL A   1      41.969  27.424  28.312  1.00  0.00     0.049 A 
ATOM     41  N   UNL A   1      44.045  29.615  28.280  1.00  0.00    -0.248 NA
ATOM     42  C   UNL A   1      42.434  31.089  29.098  1.00  0.00     0.031 C 
ATOM     43  C   UNL A   1      40.988  26.338  28.262  1.00  0.00     0.029 A 
ATOM     44  N   UNL A   1      43.130  26.843  27.867  1.00  0.00    -0.354 N 
ATOM     45  C   UNL A   1      44.600  30.885  28.401  1.00  0.00     0.074 A 
ATOM     46  C   UNL A   1      43.542  31.767  28.839  1.00  0.00     0.031 C 
ATOM     47  C   UNL A   1      41.594  25.216  27.842  1.00  0.00     0.029 A 
ATOM     48  C   UNL A   1      42.997  25.509  27.561  1.00  0.00     0.049 A 
ATOM     49  H   UNL A   1      43.978  27.335  27.776  1.00  0.00     0.167 HD
ATOM     50  C   UNL A   1      45.880  31.274  28.198  1.00  0.00     0.037 A 
ATOM     51  C   UNL A   1      43.905  24.624  27.108  1.00  0.00     0.037 A 
ATOM     52  C   UNL A   1      46.935  30.383  27.790  1.00  0.00     0.049 A 
ATOM     53  C   UNL A   1      45.326  25.078  26.902  1.00  0.00     0.074 A 
ATOM     54  C   UNL A   1      48.277  30.664  27.600  1.00  0.00     0.029 A 
ATOM     55  N   UNL A   1      46.767  29.033  27.512  1.00  0.00    -0.354 N 
ATOM     56  N   UNL A   1      45.846  26.271  27.074  1.00  0.00    -0.248 NA
ATOM     57  C   UNL A   1      46.288  24.062  26.455  1.00  0.00     0.031 C 
ATOM     58  C   UNL A   1      48.911  29.494  27.166  1.00  0.00     0.029 A 
ATOM     59  C   UNL A   1      47.977  28.472  27.141  1.00  0.00     0.049 A 
ATOM     60  H   UNL A   1      45.913  28.547  27.572  1.00  0.00     0.167 HD
ATOM     61  C   UNL A   1      47.202  26.140  26.790  1.00  0.00     0.074 A 
ATOM     62  C   UNL A   1      47.420  24.748  26.450  1.00  0.00     0.031 C 
ATOM     63  C   UNL A   1      48.178  27.082  26.810  1.00  0.00     0.037 A 
BRANCH  50  64
ATOM     64  C   UNL A   1      46.211  32.727  28.423  1.00  0.00     0.058 A 
ATOM     65  C   UNL A   1      46.130  33.671  27.385  1.00  0.00     0.135 A 
ATOM     66  C   UNL A   1      46.592  33.186  29.693  1.00  0.00     0.135 A 
ATOM     67  F   UNL A   1      45.788  33.286  26.145  1.00  0.00    -0.206 F 
ATOM     68  C   UNL A   1      46.448  35.009  27.590  1.00  0.00     0.059 A 
ATOM     69  C   UNL A   1      46.884  34.527  29.930  1.00  0.00     0.059 A 
ATOM     70  F   UNL A   1      46.689  32.329  30.722  1.00  0.00    -0.206 F 
ATOM     71  C   UNL A   1      46.824  35.429  28.868  1.00  0.00     0.060 A 
BRANCH  71  72
ATOM     72  S   UNL A   1      47.229  37.169  29.118  1.00  0.00     0.124 S 
ATOM     73  O   UNL A   1      48.430  37.310  28.300  1.00  0.00    -0.237 OA
ATOM     74  O   UNL A   1      46.037  37.843  28.615  1.00  0.00    -0.237 OA
ATOM     75  O   UNL A   1      47.438  37.266  30.560  1.00  0.00    -0.744 OA
ENDBRANCH  71  72
ENDBRANCH  50  64
BRANCH  51  76
ATOM     76  C   UNL A   1      43.510  23.212  26.856  1.00  0.00     0.058 A 
ATOM     77  C   UNL A   1      43.164  22.358  27.914  1.00  0.00     0.135 A 
ATOM     78  C   UNL A   1      43.470  22.688  25.555  1.00  0.00     0.135 A 
ATOM     79  F   UNL A   1      43.192  22.811  29.177  1.00  0.00    -0.206 F 
ATOM     80  C   UNL A   1      42.817  21.029  27.697  1.00  0.00     0.059 A 
ATOM     81  C   UNL A   1      43.097  21.369  25.309  1.00  0.00     0.059 A 
ATOM     82  F   UNL A   1      43.773  23.467  24.506  1.00  0.00    -0.206 F 
ATOM     83  C   UNL A   1      42.785  20.544  26.388  1.00  0.00     0.060 A 
BRANCH  83  84
ATOM     84  S   UNL A   1      42.298  18.826  26.115  1.00  0.00     0.124 S 
ATOM     85  O   UNL A   1      42.597  18.225  27.409  1.00  0.00    -0.237 OA
ATOM     86  O   UNL A   1      40.883  18.959  25.782  1.00  0.00    -0.237 OA
ATOM     87  O   UNL A   1      43.156  18.407  25.010  1.00  0.00    -0.744 OA
ENDBRANCH  83  84
ENDBRANCH  51  76
BRANCH  63  88
ATOM     88  C   UNL A   1      49.578  26.627  26.500  1.00  0.00     0.058 A 
ATOM     89  C   UNL A   1      50.429  26.110  27.490  1.00  0.00     0.135 A 
ATOM     90  C   UNL A   1      50.072  26.701  25.187  1.00  0.00     0.135 A 
ATOM     91  F   UNL A   1      50.009  26.019  28.762  1.00  0.00    -0.206 F 
ATOM     92  C   UNL A   1      51.734  25.727  27.198  1.00  0.00     0.059 A 
ATOM     93  C   UNL A   1      51.362  26.292  24.867  1.00  0.00     0.059 A 
ATOM     94  F   UNL A   1      49.295  27.171  24.198  1.00  0.00    -0.206 F 
ATOM     95  C   UNL A   1      52.193  25.828  25.884  1.00  0.00     0.060 A 
BRANCH  95  96
ATOM     96  S   UNL A   1      53.891  25.336  25.519  1.00  0.00     0.124 S 
ATOM     97  O   UNL A   1      54.361  26.470  24.730  1.00  0.00    -0.237 OA
ATOM     98  O   UNL A   1      54.473  25.207  26.851  1.00  0.00    -0.237 OA
ATOM     99  O   UNL A   1      53.732  24.083  24.787  1.00  0.00    -0.744 OA
ENDBRANCH  95  96
ENDBRANCH  63  88
ENDBRANCH  37  38
ENDBRANCH  29  32
ENDBRANCH  27  28
ENDBRANCH  26  27
ENDBRANCH  25  26
ENDBRANCH   1  25
TORSDOF 19
ENDMDL
MODEL 3
REMARK VINA RESULT:     -11.0      5.041      6.535
REMARK SMILES C[C@@H]1CCC[C@H]1NC(=O)c1csc(/C=C/C(=O)NCCCCCCNC(=O)c2ccc(-c3c4nc(c(-c5c(F)cc(S(=O)(=O)[O-])cc5F)c5ccc([nH]5)c(-c5c(F)cc(S(=O)(=O)[O-])cc5F)c5nc(c(-c6c(F)cc(S(=O)(=O)[O-])cc6F)c6ccc3[nH]6)C=C5)C=C4)cc2)c1
REMARK SMILES IDX 21 1 20 2 19 3 18 4 16 5 17 6 15 8 14 9 13 10 10 11 11 12
REMARK SMILES IDX 94 13 12 14 8 15 7 16 9 18 6 19 1 20 2 21 3 22 4 23 5 24
REMARK SMILES IDX 22 25 23 26 24 27 25 28 26 29 27 31 28 32 29 33 93 34 30 35
REMARK SMILES IDX 92 36 31 37 32 38 33 39 86 40 34 41 91 42 85 43 87 44 35 45
REMARK SMILES IDX 90 46 84 47 83 48 36 50 70 51 49 52 69 53 50 54 53 55 68 56
REMARK SMILES IDX 88 57 51 58 52 59 67 61 89 62 54 63 37 64 38 65 47 66 39 67
REMARK SMILES IDX 40 68 46 69 48 70 41 71 42 72 43 73 44 74 45 75 71 76 72 77
REMARK SMILES IDX 81 78 73 79 74 80 80 81 82 82 75 83 76 84 77 85 78 86 79 87
REMARK SMILES IDX 55 88 56 89 65 90 57 91 58 92 64 93 66 94 59 95 60 96 61 97
REMARK SMILES IDX 62 98 63 99
REMARK H PARENT 18 7 7 17 25 30 87 49 53 60
REMARK Flexibility Score: inf
ROOT
ATOM      1  C   UNL A   1      33.774  28.749  26.094  1.00  0.00     0.002 C 
ENDROOT
BRANCH   1   2
ATOM      2  C   UNL A   1      33.003  29.865  25.377  1.00  0.00     0.021 C 
BRANCH   2   3
ATOM      3  C   UNL A   1      31.487  29.660  25.395  1.00  0.00     0.116 C 
BRANCH   3   4
ATOM      4  N   UNL A   1      30.977  29.584  24.036  1.00  0.00    -0.353 N 
ATOM      5  C   UNL A   1      30.912  28.550  23.158  1.00  0.00     0.244 C 
ATOM      6  O   UNL A   1      30.385  28.717  22.060  1.00  0.00    -0.270 OA
ATOM      7  H   UNL A   1      30.615  30.432  23.691  1.00  0.00     0.163 HD
BRANCH   5   8
ATOM      8  C   UNL A   1      31.362  27.197  23.545  1.00  0.00     0.072 C 
ATOM      9  C   UNL A   1      30.748  26.433  24.459  1.00  0.00     0.024 C 
BRANCH   9  10
ATOM     10  C   UNL A   1      31.146  25.094  24.739  1.00  0.00     0.028 A 
ATOM     11  C   UNL A   1      32.163  23.265  25.832  1.00  0.00     0.051 A 
ATOM     12  C   UNL A   1      31.618  22.662  24.716  1.00  0.00     0.079 A 
ATOM     13  C   UNL A   1      31.831  24.659  25.860  1.00  0.00     0.033 A 
ATOM     14  S   UNL A   1      30.845  23.776  23.679  1.00  0.00    -0.144 S 
BRANCH  11  15
ATOM     15  C   UNL A   1      32.917  22.586  26.875  1.00  0.00     0.252 C 
ATOM     16  N   UNL A   1      34.102  21.975  26.551  1.00  0.00    -0.349 N 
ATOM     17  H   UNL A   1      34.533  21.480  27.284  1.00  0.00     0.164 HD
ATOM     18  O   UNL A   1      32.547  22.594  28.045  1.00  0.00    -0.269 OA
BRANCH  16  19
ATOM     19  C   UNL A   1      34.818  21.950  25.279  1.00  0.00     0.085 C 
ATOM     20  C   UNL A   1      35.609  23.474  23.419  1.00  0.00     0.010 C 
ATOM     21  C   UNL A   1      35.385  23.332  24.927  1.00  0.00     0.008 C 
ATOM     22  C   UNL A   1      36.701  23.379  25.701  1.00  0.00     0.005 C 
ATOM     23  C   UNL A   1      37.234  21.950  25.684  1.00  0.00     0.002 C 
ATOM     24  C   UNL A   1      36.042  21.039  25.386  1.00  0.00     0.025 C 
ENDBRANCH  16  19
ENDBRANCH  11  15
ENDBRANCH   9  10
ENDBRANCH   5   8
ENDBRANCH   3   4
ENDBRANCH   2   3
ENDBRANCH   1   2
BRANCH   1  25
ATOM     25  C   UNL A   1      34.752  29.236  27.171  1.00  0.00     0.002 C 
BRANCH  25  26
ATOM     26  C   UNL A   1      34.530  30.676  27.640  1.00  0.00     0.021 C 
BRANCH  26  27
ATOM     27  C   UNL A   1      35.711  31.276  28.395  1.00  0.00     0.116 C 
BRANCH  27  28
ATOM     28  N   UNL A   1      35.612  31.026  29.824  1.00  0.00    -0.352 N 
ATOM     29  C   UNL A   1      36.473  30.347  30.646  1.00  0.00     0.251 C 
ATOM     30  H   UNL A   1      34.813  31.396  30.263  1.00  0.00     0.163 HD
ATOM     31  O   UNL A   1      36.108  30.022  31.773  1.00  0.00    -0.269 OA
BRANCH  29  32
ATOM     32  C   UNL A   1      37.833  30.007  30.177  1.00  0.00     0.039 A 
ATOM     33  C   UNL A   1      38.094  30.000  28.804  1.00  0.00     0.014 A 
ATOM     34  C   UNL A   1      38.837  29.649  31.082  1.00  0.00     0.014 A 
ATOM     35  C   UNL A   1      39.364  29.652  28.343  1.00  0.00     0.010 A 
ATOM     36  C   UNL A   1      40.125  29.383  30.626  1.00  0.00     0.010 A 
ATOM     37  C   UNL A   1      40.393  29.349  29.249  1.00  0.00    -0.014 A 
BRANCH  37  38
ATOM     38  C   UNL A   1      41.736  28.933  28.772  1.00  0.00     0.031 A 
ATOM     39  C   UNL A   1      42.852  29.943  28.698  1.00  0.00     0.074 A 
ATOM     40  C   UNL A   1      41.943  27.661  28.378  1.00  0.00     0.049 A 
ATOM     41  N   UNL A   1      44.083  29.788  28.285  1.00  0.00    -0.248 NA
ATOM     42  C   UNL A   1      42.533  31.318  29.117  1.00  0.00     0.031 C 
ATOM     43  C   UNL A   1      40.929  26.605  28.358  1.00  0.00     0.029 A 
ATOM     44  N   UNL A   1      43.077  27.041  27.918  1.00  0.00    -0.354 N 
ATOM     45  C   UNL A   1      44.678  31.041  28.382  1.00  0.00     0.074 A 
ATOM     46  C   UNL A   1      43.656  31.959  28.830  1.00  0.00     0.031 C 
ATOM     47  C   UNL A   1      41.493  25.462  27.939  1.00  0.00     0.029 A 
ATOM     48  C   UNL A   1      42.898  25.709  27.629  1.00  0.00     0.049 A 
ATOM     49  H   UNL A   1      43.937  27.506  27.806  1.00  0.00     0.167 HD
ATOM     50  C   UNL A   1      45.966  31.389  28.151  1.00  0.00     0.037 A 
ATOM     51  C   UNL A   1      43.770  24.792  27.169  1.00  0.00     0.037 A 
ATOM     52  C   UNL A   1      46.986  30.463  27.733  1.00  0.00     0.049 A 
ATOM     53  C   UNL A   1      45.200  25.201  26.931  1.00  0.00     0.074 A 
ATOM     54  C   UNL A   1      48.331  30.701  27.515  1.00  0.00     0.029 A 
ATOM     55  N   UNL A   1      46.771  29.116  27.473  1.00  0.00    -0.354 N 
ATOM     56  N   UNL A   1      45.759  26.378  27.081  1.00  0.00    -0.248 NA
ATOM     57  C   UNL A   1      46.122  24.151  26.477  1.00  0.00     0.031 C 
ATOM     58  C   UNL A   1      48.922  29.508  27.082  1.00  0.00     0.029 A 
ATOM     59  C   UNL A   1      47.957  28.514  27.085  1.00  0.00     0.049 A 
ATOM     60  H   UNL A   1      45.905  28.657  27.553  1.00  0.00     0.167 HD
ATOM     61  C   UNL A   1      47.105  26.203  26.773  1.00  0.00     0.074 A 
ATOM     62  C   UNL A   1      47.274  24.802  26.444  1.00  0.00     0.031 C 
ATOM     63  C   UNL A   1      48.109  27.116  26.765  1.00  0.00     0.037 A 
BRANCH  50  64
ATOM     64  C   UNL A   1      46.345  32.833  28.354  1.00  0.00     0.058 A 
ATOM     65  C   UNL A   1      46.803  33.310  29.594  1.00  0.00     0.135 A 
ATOM     66  C   UNL A   1      46.272  33.748  27.292  1.00  0.00     0.135 A 
ATOM     67  F   UNL A   1      46.876  32.484  30.650  1.00  0.00    -0.206 F 
ATOM     68  C   UNL A   1      47.141  34.645  29.783  1.00  0.00     0.059 A 
ATOM     69  C   UNL A   1      46.636  35.084  27.449  1.00  0.00     0.059 A 
ATOM     70  F   UNL A   1      45.840  33.351  26.085  1.00  0.00    -0.206 F 
ATOM     71  C   UNL A   1      47.054  35.526  28.703  1.00  0.00     0.060 A 
BRANCH  71  72
ATOM     72  S   UNL A   1      47.500  37.255  28.964  1.00  0.00     0.124 S 
ATOM     73  O   UNL A   1      48.311  37.168  30.176  1.00  0.00    -0.237 OA
ATOM     74  O   UNL A   1      48.224  37.579  27.740  1.00  0.00    -0.237 OA
ATOM     75  O   UNL A   1      46.209  37.919  29.120  1.00  0.00    -0.744 OA
ENDBRANCH  71  72
ENDBRANCH  50  64
BRANCH  51  76
ATOM     76  C   UNL A   1      43.328  23.390  26.938  1.00  0.00     0.058 A 
ATOM     77  C   UNL A   1      43.032  22.540  28.015  1.00  0.00     0.135 A 
ATOM     78  C   UNL A   1      43.192  22.872  25.641  1.00  0.00     0.135 A 
ATOM     79  F   UNL A   1      43.151  22.987  29.275  1.00  0.00    -0.206 F 
ATOM     80  C   UNL A   1      42.642  21.220  27.817  1.00  0.00     0.059 A 
ATOM     81  C   UNL A   1      42.774  21.563  25.417  1.00  0.00     0.059 A 
ATOM     82  F   UNL A   1      43.444  23.648  24.577  1.00  0.00    -0.206 F 
ATOM     83  C   UNL A   1      42.514  20.741  26.512  1.00  0.00     0.060 A 
BRANCH  83  84
ATOM     84  S   UNL A   1      41.972  19.036  26.266  1.00  0.00     0.124 S 
ATOM     85  O   UNL A   1      42.854  18.599  25.190  1.00  0.00    -0.237 OA
ATOM     86  O   UNL A   1      42.219  18.443  27.577  1.00  0.00    -0.237 OA
ATOM     87  O   UNL A   1      40.563  19.181  25.909  1.00  0.00    -0.744 OA
ENDBRANCH  83  84
ENDBRANCH  51  76
BRANCH  63  88
ATOM     88  C   UNL A   1      49.489  26.615  26.434  1.00  0.00     0.058 A 
ATOM     89  C   UNL A   1      50.300  25.983  27.389  1.00  0.00     0.135 A 
ATOM     90  C   UNL A   1      50.002  26.762  25.134  1.00  0.00     0.135 A 
ATOM     91  F   UNL A   1      49.860  25.818  28.647  1.00  0.00    -0.206 F 
ATOM     92  C   UNL A   1      51.588  25.558  27.081  1.00  0.00     0.059 A 
ATOM     93  C   UNL A   1      51.274  26.314  24.795  1.00  0.00     0.059 A 
ATOM     94  F   UNL A   1      49.262  27.345  24.177  1.00  0.00    -0.206 F 
ATOM     95  C   UNL A   1      52.068  25.733  25.782  1.00  0.00     0.060 A 
BRANCH  95  96
ATOM     96  S   UNL A   1      53.744  25.186  25.396  1.00  0.00     0.124 S 
ATOM     97  O   UNL A   1      53.569  23.739  25.319  1.00  0.00    -0.237 OA
ATOM     98  O   UNL A   1      54.010  25.860  24.129  1.00  0.00    -0.237 OA
ATOM     99  O   UNL A   1      54.528  25.665  26.530  1.00  0.00    -0.744 OA
ENDBRANCH  95  96
ENDBRANCH  63  88
ENDBRANCH  37  38
ENDBRANCH  29  32
ENDBRANCH  27  28
ENDBRANCH  26  27
ENDBRANCH  25  26
ENDBRANCH   1  25
TORSDOF 19
ENDMDL
