MODEL 1
REMARK VINA RESULT:     -11.5      0.000      0.000
REMARK SMILES C[N@@H+]1CCC[C@@H](C(=O)N[C@H](C(=O)NCCCCCCNC(=O)c2ccc(-c3c4nc(c(-c5c(F)cc(S(=O)(=O)[O-])cc5F)c5ccc([nH]5)c(-c5c(F)cc(S(=O)(=O)[O-])cc5F)c5nc(c(-c6c(F)cc(S(=O)(=O)[O-])cc6F)c6ccc3[nH]6)C=C5)C=C4)cc2)c2ccccc2)C1
REMARK SMILES IDX 17 1 16 2 15 3 14 4 13 5 11 6 12 7 10 9 9 10 7 11 8 12 6 14
REMARK SMILES IDX 1 15 2 16 3 17 95 18 4 20 5 21 89 22 90 23 94 24 91 25 93 26
REMARK SMILES IDX 92 27 18 28 19 29 20 30 21 31 22 33 23 34 24 35 88 36 25 37
REMARK SMILES IDX 87 38 26 39 27 40 28 41 81 42 29 43 86 44 80 45 82 46 30 47
REMARK SMILES IDX 85 48 79 49 78 50 31 52 65 53 44 54 64 55 45 56 48 57 63 58
REMARK SMILES IDX 83 59 46 60 47 61 62 63 84 64 49 65 32 66 33 67 42 68 34 69
REMARK SMILES IDX 35 70 41 71 43 72 36 73 37 74 38 75 39 76 40 77 66 78 67 79
REMARK SMILES IDX 76 80 68 81 69 82 75 83 77 84 70 85 71 86 72 87 73 88 74 89
REMARK SMILES IDX 50 90 51 91 60 92 52 93 53 94 59 95 61 96 54 97 55 98 56 99
REMARK SMILES IDX 57 100 58 101
REMARK H PARENT 13 8 9 13 2 19 20 32 82 51 48 62
REMARK Flexibility Score: inf
ROOT
ATOM      1  C   UNL A   1      31.949  27.359  25.603  1.00  0.00     0.002 C 
ENDROOT
BRANCH   1   2
ATOM      2  C   UNL A   1      32.359  25.893  25.454  1.00  0.00     0.002 C 
BRANCH   2   3
ATOM      3  C   UNL A   1      32.049  25.014  26.668  1.00  0.00     0.021 C 
BRANCH   3   4
ATOM      4  C   UNL A   1      30.968  23.955  26.428  1.00  0.00     0.116 C 
BRANCH   4   5
ATOM      5  N   UNL A   1      30.648  23.836  25.009  1.00  0.00    -0.354 N 
ATOM      6  C   UNL A   1      31.214  23.029  24.049  1.00  0.00     0.247 C 
ATOM      7  O   UNL A   1      30.879  23.208  22.875  1.00  0.00    -0.272 OA
ATOM      8  H   UNL A   1      29.920  24.419  24.691  1.00  0.00     0.163 HD
BRANCH   6   9
ATOM      9  C   UNL A   1      32.223  21.928  24.469  1.00  0.00     0.202 C 
BRANCH   9  10
ATOM     10  N   UNL A   1      32.097  20.750  23.618  1.00  0.00    -0.340 N 
ATOM     11  C   UNL A   1      32.492  19.463  23.759  1.00  0.00     0.229 C 
ATOM     12  O   UNL A   1      32.192  18.706  22.824  1.00  0.00    -0.275 OA
ATOM     13  H   UNL A   1      31.629  20.926  22.770  1.00  0.00     0.164 HD
BRANCH  11  14
ATOM     14  C   UNL A   1      33.229  18.858  24.971  1.00  0.00     0.133 C 
ATOM     15  C   UNL A   1      32.312  15.241  25.712  1.00  0.00     0.332 C 
ATOM     16  N   UNL A   1      32.992  16.374  25.090  1.00  0.00    -0.337 N 
ATOM     17  C   UNL A   1      34.444  16.184  25.053  1.00  0.00     0.262 C 
ATOM     18  C   UNL A   1      32.610  17.654  25.686  1.00  0.00     0.275 C 
ATOM     19  H   UNL A   1      32.673  16.409  24.122  1.00  0.00     0.347 HD
ATOM     20  C   UNL A   1      35.148  17.313  24.292  1.00  0.00     0.062 C 
ATOM     21  C   UNL A   1      34.738  18.698  24.772  1.00  0.00     0.025 C 
ENDBRANCH  11  14
ENDBRANCH   9  10
BRANCH   9  22
ATOM     22  C   UNL A   1      33.676  22.375  24.621  1.00  0.00    -0.016 A 
ATOM     23  C   UNL A   1      34.390  23.012  23.601  1.00  0.00     0.006 A 
ATOM     24  C   UNL A   1      34.269  22.330  25.893  1.00  0.00     0.006 A 
ATOM     25  C   UNL A   1      35.545  23.749  23.890  1.00  0.00     0.000 A 
ATOM     26  C   UNL A   1      35.431  23.043  26.182  1.00  0.00     0.000 A 
ATOM     27  C   UNL A   1      36.045  23.791  25.187  1.00  0.00     0.000 A 
ENDBRANCH   9  22
ENDBRANCH   6   9
ENDBRANCH   4   5
ENDBRANCH   3   4
ENDBRANCH   2   3
ENDBRANCH   1   2
BRANCH   1  28
ATOM     28  C   UNL A   1      33.101  28.338  25.848  1.00  0.00     0.021 C 
BRANCH  28  29
ATOM     29  C   UNL A   1      33.473  28.554  27.313  1.00  0.00     0.116 C 
BRANCH  29  30
ATOM     30  N   UNL A   1      33.488  29.962  27.680  1.00  0.00    -0.352 N 
ATOM     31  C   UNL A   1      34.484  30.697  28.279  1.00  0.00     0.251 C 
ATOM     32  H   UNL A   1      32.666  30.460  27.470  1.00  0.00     0.163 HD
ATOM     33  O   UNL A   1      34.252  31.828  28.687  1.00  0.00    -0.269 OA
BRANCH  31  34
ATOM     34  C   UNL A   1      35.828  30.104  28.452  1.00  0.00     0.039 A 
ATOM     35  C   UNL A   1      36.709  30.101  27.368  1.00  0.00     0.014 A 
ATOM     36  C   UNL A   1      36.223  29.575  29.684  1.00  0.00     0.014 A 
ATOM     37  C   UNL A   1      38.019  29.648  27.546  1.00  0.00     0.010 A 
ATOM     38  C   UNL A   1      37.547  29.187  29.876  1.00  0.00     0.010 A 
ATOM     39  C   UNL A   1      38.462  29.237  28.814  1.00  0.00    -0.014 A 
BRANCH  39  40
ATOM     40  C   UNL A   1      39.894  28.922  29.064  1.00  0.00     0.031 A 
ATOM     41  C   UNL A   1      40.827  29.967  29.605  1.00  0.00     0.074 A 
ATOM     42  C   UNL A   1      40.366  27.706  28.719  1.00  0.00     0.049 A 
ATOM     43  N   UNL A   1      42.115  29.890  29.819  1.00  0.00    -0.248 NA
ATOM     44  C   UNL A   1      40.241  31.277  29.929  1.00  0.00     0.031 C 
ATOM     45  C   UNL A   1      39.566  26.620  28.149  1.00  0.00     0.029 A 
ATOM     46  N   UNL A   1      41.633  27.181  28.788  1.00  0.00    -0.354 N 
ATOM     47  C   UNL A   1      42.499  31.141  30.287  1.00  0.00     0.074 A 
ATOM     48  C   UNL A   1      41.313  31.971  30.289  1.00  0.00     0.031 C 
ATOM     49  C   UNL A   1      40.352  25.553  27.945  1.00  0.00     0.029 A 
ATOM     50  C   UNL A   1      41.721  25.891  28.321  1.00  0.00     0.049 A 
ATOM     51  H   UNL A   1      42.405  27.682  29.137  1.00  0.00     0.167 HD
ATOM     52  C   UNL A   1      43.725  31.553  30.690  1.00  0.00     0.037 A 
ATOM     53  C   UNL A   1      42.786  25.074  28.194  1.00  0.00     0.037 A 
ATOM     54  C   UNL A   1      44.897  30.714  30.697  1.00  0.00     0.049 A 
ATOM     55  C   UNL A   1      44.143  25.569  28.612  1.00  0.00     0.074 A 
ATOM     56  C   UNL A   1      46.166  31.013  31.162  1.00  0.00     0.029 A 
ATOM     57  N   UNL A   1      44.951  29.419  30.197  1.00  0.00    -0.354 N 
ATOM     58  N   UNL A   1      44.472  26.727  29.134  1.00  0.00    -0.248 NA
ATOM     59  C   UNL A   1      45.275  24.652  28.417  1.00  0.00     0.031 C 
ATOM     60  C   UNL A   1      47.002  29.927  30.884  1.00  0.00     0.029 A 
ATOM     61  C   UNL A   1      46.243  28.926  30.299  1.00  0.00     0.049 A 
ATOM     62  H   UNL A   1      44.185  28.926  29.827  1.00  0.00     0.167 HD
ATOM     63  C   UNL A   1      45.845  26.671  29.347  1.00  0.00     0.074 A 
ATOM     64  C   UNL A   1      46.281  25.358  28.914  1.00  0.00     0.031 C 
ATOM     65  C   UNL A   1      46.668  27.621  29.855  1.00  0.00     0.037 A 
BRANCH  52  66
ATOM     66  C   UNL A   1      43.873  32.982  31.141  1.00  0.00     0.058 A 
ATOM     67  C   UNL A   1      43.733  33.356  32.488  1.00  0.00     0.135 A 
ATOM     68  C   UNL A   1      44.197  33.989  30.216  1.00  0.00     0.135 A 
ATOM     69  F   UNL A   1      43.414  32.438  33.415  1.00  0.00    -0.206 F 
ATOM     70  C   UNL A   1      43.874  34.679  32.895  1.00  0.00     0.059 A 
ATOM     71  C   UNL A   1      44.374  35.314  30.606  1.00  0.00     0.059 A 
ATOM     72  F   UNL A   1      44.347  33.689  28.916  1.00  0.00    -0.206 F 
ATOM     73  C   UNL A   1      44.193  35.651  31.946  1.00  0.00     0.060 A 
BRANCH  73  74
ATOM     74  S   UNL A   1      44.366  37.364  32.490  1.00  0.00     0.124 S 
ATOM     75  O   UNL A   1      45.707  37.350  33.069  1.00  0.00    -0.237 OA
ATOM     76  O   UNL A   1      44.222  38.104  31.242  1.00  0.00    -0.237 OA
ATOM     77  O   UNL A   1      43.274  37.530  33.445  1.00  0.00    -0.744 OA
ENDBRANCH  73  74
ENDBRANCH  52  66
BRANCH  53  78
ATOM     78  C   UNL A   1      42.605  23.697  27.662  1.00  0.00     0.058 A 
ATOM     79  C   UNL A   1      42.649  23.450  26.282  1.00  0.00     0.135 A 
ATOM     80  C   UNL A   1      42.410  22.599  28.515  1.00  0.00     0.135 A 
ATOM     81  F   UNL A   1      42.822  24.468  25.424  1.00  0.00    -0.206 F 
ATOM     82  C   UNL A   1      42.503  22.167  25.765  1.00  0.00     0.059 A 
ATOM     83  C   UNL A   1      42.289  21.303  28.024  1.00  0.00     0.059 A 
ATOM     84  F   UNL A   1      42.373  22.779  29.845  1.00  0.00    -0.206 F 
ATOM     85  C   UNL A   1      42.331  21.098  26.646  1.00  0.00     0.060 A 
BRANCH  85  86
ATOM     86  S   UNL A   1      42.210  19.429  25.967  1.00  0.00     0.124 S 
ATOM     87  O   UNL A   1      42.747  18.627  27.059  1.00  0.00    -0.237 OA
ATOM     88  O   UNL A   1      40.776  19.303  25.725  1.00  0.00    -0.237 OA
ATOM     89  O   UNL A   1      43.037  19.496  24.765  1.00  0.00    -0.744 OA
ENDBRANCH  85  86
ENDBRANCH  53  78
BRANCH  65  90
ATOM     90  C   UNL A   1      48.129  27.280  29.977  1.00  0.00     0.058 A 
ATOM     91  C   UNL A   1      49.046  27.605  28.965  1.00  0.00     0.135 A 
ATOM     92  C   UNL A   1      48.628  26.682  31.146  1.00  0.00     0.135 A 
ATOM     93  F   UNL A   1      48.620  28.168  27.823  1.00  0.00    -0.206 F 
ATOM     94  C   UNL A   1      50.404  27.336  29.101  1.00  0.00     0.059 A 
ATOM     95  C   UNL A   1      49.987  26.432  31.315  1.00  0.00     0.059 A 
ATOM     96  F   UNL A   1      47.796  26.355  32.147  1.00  0.00    -0.206 F 
ATOM     97  C   UNL A   1      50.866  26.756  30.283  1.00  0.00     0.060 A 
BRANCH  97  98
ATOM     98  S   UNL A   1      52.638  26.464  30.465  1.00  0.00     0.124 S 
ATOM     99  O   UNL A   1      53.039  26.218  29.084  1.00  0.00    -0.237 OA
ATOM    100  O   UNL A   1      53.102  27.720  31.045  1.00  0.00    -0.237 OA
ATOM    101  O   UNL A   1      52.704  25.308  31.354  1.00  0.00    -0.744 OA
ENDBRANCH  97  98
ENDBRANCH  65  90
ENDBRANCH  39  40
ENDBRANCH  31  34
ENDBRANCH  29  30
ENDBRANCH  28  29
ENDBRANCH   1  28
TORSDOF 19
ENDMDL
MODEL 2
REMARK VINA RESULT:     -11.2      1.635      8.487
REMARK SMILES C[N@@H+]1CCC[C@@H](C(=O)N[C@H](C(=O)NCCCCCCNC(=O)c2ccc(-c3c4nc(c(-c5c(F)cc(S(=O)(=O)[O-])cc5F)c5ccc([nH]5)c(-c5c(F)cc(S(=O)(=O)[O-])cc5F)c5nc(c(-c6c(F)cc(S(=O)(=O)[O-])cc6F)c6ccc3[nH]6)C=C5)C=C4)cc2)c2ccccc2)C1
REMARK SMILES IDX 17 1 16 2 15 3 14 4 13 5 11 6 12 7 10 9 9 10 7 11 8 12 6 14
REMARK SMILES IDX 1 15 2 16 3 17 95 18 4 20 5 21 89 22 90 23 94 24 91 25 93 26
REMARK SMILES IDX 92 27 18 28 19 29 20 30 21 31 22 33 23 34 24 35 88 36 25 37
REMARK SMILES IDX 87 38 26 39 27 40 28 41 81 42 29 43 86 44 80 45 82 46 30 47
REMARK SMILES IDX 85 48 79 49 78 50 31 52 65 53 44 54 64 55 45 56 48 57 63 58
REMARK SMILES IDX 83 59 46 60 47 61 62 63 84 64 49 65 32 66 33 67 42 68 34 69
REMARK SMILES IDX 35 70 41 71 43 72 36 73 37 74 38 75 39 76 40 77 66 78 67 79
REMARK SMILES IDX 76 80 68 81 69 82 75 83 77 84 70 85 71 86 72 87 73 88 74 89
REMARK SMILES IDX 50 90 51 91 60 92 52 93 53 94 59 95 61 96 54 97 55 98 56 99
REMARK SMILES IDX 57 100 58 101
REMARK H PARENT 13 8 9 13 2 19 20 32 82 51 48 62
REMARK Flexibility Score: inf
ROOT
ATOM      1  C   UNL A   1      31.445  28.517  25.812  1.00  0.00     0.002 C 
ENDROOT
BRANCH   1   2
ATOM      2  C   UNL A   1      31.649  28.019  24.380  1.00  0.00     0.002 C 
BRANCH   2   3
ATOM      3  C   UNL A   1      31.853  26.509  24.250  1.00  0.00     0.021 C 
BRANCH   3   4
ATOM      4  C   UNL A   1      30.558  25.693  24.196  1.00  0.00     0.116 C 
BRANCH   4   5
ATOM      5  N   UNL A   1      30.230  25.130  25.502  1.00  0.00    -0.354 N 
ATOM      6  C   UNL A   1      30.808  24.075  26.170  1.00  0.00     0.247 C 
ATOM      7  O   UNL A   1      30.264  23.680  27.204  1.00  0.00    -0.272 OA
ATOM      8  H   UNL A   1      29.485  25.570  25.975  1.00  0.00     0.163 HD
BRANCH   6   9
ATOM      9  C   UNL A   1      32.113  23.440  25.620  1.00  0.00     0.202 C 
BRANCH   9  10
ATOM     10  N   UNL A   1      33.048  23.148  26.700  1.00  0.00    -0.340 N 
ATOM     11  C   UNL A   1      34.397  23.040  26.749  1.00  0.00     0.229 C 
ATOM     12  O   UNL A   1      34.874  22.796  27.868  1.00  0.00    -0.275 OA
ATOM     13  H   UNL A   1      32.611  22.999  27.570  1.00  0.00     0.164 HD
BRANCH  11  14
ATOM     14  C   UNL A   1      35.375  23.233  25.573  1.00  0.00     0.133 C 
ATOM     15  C   UNL A   1      39.046  22.932  26.526  1.00  0.00     0.332 C 
ATOM     16  N   UNL A   1      37.701  22.516  26.138  1.00  0.00    -0.337 N 
ATOM     17  C   UNL A   1      37.726  21.555  25.032  1.00  0.00     0.262 C 
ATOM     18  C   UNL A   1      36.817  23.651  25.872  1.00  0.00     0.275 C 
ATOM     19  H   UNL A   1      37.302  22.033  26.941  1.00  0.00     0.347 HD
ATOM     20  C   UNL A   1      36.326  21.025  24.705  1.00  0.00     0.062 C 
ATOM     21  C   UNL A   1      35.301  22.134  24.510  1.00  0.00     0.025 C 
ENDBRANCH  11  14
ENDBRANCH   9  10
BRANCH   9  22
ATOM     22  C   UNL A   1      31.933  22.251  24.677  1.00  0.00    -0.016 A 
ATOM     23  C   UNL A   1      31.835  22.386  23.288  1.00  0.00     0.006 A 
ATOM     24  C   UNL A   1      32.069  20.952  25.192  1.00  0.00     0.006 A 
ATOM     25  C   UNL A   1      32.070  21.293  22.446  1.00  0.00     0.000 A 
ATOM     26  C   UNL A   1      32.281  19.855  24.359  1.00  0.00     0.000 A 
ATOM     27  C   UNL A   1      32.327  20.035  22.983  1.00  0.00     0.000 A 
ENDBRANCH   9  22
ENDBRANCH   6   9
ENDBRANCH   4   5
ENDBRANCH   3   4
ENDBRANCH   2   3
ENDBRANCH   1   2
BRANCH   1  28
ATOM     28  C   UNL A   1      32.310  27.830  26.873  1.00  0.00     0.021 C 
BRANCH  28  29
ATOM     29  C   UNL A   1      33.696  28.438  27.078  1.00  0.00     0.116 C 
BRANCH  29  30
ATOM     30  N   UNL A   1      33.636  29.819  27.528  1.00  0.00    -0.352 N 
ATOM     31  C   UNL A   1      34.585  30.566  28.185  1.00  0.00     0.251 C 
ATOM     32  H   UNL A   1      32.792  30.289  27.334  1.00  0.00     0.163 HD
ATOM     33  O   UNL A   1      34.292  31.657  28.656  1.00  0.00    -0.269 OA
BRANCH  31  34
ATOM     34  C   UNL A   1      35.955  30.030  28.345  1.00  0.00     0.039 A 
ATOM     35  C   UNL A   1      36.833  30.086  27.260  1.00  0.00     0.014 A 
ATOM     36  C   UNL A   1      36.376  29.496  29.566  1.00  0.00     0.014 A 
ATOM     37  C   UNL A   1      38.162  29.689  27.427  1.00  0.00     0.010 A 
ATOM     38  C   UNL A   1      37.716  29.163  29.748  1.00  0.00     0.010 A 
ATOM     39  C   UNL A   1      38.626  29.274  28.686  1.00  0.00    -0.014 A 
BRANCH  39  40
ATOM     40  C   UNL A   1      40.071  29.019  28.928  1.00  0.00     0.031 A 
ATOM     41  C   UNL A   1      40.687  27.695  28.578  1.00  0.00     0.074 A 
ATOM     42  C   UNL A   1      40.807  29.965  29.548  1.00  0.00     0.049 A 
ATOM     43  N   UNL A   1      41.909  27.275  28.782  1.00  0.00    -0.248 NA
ATOM     44  C   UNL A   1      39.812  26.705  27.931  1.00  0.00     0.031 C 
ATOM     45  C   UNL A   1      40.312  31.277  29.972  1.00  0.00     0.029 A 
ATOM     46  N   UNL A   1      42.124  29.968  29.937  1.00  0.00    -0.354 N 
ATOM     47  C   UNL A   1      41.948  25.970  28.305  1.00  0.00     0.074 A 
ATOM     48  C   UNL A   1      40.615  25.654  27.837  1.00  0.00     0.031 C 
ATOM     49  C   UNL A   1      41.315  31.966  30.536  1.00  0.00     0.029 A 
ATOM     50  C   UNL A   1      42.511  31.130  30.562  1.00  0.00     0.049 A 
ATOM     51  H   UNL A   1      42.732  29.210  29.784  1.00  0.00     0.167 HD
ATOM     52  C   UNL A   1      43.002  25.121  28.252  1.00  0.00     0.037 A 
ATOM     53  C   UNL A   1      43.692  31.481  31.108  1.00  0.00     0.037 A 
ATOM     54  C   UNL A   1      44.329  25.451  28.708  1.00  0.00     0.049 A 
ATOM     55  C   UNL A   1      44.835  30.505  31.072  1.00  0.00     0.074 A 
ATOM     56  C   UNL A   1      45.482  24.690  28.622  1.00  0.00     0.029 A 
ATOM     57  N   UNL A   1      44.678  26.630  29.354  1.00  0.00    -0.354 N 
ATOM     58  N   UNL A   1      44.878  29.307  30.539  1.00  0.00    -0.248 NA
ATOM     59  C   UNL A   1      46.088  30.923  31.715  1.00  0.00     0.031 C 
ATOM     60  C   UNL A   1      46.510  25.377  29.275  1.00  0.00     0.029 A 
ATOM     61  C   UNL A   1      46.015  26.594  29.715  1.00  0.00     0.049 A 
ATOM     62  H   UNL A   1      44.065  27.379  29.528  1.00  0.00     0.167 HD
ATOM     63  C   UNL A   1      46.166  28.835  30.766  1.00  0.00     0.074 A 
ATOM     64  C   UNL A   1      46.876  29.885  31.469  1.00  0.00     0.031 C 
ATOM     65  C   UNL A   1      46.710  27.642  30.424  1.00  0.00     0.037 A 
BRANCH  52  66
ATOM     66  C   UNL A   1      42.765  23.741  27.697  1.00  0.00     0.058 A 
ATOM     67  C   UNL A   1      42.850  23.467  26.322  1.00  0.00     0.135 A 
ATOM     68  C   UNL A   1      42.486  22.667  28.559  1.00  0.00     0.135 A 
ATOM     69  F   UNL A   1      43.104  24.456  25.450  1.00  0.00    -0.206 F 
ATOM     70  C   UNL A   1      42.632  22.188  25.819  1.00  0.00     0.059 A 
ATOM     71  C   UNL A   1      42.295  21.374  28.081  1.00  0.00     0.059 A 
ATOM     72  F   UNL A   1      42.396  22.870  29.883  1.00  0.00    -0.206 F 
ATOM     73  C   UNL A   1      42.353  21.148  26.708  1.00  0.00     0.060 A 
BRANCH  73  74
ATOM     74  S   UNL A   1      42.066  19.496  26.038  1.00  0.00     0.124 S 
ATOM     75  O   UNL A   1      42.522  18.653  27.140  1.00  0.00    -0.237 OA
ATOM     76  O   UNL A   1      40.628  19.503  25.799  1.00  0.00    -0.237 OA
ATOM     77  O   UNL A   1      42.899  19.464  24.840  1.00  0.00    -0.744 OA
ENDBRANCH  73  74
ENDBRANCH  52  66
BRANCH  53  78
ATOM     78  C   UNL A   1      43.854  32.826  31.723  1.00  0.00     0.058 A 
ATOM     79  C   UNL A   1      44.137  33.948  30.932  1.00  0.00     0.135 A 
ATOM     80  C   UNL A   1      43.703  33.023  33.105  1.00  0.00     0.135 A 
ATOM     81  F   UNL A   1      44.301  33.809  29.607  1.00  0.00    -0.206 F 
ATOM     82  C   UNL A   1      44.271  35.217  31.485  1.00  0.00     0.059 A 
ATOM     83  C   UNL A   1      43.805  34.287  33.679  1.00  0.00     0.059 A 
ATOM     84  F   UNL A   1      43.419  31.985  33.907  1.00  0.00    -0.206 F 
ATOM     85  C   UNL A   1      44.095  35.377  32.860  1.00  0.00     0.060 A 
BRANCH  85  86
ATOM     86  S   UNL A   1      44.206  37.039  33.558  1.00  0.00     0.124 S 
ATOM     87  O   UNL A   1      44.755  37.793  32.438  1.00  0.00    -0.237 OA
ATOM     88  O   UNL A   1      42.814  37.320  33.897  1.00  0.00    -0.237 OA
ATOM     89  O   UNL A   1      45.098  36.865  34.700  1.00  0.00    -0.744 OA
ENDBRANCH  85  86
ENDBRANCH  53  78
BRANCH  65  90
ATOM     90  C   UNL A   1      48.147  27.400  30.800  1.00  0.00     0.058 A 
ATOM     91  C   UNL A   1      48.496  26.786  32.014  1.00  0.00     0.135 A 
ATOM     92  C   UNL A   1      49.183  27.727  29.910  1.00  0.00     0.135 A 
ATOM     93  F   UNL A   1      47.545  26.464  32.905  1.00  0.00    -0.206 F 
ATOM     94  C   UNL A   1      49.822  26.516  32.337  1.00  0.00     0.059 A 
ATOM     95  C   UNL A   1      50.513  27.438  30.201  1.00  0.00     0.059 A 
ATOM     96  F   UNL A   1      48.905  28.310  28.734  1.00  0.00    -0.206 F 
ATOM     97  C   UNL A   1      50.823  26.840  31.421  1.00  0.00     0.060 A 
BRANCH  97  98
ATOM     98  S   UNL A   1      52.533  26.433  31.833  1.00  0.00     0.124 S 
ATOM     99  O   UNL A   1      53.238  26.879  30.637  1.00  0.00    -0.237 OA
ATOM    100  O   UNL A   1      52.759  27.227  33.036  1.00  0.00    -0.237 OA
ATOM    101  O   UNL A   1      52.499  24.988  32.041  1.00  0.00    -0.744 OA
ENDBRANCH  97  98
ENDBRANCH  65  90
ENDBRANCH  39  40
ENDBRANCH  31  34
ENDBRANCH  29  30
ENDBRANCH  28  29
ENDBRANCH   1  28
TORSDOF 19
ENDMDL
MODEL 3
REMARK VINA RESULT:     -11.1      3.067      4.239
REMARK SMILES C[N@@H+]1CCC[C@@H](C(=O)N[C@H](C(=O)NCCCCCCNC(=O)c2ccc(-c3c4nc(c(-c5c(F)cc(S(=O)(=O)[O-])cc5F)c5ccc([nH]5)c(-c5c(F)cc(S(=O)(=O)[O-])cc5F)c5nc(c(-c6c(F)cc(S(=O)(=O)[O-])cc6F)c6ccc3[nH]6)C=C5)C=C4)cc2)c2ccccc2)C1
REMARK SMILES IDX 17 1 16 2 15 3 14 4 13 5 11 6 12 7 10 9 9 10 7 11 8 12 6 14
REMARK SMILES IDX 1 15 2 16 3 17 95 18 4 20 5 21 89 22 90 23 94 24 91 25 93 26
REMARK SMILES IDX 92 27 18 28 19 29 20 30 21 31 22 33 23 34 24 35 88 36 25 37
REMARK SMILES IDX 87 38 26 39 27 40 28 41 81 42 29 43 86 44 80 45 82 46 30 47
REMARK SMILES IDX 85 48 79 49 78 50 31 52 65 53 44 54 64 55 45 56 48 57 63 58
REMARK SMILES IDX 83 59 46 60 47 61 62 63 84 64 49 65 32 66 33 67 42 68 34 69
REMARK SMILES IDX 35 70 41 71 43 72 36 73 37 74 38 75 39 76 40 77 66 78 67 79
REMARK SMILES IDX 76 80 68 81 69 82 75 83 77 84 70 85 71 86 72 87 73 88 74 89
REMARK SMILES IDX 50 90 51 91 60 92 52 93 53 94 59 95 61 96 54 97 55 98 56 99
REMARK SMILES IDX 57 100 58 101
REMARK H PARENT 13 8 9 13 2 19 20 32 82 51 48 62
REMARK Flexibility Score: inf
ROOT
ATOM      1  C   UNL A   1      31.509  28.208  26.253  1.00  0.00     0.002 C 
ENDROOT
BRANCH   1   2
ATOM      2  C   UNL A   1      31.030  27.971  24.820  1.00  0.00     0.002 C 
BRANCH   2   3
ATOM      3  C   UNL A   1      31.425  26.617  24.227  1.00  0.00     0.021 C 
BRANCH   3   4
ATOM      4  C   UNL A   1      30.291  25.588  24.179  1.00  0.00     0.116 C 
BRANCH   4   5
ATOM      5  N   UNL A   1      30.018  25.036  25.502  1.00  0.00    -0.354 N 
ATOM      6  C   UNL A   1      30.671  24.035  26.184  1.00  0.00     0.247 C 
ATOM      7  O   UNL A   1      30.167  23.631  27.236  1.00  0.00    -0.272 OA
ATOM      8  H   UNL A   1      29.255  25.440  25.977  1.00  0.00     0.163 HD
BRANCH   6   9
ATOM      9  C   UNL A   1      32.003  23.468  25.627  1.00  0.00     0.202 C 
BRANCH   9  10
ATOM     10  N   UNL A   1      32.941  23.180  26.707  1.00  0.00    -0.340 N 
ATOM     11  C   UNL A   1      34.287  23.045  26.749  1.00  0.00     0.229 C 
ATOM     12  O   UNL A   1      34.767  22.815  27.869  1.00  0.00    -0.275 OA
ATOM     13  H   UNL A   1      32.507  23.061  27.583  1.00  0.00     0.164 HD
BRANCH  11  14
ATOM     14  C   UNL A   1      35.260  23.189  25.562  1.00  0.00     0.133 C 
ATOM     15  C   UNL A   1      38.902  23.630  26.569  1.00  0.00     0.332 C 
ATOM     16  N   UNL A   1      37.650  22.950  26.250  1.00  0.00    -0.337 N 
ATOM     17  C   UNL A   1      37.856  21.834  25.323  1.00  0.00     0.262 C 
ATOM     18  C   UNL A   1      36.611  23.872  25.792  1.00  0.00     0.275 C 
ATOM     19  H   UNL A   1      37.305  22.550  27.122  1.00  0.00     0.347 HD
ATOM     20  C   UNL A   1      36.565  21.044  25.084  1.00  0.00     0.062 C 
ATOM     21  C   UNL A   1      35.389  21.931  24.699  1.00  0.00     0.025 C 
ENDBRANCH  11  14
ENDBRANCH   9  10
BRANCH   9  22
ATOM     22  C   UNL A   1      31.878  22.303  24.648  1.00  0.00    -0.016 A 
ATOM     23  C   UNL A   1      31.881  22.469  23.259  1.00  0.00     0.006 A 
ATOM     24  C   UNL A   1      31.964  20.991  25.141  1.00  0.00     0.006 A 
ATOM     25  C   UNL A   1      32.164  21.392  22.411  1.00  0.00     0.000 A 
ATOM     26  C   UNL A   1      32.223  19.911  24.300  1.00  0.00     0.000 A 
ATOM     27  C   UNL A   1      32.369  20.120  22.935  1.00  0.00     0.000 A 
ENDBRANCH   9  22
ENDBRANCH   6   9
ENDBRANCH   4   5
ENDBRANCH   3   4
ENDBRANCH   2   3
ENDBRANCH   1   2
BRANCH   1  28
ATOM     28  C   UNL A   1      32.956  27.792  26.536  1.00  0.00     0.021 C 
BRANCH  28  29
ATOM     29  C   UNL A   1      34.025  28.740  25.995  1.00  0.00     0.116 C 
BRANCH  29  30
ATOM     30  N   UNL A   1      33.843  30.105  26.463  1.00  0.00    -0.352 N 
ATOM     31  C   UNL A   1      34.531  30.794  27.434  1.00  0.00     0.251 C 
ATOM     32  H   UNL A   1      33.123  30.610  26.020  1.00  0.00     0.163 HD
ATOM     33  O   UNL A   1      34.118  31.876  27.830  1.00  0.00    -0.269 OA
BRANCH  31  34
ATOM     34  C   UNL A   1      35.756  30.206  28.019  1.00  0.00     0.039 A 
ATOM     35  C   UNL A   1      36.966  30.350  27.336  1.00  0.00     0.014 A 
ATOM     36  C   UNL A   1      35.714  29.536  29.244  1.00  0.00     0.014 A 
ATOM     37  C   UNL A   1      38.150  29.900  27.927  1.00  0.00     0.010 A 
ATOM     38  C   UNL A   1      36.901  29.148  29.861  1.00  0.00     0.010 A 
ATOM     39  C   UNL A   1      38.132  29.344  29.217  1.00  0.00    -0.014 A 
BRANCH  39  40
ATOM     40  C   UNL A   1      39.394  29.024  29.934  1.00  0.00     0.031 A 
ATOM     41  C   UNL A   1      39.813  29.814  31.142  1.00  0.00     0.074 A 
ATOM     42  C   UNL A   1      40.206  28.067  29.437  1.00  0.00     0.049 A 
ATOM     43  N   UNL A   1      40.910  29.720  31.847  1.00  0.00    -0.248 NA
ATOM     44  C   UNL A   1      38.888  30.859  31.605  1.00  0.00     0.031 C 
ATOM     45  C   UNL A   1      39.926  27.258  28.249  1.00  0.00     0.029 A 
ATOM     46  N   UNL A   1      41.432  27.619  29.861  1.00  0.00    -0.354 N 
ATOM     47  C   UNL A   1      40.817  30.701  32.828  1.00  0.00     0.074 A 
ATOM     48  C   UNL A   1      39.574  31.405  32.601  1.00  0.00     0.031 C 
ATOM     49  C   UNL A   1      40.936  26.396  28.055  1.00  0.00     0.029 A 
ATOM     50  C   UNL A   1      41.958  26.623  29.071  1.00  0.00     0.049 A 
ATOM     51  H   UNL A   1      41.892  27.977  30.654  1.00  0.00     0.167 HD
ATOM     52  C   UNL A   1      41.685  30.978  33.831  1.00  0.00     0.037 A 
ATOM     53  C   UNL A   1      43.137  25.974  29.146  1.00  0.00     0.037 A 
ATOM     54  C   UNL A   1      42.915  30.261  34.056  1.00  0.00     0.049 A 
ATOM     55  C   UNL A   1      44.099  26.329  30.245  1.00  0.00     0.074 A 
ATOM     56  C   UNL A   1      43.821  30.412  35.092  1.00  0.00     0.029 A 
ATOM     57  N   UNL A   1      43.424  29.273  33.223  1.00  0.00    -0.354 N 
ATOM     58  N   UNL A   1      43.957  27.200  31.216  1.00  0.00    -0.248 NA
ATOM     59  C   UNL A   1      45.386  25.618  30.258  1.00  0.00     0.031 C 
ATOM     60  C   UNL A   1      44.908  29.565  34.850  1.00  0.00     0.029 A 
ATOM     61  C   UNL A   1      44.653  28.842  33.696  1.00  0.00     0.049 A 
ATOM     62  H   UNL A   1      42.976  28.930  32.417  1.00  0.00     0.167 HD
ATOM     63  C   UNL A   1      45.126  27.129  31.965  1.00  0.00     0.074 A 
ATOM     64  C   UNL A   1      45.958  26.117  31.345  1.00  0.00     0.031 C 
ATOM     65  C   UNL A   1      45.478  27.839  33.065  1.00  0.00     0.037 A 
BRANCH  52  66
ATOM     66  C   UNL A   1      41.349  32.118  34.755  1.00  0.00     0.058 A 
ATOM     67  C   UNL A   1      41.758  33.436  34.490  1.00  0.00     0.135 A 
ATOM     68  C   UNL A   1      40.573  31.896  35.905  1.00  0.00     0.135 A 
ATOM     69  F   UNL A   1      42.509  33.707  33.411  1.00  0.00    -0.206 F 
ATOM     70  C   UNL A   1      41.439  34.484  35.349  1.00  0.00     0.059 A 
ATOM     71  C   UNL A   1      40.217  32.934  36.761  1.00  0.00     0.059 A 
ATOM     72  F   UNL A   1      40.152  30.657  36.206  1.00  0.00    -0.206 F 
ATOM     73  C   UNL A   1      40.669  34.222  36.483  1.00  0.00     0.060 A 
BRANCH  73  74
ATOM     74  S   UNL A   1      40.271  35.591  37.590  1.00  0.00     0.124 S 
ATOM     75  O   UNL A   1      40.125  36.695  36.645  1.00  0.00    -0.237 OA
ATOM     76  O   UNL A   1      39.040  35.133  38.224  1.00  0.00    -0.237 OA
ATOM     77  O   UNL A   1      41.435  35.670  38.468  1.00  0.00    -0.744 OA
ENDBRANCH  73  74
ENDBRANCH  52  66
BRANCH  53  78
ATOM     78  C   UNL A   1      43.463  24.913  28.156  1.00  0.00     0.058 A 
ATOM     79  C   UNL A   1      43.097  23.579  28.387  1.00  0.00     0.135 A 
ATOM     80  C   UNL A   1      44.120  25.210  26.951  1.00  0.00     0.135 A 
ATOM     81  F   UNL A   1      42.477  23.243  29.529  1.00  0.00    -0.206 F 
ATOM     82  C   UNL A   1      43.374  22.576  27.465  1.00  0.00     0.059 A 
ATOM     83  C   UNL A   1      44.383  24.229  26.000  1.00  0.00     0.059 A 
ATOM     84  F   UNL A   1      44.480  26.473  26.674  1.00  0.00    -0.206 F 
ATOM     85  C   UNL A   1      44.011  22.913  26.270  1.00  0.00     0.060 A 
BRANCH  85  86
ATOM     86  S   UNL A   1      44.306  21.614  25.051  1.00  0.00     0.124 S 
ATOM     87  O   UNL A   1      45.661  21.195  25.387  1.00  0.00    -0.237 OA
ATOM     88  O   UNL A   1      43.246  20.659  25.361  1.00  0.00    -0.237 OA
ATOM     89  O   UNL A   1      44.157  22.310  23.776  1.00  0.00    -0.744 OA
ENDBRANCH  85  86
ENDBRANCH  53  78
BRANCH  65  90
ATOM     90  C   UNL A   1      46.821  27.549  33.679  1.00  0.00     0.058 A 
ATOM     91  C   UNL A   1      46.987  26.533  34.634  1.00  0.00     0.135 A 
ATOM     92  C   UNL A   1      47.964  28.249  33.262  1.00  0.00     0.135 A 
ATOM     93  F   UNL A   1      45.925  25.841  35.076  1.00  0.00    -0.206 F 
ATOM     94  C   UNL A   1      48.238  26.231  35.163  1.00  0.00     0.059 A 
ATOM     95  C   UNL A   1      49.229  27.943  33.755  1.00  0.00     0.059 A 
ATOM     96  F   UNL A   1      47.863  29.226  32.347  1.00  0.00    -0.206 F 
ATOM     97  C   UNL A   1      49.354  26.937  34.712  1.00  0.00     0.060 A 
BRANCH  97  98
ATOM     98  S   UNL A   1      50.977  26.495  35.369  1.00  0.00     0.124 S 
ATOM     99  O   UNL A   1      50.819  26.814  36.784  1.00  0.00    -0.237 OA
ATOM    100  O   UNL A   1      51.067  25.075  35.046  1.00  0.00    -0.237 OA
ATOM    101  O   UNL A   1      51.891  27.360  34.629  1.00  0.00    -0.744 OA
ENDBRANCH  97  98
ENDBRANCH  65  90
ENDBRANCH  39  40
ENDBRANCH  31  34
ENDBRANCH  29  30
ENDBRANCH  28  29
ENDBRANCH   1  28
TORSDOF 19
ENDMDL
