MODEL 1
REMARK VINA RESULT:     -11.1      0.000      0.000
REMARK SMILES O=C(COc1ccccc1/C=N/NC(=O)C1CC1)NCCCCCCNC(=O)c1ccc(-c2c3nc(c(-c4c(F)cc(S(=O)(=O)[O-])cc4F)c4ccc([nH]4)c(-c4c(F)cc(S(=O)(=O)[O-])cc4F)c4nc(c(-c5c(F)cc(S(=O)(=O)[O-])cc5F)c5ccc2[nH]5)C=C4)C=C3)cc1
REMARK SMILES IDX 21 1 20 2 19 3 1 4 2 5 3 7 4 8 5 9 6 10 10 11 7 12 9 13 8 14
REMARK SMILES IDX 11 15 12 16 13 17 14 18 15 20 16 21 17 22 18 23 22 24 23 25
REMARK SMILES IDX 24 26 25 27 26 28 27 29 28 31 29 32 30 33 94 34 31 35 93 36
REMARK SMILES IDX 32 37 33 38 34 39 87 40 35 41 92 42 86 43 88 44 36 45 91 46
REMARK SMILES IDX 85 47 84 48 37 50 71 51 50 52 70 53 51 54 54 55 69 56 89 57
REMARK SMILES IDX 52 58 53 59 68 61 90 62 55 63 38 64 39 65 48 66 40 67 41 68
REMARK SMILES IDX 47 69 49 70 42 71 43 72 44 73 45 74 46 75 72 76 73 77 82 78
REMARK SMILES IDX 74 79 75 80 81 81 83 82 76 83 77 84 78 85 79 86 80 87 56 88
REMARK SMILES IDX 57 89 66 90 58 91 59 92 65 93 67 94 60 95 61 96 62 97 63 98
REMARK SMILES IDX 64 99
REMARK H PARENT 19 6 13 19 26 30 88 49 54 60
REMARK Flexibility Score: inf
ROOT
ATOM      1  C   UNL A   1      32.354  28.221  27.167  1.00  0.00     0.021 C 
ENDROOT
BRANCH   1   2
ATOM      2  C   UNL A   1      31.229  27.233  26.901  1.00  0.00     0.116 C 
BRANCH   2   3
ATOM      3  N   UNL A   1      31.558  25.807  26.884  1.00  0.00    -0.353 N 
ATOM      4  O   UNL A   1      29.521  24.718  26.446  1.00  0.00    -0.271 OA
ATOM      5  C   UNL A   1      30.746  24.782  26.450  1.00  0.00     0.257 C 
ATOM      6  H   UNL A   1      32.450  25.555  27.216  1.00  0.00     0.163 HD
BRANCH   5   7
ATOM      7  C   UNL A   1      31.442  23.630  25.806  1.00  0.00     0.329 C 
BRANCH   7   8
ATOM      8  O   UNL A   1      32.478  24.169  25.021  1.00  0.00    -0.483 OA
BRANCH   8   9
ATOM      9  C   UNL A   1      33.701  23.542  25.018  1.00  0.00     0.128 A 
ATOM     10  C   UNL A   1      34.646  24.428  25.558  1.00  0.00     0.047 A 
ATOM     11  C   UNL A   1      34.122  22.382  24.321  1.00  0.00     0.037 A 
ATOM     12  C   UNL A   1      36.002  24.247  25.340  1.00  0.00     0.004 A 
ATOM     13  C   UNL A   1      35.496  22.255  24.047  1.00  0.00     0.013 A 
ATOM     14  C   UNL A   1      36.421  23.194  24.534  1.00  0.00     0.001 A 
BRANCH  11  15
ATOM     15  C   UNL A   1      33.317  21.126  24.119  1.00  0.00     0.145 C 
ATOM     16  N   UNL A   1      33.139  20.185  25.004  1.00  0.00    -0.181 NA
BRANCH  16  17
ATOM     17  N   UNL A   1      32.381  19.055  24.550  1.00  0.00    -0.247 N 
ATOM     18  C   UNL A   1      32.629  17.751  25.059  1.00  0.00     0.243 C 
ATOM     19  H   UNL A   1      31.678  19.184  23.874  1.00  0.00     0.193 HD
ATOM     20  O   UNL A   1      32.134  17.390  26.127  1.00  0.00    -0.273 OA
BRANCH  18  21
ATOM     21  C   UNL A   1      33.234  16.707  24.129  1.00  0.00     0.080 C 
ATOM     22  C   UNL A   1      34.244  16.990  23.009  1.00  0.00     0.014 C 
ATOM     23  C   UNL A   1      34.711  16.319  24.243  1.00  0.00     0.014 C 
ENDBRANCH  18  21
ENDBRANCH  16  17
ENDBRANCH  11  15
ENDBRANCH   8   9
ENDBRANCH   7   8
ENDBRANCH   5   7
ENDBRANCH   2   3
ENDBRANCH   1   2
BRANCH   1  24
ATOM     24  C   UNL A   1      33.669  27.818  26.520  1.00  0.00     0.002 C 
BRANCH  24  25
ATOM     25  C   UNL A   1      34.839  28.691  26.981  1.00  0.00     0.002 C 
BRANCH  25  26
ATOM     26  C   UNL A   1      34.428  30.014  27.640  1.00  0.00     0.021 C 
BRANCH  26  27
ATOM     27  C   UNL A   1      35.604  30.851  28.136  1.00  0.00     0.116 C 
BRANCH  27  28
ATOM     28  N   UNL A   1      35.609  30.910  29.591  1.00  0.00    -0.352 N 
ATOM     29  C   UNL A   1      36.455  30.278  30.464  1.00  0.00     0.251 C 
ATOM     30  H   UNL A   1      34.916  31.478  30.001  1.00  0.00     0.163 HD
ATOM     31  O   UNL A   1      36.123  30.098  31.631  1.00  0.00    -0.269 OA
BRANCH  29  32
ATOM     32  C   UNL A   1      37.774  29.834  29.978  1.00  0.00     0.039 A 
ATOM     33  C   UNL A   1      38.043  29.848  28.609  1.00  0.00     0.014 A 
ATOM     34  C   UNL A   1      38.741  29.393  30.889  1.00  0.00     0.014 A 
ATOM     35  C   UNL A   1      39.301  29.453  28.158  1.00  0.00     0.010 A 
ATOM     36  C   UNL A   1      40.018  29.077  30.444  1.00  0.00     0.010 A 
ATOM     37  C   UNL A   1      40.305  29.089  29.073  1.00  0.00    -0.014 A 
BRANCH  37  38
ATOM     38  C   UNL A   1      41.663  28.727  28.601  1.00  0.00     0.031 A 
ATOM     39  C   UNL A   1      42.753  29.762  28.546  1.00  0.00     0.074 A 
ATOM     40  C   UNL A   1      41.897  27.465  28.186  1.00  0.00     0.049 A 
ATOM     41  N   UNL A   1      44.008  29.620  28.202  1.00  0.00    -0.248 NA
ATOM     42  C   UNL A   1      42.382  31.141  28.899  1.00  0.00     0.031 C 
ATOM     43  C   UNL A   1      40.896  26.398  28.130  1.00  0.00     0.029 A 
ATOM     44  N   UNL A   1      43.047  26.866  27.742  1.00  0.00    -0.354 N 
ATOM     45  C   UNL A   1      44.570  30.889  28.287  1.00  0.00     0.074 A 
ATOM     46  C   UNL A   1      43.508  31.796  28.657  1.00  0.00     0.031 C 
ATOM     47  C   UNL A   1      41.486  25.263  27.728  1.00  0.00     0.029 A 
ATOM     48  C   UNL A   1      42.896  25.529  27.462  1.00  0.00     0.049 A 
ATOM     49  H   UNL A   1      43.898  27.347  27.634  1.00  0.00     0.167 HD
ATOM     50  C   UNL A   1      45.860  31.256  28.097  1.00  0.00     0.037 A 
ATOM     51  C   UNL A   1      43.797  24.618  27.049  1.00  0.00     0.037 A 
ATOM     52  C   UNL A   1      46.910  30.335  27.741  1.00  0.00     0.049 A 
ATOM     53  C   UNL A   1      45.224  25.048  26.853  1.00  0.00     0.074 A 
ATOM     54  C   UNL A   1      48.263  30.585  27.598  1.00  0.00     0.029 A 
ATOM     55  N   UNL A   1      46.721  28.989  27.458  1.00  0.00    -0.354 N 
ATOM     56  N   UNL A   1      45.763  26.232  27.031  1.00  0.00    -0.248 NA
ATOM     57  C   UNL A   1      46.169  24.016  26.409  1.00  0.00     0.031 C 
ATOM     58  C   UNL A   1      48.882  29.405  27.168  1.00  0.00     0.029 A 
ATOM     59  C   UNL A   1      47.926  28.403  27.105  1.00  0.00     0.049 A 
ATOM     60  H   UNL A   1      45.856  28.519  27.501  1.00  0.00     0.167 HD
ATOM     61  C   UNL A   1      47.114  26.084  26.739  1.00  0.00     0.074 A 
ATOM     62  C   UNL A   1      47.311  24.689  26.399  1.00  0.00     0.031 C 
ATOM     63  C   UNL A   1      48.101  27.015  26.750  1.00  0.00     0.037 A 
BRANCH  50  64
ATOM     64  C   UNL A   1      46.201  32.715  28.259  1.00  0.00     0.058 A 
ATOM     65  C   UNL A   1      46.639  33.245  29.484  1.00  0.00     0.135 A 
ATOM     66  C   UNL A   1      46.104  33.594  27.168  1.00  0.00     0.135 A 
ATOM     67  F   UNL A   1      46.740  32.456  30.565  1.00  0.00    -0.206 F 
ATOM     68  C   UNL A   1      46.929  34.598  29.632  1.00  0.00     0.059 A 
ATOM     69  C   UNL A   1      46.419  34.946  27.285  1.00  0.00     0.059 A 
ATOM     70  F   UNL A   1      45.692  33.146  25.972  1.00  0.00    -0.206 F 
ATOM     71  C   UNL A   1      46.813  35.441  28.527  1.00  0.00     0.060 A 
BRANCH  71  72
ATOM     72  S   UNL A   1      47.182  37.196  28.738  1.00  0.00     0.124 S 
ATOM     73  O   UNL A   1      48.053  37.173  29.908  1.00  0.00    -0.237 OA
ATOM     74  O   UNL A   1      47.830  37.532  27.473  1.00  0.00    -0.237 OA
ATOM     75  O   UNL A   1      45.869  37.799  28.944  1.00  0.00    -0.744 OA
ENDBRANCH  71  72
ENDBRANCH  50  64
BRANCH  51  76
ATOM     76  C   UNL A   1      43.382  23.205  26.844  1.00  0.00     0.058 A 
ATOM     77  C   UNL A   1      43.241  22.677  25.552  1.00  0.00     0.135 A 
ATOM     78  C   UNL A   1      43.146  22.346  27.929  1.00  0.00     0.135 A 
ATOM     79  F   UNL A   1      43.451  23.460  24.482  1.00  0.00    -0.206 F 
ATOM     80  C   UNL A   1      42.872  21.354  25.340  1.00  0.00     0.059 A 
ATOM     81  C   UNL A   1      42.802  21.011  27.742  1.00  0.00     0.059 A 
ATOM     82  F   UNL A   1      43.283  22.796  29.186  1.00  0.00    -0.206 F 
ATOM     83  C   UNL A   1      42.661  20.525  26.444  1.00  0.00     0.060 A 
BRANCH  83  84
ATOM     84  S   UNL A   1      42.242  18.792  26.156  1.00  0.00     0.124 S 
ATOM     85  O   UNL A   1      42.400  18.225  27.490  1.00  0.00    -0.237 OA
ATOM     86  O   UNL A   1      40.873  18.888  25.660  1.00  0.00    -0.237 OA
ATOM     87  O   UNL A   1      43.230  18.367  25.169  1.00  0.00    -0.744 OA
ENDBRANCH  83  84
ENDBRANCH  51  76
BRANCH  63  88
ATOM     88  C   UNL A   1      49.486  26.543  26.395  1.00  0.00     0.058 A 
ATOM     89  C   UNL A   1      49.978  26.621  25.082  1.00  0.00     0.135 A 
ATOM     90  C   UNL A   1      50.335  26.017  27.381  1.00  0.00     0.135 A 
ATOM     91  F   UNL A   1      49.207  27.111  24.098  1.00  0.00    -0.206 F 
ATOM     92  C   UNL A   1      51.244  26.148  24.751  1.00  0.00     0.059 A 
ATOM     93  C   UNL A   1      51.617  25.572  27.080  1.00  0.00     0.059 A 
ATOM     94  F   UNL A   1      49.923  25.935  28.657  1.00  0.00    -0.206 F 
ATOM     95  C   UNL A   1      52.055  25.620  25.757  1.00  0.00     0.060 A 
BRANCH  95  96
ATOM     96  S   UNL A   1      53.693  25.005  25.314  1.00  0.00     0.124 S 
ATOM     97  O   UNL A   1      53.962  25.748  24.087  1.00  0.00    -0.237 OA
ATOM     98  O   UNL A   1      54.493  25.384  26.474  1.00  0.00    -0.237 OA
ATOM     99  O   UNL A   1      53.484  23.570  25.146  1.00  0.00    -0.744 OA
ENDBRANCH  95  96
ENDBRANCH  63  88
ENDBRANCH  37  38
ENDBRANCH  29  32
ENDBRANCH  27  28
ENDBRANCH  26  27
ENDBRANCH  25  26
ENDBRANCH  24  25
ENDBRANCH   1  24
TORSDOF 21
ENDMDL
MODEL 2
REMARK VINA RESULT:     -11.1      5.197      6.834
REMARK SMILES O=C(COc1ccccc1/C=N/NC(=O)C1CC1)NCCCCCCNC(=O)c1ccc(-c2c3nc(c(-c4c(F)cc(S(=O)(=O)[O-])cc4F)c4ccc([nH]4)c(-c4c(F)cc(S(=O)(=O)[O-])cc4F)c4nc(c(-c5c(F)cc(S(=O)(=O)[O-])cc5F)c5ccc2[nH]5)C=C4)C=C3)cc1
REMARK SMILES IDX 21 1 20 2 19 3 1 4 2 5 3 7 4 8 5 9 6 10 10 11 7 12 9 13 8 14
REMARK SMILES IDX 11 15 12 16 13 17 14 18 15 20 16 21 17 22 18 23 22 24 23 25
REMARK SMILES IDX 24 26 25 27 26 28 27 29 28 31 29 32 30 33 94 34 31 35 93 36
REMARK SMILES IDX 32 37 33 38 34 39 87 40 35 41 92 42 86 43 88 44 36 45 91 46
REMARK SMILES IDX 85 47 84 48 37 50 71 51 50 52 70 53 51 54 54 55 69 56 89 57
REMARK SMILES IDX 52 58 53 59 68 61 90 62 55 63 38 64 39 65 48 66 40 67 41 68
REMARK SMILES IDX 47 69 49 70 42 71 43 72 44 73 45 74 46 75 72 76 73 77 82 78
REMARK SMILES IDX 74 79 75 80 81 81 83 82 76 83 77 84 78 85 79 86 80 87 56 88
REMARK SMILES IDX 57 89 66 90 58 91 59 92 65 93 67 94 60 95 61 96 62 97 63 98
REMARK SMILES IDX 64 99
REMARK H PARENT 19 6 13 19 26 30 88 49 54 60
REMARK Flexibility Score: inf
ROOT
ATOM      1  C   UNL A   1      30.536  27.670  23.950  1.00  0.00     0.021 C 
ENDROOT
BRANCH   1   2
ATOM      2  C   UNL A   1      31.211  26.886  22.835  1.00  0.00     0.116 C 
BRANCH   2   3
ATOM      3  N   UNL A   1      32.037  25.736  23.208  1.00  0.00    -0.353 N 
ATOM      4  O   UNL A   1      33.674  25.593  21.527  1.00  0.00    -0.271 OA
ATOM      5  C   UNL A   1      33.251  25.385  22.660  1.00  0.00     0.257 C 
ATOM      6  H   UNL A   1      31.689  25.156  23.923  1.00  0.00     0.163 HD
BRANCH   5   7
ATOM      7  C   UNL A   1      34.226  24.751  23.594  1.00  0.00     0.329 C 
BRANCH   7   8
ATOM      8  O   UNL A   1      33.502  23.835  24.378  1.00  0.00    -0.483 OA
BRANCH   8   9
ATOM      9  C   UNL A   1      33.740  22.492  24.215  1.00  0.00     0.128 A 
ATOM     10  C   UNL A   1      32.555  21.890  23.765  1.00  0.00     0.047 A 
ATOM     11  C   UNL A   1      34.807  21.696  24.702  1.00  0.00     0.037 A 
ATOM     12  C   UNL A   1      32.359  20.524  23.876  1.00  0.00     0.004 A 
ATOM     13  C   UNL A   1      34.562  20.322  24.875  1.00  0.00     0.013 A 
ATOM     14  C   UNL A   1      33.340  19.749  24.485  1.00  0.00     0.001 A 
BRANCH  11  15
ATOM     15  C   UNL A   1      36.259  22.093  24.754  1.00  0.00     0.145 C 
ATOM     16  N   UNL A   1      37.255  21.301  25.038  1.00  0.00    -0.181 NA
BRANCH  16  17
ATOM     17  N   UNL A   1      38.542  21.932  25.087  1.00  0.00    -0.247 N 
ATOM     18  C   UNL A   1      39.335  21.896  26.266  1.00  0.00     0.243 C 
ATOM     19  H   UNL A   1      38.882  22.398  24.290  1.00  0.00     0.193 HD
ATOM     20  O   UNL A   1      40.037  20.916  26.520  1.00  0.00    -0.273 OA
BRANCH  18  21
ATOM     21  C   UNL A   1      39.560  23.192  27.034  1.00  0.00     0.080 C 
ATOM     22  C   UNL A   1      40.038  24.517  26.425  1.00  0.00     0.014 C 
ATOM     23  C   UNL A   1      38.624  24.388  26.841  1.00  0.00     0.014 C 
ENDBRANCH  18  21
ENDBRANCH  16  17
ENDBRANCH  11  15
ENDBRANCH   8   9
ENDBRANCH   7   8
ENDBRANCH   5   7
ENDBRANCH   2   3
ENDBRANCH   1   2
BRANCH   1  24
ATOM     24  C   UNL A   1      31.357  28.855  24.430  1.00  0.00     0.002 C 
BRANCH  24  25
ATOM     25  C   UNL A   1      31.730  28.747  25.910  1.00  0.00     0.002 C 
BRANCH  25  26
ATOM     26  C   UNL A   1      32.971  27.892  26.195  1.00  0.00     0.021 C 
BRANCH  26  27
ATOM     27  C   UNL A   1      34.269  28.692  26.280  1.00  0.00     0.116 C 
BRANCH  27  28
ATOM     28  N   UNL A   1      33.988  30.087  26.592  1.00  0.00    -0.352 N 
ATOM     29  C   UNL A   1      34.485  30.844  27.620  1.00  0.00     0.251 C 
ATOM     30  H   UNL A   1      33.361  30.545  25.987  1.00  0.00     0.163 HD
ATOM     31  O   UNL A   1      33.891  31.850  27.995  1.00  0.00    -0.269 OA
BRANCH  29  32
ATOM     32  C   UNL A   1      35.753  30.437  28.253  1.00  0.00     0.039 A 
ATOM     33  C   UNL A   1      36.962  30.889  27.724  1.00  0.00     0.014 A 
ATOM     34  C   UNL A   1      35.735  29.593  29.369  1.00  0.00     0.014 A 
ATOM     35  C   UNL A   1      38.156  30.523  28.344  1.00  0.00     0.010 A 
ATOM     36  C   UNL A   1      36.920  29.296  30.031  1.00  0.00     0.010 A 
ATOM     37  C   UNL A   1      38.142  29.744  29.515  1.00  0.00    -0.014 A 
BRANCH  37  38
ATOM     38  C   UNL A   1      39.407  29.404  30.210  1.00  0.00     0.031 A 
ATOM     39  C   UNL A   1      39.797  30.117  31.476  1.00  0.00     0.074 A 
ATOM     40  C   UNL A   1      40.218  28.472  29.672  1.00  0.00     0.049 A 
ATOM     41  N   UNL A   1      40.841  29.924  32.242  1.00  0.00    -0.248 NA
ATOM     42  C   UNL A   1      38.917  31.206  31.927  1.00  0.00     0.031 C 
ATOM     43  C   UNL A   1      39.973  27.767  28.412  1.00  0.00     0.029 A 
ATOM     44  N   UNL A   1      41.406  27.952  30.118  1.00  0.00    -0.354 N 
ATOM     45  C   UNL A   1      40.747  30.870  33.256  1.00  0.00     0.074 A 
ATOM     46  C   UNL A   1      39.579  31.674  32.975  1.00  0.00     0.031 C 
ATOM     47  C   UNL A   1      40.951  26.870  28.212  1.00  0.00     0.029 A 
ATOM     48  C   UNL A   1      41.910  26.962  29.308  1.00  0.00     0.049 A 
ATOM     49  H   UNL A   1      41.855  28.258  30.938  1.00  0.00     0.167 HD
ATOM     50  C   UNL A   1      41.550  31.036  34.335  1.00  0.00     0.037 A 
ATOM     51  C   UNL A   1      43.016  26.206  29.441  1.00  0.00     0.037 A 
ATOM     52  C   UNL A   1      42.704  30.216  34.606  1.00  0.00     0.049 A 
ATOM     53  C   UNL A   1      43.887  26.403  30.651  1.00  0.00     0.074 A 
ATOM     54  C   UNL A   1      43.542  30.247  35.706  1.00  0.00     0.029 A 
ATOM     55  N   UNL A   1      43.190  29.228  33.761  1.00  0.00    -0.354 N 
ATOM     56  N   UNL A   1      43.733  27.237  31.653  1.00  0.00    -0.248 NA
ATOM     57  C   UNL A   1      45.077  25.550  30.754  1.00  0.00     0.031 C 
ATOM     58  C   UNL A   1      44.571  29.320  35.497  1.00  0.00     0.029 A 
ATOM     59  C   UNL A   1      44.338  28.666  34.297  1.00  0.00     0.049 A 
ATOM     60  H   UNL A   1      42.780  28.964  32.906  1.00  0.00     0.167 HD
ATOM     61  C   UNL A   1      44.796  26.996  32.516  1.00  0.00     0.074 A 
ATOM     62  C   UNL A   1      45.569  25.920  31.927  1.00  0.00     0.031 C 
ATOM     63  C   UNL A   1      45.107  27.608  33.687  1.00  0.00     0.037 A 
BRANCH  50  64
ATOM     64  C   UNL A   1      41.213  32.151  35.290  1.00  0.00     0.058 A 
ATOM     65  C   UNL A   1      40.233  32.005  36.287  1.00  0.00     0.135 A 
ATOM     66  C   UNL A   1      41.889  33.379  35.219  1.00  0.00     0.135 A 
ATOM     67  F   UNL A   1      39.544  30.858  36.397  1.00  0.00    -0.206 F 
ATOM     68  C   UNL A   1      39.910  33.047  37.151  1.00  0.00     0.059 A 
ATOM     69  C   UNL A   1      41.605  34.425  36.093  1.00  0.00     0.059 A 
ATOM     70  F   UNL A   1      42.836  33.577  34.288  1.00  0.00    -0.206 F 
ATOM     71  C   UNL A   1      40.600  34.256  37.044  1.00  0.00     0.060 A 
BRANCH  71  72
ATOM     72  S   UNL A   1      40.162  35.601  38.165  1.00  0.00     0.124 S 
ATOM     73  O   UNL A   1      40.002  36.715  37.236  1.00  0.00    -0.237 OA
ATOM     74  O   UNL A   1      38.933  35.108  38.779  1.00  0.00    -0.237 OA
ATOM     75  O   UNL A   1      41.313  35.689  39.058  1.00  0.00    -0.744 OA
ENDBRANCH  71  72
ENDBRANCH  50  64
BRANCH  51  76
ATOM     76  C   UNL A   1      43.329  25.165  28.426  1.00  0.00     0.058 A 
ATOM     77  C   UNL A   1      44.029  25.491  27.255  1.00  0.00     0.135 A 
ATOM     78  C   UNL A   1      42.964  23.823  28.617  1.00  0.00     0.135 A 
ATOM     79  F   UNL A   1      44.396  26.760  27.025  1.00  0.00    -0.206 F 
ATOM     80  C   UNL A   1      44.347  24.528  26.304  1.00  0.00     0.059 A 
ATOM     81  C   UNL A   1      43.295  22.837  27.693  1.00  0.00     0.059 A 
ATOM     82  F   UNL A   1      42.307  23.456  29.729  1.00  0.00    -0.206 F 
ATOM     83  C   UNL A   1      43.981  23.201  26.535  1.00  0.00     0.060 A 
BRANCH  83  84
ATOM     84  S   UNL A   1      44.454  21.949  25.322  1.00  0.00     0.124 S 
ATOM     85  O   UNL A   1      45.882  21.809  25.584  1.00  0.00    -0.237 OA
ATOM     86  O   UNL A   1      43.619  20.817  25.710  1.00  0.00    -0.237 OA
ATOM     87  O   UNL A   1      44.105  22.569  24.047  1.00  0.00    -0.744 OA
ENDBRANCH  83  84
ENDBRANCH  51  76
BRANCH  63  88
ATOM     88  C   UNL A   1      46.330  27.112  34.411  1.00  0.00     0.058 A 
ATOM     89  C   UNL A   1      47.596  27.679  34.195  1.00  0.00     0.135 A 
ATOM     90  C   UNL A   1      46.233  26.063  35.340  1.00  0.00     0.135 A 
ATOM     91  F   UNL A   1      47.747  28.682  33.314  1.00  0.00    -0.206 F 
ATOM     92  C   UNL A   1      48.731  27.192  34.837  1.00  0.00     0.059 A 
ATOM     93  C   UNL A   1      47.347  25.585  36.020  1.00  0.00     0.059 A 
ATOM     94  F   UNL A   1      45.045  25.494  35.598  1.00  0.00    -0.206 F 
ATOM     95  C   UNL A   1      48.596  26.141  35.745  1.00  0.00     0.060 A 
BRANCH  95  96
ATOM     96  S   UNL A   1      50.075  25.514  36.567  1.00  0.00     0.124 S 
ATOM     97  O   UNL A   1      50.975  25.311  35.435  1.00  0.00    -0.237 OA
ATOM     98  O   UNL A   1      50.423  26.611  37.464  1.00  0.00    -0.237 OA
ATOM     99  O   UNL A   1      49.610  24.297  37.224  1.00  0.00    -0.744 OA
ENDBRANCH  95  96
ENDBRANCH  63  88
ENDBRANCH  37  38
ENDBRANCH  29  32
ENDBRANCH  27  28
ENDBRANCH  26  27
ENDBRANCH  25  26
ENDBRANCH  24  25
ENDBRANCH   1  24
TORSDOF 21
ENDMDL
MODEL 3
REMARK VINA RESULT:     -11.0      6.378      9.068
REMARK SMILES O=C(COc1ccccc1/C=N/NC(=O)C1CC1)NCCCCCCNC(=O)c1ccc(-c2c3nc(c(-c4c(F)cc(S(=O)(=O)[O-])cc4F)c4ccc([nH]4)c(-c4c(F)cc(S(=O)(=O)[O-])cc4F)c4nc(c(-c5c(F)cc(S(=O)(=O)[O-])cc5F)c5ccc2[nH]5)C=C4)C=C3)cc1
REMARK SMILES IDX 21 1 20 2 19 3 1 4 2 5 3 7 4 8 5 9 6 10 10 11 7 12 9 13 8 14
REMARK SMILES IDX 11 15 12 16 13 17 14 18 15 20 16 21 17 22 18 23 22 24 23 25
REMARK SMILES IDX 24 26 25 27 26 28 27 29 28 31 29 32 30 33 94 34 31 35 93 36
REMARK SMILES IDX 32 37 33 38 34 39 87 40 35 41 92 42 86 43 88 44 36 45 91 46
REMARK SMILES IDX 85 47 84 48 37 50 71 51 50 52 70 53 51 54 54 55 69 56 89 57
REMARK SMILES IDX 52 58 53 59 68 61 90 62 55 63 38 64 39 65 48 66 40 67 41 68
REMARK SMILES IDX 47 69 49 70 42 71 43 72 44 73 45 74 46 75 72 76 73 77 82 78
REMARK SMILES IDX 74 79 75 80 81 81 83 82 76 83 77 84 78 85 79 86 80 87 56 88
REMARK SMILES IDX 57 89 66 90 58 91 59 92 65 93 67 94 60 95 61 96 62 97 63 98
REMARK SMILES IDX 64 99
REMARK H PARENT 19 6 13 19 26 30 88 49 54 60
REMARK Flexibility Score: inf
ROOT
ATOM      1  C   UNL A   1      32.297  29.397  24.581  1.00  0.00     0.021 C 
ENDROOT
BRANCH   1   2
ATOM      2  C   UNL A   1      33.170  28.901  23.439  1.00  0.00     0.116 C 
BRANCH   2   3
ATOM      3  N   UNL A   1      32.536  28.108  22.385  1.00  0.00    -0.353 N 
ATOM      4  O   UNL A   1      34.029  26.341  21.970  1.00  0.00    -0.271 OA
ATOM      5  C   UNL A   1      32.915  26.854  21.959  1.00  0.00     0.257 C 
ATOM      6  H   UNL A   1      31.759  28.513  21.935  1.00  0.00     0.163 HD
BRANCH   5   7
ATOM      7  C   UNL A   1      31.810  25.957  21.514  1.00  0.00     0.329 C 
BRANCH   7   8
ATOM      8  O   UNL A   1      31.701  24.936  22.476  1.00  0.00    -0.483 OA
BRANCH   8   9
ATOM      9  C   UNL A   1      31.570  25.285  23.798  1.00  0.00     0.128 A 
ATOM     10  C   UNL A   1      32.511  24.553  24.538  1.00  0.00     0.047 A 
ATOM     11  C   UNL A   1      30.511  25.961  24.456  1.00  0.00     0.037 A 
ATOM     12  C   UNL A   1      32.376  24.390  25.906  1.00  0.00     0.004 A 
ATOM     13  C   UNL A   1      30.349  25.724  25.833  1.00  0.00     0.013 A 
ATOM     14  C   UNL A   1      31.262  24.926  26.543  1.00  0.00     0.001 A 
BRANCH  11  15
ATOM     15  C   UNL A   1      29.743  27.140  23.920  1.00  0.00     0.145 C 
ATOM     16  N   UNL A   1      28.506  27.118  23.508  1.00  0.00    -0.181 NA
BRANCH  16  17
ATOM     17  N   UNL A   1      28.016  28.359  22.982  1.00  0.00    -0.247 N 
ATOM     18  C   UNL A   1      28.902  29.420  22.653  1.00  0.00     0.243 C 
ATOM     19  H   UNL A   1      27.048  28.479  22.847  1.00  0.00     0.193 HD
ATOM     20  O   UNL A   1      29.489  29.434  21.570  1.00  0.00    -0.273 OA
BRANCH  18  21
ATOM     21  C   UNL A   1      28.870  30.687  23.497  1.00  0.00     0.080 C 
ATOM     22  C   UNL A   1      28.695  32.114  22.958  1.00  0.00     0.014 C 
ATOM     23  C   UNL A   1      27.569  31.475  23.676  1.00  0.00     0.014 C 
ENDBRANCH  18  21
ENDBRANCH  16  17
ENDBRANCH  11  15
ENDBRANCH   8   9
ENDBRANCH   7   8
ENDBRANCH   5   7
ENDBRANCH   2   3
ENDBRANCH   1   2
BRANCH   1  24
ATOM     24  C   UNL A   1      32.883  29.107  25.952  1.00  0.00     0.002 C 
BRANCH  24  25
ATOM     25  C   UNL A   1      32.145  29.844  27.072  1.00  0.00     0.002 C 
BRANCH  25  26
ATOM     26  C   UNL A   1      32.041  31.362  26.877  1.00  0.00     0.021 C 
BRANCH  26  27
ATOM     27  C   UNL A   1      33.321  32.120  27.218  1.00  0.00     0.116 C 
BRANCH  27  28
ATOM     28  N   UNL A   1      33.015  33.494  27.595  1.00  0.00    -0.352 N 
ATOM     29  C   UNL A   1      33.392  34.168  28.726  1.00  0.00     0.251 C 
ATOM     30  H   UNL A   1      32.467  34.003  26.954  1.00  0.00     0.163 HD
ATOM     31  O   UNL A   1      32.765  35.154  29.100  1.00  0.00    -0.269 OA
BRANCH  29  32
ATOM     32  C   UNL A   1      34.574  33.697  29.472  1.00  0.00     0.039 A 
ATOM     33  C   UNL A   1      34.410  32.778  30.508  1.00  0.00     0.014 A 
ATOM     34  C   UNL A   1      35.844  34.182  29.144  1.00  0.00     0.014 A 
ATOM     35  C   UNL A   1      35.533  32.316  31.192  1.00  0.00     0.010 A 
ATOM     36  C   UNL A   1      36.968  33.661  29.772  1.00  0.00     0.010 A 
ATOM     37  C   UNL A   1      36.822  32.735  30.814  1.00  0.00    -0.014 A 
BRANCH  37  38
ATOM     38  C   UNL A   1      38.022  32.199  31.499  1.00  0.00     0.031 A 
ATOM     39  C   UNL A   1      38.418  32.711  32.857  1.00  0.00     0.074 A 
ATOM     40  C   UNL A   1      38.774  31.273  30.872  1.00  0.00     0.049 A 
ATOM     41  N   UNL A   1      39.407  32.332  33.624  1.00  0.00    -0.248 NA
ATOM     42  C   UNL A   1      37.614  33.809  33.416  1.00  0.00     0.031 C 
ATOM     43  C   UNL A   1      38.524  30.755  29.525  1.00  0.00     0.029 A 
ATOM     44  N   UNL A   1      39.894  30.598  31.284  1.00  0.00    -0.354 N 
ATOM     45  C   UNL A   1      39.351  33.149  34.748  1.00  0.00     0.074 A 
ATOM     46  C   UNL A   1      38.268  34.082  34.536  1.00  0.00     0.031 C 
ATOM     47  C   UNL A   1      39.430  29.807  29.243  1.00  0.00     0.029 A 
ATOM     48  C   UNL A   1      40.346  29.676  30.371  1.00  0.00     0.049 A 
ATOM     49  H   UNL A   1      40.331  30.758  32.151  1.00  0.00     0.167 HD
ATOM     50  C   UNL A   1      40.118  33.107  35.863  1.00  0.00     0.037 A 
ATOM     51  C   UNL A   1      41.378  28.814  30.441  1.00  0.00     0.037 A 
ATOM     52  C   UNL A   1      41.187  32.160  36.064  1.00  0.00     0.049 A 
ATOM     53  C   UNL A   1      42.210  28.780  31.692  1.00  0.00     0.074 A 
ATOM     54  C   UNL A   1      41.978  31.978  37.184  1.00  0.00     0.029 A 
ATOM     55  N   UNL A   1      41.624  31.245  35.114  1.00  0.00    -0.354 N 
ATOM     56  N   UNL A   1      42.085  29.492  32.788  1.00  0.00    -0.248 NA
ATOM     57  C   UNL A   1      43.319  27.818  31.722  1.00  0.00     0.031 C 
ATOM     58  C   UNL A   1      42.932  30.996  36.891  1.00  0.00     0.029 A 
ATOM     59  C   UNL A   1      42.696  30.521  35.610  1.00  0.00     0.049 A 
ATOM     60  H   UNL A   1      41.229  31.128  34.220  1.00  0.00     0.167 HD
ATOM     61  C   UNL A   1      43.086  29.052  33.646  1.00  0.00     0.074 A 
ATOM     62  C   UNL A   1      43.790  27.993  32.948  1.00  0.00     0.031 C 
ATOM     63  C   UNL A   1      43.398  29.483  34.894  1.00  0.00     0.037 A 
BRANCH  50  64
ATOM     64  C   UNL A   1      39.837  34.119  36.943  1.00  0.00     0.058 A 
ATOM     65  C   UNL A   1      40.259  35.455  36.839  1.00  0.00     0.135 A 
ATOM     66  C   UNL A   1      39.120  33.752  38.094  1.00  0.00     0.135 A 
ATOM     67  F   UNL A   1      40.959  35.862  35.769  1.00  0.00    -0.206 F 
ATOM     68  C   UNL A   1      40.017  36.378  37.852  1.00  0.00     0.059 A 
ATOM     69  C   UNL A   1      38.838  34.666  39.105  1.00  0.00     0.059 A 
ATOM     70  F   UNL A   1      38.689  32.490  38.249  1.00  0.00    -0.206 F 
ATOM     71  C   UNL A   1      39.307  35.973  38.983  1.00  0.00     0.060 A 
BRANCH  71  72
ATOM     72  S   UNL A   1      39.010  37.180  40.292  1.00  0.00     0.124 S 
ATOM     73  O   UNL A   1      38.068  36.461  41.144  1.00  0.00    -0.237 OA
ATOM     74  O   UNL A   1      40.346  37.373  40.848  1.00  0.00    -0.237 OA
ATOM     75  O   UNL A   1      38.460  38.329  39.579  1.00  0.00    -0.744 OA
ENDBRANCH  71  72
ENDBRANCH  50  64
BRANCH  51  76
ATOM     76  C   UNL A   1      41.645  27.884  29.311  1.00  0.00     0.058 A 
ATOM     77  C   UNL A   1      42.722  28.102  28.439  1.00  0.00     0.135 A 
ATOM     78  C   UNL A   1      40.852  26.746  29.096  1.00  0.00     0.135 A 
ATOM     79  F   UNL A   1      43.508  29.178  28.600  1.00  0.00    -0.206 F 
ATOM     80  C   UNL A   1      42.999  27.233  27.390  1.00  0.00     0.059 A 
ATOM     81  C   UNL A   1      41.124  25.848  28.069  1.00  0.00     0.059 A 
ATOM     82  F   UNL A   1      39.818  26.482  29.912  1.00  0.00    -0.206 F 
ATOM     83  C   UNL A   1      42.196  26.103  27.216  1.00  0.00     0.060 A 
BRANCH  83  84
ATOM     84  S   UNL A   1      42.603  24.951  25.887  1.00  0.00     0.124 S 
ATOM     85  O   UNL A   1      43.951  24.535  26.258  1.00  0.00    -0.237 OA
ATOM     86  O   UNL A   1      41.560  23.939  26.031  1.00  0.00    -0.237 OA
ATOM     87  O   UNL A   1      42.505  25.775  24.686  1.00  0.00    -0.744 OA
ENDBRANCH  83  84
ENDBRANCH  51  76
BRANCH  63  88
ATOM     88  C   UNL A   1      44.543  28.794  35.587  1.00  0.00     0.058 A 
ATOM     89  C   UNL A   1      44.342  27.671  36.406  1.00  0.00     0.135 A 
ATOM     90  C   UNL A   1      45.859  29.255  35.421  1.00  0.00     0.135 A 
ATOM     91  F   UNL A   1      43.103  27.190  36.603  1.00  0.00    -0.206 F 
ATOM     92  C   UNL A   1      45.398  27.061  37.076  1.00  0.00     0.059 A 
ATOM     93  C   UNL A   1      46.934  28.639  36.052  1.00  0.00     0.059 A 
ATOM     94  F   UNL A   1      46.112  30.314  34.636  1.00  0.00    -0.206 F 
ATOM     95  C   UNL A   1      46.690  27.555  36.896  1.00  0.00     0.060 A 
BRANCH  95  96
ATOM     96  S   UNL A   1      48.052  26.759  37.774  1.00  0.00     0.124 S 
ATOM     97  O   UNL A   1      49.206  27.238  37.019  1.00  0.00    -0.237 OA
ATOM     98  O   UNL A   1      47.910  27.296  39.123  1.00  0.00    -0.237 OA
ATOM     99  O   UNL A   1      47.759  25.336  37.638  1.00  0.00    -0.744 OA
ENDBRANCH  95  96
ENDBRANCH  63  88
ENDBRANCH  37  38
ENDBRANCH  29  32
ENDBRANCH  27  28
ENDBRANCH  26  27
ENDBRANCH  25  26
ENDBRANCH  24  25
ENDBRANCH   1  24
TORSDOF 21
ENDMDL
