MODEL 1
REMARK VINA RESULT:     -13.8      0.000      0.000
REMARK SMILES Cc1ccc(C(=O)N2CCCC[C@@H]2C(=O)NCCCCCCNC(=O)c2ccc(-c3c4nc(c(-c5c(F)cc(S(=O)(=O)[O-])cc5F)c5ccc([nH]5)c(-c5c(F)cc(S(=O)(=O)[O-])cc5F)c5nc(c(-c6c(F)cc(S(=O)(=O)[O-])cc6F)c6ccc3[nH]6)C=C5)C=C4)cc2)cc1S(=O)(=O)N1CCCCC1
REMARK SMILES IDX 19 1 18 2 17 3 16 4 14 5 15 6 13 8 8 9 9 10 10 11 12 12
REMARK SMILES IDX 11 13 6 14 7 15 5 16 1 17 2 18 3 19 93 20 4 21 92 22 94 23
REMARK SMILES IDX 95 24 96 25 97 26 98 27 102 28 99 29 101 30 100 31 20 32
REMARK SMILES IDX 21 33 22 34 23 35 24 36 25 38 26 39 27 40 91 41 28 42 90 43
REMARK SMILES IDX 29 44 30 45 31 46 84 47 32 48 89 49 83 50 85 51 33 52 88 53
REMARK SMILES IDX 82 54 81 55 34 57 68 58 47 59 67 60 48 61 51 62 66 63 86 64
REMARK SMILES IDX 49 65 50 66 65 68 87 69 52 70 35 71 36 72 45 73 37 74 38 75
REMARK SMILES IDX 44 76 46 77 39 78 40 79 41 80 42 81 43 82 69 83 70 84 79 85
REMARK SMILES IDX 71 86 72 87 78 88 80 89 73 90 74 91 75 92 76 93 77 94 53 95
REMARK SMILES IDX 54 96 63 97 55 98 56 99 62 100 64 101 57 102 58 103 59 104
REMARK SMILES IDX 60 105 61 106
REMARK H PARENT 16 7 23 37 85 56 51 67
REMARK Flexibility Score: inf
ROOT
ATOM      1  C   UNL A   1      32.565  29.490  25.143  1.00  0.00     0.002 C 
ENDROOT
BRANCH   1   2
ATOM      2  C   UNL A   1      32.875  29.495  23.639  1.00  0.00     0.021 C 
BRANCH   2   3
ATOM      3  C   UNL A   1      34.115  28.705  23.220  1.00  0.00     0.116 C 
BRANCH   3   4
ATOM      4  N   UNL A   1      33.906  28.019  21.959  1.00  0.00    -0.354 N 
ATOM      5  C   UNL A   1      33.155  26.922  21.670  1.00  0.00     0.242 C 
ATOM      6  O   UNL A   1      33.248  26.456  20.529  1.00  0.00    -0.273 OA
ATOM      7  H   UNL A   1      34.384  28.407  21.192  1.00  0.00     0.163 HD
BRANCH   5   8
ATOM      8  C   UNL A   1      32.311  26.187  22.743  1.00  0.00     0.174 C 
ATOM      9  N   UNL A   1      32.101  24.732  22.517  1.00  0.00    -0.327 N 
ATOM     10  C   UNL A   1      30.995  24.096  23.232  1.00  0.00     0.120 C 
ATOM     11  C   UNL A   1      29.701  24.884  23.200  1.00  0.00     0.022 C 
ATOM     12  C   UNL A   1      30.988  26.982  22.856  1.00  0.00     0.035 C 
ATOM     13  C   UNL A   1      29.935  26.294  23.709  1.00  0.00     0.004 C 
BRANCH   9  14
ATOM     14  C   UNL A   1      33.090  23.827  22.102  1.00  0.00     0.254 C 
ATOM     15  O   UNL A   1      33.274  23.544  20.917  1.00  0.00    -0.269 OA
BRANCH  14  16
ATOM     16  C   UNL A   1      33.952  23.119  23.069  1.00  0.00     0.041 A 
ATOM     17  C   UNL A   1      36.762  20.765  25.341  1.00  0.00     0.046 C 
ATOM     18  C   UNL A   1      35.667  21.519  24.655  1.00  0.00    -0.031 A 
ATOM     19  C   UNL A   1      36.163  22.521  23.781  1.00  0.00     0.005 A 
ATOM     20  C   UNL A   1      34.273  21.350  24.747  1.00  0.00     0.086 A 
ATOM     21  C   UNL A   1      35.325  23.307  22.996  1.00  0.00     0.014 A 
ATOM     22  C   UNL A   1      33.437  22.141  23.919  1.00  0.00     0.035 A 
BRANCH  20  23
ATOM     23  S   UNL A   1      33.288  20.239  25.764  1.00  0.00     0.243 S 
ATOM     24  O   UNL A   1      33.755  20.429  27.122  1.00  0.00    -0.207 OA
ATOM     25  O   UNL A   1      31.910  20.538  25.420  1.00  0.00    -0.207 OA
BRANCH  23  26
ATOM     26  N   UNL A   1      33.532  18.610  25.384  1.00  0.00    -0.198 NA
ATOM     27  C   UNL A   1      32.400  17.696  25.622  1.00  0.00     0.102 C 
ATOM     28  C   UNL A   1      34.611  18.302  24.420  1.00  0.00     0.102 C 
ATOM     29  C   UNL A   1      32.726  16.236  25.353  1.00  0.00     0.017 C 
ATOM     30  C   UNL A   1      34.807  16.815  24.162  1.00  0.00     0.017 C 
ATOM     31  C   UNL A   1      33.499  16.052  24.060  1.00  0.00     0.003 C 
ENDBRANCH  23  26
ENDBRANCH  20  23
ENDBRANCH  14  16
ENDBRANCH   9  14
ENDBRANCH   5   8
ENDBRANCH   3   4
ENDBRANCH   2   3
ENDBRANCH   1   2
BRANCH   1  32
ATOM     32  C   UNL A   1      33.188  28.354  25.968  1.00  0.00     0.002 C 
BRANCH  32  33
ATOM     33  C   UNL A   1      34.466  28.700  26.734  1.00  0.00     0.021 C 
BRANCH  33  34
ATOM     34  C   UNL A   1      34.219  29.402  28.064  1.00  0.00     0.116 C 
BRANCH  34  35
ATOM     35  N   UNL A   1      34.917  30.669  28.181  1.00  0.00    -0.352 N 
ATOM     36  C   UNL A   1      36.174  30.893  28.736  1.00  0.00     0.251 C 
ATOM     37  H   UNL A   1      34.448  31.461  27.830  1.00  0.00     0.163 HD
ATOM     38  O   UNL A   1      36.545  31.972  29.111  1.00  0.00    -0.269 OA
BRANCH  36  39
ATOM     39  C   UNL A   1      37.106  29.739  28.689  1.00  0.00     0.039 A 
ATOM     40  C   UNL A   1      37.283  29.021  29.877  1.00  0.00     0.014 A 
ATOM     41  C   UNL A   1      37.962  29.566  27.607  1.00  0.00     0.014 A 
ATOM     42  C   UNL A   1      38.427  28.245  30.045  1.00  0.00     0.010 A 
ATOM     43  C   UNL A   1      39.135  28.862  27.805  1.00  0.00     0.010 A 
ATOM     44  C   UNL A   1      39.390  28.236  29.037  1.00  0.00    -0.014 A 
BRANCH  44  45
ATOM     45  C   UNL A   1      40.733  27.686  29.198  1.00  0.00     0.031 A 
ATOM     46  C   UNL A   1      41.055  26.326  28.706  1.00  0.00     0.074 A 
ATOM     47  C   UNL A   1      41.726  28.468  29.675  1.00  0.00     0.049 A 
ATOM     48  N   UNL A   1      42.109  25.663  29.045  1.00  0.00    -0.248 NA
ATOM     49  C   UNL A   1      40.183  25.591  27.796  1.00  0.00     0.031 C 
ATOM     50  C   UNL A   1      43.163  28.238  29.554  1.00  0.00     0.029 A 
ATOM     51  N   UNL A   1      41.622  29.550  30.551  1.00  0.00    -0.354 N 
ATOM     52  C   UNL A   1      42.200  24.565  28.223  1.00  0.00     0.074 A 
ATOM     53  C   UNL A   1      40.954  24.543  27.489  1.00  0.00     0.031 C 
ATOM     54  C   UNL A   1      43.799  28.955  30.491  1.00  0.00     0.029 A 
ATOM     55  C   UNL A   1      42.788  29.547  31.347  1.00  0.00     0.049 A 
ATOM     56  H   UNL A   1      40.878  30.192  30.604  1.00  0.00     0.167 HD
ATOM     57  C   UNL A   1      43.363  23.856  28.165  1.00  0.00     0.037 A 
ATOM     58  C   UNL A   1      42.703  29.361  32.699  1.00  0.00     0.037 A 
ATOM     59  C   UNL A   1      44.357  24.355  29.111  1.00  0.00     0.049 A 
ATOM     60  C   UNL A   1      43.352  28.087  33.207  1.00  0.00     0.074 A 
ATOM     61  C   UNL A   1      45.454  25.196  29.017  1.00  0.00     0.029 A 
ATOM     62  N   UNL A   1      44.114  24.203  30.463  1.00  0.00    -0.354 N 
ATOM     63  N   UNL A   1      43.967  27.216  32.454  1.00  0.00    -0.248 NA
ATOM     64  C   UNL A   1      43.287  27.656  34.607  1.00  0.00     0.031 C 
ATOM     65  C   UNL A   1      45.848  25.566  30.336  1.00  0.00     0.029 A 
ATOM     66  C   UNL A   1      44.990  24.948  31.226  1.00  0.00     0.049 A 
ATOM     67  H   UNL A   1      43.403  23.632  30.836  1.00  0.00     0.167 HD
ATOM     68  C   UNL A   1      44.284  26.113  33.202  1.00  0.00     0.074 A 
ATOM     69  C   UNL A   1      43.870  26.446  34.551  1.00  0.00     0.031 C 
ATOM     70  C   UNL A   1      44.811  24.975  32.666  1.00  0.00     0.037 A 
BRANCH  57  71
ATOM     71  C   UNL A   1      43.659  22.853  27.077  1.00  0.00     0.058 A 
ATOM     72  C   UNL A   1      42.954  21.633  27.010  1.00  0.00     0.135 A 
ATOM     73  C   UNL A   1      44.662  23.016  26.102  1.00  0.00     0.135 A 
ATOM     74  F   UNL A   1      41.918  21.376  27.818  1.00  0.00    -0.206 F 
ATOM     75  C   UNL A   1      43.297  20.609  26.126  1.00  0.00     0.059 A 
ATOM     76  C   UNL A   1      45.064  21.984  25.247  1.00  0.00     0.059 A 
ATOM     77  F   UNL A   1      45.272  24.198  25.927  1.00  0.00    -0.206 F 
ATOM     78  C   UNL A   1      44.381  20.775  25.277  1.00  0.00     0.060 A 
BRANCH  78  79
ATOM     79  S   UNL A   1      44.891  19.388  24.245  1.00  0.00     0.124 S 
ATOM     80  O   UNL A   1      46.340  19.388  24.421  1.00  0.00    -0.237 OA
ATOM     81  O   UNL A   1      44.177  18.275  24.861  1.00  0.00    -0.237 OA
ATOM     82  O   UNL A   1      44.432  19.770  22.913  1.00  0.00    -0.744 OA
ENDBRANCH  78  79
ENDBRANCH  57  71
BRANCH  58  83
ATOM     83  C   UNL A   1      41.498  30.016  33.280  1.00  0.00     0.058 A 
ATOM     84  C   UNL A   1      41.539  31.415  33.451  1.00  0.00     0.135 A 
ATOM     85  C   UNL A   1      40.240  29.404  33.222  1.00  0.00     0.135 A 
ATOM     86  F   UNL A   1      42.722  32.048  33.531  1.00  0.00    -0.206 F 
ATOM     87  C   UNL A   1      40.389  32.191  33.382  1.00  0.00     0.059 A 
ATOM     88  C   UNL A   1      39.071  30.165  33.166  1.00  0.00     0.059 A 
ATOM     89  F   UNL A   1      40.141  28.076  33.067  1.00  0.00    -0.206 F 
ATOM     90  C   UNL A   1      39.167  31.557  33.166  1.00  0.00     0.060 A 
BRANCH  90  91
ATOM     91  S   UNL A   1      37.750  32.587  32.713  1.00  0.00     0.124 S 
ATOM     92  O   UNL A   1      38.268  33.331  31.571  1.00  0.00    -0.237 OA
ATOM     93  O   UNL A   1      36.736  31.581  32.402  1.00  0.00    -0.237 OA
ATOM     94  O   UNL A   1      37.508  33.369  33.919  1.00  0.00    -0.744 OA
ENDBRANCH  90  91
ENDBRANCH  58  83
BRANCH  70  95
ATOM     95  C   UNL A   1      45.189  23.778  33.487  1.00  0.00     0.058 A 
ATOM     96  C   UNL A   1      44.266  22.760  33.778  1.00  0.00     0.135 A 
ATOM     97  C   UNL A   1      46.445  23.687  34.120  1.00  0.00     0.135 A 
ATOM     98  F   UNL A   1      43.033  22.785  33.247  1.00  0.00    -0.206 F 
ATOM     99  C   UNL A   1      44.579  21.702  34.631  1.00  0.00     0.059 A 
ATOM    100  C   UNL A   1      46.763  22.665  35.009  1.00  0.00     0.059 A 
ATOM    101  F   UNL A   1      47.413  24.583  33.871  1.00  0.00    -0.206 F 
ATOM    102  C   UNL A   1      45.828  21.666  35.245  1.00  0.00     0.060 A 
BRANCH 102 103
ATOM    103  S   UNL A   1      46.226  20.322  36.382  1.00  0.00     0.124 S 
ATOM    104  O   UNL A   1      47.672  20.186  36.227  1.00  0.00    -0.237 OA
ATOM    105  O   UNL A   1      45.778  20.877  37.655  1.00  0.00    -0.237 OA
ATOM    106  O   UNL A   1      45.441  19.204  35.868  1.00  0.00    -0.744 OA
ENDBRANCH 102 103
ENDBRANCH  70  95
ENDBRANCH  44  45
ENDBRANCH  36  39
ENDBRANCH  34  35
ENDBRANCH  33  34
ENDBRANCH  32  33
ENDBRANCH   1  32
TORSDOF 20
ENDMDL
MODEL 2
REMARK VINA RESULT:     -13.7      1.678      4.338
REMARK SMILES Cc1ccc(C(=O)N2CCCC[C@@H]2C(=O)NCCCCCCNC(=O)c2ccc(-c3c4nc(c(-c5c(F)cc(S(=O)(=O)[O-])cc5F)c5ccc([nH]5)c(-c5c(F)cc(S(=O)(=O)[O-])cc5F)c5nc(c(-c6c(F)cc(S(=O)(=O)[O-])cc6F)c6ccc3[nH]6)C=C5)C=C4)cc2)cc1S(=O)(=O)N1CCCCC1
REMARK SMILES IDX 19 1 18 2 17 3 16 4 14 5 15 6 13 8 8 9 9 10 10 11 12 12
REMARK SMILES IDX 11 13 6 14 7 15 5 16 1 17 2 18 3 19 93 20 4 21 92 22 94 23
REMARK SMILES IDX 95 24 96 25 97 26 98 27 102 28 99 29 101 30 100 31 20 32
REMARK SMILES IDX 21 33 22 34 23 35 24 36 25 38 26 39 27 40 91 41 28 42 90 43
REMARK SMILES IDX 29 44 30 45 31 46 84 47 32 48 89 49 83 50 85 51 33 52 88 53
REMARK SMILES IDX 82 54 81 55 34 57 68 58 47 59 67 60 48 61 51 62 66 63 86 64
REMARK SMILES IDX 49 65 50 66 65 68 87 69 52 70 35 71 36 72 45 73 37 74 38 75
REMARK SMILES IDX 44 76 46 77 39 78 40 79 41 80 42 81 43 82 69 83 70 84 79 85
REMARK SMILES IDX 71 86 72 87 78 88 80 89 73 90 74 91 75 92 76 93 77 94 53 95
REMARK SMILES IDX 54 96 63 97 55 98 56 99 62 100 64 101 57 102 58 103 59 104
REMARK SMILES IDX 60 105 61 106
REMARK H PARENT 16 7 23 37 85 56 51 67
REMARK Flexibility Score: inf
ROOT
ATOM      1  C   UNL A   1      34.242  26.828  25.814  1.00  0.00     0.002 C 
ENDROOT
BRANCH   1   2
ATOM      2  C   UNL A   1      34.140  25.776  24.701  1.00  0.00     0.021 C 
BRANCH   2   3
ATOM      3  C   UNL A   1      35.012  24.533  24.885  1.00  0.00     0.116 C 
BRANCH   3   4
ATOM      4  N   UNL A   1      34.746  23.883  26.154  1.00  0.00    -0.354 N 
ATOM      5  C   UNL A   1      34.340  22.612  26.422  1.00  0.00     0.242 C 
ATOM      6  O   UNL A   1      34.061  22.342  27.596  1.00  0.00    -0.273 OA
ATOM      7  H   UNL A   1      34.881  24.450  26.946  1.00  0.00     0.163 HD
BRANCH   5   8
ATOM      8  C   UNL A   1      34.100  21.565  25.305  1.00  0.00     0.174 C 
ATOM      9  N   UNL A   1      32.691  21.123  25.124  1.00  0.00    -0.327 N 
ATOM     10  C   UNL A   1      32.469  19.866  24.410  1.00  0.00     0.120 C 
ATOM     11  C   UNL A   1      33.383  18.737  24.843  1.00  0.00     0.022 C 
ATOM     12  C   UNL A   1      35.069  20.396  25.606  1.00  0.00     0.035 C 
ATOM     13  C   UNL A   1      34.834  19.170  24.739  1.00  0.00     0.004 C 
BRANCH   9  14
ATOM     14  C   UNL A   1      31.571  21.970  25.122  1.00  0.00     0.254 C 
ATOM     15  O   UNL A   1      30.632  21.829  25.906  1.00  0.00    -0.269 OA
BRANCH  14  16
ATOM     16  C   UNL A   1      31.429  23.067  24.144  1.00  0.00     0.041 A 
ATOM     17  C   UNL A   1      31.686  26.372  21.386  1.00  0.00     0.046 C 
ATOM     18  C   UNL A   1      31.465  25.307  22.413  1.00  0.00    -0.031 A 
ATOM     19  C   UNL A   1      32.189  24.120  22.128  1.00  0.00     0.005 A 
ATOM     20  C   UNL A   1      30.683  25.343  23.582  1.00  0.00     0.086 A 
ATOM     21  C   UNL A   1      32.179  23.018  22.977  1.00  0.00     0.014 A 
ATOM     22  C   UNL A   1      30.707  24.221  24.449  1.00  0.00     0.035 A 
BRANCH  20  23
ATOM     23  S   UNL A   1      29.607  26.627  24.238  1.00  0.00     0.243 S 
ATOM     24  O   UNL A   1      28.283  26.043  24.295  1.00  0.00    -0.207 OA
ATOM     25  O   UNL A   1      30.257  27.075  25.456  1.00  0.00    -0.207 OA
BRANCH  23  26
ATOM     26  N   UNL A   1      29.506  27.978  23.227  1.00  0.00    -0.198 NA
ATOM     27  C   UNL A   1      28.152  28.474  22.914  1.00  0.00     0.102 C 
ATOM     28  C   UNL A   1      30.705  28.839  23.138  1.00  0.00     0.102 C 
ATOM     29  C   UNL A   1      28.137  29.624  21.921  1.00  0.00     0.017 C 
ATOM     30  C   UNL A   1      30.561  30.008  22.173  1.00  0.00     0.017 C 
ATOM     31  C   UNL A   1      29.194  30.666  22.237  1.00  0.00     0.003 C 
ENDBRANCH  23  26
ENDBRANCH  20  23
ENDBRANCH  14  16
ENDBRANCH   9  14
ENDBRANCH   5   8
ENDBRANCH   3   4
ENDBRANCH   2   3
ENDBRANCH   1   2
BRANCH   1  32
ATOM     32  C   UNL A   1      33.234  27.986  25.758  1.00  0.00     0.002 C 
BRANCH  32  33
ATOM     33  C   UNL A   1      33.765  29.362  26.164  1.00  0.00     0.021 C 
BRANCH  33  34
ATOM     34  C   UNL A   1      34.332  29.413  27.578  1.00  0.00     0.116 C 
BRANCH  34  35
ATOM     35  N   UNL A   1      34.993  30.667  27.886  1.00  0.00    -0.352 N 
ATOM     36  C   UNL A   1      36.172  30.846  28.605  1.00  0.00     0.251 C 
ATOM     37  H   UNL A   1      34.560  31.485  27.549  1.00  0.00     0.163 HD
ATOM     38  O   UNL A   1      36.481  31.891  29.112  1.00  0.00    -0.269 OA
BRANCH  36  39
ATOM     39  C   UNL A   1      37.119  29.704  28.572  1.00  0.00     0.039 A 
ATOM     40  C   UNL A   1      37.288  28.990  29.765  1.00  0.00     0.014 A 
ATOM     41  C   UNL A   1      37.991  29.538  27.503  1.00  0.00     0.014 A 
ATOM     42  C   UNL A   1      38.438  28.228  29.950  1.00  0.00     0.010 A 
ATOM     43  C   UNL A   1      39.169  28.848  27.718  1.00  0.00     0.010 A 
ATOM     44  C   UNL A   1      39.415  28.229  28.955  1.00  0.00    -0.014 A 
BRANCH  44  45
ATOM     45  C   UNL A   1      40.762  27.695  29.136  1.00  0.00     0.031 A 
ATOM     46  C   UNL A   1      41.106  26.337  28.654  1.00  0.00     0.074 A 
ATOM     47  C   UNL A   1      41.740  28.490  29.622  1.00  0.00     0.049 A 
ATOM     48  N   UNL A   1      42.164  25.687  29.008  1.00  0.00    -0.248 NA
ATOM     49  C   UNL A   1      40.255  25.588  27.736  1.00  0.00     0.031 C 
ATOM     50  C   UNL A   1      43.181  28.276  29.521  1.00  0.00     0.029 A 
ATOM     51  N   UNL A   1      41.612  29.574  30.492  1.00  0.00    -0.354 N 
ATOM     52  C   UNL A   1      42.277  24.587  28.192  1.00  0.00     0.074 A 
ATOM     53  C   UNL A   1      41.041  24.548  27.443  1.00  0.00     0.031 C 
ATOM     54  C   UNL A   1      43.797  29.004  30.463  1.00  0.00     0.029 A 
ATOM     55  C   UNL A   1      42.768  29.588  31.303  1.00  0.00     0.049 A 
ATOM     56  H   UNL A   1      40.860  30.207  30.533  1.00  0.00     0.167 HD
ATOM     57  C   UNL A   1      43.450  23.891  28.152  1.00  0.00     0.037 A 
ATOM     58  C   UNL A   1      42.668  29.406  32.655  1.00  0.00     0.037 A 
ATOM     59  C   UNL A   1      44.425  24.406  29.109  1.00  0.00     0.049 A 
ATOM     60  C   UNL A   1      43.324  28.142  33.176  1.00  0.00     0.074 A 
ATOM     61  C   UNL A   1      45.514  25.259  29.026  1.00  0.00     0.029 A 
ATOM     62  N   UNL A   1      44.167  24.256  30.458  1.00  0.00    -0.354 N 
ATOM     63  N   UNL A   1      43.959  27.275  32.435  1.00  0.00    -0.248 NA
ATOM     64  C   UNL A   1      43.246  27.716  34.577  1.00  0.00     0.031 C 
ATOM     65  C   UNL A   1      45.886  25.638  30.348  1.00  0.00     0.029 A 
ATOM     66  C   UNL A   1      45.024  25.015  31.229  1.00  0.00     0.049 A 
ATOM     67  H   UNL A   1      43.457  23.678  30.824  1.00  0.00     0.167 HD
ATOM     68  C   UNL A   1      44.280  26.178  33.192  1.00  0.00     0.074 A 
ATOM     69  C   UNL A   1      43.844  26.512  34.534  1.00  0.00     0.031 C 
ATOM     70  C   UNL A   1      44.826  25.044  32.667  1.00  0.00     0.037 A 
BRANCH  57  71
ATOM     71  C   UNL A   1      43.771  22.887  27.072  1.00  0.00     0.058 A 
ATOM     72  C   UNL A   1      43.005  21.712  26.929  1.00  0.00     0.135 A 
ATOM     73  C   UNL A   1      44.855  23.004  26.180  1.00  0.00     0.135 A 
ATOM     74  F   UNL A   1      41.896  21.505  27.650  1.00  0.00    -0.206 F 
ATOM     75  C   UNL A   1      43.356  20.682  26.056  1.00  0.00     0.059 A 
ATOM     76  C   UNL A   1      45.262  21.962  25.340  1.00  0.00     0.059 A 
ATOM     77  F   UNL A   1      45.543  24.151  26.074  1.00  0.00    -0.206 F 
ATOM     78  C   UNL A   1      44.510  20.796  25.296  1.00  0.00     0.060 A 
BRANCH  78  79
ATOM     79  S   UNL A   1      45.018  19.395  24.281  1.00  0.00     0.124 S 
ATOM     80  O   UNL A   1      46.473  19.512  24.299  1.00  0.00    -0.237 OA
ATOM     81  O   UNL A   1      44.462  18.268  25.022  1.00  0.00    -0.237 OA
ATOM     82  O   UNL A   1      44.394  19.668  22.990  1.00  0.00    -0.744 OA
ENDBRANCH  78  79
ENDBRANCH  57  71
BRANCH  58  83
ATOM     83  C   UNL A   1      41.448  30.050  33.217  1.00  0.00     0.058 A 
ATOM     84  C   UNL A   1      41.481  31.446  33.410  1.00  0.00     0.135 A 
ATOM     85  C   UNL A   1      40.192  29.435  33.121  1.00  0.00     0.135 A 
ATOM     86  F   UNL A   1      42.659  32.080  33.528  1.00  0.00    -0.206 F 
ATOM     87  C   UNL A   1      40.330  32.220  33.327  1.00  0.00     0.059 A 
ATOM     88  C   UNL A   1      39.023  30.194  33.049  1.00  0.00     0.059 A 
ATOM     89  F   UNL A   1      40.101  28.109  32.943  1.00  0.00    -0.206 F 
ATOM     90  C   UNL A   1      39.116  31.587  33.073  1.00  0.00     0.060 A 
BRANCH  90  91
ATOM     91  S   UNL A   1      37.707  32.620  32.603  1.00  0.00     0.124 S 
ATOM     92  O   UNL A   1      38.201  33.278  31.399  1.00  0.00    -0.237 OA
ATOM     93  O   UNL A   1      36.660  31.621  32.392  1.00  0.00    -0.237 OA
ATOM     94  O   UNL A   1      37.525  33.482  33.764  1.00  0.00    -0.744 OA
ENDBRANCH  90  91
ENDBRANCH  58  83
BRANCH  70  95
ATOM     95  C   UNL A   1      45.207  23.855  33.497  1.00  0.00     0.058 A 
ATOM     96  C   UNL A   1      44.359  22.745  33.630  1.00  0.00     0.135 A 
ATOM     97  C   UNL A   1      46.370  23.857  34.294  1.00  0.00     0.135 A 
ATOM     98  F   UNL A   1      43.211  22.675  32.935  1.00  0.00    -0.206 F 
ATOM     99  C   UNL A   1      44.657  21.685  34.487  1.00  0.00     0.059 A 
ATOM    100  C   UNL A   1      46.666  22.833  35.189  1.00  0.00     0.059 A 
ATOM    101  F   UNL A   1      47.269  24.849  34.206  1.00  0.00    -0.206 F 
ATOM    102  C   UNL A   1      45.811  21.741  35.266  1.00  0.00     0.060 A 
BRANCH 102 103
ATOM    103  S   UNL A   1      46.183  20.395  36.408  1.00  0.00     0.124 S 
ATOM    104  O   UNL A   1      45.321  19.317  35.928  1.00  0.00    -0.237 OA
ATOM    105  O   UNL A   1      47.612  20.207  36.179  1.00  0.00    -0.237 OA
ATOM    106  O   UNL A   1      45.817  20.946  37.708  1.00  0.00    -0.744 OA
ENDBRANCH 102 103
ENDBRANCH  70  95
ENDBRANCH  44  45
ENDBRANCH  36  39
ENDBRANCH  34  35
ENDBRANCH  33  34
ENDBRANCH  32  33
ENDBRANCH   1  32
TORSDOF 20
ENDMDL
MODEL 3
REMARK VINA RESULT:     -13.5      2.135      5.015
REMARK SMILES Cc1ccc(C(=O)N2CCCC[C@@H]2C(=O)NCCCCCCNC(=O)c2ccc(-c3c4nc(c(-c5c(F)cc(S(=O)(=O)[O-])cc5F)c5ccc([nH]5)c(-c5c(F)cc(S(=O)(=O)[O-])cc5F)c5nc(c(-c6c(F)cc(S(=O)(=O)[O-])cc6F)c6ccc3[nH]6)C=C5)C=C4)cc2)cc1S(=O)(=O)N1CCCCC1
REMARK SMILES IDX 19 1 18 2 17 3 16 4 14 5 15 6 13 8 8 9 9 10 10 11 12 12
REMARK SMILES IDX 11 13 6 14 7 15 5 16 1 17 2 18 3 19 93 20 4 21 92 22 94 23
REMARK SMILES IDX 95 24 96 25 97 26 98 27 102 28 99 29 101 30 100 31 20 32
REMARK SMILES IDX 21 33 22 34 23 35 24 36 25 38 26 39 27 40 91 41 28 42 90 43
REMARK SMILES IDX 29 44 30 45 31 46 84 47 32 48 89 49 83 50 85 51 33 52 88 53
REMARK SMILES IDX 82 54 81 55 34 57 68 58 47 59 67 60 48 61 51 62 66 63 86 64
REMARK SMILES IDX 49 65 50 66 65 68 87 69 52 70 35 71 36 72 45 73 37 74 38 75
REMARK SMILES IDX 44 76 46 77 39 78 40 79 41 80 42 81 43 82 69 83 70 84 79 85
REMARK SMILES IDX 71 86 72 87 78 88 80 89 73 90 74 91 75 92 76 93 77 94 53 95
REMARK SMILES IDX 54 96 63 97 55 98 56 99 62 100 64 101 57 102 58 103 59 104
REMARK SMILES IDX 60 105 61 106
REMARK H PARENT 16 7 23 37 85 56 51 67
REMARK Flexibility Score: inf
ROOT
ATOM      1  C   UNL A   1      34.250  27.605  25.723  1.00  0.00     0.002 C 
ENDROOT
BRANCH   1   2
ATOM      2  C   UNL A   1      34.181  26.246  25.011  1.00  0.00     0.021 C 
BRANCH   2   3
ATOM      3  C   UNL A   1      34.364  25.022  25.908  1.00  0.00     0.116 C 
BRANCH   3   4
ATOM      4  N   UNL A   1      33.088  24.467  26.316  1.00  0.00    -0.354 N 
ATOM      5  C   UNL A   1      32.371  23.435  25.794  1.00  0.00     0.242 C 
ATOM      6  O   UNL A   1      31.240  23.242  26.254  1.00  0.00    -0.273 OA
ATOM      7  H   UNL A   1      32.675  24.907  27.093  1.00  0.00     0.163 HD
BRANCH   5   8
ATOM      8  C   UNL A   1      32.872  22.605  24.585  1.00  0.00     0.174 C 
ATOM      9  N   UNL A   1      32.410  23.065  23.248  1.00  0.00    -0.327 N 
ATOM     10  C   UNL A   1      32.487  22.107  22.146  1.00  0.00     0.120 C 
ATOM     11  C   UNL A   1      31.982  20.721  22.492  1.00  0.00     0.022 C 
ATOM     12  C   UNL A   1      32.484  21.138  24.890  1.00  0.00     0.035 C 
ATOM     13  C   UNL A   1      32.702  20.194  23.719  1.00  0.00     0.004 C 
BRANCH   9  14
ATOM     14  C   UNL A   1      32.368  24.402  22.822  1.00  0.00     0.254 C 
ATOM     15  O   UNL A   1      33.269  24.913  22.155  1.00  0.00    -0.269 OA
BRANCH  14  16
ATOM     16  C   UNL A   1      31.254  25.300  23.187  1.00  0.00     0.041 A 
ATOM     17  C   UNL A   1      27.682  27.662  23.697  1.00  0.00     0.046 C 
ATOM     18  C   UNL A   1      29.008  26.987  23.535  1.00  0.00    -0.031 A 
ATOM     19  C   UNL A   1      28.913  25.575  23.634  1.00  0.00     0.005 A 
ATOM     20  C   UNL A   1      30.272  27.552  23.287  1.00  0.00     0.086 A 
ATOM     21  C   UNL A   1      30.013  24.740  23.459  1.00  0.00     0.014 A 
ATOM     22  C   UNL A   1      31.376  26.686  23.084  1.00  0.00     0.035 A 
BRANCH  20  23
ATOM     23  S   UNL A   1      30.785  29.272  23.150  1.00  0.00     0.243 S 
ATOM     24  O   UNL A   1      31.179  29.674  24.485  1.00  0.00    -0.207 OA
ATOM     25  O   UNL A   1      31.755  29.289  22.070  1.00  0.00    -0.207 OA
BRANCH  23  26
ATOM     26  N   UNL A   1      29.527  30.297  22.679  1.00  0.00    -0.198 NA
ATOM     27  C   UNL A   1      29.011  31.230  23.699  1.00  0.00     0.102 C 
ATOM     28  C   UNL A   1      29.372  30.544  21.229  1.00  0.00     0.102 C 
ATOM     29  C   UNL A   1      27.817  32.045  23.233  1.00  0.00     0.017 C 
ATOM     30  C   UNL A   1      28.191  31.436  20.872  1.00  0.00     0.017 C 
ATOM     31  C   UNL A   1      28.012  32.597  21.833  1.00  0.00     0.003 C 
ENDBRANCH  23  26
ENDBRANCH  20  23
ENDBRANCH  14  16
ENDBRANCH   9  14
ENDBRANCH   5   8
ENDBRANCH   3   4
ENDBRANCH   2   3
ENDBRANCH   1   2
BRANCH   1  32
ATOM     32  C   UNL A   1      32.995  28.037  26.497  1.00  0.00     0.002 C 
BRANCH  32  33
ATOM     33  C   UNL A   1      33.067  29.398  27.191  1.00  0.00     0.021 C 
BRANCH  33  34
ATOM     34  C   UNL A   1      34.265  29.556  28.120  1.00  0.00     0.116 C 
BRANCH  34  35
ATOM     35  N   UNL A   1      34.952  30.824  27.960  1.00  0.00    -0.352 N 
ATOM     36  C   UNL A   1      36.279  31.111  28.269  1.00  0.00     0.251 C 
ATOM     37  H   UNL A   1      34.420  31.566  27.592  1.00  0.00     0.163 HD
ATOM     38  O   UNL A   1      36.688  32.227  28.439  1.00  0.00    -0.269 OA
BRANCH  36  39
ATOM     39  C   UNL A   1      37.210  29.956  28.217  1.00  0.00     0.039 A 
ATOM     40  C   UNL A   1      37.332  29.191  29.383  1.00  0.00     0.014 A 
ATOM     41  C   UNL A   1      38.112  29.821  27.168  1.00  0.00     0.014 A 
ATOM     42  C   UNL A   1      38.466  28.404  29.570  1.00  0.00     0.010 A 
ATOM     43  C   UNL A   1      39.273  29.105  27.389  1.00  0.00     0.010 A 
ATOM     44  C   UNL A   1      39.472  28.431  28.605  1.00  0.00    -0.014 A 
BRANCH  44  45
ATOM     45  C   UNL A   1      40.805  27.870  28.804  1.00  0.00     0.031 A 
ATOM     46  C   UNL A   1      41.111  26.484  28.377  1.00  0.00     0.074 A 
ATOM     47  C   UNL A   1      41.806  28.658  29.254  1.00  0.00     0.049 A 
ATOM     48  N   UNL A   1      42.153  25.822  28.754  1.00  0.00    -0.248 NA
ATOM     49  C   UNL A   1      40.237  25.721  27.493  1.00  0.00     0.031 C 
ATOM     50  C   UNL A   1      43.240  28.402  29.157  1.00  0.00     0.029 A 
ATOM     51  N   UNL A   1      41.711  29.779  30.080  1.00  0.00    -0.354 N 
ATOM     52  C   UNL A   1      42.234  24.687  27.983  1.00  0.00     0.074 A 
ATOM     53  C   UNL A   1      40.994  24.650  27.240  1.00  0.00     0.031 C 
ATOM     54  C   UNL A   1      43.879  29.151  30.066  1.00  0.00     0.029 A 
ATOM     55  C   UNL A   1      42.870  29.796  30.885  1.00  0.00     0.049 A 
ATOM     56  H   UNL A   1      40.976  30.434  30.096  1.00  0.00     0.167 HD
ATOM     57  C   UNL A   1      43.388  23.959  27.968  1.00  0.00     0.037 A 
ATOM     58  C   UNL A   1      42.771  29.672  32.244  1.00  0.00     0.037 A 
ATOM     59  C   UNL A   1      44.381  24.486  28.900  1.00  0.00     0.049 A 
ATOM     60  C   UNL A   1      43.396  28.413  32.814  1.00  0.00     0.074 A 
ATOM     61  C   UNL A   1      45.491  25.306  28.778  1.00  0.00     0.029 A 
ATOM     62  N   UNL A   1      44.124  24.398  30.255  1.00  0.00    -0.354 N 
ATOM     63  N   UNL A   1      44.004  27.500  32.107  1.00  0.00    -0.248 NA
ATOM     64  C   UNL A   1      43.312  28.047  34.231  1.00  0.00     0.031 C 
ATOM     65  C   UNL A   1      45.879  25.729  30.083  1.00  0.00     0.029 A 
ATOM     66  C   UNL A   1      45.005  25.165  30.991  1.00  0.00     0.049 A 
ATOM     67  H   UNL A   1      43.401  23.855  30.646  1.00  0.00     0.167 HD
ATOM     68  C   UNL A   1      44.299  26.427  32.907  1.00  0.00     0.074 A 
ATOM     69  C   UNL A   1      43.879  26.827  34.236  1.00  0.00     0.031 C 
ATOM     70  C   UNL A   1      44.813  25.259  32.428  1.00  0.00     0.037 A 
BRANCH  57  71
ATOM     71  C   UNL A   1      43.678  22.903  26.929  1.00  0.00     0.058 A 
ATOM     72  C   UNL A   1      42.963  21.688  26.917  1.00  0.00     0.135 A 
ATOM     73  C   UNL A   1      44.685  23.012  25.950  1.00  0.00     0.135 A 
ATOM     74  F   UNL A   1      41.923  21.477  27.733  1.00  0.00    -0.206 F 
ATOM     75  C   UNL A   1      43.300  20.621  26.084  1.00  0.00     0.059 A 
ATOM     76  C   UNL A   1      45.080  21.938  25.146  1.00  0.00     0.059 A 
ATOM     77  F   UNL A   1      45.305  24.180  25.722  1.00  0.00    -0.206 F 
ATOM     78  C   UNL A   1      44.387  20.738  25.230  1.00  0.00     0.060 A 
BRANCH  78  79
ATOM     79  S   UNL A   1      44.888  19.301  24.266  1.00  0.00     0.124 S 
ATOM     80  O   UNL A   1      44.203  18.211  24.957  1.00  0.00    -0.237 OA
ATOM     81  O   UNL A   1      44.376  19.632  22.941  1.00  0.00    -0.237 OA
ATOM     82  O   UNL A   1      46.342  19.294  24.396  1.00  0.00    -0.744 OA
ENDBRANCH  78  79
ENDBRANCH  57  71
BRANCH  58  83
ATOM     83  C   UNL A   1      41.570  30.370  32.783  1.00  0.00     0.058 A 
ATOM     84  C   UNL A   1      40.419  29.592  33.022  1.00  0.00     0.135 A 
ATOM     85  C   UNL A   1      41.684  31.589  33.464  1.00  0.00     0.135 A 
ATOM     86  F   UNL A   1      40.253  28.423  32.379  1.00  0.00    -0.206 F 
ATOM     87  C   UNL A   1      39.514  29.918  34.024  1.00  0.00     0.059 A 
ATOM     88  C   UNL A   1      40.779  31.942  34.465  1.00  0.00     0.059 A 
ATOM     89  F   UNL A   1      42.755  32.373  33.271  1.00  0.00    -0.206 F 
ATOM     90  C   UNL A   1      39.746  31.060  34.788  1.00  0.00     0.060 A 
BRANCH  90  91
ATOM     91  S   UNL A   1      38.786  31.269  36.306  1.00  0.00     0.124 S 
ATOM     92  O   UNL A   1      38.505  29.888  36.682  1.00  0.00    -0.237 OA
ATOM     93  O   UNL A   1      39.734  31.976  37.166  1.00  0.00    -0.237 OA
ATOM     94  O   UNL A   1      37.635  32.051  35.867  1.00  0.00    -0.744 OA
ENDBRANCH  90  91
ENDBRANCH  58  83
BRANCH  70  95
ATOM     95  C   UNL A   1      45.166  24.095  33.304  1.00  0.00     0.058 A 
ATOM     96  C   UNL A   1      44.235  23.089  33.607  1.00  0.00     0.135 A 
ATOM     97  C   UNL A   1      46.403  24.029  33.977  1.00  0.00     0.135 A 
ATOM     98  F   UNL A   1      43.018  23.091  33.040  1.00  0.00    -0.206 F 
ATOM     99  C   UNL A   1      44.522  22.064  34.510  1.00  0.00     0.059 A 
ATOM    100  C   UNL A   1      46.695  23.043  34.915  1.00  0.00     0.059 A 
ATOM    101  F   UNL A   1      47.379  24.916  33.722  1.00  0.00    -0.206 F 
ATOM    102  C   UNL A   1      45.753  22.053  35.162  1.00  0.00     0.060 A 
BRANCH 102 103
ATOM    103  S   UNL A   1      46.116  20.754  36.360  1.00  0.00     0.124 S 
ATOM    104  O   UNL A   1      47.568  20.622  36.263  1.00  0.00    -0.237 OA
ATOM    105  O   UNL A   1      45.620  21.352  37.595  1.00  0.00    -0.237 OA
ATOM    106  O   UNL A   1      45.357  19.613  35.860  1.00  0.00    -0.744 OA
ENDBRANCH 102 103
ENDBRANCH  70  95
ENDBRANCH  44  45
ENDBRANCH  36  39
ENDBRANCH  34  35
ENDBRANCH  33  34
ENDBRANCH  32  33
ENDBRANCH   1  32
TORSDOF 20
ENDMDL
