MODEL 1
REMARK VINA RESULT:     -12.1      0.000      0.000
REMARK SMILES COc1cc(-c2nnc(S)n2-c2ccc(C(=O)NCCCCCCNC(=O)c3ccc(-c4c5nc(c(-c6c(F)cc(S(=O)(=O)[O-])cc6F)c6ccc([nH]6)c(-c6c(F)cc(S(=O)(=O)[O-])cc6F)c6nc(c(-c7c(F)cc(S(=O)(=O)[O-])cc7F)c7ccc4[nH]7)C=C6)C=C5)cc3)cc2)cc(OC)c1OC
REMARK SMILES IDX 21 1 20 2 19 3 18 4 16 5 17 6 15 8 12 9 13 10 95 11 14 12
REMARK SMILES IDX 94 13 11 14 6 15 7 16 8 17 9 18 5 19 3 20 4 21 100 22 97 23
REMARK SMILES IDX 96 24 2 25 1 26 101 27 102 28 98 29 99 30 10 31 22 33 23 34
REMARK SMILES IDX 24 35 25 36 26 37 27 39 28 40 29 41 93 42 30 43 92 44 31 45
REMARK SMILES IDX 32 46 33 47 86 48 34 49 91 50 85 51 87 52 35 53 90 54 84 55
REMARK SMILES IDX 83 56 36 58 70 59 49 60 69 61 50 62 53 63 68 64 88 65 51 66
REMARK SMILES IDX 52 67 67 69 89 70 54 71 37 72 38 73 47 74 39 75 40 76 46 77
REMARK SMILES IDX 48 78 41 79 42 80 43 81 44 82 45 83 71 84 72 85 81 86 73 87
REMARK SMILES IDX 74 88 80 89 82 90 75 91 76 92 77 93 78 94 79 95 55 96 56 97
REMARK SMILES IDX 65 98 57 99 58 100 64 101 66 102 59 103 60 104 61 105 62 106
REMARK SMILES IDX 63 107
REMARK H PARENT 18 7 10 32 25 38 87 57 53 68
REMARK Flexibility Score: inf
ROOT
ATOM      1  C   UNL A   1      36.165  21.288  24.881  1.00  0.00     0.002 C 
ENDROOT
BRANCH   1   2
ATOM      2  C   UNL A   1      34.919  22.151  24.641  1.00  0.00     0.021 C 
BRANCH   2   3
ATOM      3  C   UNL A   1      35.260  23.565  24.167  1.00  0.00     0.116 C 
BRANCH   3   4
ATOM      4  N   UNL A   1      34.467  23.900  22.999  1.00  0.00    -0.352 N 
ATOM      5  C   UNL A   1      33.707  24.994  22.677  1.00  0.00     0.251 C 
ATOM      6  O   UNL A   1      33.133  24.992  21.588  1.00  0.00    -0.269 OA
ATOM      7  H   UNL A   1      34.476  23.204  22.302  1.00  0.00     0.163 HD
BRANCH   5   8
ATOM      8  C   UNL A   1      33.628  26.205  23.540  1.00  0.00     0.039 A 
ATOM      9  C   UNL A   1      33.166  28.418  25.173  1.00  0.00     0.050 A 
ATOM     10  C   UNL A   1      32.878  27.142  25.661  1.00  0.00     0.027 A 
ATOM     11  C   UNL A   1      33.753  28.596  23.922  1.00  0.00     0.027 A 
ATOM     12  C   UNL A   1      33.089  26.040  24.827  1.00  0.00     0.016 A 
ATOM     13  C   UNL A   1      34.042  27.479  23.142  1.00  0.00     0.016 A 
BRANCH   9  14
ATOM     14  N   UNL A   1      32.894  29.562  25.950  1.00  0.00    -0.270 N 
ATOM     15  C   UNL A   1      31.877  30.489  25.735  1.00  0.00     0.169 A 
ATOM     16  N   UNL A   1      32.010  31.469  26.610  1.00  0.00    -0.129 NA
ATOM     17  N   UNL A   1      33.092  31.187  27.417  1.00  0.00    -0.123 NA
ATOM     18  C   UNL A   1      33.617  30.054  27.010  1.00  0.00     0.193 A 
BRANCH  15  19
ATOM     19  C   UNL A   1      30.784  30.320  24.772  1.00  0.00     0.027 A 
ATOM     20  C   UNL A   1      28.886  31.193  23.520  1.00  0.00     0.165 A 
ATOM     21  C   UNL A   1      29.815  31.308  24.573  1.00  0.00     0.062 A 
ATOM     22  C   UNL A   1      28.897  30.078  22.656  1.00  0.00     0.203 A 
ATOM     23  C   UNL A   1      29.838  29.056  22.903  1.00  0.00     0.165 A 
ATOM     24  C   UNL A   1      30.753  29.183  23.959  1.00  0.00     0.062 A 
BRANCH  20  25
ATOM     25  O   UNL A   1      28.139  32.311  23.240  1.00  0.00    -0.493 OA
ATOM     26  C   UNL A   1      28.924  33.498  23.123  1.00  0.00     0.278 C 
ENDBRANCH  20  25
BRANCH  22  27
ATOM     27  O   UNL A   1      28.122  29.913  21.543  1.00  0.00    -0.490 OA
ATOM     28  C   UNL A   1      28.023  30.918  20.554  1.00  0.00     0.278 C 
ENDBRANCH  22  27
BRANCH  23  29
ATOM     29  O   UNL A   1      30.034  27.885  22.212  1.00  0.00    -0.493 OA
ATOM     30  C   UNL A   1      30.129  26.664  22.930  1.00  0.00     0.278 C 
ENDBRANCH  23  29
ENDBRANCH  15  19
BRANCH  18  31
ATOM     31  S   UNL A   1      35.086  29.361  27.615  1.00  0.00    -0.103 SA
ATOM     32  H   UNL A   1      34.819  28.638  28.736  1.00  0.00     0.111 HD
ENDBRANCH  18  31
ENDBRANCH   9  14
ENDBRANCH   5   8
ENDBRANCH   3   4
ENDBRANCH   2   3
ENDBRANCH   1   2
BRANCH   1  33
ATOM     33  C   UNL A   1      37.453  22.072  25.187  1.00  0.00     0.002 C 
BRANCH  33  34
ATOM     34  C   UNL A   1      38.642  21.241  25.696  1.00  0.00     0.021 C 
BRANCH  34  35
ATOM     35  C   UNL A   1      39.659  22.072  26.455  1.00  0.00     0.116 C 
BRANCH  35  36
ATOM     36  N   UNL A   1      40.978  22.055  25.806  1.00  0.00    -0.352 N 
ATOM     37  C   UNL A   1      41.887  23.088  25.685  1.00  0.00     0.251 C 
ATOM     38  H   UNL A   1      41.248  21.197  25.407  1.00  0.00     0.163 HD
ATOM     39  O   UNL A   1      42.765  23.059  24.818  1.00  0.00    -0.269 OA
BRANCH  37  40
ATOM     40  C   UNL A   1      41.797  24.208  26.629  1.00  0.00     0.039 A 
ATOM     41  C   UNL A   1      42.368  24.194  27.904  1.00  0.00     0.014 A 
ATOM     42  C   UNL A   1      41.143  25.338  26.157  1.00  0.00     0.014 A 
ATOM     43  C   UNL A   1      42.299  25.359  28.668  1.00  0.00     0.010 A 
ATOM     44  C   UNL A   1      41.353  26.533  26.767  1.00  0.00     0.010 A 
ATOM     45  C   UNL A   1      41.785  26.525  28.079  1.00  0.00    -0.014 A 
BRANCH  45  46
ATOM     46  C   UNL A   1      41.723  27.805  28.763  1.00  0.00     0.031 A 
ATOM     47  C   UNL A   1      42.860  28.694  28.430  1.00  0.00     0.074 A 
ATOM     48  C   UNL A   1      40.598  28.218  29.396  1.00  0.00     0.049 A 
ATOM     49  N   UNL A   1      43.889  28.964  29.160  1.00  0.00    -0.248 NA
ATOM     50  C   UNL A   1      42.985  29.167  27.039  1.00  0.00     0.031 C 
ATOM     51  C   UNL A   1      39.284  27.549  29.451  1.00  0.00     0.029 A 
ATOM     52  N   UNL A   1      40.351  29.387  30.049  1.00  0.00    -0.354 N 
ATOM     53  C   UNL A   1      44.629  29.887  28.424  1.00  0.00     0.074 A 
ATOM     54  C   UNL A   1      44.182  29.757  27.064  1.00  0.00     0.031 C 
ATOM     55  C   UNL A   1      38.341  28.415  29.883  1.00  0.00     0.029 A 
ATOM     56  C   UNL A   1      39.004  29.624  30.326  1.00  0.00     0.049 A 
ATOM     57  H   UNL A   1      41.066  30.015  30.305  1.00  0.00     0.167 HD
ATOM     58  C   UNL A   1      45.288  30.900  29.051  1.00  0.00     0.037 A 
ATOM     59  C   UNL A   1      38.480  30.740  30.891  1.00  0.00     0.037 A 
ATOM     60  C   UNL A   1      45.285  30.684  30.477  1.00  0.00     0.049 A 
ATOM     61  C   UNL A   1      39.593  31.409  31.606  1.00  0.00     0.074 A 
ATOM     62  C   UNL A   1      45.925  29.839  31.358  1.00  0.00     0.029 A 
ATOM     63  N   UNL A   1      44.154  31.150  31.099  1.00  0.00    -0.354 N 
ATOM     64  N   UNL A   1      40.224  30.867  32.616  1.00  0.00    -0.248 NA
ATOM     65  C   UNL A   1      40.300  32.500  30.947  1.00  0.00     0.031 C 
ATOM     66  C   UNL A   1      45.021  29.653  32.447  1.00  0.00     0.029 A 
ATOM     67  C   UNL A   1      43.887  30.437  32.239  1.00  0.00     0.049 A 
ATOM     68  H   UNL A   1      43.607  31.898  30.770  1.00  0.00     0.167 HD
ATOM     69  C   UNL A   1      41.543  31.254  32.456  1.00  0.00     0.074 A 
ATOM     70  C   UNL A   1      41.501  32.374  31.520  1.00  0.00     0.031 C 
ATOM     71  C   UNL A   1      42.566  30.434  32.839  1.00  0.00     0.037 A 
BRANCH  58  72
ATOM     72  C   UNL A   1      45.502  32.291  28.486  1.00  0.00     0.058 A 
ATOM     73  C   UNL A   1      46.818  32.789  28.370  1.00  0.00     0.135 A 
ATOM     74  C   UNL A   1      44.480  33.251  28.320  1.00  0.00     0.135 A 
ATOM     75  F   UNL A   1      47.873  31.972  28.523  1.00  0.00    -0.206 F 
ATOM     76  C   UNL A   1      47.094  34.142  28.158  1.00  0.00     0.059 A 
ATOM     77  C   UNL A   1      44.731  34.594  28.057  1.00  0.00     0.059 A 
ATOM     78  F   UNL A   1      43.186  32.962  28.499  1.00  0.00    -0.206 F 
ATOM     79  C   UNL A   1      46.041  35.039  28.010  1.00  0.00     0.060 A 
BRANCH  79  80
ATOM     80  S   UNL A   1      46.387  36.794  27.799  1.00  0.00     0.124 S 
ATOM     81  O   UNL A   1      45.175  37.399  28.340  1.00  0.00    -0.237 OA
ATOM     82  O   UNL A   1      47.598  36.959  28.596  1.00  0.00    -0.237 OA
ATOM     83  O   UNL A   1      46.570  36.928  26.357  1.00  0.00    -0.744 OA
ENDBRANCH  79  80
ENDBRANCH  58  72
BRANCH  59  84
ATOM     84  C   UNL A   1      37.196  31.418  30.573  1.00  0.00     0.058 A 
ATOM     85  C   UNL A   1      36.228  31.691  31.555  1.00  0.00     0.135 A 
ATOM     86  C   UNL A   1      37.023  32.069  29.335  1.00  0.00     0.135 A 
ATOM     87  F   UNL A   1      36.329  31.135  32.772  1.00  0.00    -0.206 F 
ATOM     88  C   UNL A   1      35.168  32.584  31.335  1.00  0.00     0.059 A 
ATOM     89  C   UNL A   1      35.979  32.962  29.092  1.00  0.00     0.059 A 
ATOM     90  F   UNL A   1      37.925  31.918  28.352  1.00  0.00    -0.206 F 
ATOM     91  C   UNL A   1      35.063  33.230  30.102  1.00  0.00     0.060 A 
BRANCH  91  92
ATOM     92  S   UNL A   1      33.783  34.487  29.856  1.00  0.00     0.124 S 
ATOM     93  O   UNL A   1      33.334  34.733  31.222  1.00  0.00    -0.237 OA
ATOM     94  O   UNL A   1      34.530  35.570  29.226  1.00  0.00    -0.237 OA
ATOM     95  O   UNL A   1      32.814  33.818  28.993  1.00  0.00    -0.744 OA
ENDBRANCH  91  92
ENDBRANCH  59  84
BRANCH  71  96
ATOM     96  C   UNL A   1      42.273  29.376  33.868  1.00  0.00     0.058 A 
ATOM     97  C   UNL A   1      41.798  28.081  33.597  1.00  0.00     0.135 A 
ATOM     98  C   UNL A   1      42.593  29.675  35.201  1.00  0.00     0.135 A 
ATOM     99  F   UNL A   1      41.542  27.689  32.342  1.00  0.00    -0.206 F 
ATOM    100  C   UNL A   1      41.622  27.137  34.613  1.00  0.00     0.059 A 
ATOM    101  C   UNL A   1      42.455  28.743  36.222  1.00  0.00     0.059 A 
ATOM    102  F   UNL A   1      43.097  30.880  35.515  1.00  0.00    -0.206 F 
ATOM    103  C   UNL A   1      41.956  27.478  35.925  1.00  0.00     0.060 A 
BRANCH 103 104
ATOM    104  S   UNL A   1      41.780  26.249  37.236  1.00  0.00     0.124 S 
ATOM    105  O   UNL A   1      42.902  26.570  38.110  1.00  0.00    -0.237 OA
ATOM    106  O   UNL A   1      40.453  26.543  37.769  1.00  0.00    -0.237 OA
ATOM    107  O   UNL A   1      41.888  24.975  36.526  1.00  0.00    -0.744 OA
ENDBRANCH 103 104
ENDBRANCH  71  96
ENDBRANCH  45  46
ENDBRANCH  37  40
ENDBRANCH  35  36
ENDBRANCH  34  35
ENDBRANCH  33  34
ENDBRANCH   1  33
TORSDOF 22
ENDMDL
MODEL 2
REMARK VINA RESULT:     -11.7      3.380     10.087
REMARK SMILES COc1cc(-c2nnc(S)n2-c2ccc(C(=O)NCCCCCCNC(=O)c3ccc(-c4c5nc(c(-c6c(F)cc(S(=O)(=O)[O-])cc6F)c6ccc([nH]6)c(-c6c(F)cc(S(=O)(=O)[O-])cc6F)c6nc(c(-c7c(F)cc(S(=O)(=O)[O-])cc7F)c7ccc4[nH]7)C=C6)C=C5)cc3)cc2)cc(OC)c1OC
REMARK SMILES IDX 21 1 20 2 19 3 18 4 16 5 17 6 15 8 12 9 13 10 95 11 14 12
REMARK SMILES IDX 94 13 11 14 6 15 7 16 8 17 9 18 5 19 3 20 4 21 100 22 97 23
REMARK SMILES IDX 96 24 2 25 1 26 101 27 102 28 98 29 99 30 10 31 22 33 23 34
REMARK SMILES IDX 24 35 25 36 26 37 27 39 28 40 29 41 93 42 30 43 92 44 31 45
REMARK SMILES IDX 32 46 33 47 86 48 34 49 91 50 85 51 87 52 35 53 90 54 84 55
REMARK SMILES IDX 83 56 36 58 70 59 49 60 69 61 50 62 53 63 68 64 88 65 51 66
REMARK SMILES IDX 52 67 67 69 89 70 54 71 37 72 38 73 47 74 39 75 40 76 46 77
REMARK SMILES IDX 48 78 41 79 42 80 43 81 44 82 45 83 71 84 72 85 81 86 73 87
REMARK SMILES IDX 74 88 80 89 82 90 75 91 76 92 77 93 78 94 79 95 55 96 56 97
REMARK SMILES IDX 65 98 57 99 58 100 64 101 66 102 59 103 60 104 61 105 62 106
REMARK SMILES IDX 63 107
REMARK H PARENT 18 7 10 32 25 38 87 57 53 68
REMARK Flexibility Score: inf
ROOT
ATOM      1  C   UNL A   1      31.271  27.858  27.130  1.00  0.00     0.002 C 
ENDROOT
BRANCH   1   2
ATOM      2  C   UNL A   1      31.799  26.830  26.120  1.00  0.00     0.021 C 
BRANCH   2   3
ATOM      3  C   UNL A   1      31.104  25.471  26.240  1.00  0.00     0.116 C 
BRANCH   3   4
ATOM      4  N   UNL A   1      30.507  25.108  24.969  1.00  0.00    -0.352 N 
ATOM      5  C   UNL A   1      30.781  24.115  24.066  1.00  0.00     0.251 C 
ATOM      6  O   UNL A   1      30.089  24.055  23.050  1.00  0.00    -0.269 OA
ATOM      7  H   UNL A   1      29.758  25.689  24.703  1.00  0.00     0.163 HD
BRANCH   5   8
ATOM      8  C   UNL A   1      31.809  23.063  24.308  1.00  0.00     0.039 A 
ATOM      9  C   UNL A   1      33.593  20.931  24.528  1.00  0.00     0.050 A 
ATOM     10  C   UNL A   1      33.538  21.650  23.332  1.00  0.00     0.027 A 
ATOM     11  C   UNL A   1      32.834  21.311  25.633  1.00  0.00     0.027 A 
ATOM     12  C   UNL A   1      32.623  22.701  23.222  1.00  0.00     0.016 A 
ATOM     13  C   UNL A   1      31.996  22.419  25.534  1.00  0.00     0.016 A 
BRANCH   9  14
ATOM     14  N   UNL A   1      34.442  19.814  24.655  1.00  0.00    -0.270 N 
ATOM     15  C   UNL A   1      35.828  19.838  24.803  1.00  0.00     0.169 A 
ATOM     16  N   UNL A   1      36.273  18.594  24.788  1.00  0.00    -0.129 NA
ATOM     17  N   UNL A   1      35.192  17.747  24.656  1.00  0.00    -0.123 NA
ATOM     18  C   UNL A   1      34.108  18.484  24.568  1.00  0.00     0.193 A 
BRANCH  15  19
ATOM     19  C   UNL A   1      36.620  21.046  25.053  1.00  0.00     0.027 A 
ATOM     20  C   UNL A   1      36.792  23.433  25.505  1.00  0.00     0.165 A 
ATOM     21  C   UNL A   1      36.039  22.316  25.088  1.00  0.00     0.062 A 
ATOM     22  C   UNL A   1      38.146  23.302  25.875  1.00  0.00     0.203 A 
ATOM     23  C   UNL A   1      38.741  22.026  25.777  1.00  0.00     0.165 A 
ATOM     24  C   UNL A   1      37.979  20.926  25.355  1.00  0.00     0.062 A 
BRANCH  20  25
ATOM     25  O   UNL A   1      36.088  24.587  25.751  1.00  0.00    -0.493 OA
ATOM     26  C   UNL A   1      34.833  24.636  25.071  1.00  0.00     0.278 C 
ENDBRANCH  20  25
BRANCH  22  27
ATOM     27  O   UNL A   1      38.938  24.286  26.397  1.00  0.00    -0.490 OA
ATOM     28  C   UNL A   1      38.965  24.559  27.783  1.00  0.00     0.278 C 
ENDBRANCH  22  27
BRANCH  23  29
ATOM     29  O   UNL A   1      40.031  21.656  26.070  1.00  0.00    -0.493 OA
ATOM     30  C   UNL A   1      40.335  20.282  26.249  1.00  0.00     0.278 C 
ENDBRANCH  23  29
ENDBRANCH  15  19
BRANCH  18  31
ATOM     31  S   UNL A   1      32.516  17.882  24.239  1.00  0.00    -0.103 SA
ATOM     32  H   UNL A   1      32.121  17.064  25.252  1.00  0.00     0.111 HD
ENDBRANCH  18  31
ENDBRANCH   9  14
ENDBRANCH   5   8
ENDBRANCH   3   4
ENDBRANCH   2   3
ENDBRANCH   1   2
BRANCH   1  33
ATOM     33  C   UNL A   1      32.030  29.197  27.155  1.00  0.00     0.002 C 
BRANCH  33  34
ATOM     34  C   UNL A   1      33.279  29.278  26.264  1.00  0.00     0.021 C 
BRANCH  34  35
ATOM     35  C   UNL A   1      34.522  29.692  27.030  1.00  0.00     0.116 C 
BRANCH  35  36
ATOM     36  N   UNL A   1      34.269  30.841  27.911  1.00  0.00    -0.352 N 
ATOM     37  C   UNL A   1      35.039  31.303  28.961  1.00  0.00     0.251 C 
ATOM     38  H   UNL A   1      33.445  31.347  27.728  1.00  0.00     0.163 HD
ATOM     39  O   UNL A   1      34.550  32.021  29.836  1.00  0.00    -0.269 OA
BRANCH  37  40
ATOM     40  C   UNL A   1      36.460  30.936  28.994  1.00  0.00     0.039 A 
ATOM     41  C   UNL A   1      37.497  31.864  29.118  1.00  0.00     0.014 A 
ATOM     42  C   UNL A   1      36.729  29.574  28.951  1.00  0.00     0.014 A 
ATOM     43  C   UNL A   1      38.800  31.382  29.240  1.00  0.00     0.010 A 
ATOM     44  C   UNL A   1      37.935  29.119  29.377  1.00  0.00     0.010 A 
ATOM     45  C   UNL A   1      39.001  29.999  29.368  1.00  0.00    -0.014 A 
BRANCH  45  46
ATOM     46  C   UNL A   1      40.308  29.395  29.561  1.00  0.00     0.031 A 
ATOM     47  C   UNL A   1      40.660  29.222  30.989  1.00  0.00     0.074 A 
ATOM     48  C   UNL A   1      40.976  28.807  28.539  1.00  0.00     0.049 A 
ATOM     49  N   UNL A   1      41.481  29.929  31.689  1.00  0.00    -0.248 NA
ATOM     50  C   UNL A   1      39.844  28.297  31.796  1.00  0.00     0.031 C 
ATOM     51  C   UNL A   1      40.520  28.599  27.151  1.00  0.00     0.029 A 
ATOM     52  N   UNL A   1      42.177  28.168  28.544  1.00  0.00    -0.354 N 
ATOM     53  C   UNL A   1      41.502  29.330  32.946  1.00  0.00     0.074 A 
ATOM     54  C   UNL A   1      40.307  28.536  33.026  1.00  0.00     0.031 C 
ATOM     55  C   UNL A   1      41.312  27.695  26.533  1.00  0.00     0.029 A 
ATOM     56  C   UNL A   1      42.439  27.414  27.398  1.00  0.00     0.049 A 
ATOM     57  H   UNL A   1      42.811  28.231  29.295  1.00  0.00     0.167 HD
ATOM     58  C   UNL A   1      42.659  29.270  33.663  1.00  0.00     0.037 A 
ATOM     59  C   UNL A   1      43.519  26.622  27.182  1.00  0.00     0.037 A 
ATOM     60  C   UNL A   1      43.666  30.098  33.046  1.00  0.00     0.049 A 
ATOM     61  C   UNL A   1      44.573  27.088  28.115  1.00  0.00     0.074 A 
ATOM     62  C   UNL A   1      43.910  31.449  32.927  1.00  0.00     0.029 A 
ATOM     63  N   UNL A   1      44.356  29.464  32.043  1.00  0.00    -0.354 N 
ATOM     64  N   UNL A   1      45.101  28.284  28.059  1.00  0.00    -0.248 NA
ATOM     65  C   UNL A   1      44.755  26.389  29.380  1.00  0.00     0.031 C 
ATOM     66  C   UNL A   1      44.600  31.614  31.688  1.00  0.00     0.029 A 
ATOM     67  C   UNL A   1      44.818  30.361  31.116  1.00  0.00     0.049 A 
ATOM     68  H   UNL A   1      44.501  28.491  31.996  1.00  0.00     0.167 HD
ATOM     69  C   UNL A   1      45.304  28.641  29.379  1.00  0.00     0.074 A 
ATOM     70  C   UNL A   1      45.226  27.391  30.129  1.00  0.00     0.031 C 
ATOM     71  C   UNL A   1      45.195  29.943  29.778  1.00  0.00     0.037 A 
BRANCH  58  72
ATOM     72  C   UNL A   1      43.057  28.143  34.597  1.00  0.00     0.058 A 
ATOM     73  C   UNL A   1      43.281  28.430  35.961  1.00  0.00     0.135 A 
ATOM     74  C   UNL A   1      43.499  26.872  34.169  1.00  0.00     0.135 A 
ATOM     75  F   UNL A   1      42.916  29.614  36.479  1.00  0.00    -0.206 F 
ATOM     76  C   UNL A   1      43.938  27.542  36.817  1.00  0.00     0.059 A 
ATOM     77  C   UNL A   1      44.108  25.952  35.017  1.00  0.00     0.059 A 
ATOM     78  F   UNL A   1      43.453  26.488  32.888  1.00  0.00    -0.206 F 
ATOM     79  C   UNL A   1      44.354  26.307  36.332  1.00  0.00     0.060 A 
BRANCH  79  80
ATOM     80  S   UNL A   1      45.257  25.182  37.412  1.00  0.00     0.124 S 
ATOM     81  O   UNL A   1      46.639  25.560  37.139  1.00  0.00    -0.237 OA
ATOM     82  O   UNL A   1      44.739  25.547  38.726  1.00  0.00    -0.237 OA
ATOM     83  O   UNL A   1      44.856  23.863  36.931  1.00  0.00    -0.744 OA
ENDBRANCH  79  80
ENDBRANCH  58  72
BRANCH  59  84
ATOM     84  C   UNL A   1      43.575  25.311  26.483  1.00  0.00     0.058 A 
ATOM     85  C   UNL A   1      44.347  25.110  25.326  1.00  0.00     0.135 A 
ATOM     86  C   UNL A   1      43.087  24.148  27.113  1.00  0.00     0.135 A 
ATOM     87  F   UNL A   1      44.873  26.160  24.678  1.00  0.00    -0.206 F 
ATOM     88  C   UNL A   1      44.648  23.828  24.840  1.00  0.00     0.059 A 
ATOM     89  C   UNL A   1      43.374  22.864  26.650  1.00  0.00     0.059 A 
ATOM     90  F   UNL A   1      42.388  24.232  28.256  1.00  0.00    -0.206 F 
ATOM     91  C   UNL A   1      44.170  22.709  25.522  1.00  0.00     0.060 A 
BRANCH  91  92
ATOM     92  S   UNL A   1      44.669  21.052  24.984  1.00  0.00     0.124 S 
ATOM     93  O   UNL A   1      44.562  21.160  23.534  1.00  0.00    -0.237 OA
ATOM     94  O   UNL A   1      46.022  20.948  25.518  1.00  0.00    -0.237 OA
ATOM     95  O   UNL A   1      43.683  20.181  25.618  1.00  0.00    -0.744 OA
ENDBRANCH  91  92
ENDBRANCH  59  84
BRANCH  71  96
ATOM     96  C   UNL A   1      45.360  31.015  28.736  1.00  0.00     0.058 A 
ATOM     97  C   UNL A   1      44.317  31.626  28.019  1.00  0.00     0.135 A 
ATOM     98  C   UNL A   1      46.655  31.517  28.534  1.00  0.00     0.135 A 
ATOM     99  F   UNL A   1      43.042  31.260  28.210  1.00  0.00    -0.206 F 
ATOM    100  C   UNL A   1      44.557  32.667  27.118  1.00  0.00     0.059 A 
ATOM    101  C   UNL A   1      46.914  32.571  27.667  1.00  0.00     0.059 A 
ATOM    102  F   UNL A   1      47.686  31.007  29.227  1.00  0.00    -0.206 F 
ATOM    103  C   UNL A   1      45.862  33.135  26.951  1.00  0.00     0.060 A 
BRANCH 103 104
ATOM    104  S   UNL A   1      46.175  34.514  25.828  1.00  0.00     0.124 S 
ATOM    105  O   UNL A   1      47.581  34.323  25.491  1.00  0.00    -0.237 OA
ATOM    106  O   UNL A   1      45.223  34.267  24.750  1.00  0.00    -0.237 OA
ATOM    107  O   UNL A   1      45.886  35.692  26.645  1.00  0.00    -0.744 OA
ENDBRANCH 103 104
ENDBRANCH  71  96
ENDBRANCH  45  46
ENDBRANCH  37  40
ENDBRANCH  35  36
ENDBRANCH  34  35
ENDBRANCH  33  34
ENDBRANCH   1  33
TORSDOF 22
ENDMDL
MODEL 3
REMARK VINA RESULT:     -11.1      2.297      3.445
REMARK SMILES COc1cc(-c2nnc(S)n2-c2ccc(C(=O)NCCCCCCNC(=O)c3ccc(-c4c5nc(c(-c6c(F)cc(S(=O)(=O)[O-])cc6F)c6ccc([nH]6)c(-c6c(F)cc(S(=O)(=O)[O-])cc6F)c6nc(c(-c7c(F)cc(S(=O)(=O)[O-])cc7F)c7ccc4[nH]7)C=C6)C=C5)cc3)cc2)cc(OC)c1OC
REMARK SMILES IDX 21 1 20 2 19 3 18 4 16 5 17 6 15 8 12 9 13 10 95 11 14 12
REMARK SMILES IDX 94 13 11 14 6 15 7 16 8 17 9 18 5 19 3 20 4 21 100 22 97 23
REMARK SMILES IDX 96 24 2 25 1 26 101 27 102 28 98 29 99 30 10 31 22 33 23 34
REMARK SMILES IDX 24 35 25 36 26 37 27 39 28 40 29 41 93 42 30 43 92 44 31 45
REMARK SMILES IDX 32 46 33 47 86 48 34 49 91 50 85 51 87 52 35 53 90 54 84 55
REMARK SMILES IDX 83 56 36 58 70 59 49 60 69 61 50 62 53 63 68 64 88 65 51 66
REMARK SMILES IDX 52 67 67 69 89 70 54 71 37 72 38 73 47 74 39 75 40 76 46 77
REMARK SMILES IDX 48 78 41 79 42 80 43 81 44 82 45 83 71 84 72 85 81 86 73 87
REMARK SMILES IDX 74 88 80 89 82 90 75 91 76 92 77 93 78 94 79 95 55 96 56 97
REMARK SMILES IDX 65 98 57 99 58 100 64 101 66 102 59 103 60 104 61 105 62 106
REMARK SMILES IDX 63 107
REMARK H PARENT 18 7 10 32 25 38 87 57 53 68
REMARK Flexibility Score: inf
ROOT
ATOM      1  C   UNL A   1      37.833  22.984  25.829  1.00  0.00     0.002 C 
ENDROOT
BRANCH   1   2
ATOM      2  C   UNL A   1      36.864  21.800  25.952  1.00  0.00     0.021 C 
BRANCH   2   3
ATOM      3  C   UNL A   1      36.529  21.166  24.600  1.00  0.00     0.116 C 
BRANCH   3   4
ATOM      4  N   UNL A   1      35.701  19.991  24.798  1.00  0.00    -0.352 N 
ATOM      5  C   UNL A   1      34.388  19.833  25.158  1.00  0.00     0.251 C 
ATOM      6  O   UNL A   1      33.953  18.685  25.250  1.00  0.00    -0.269 OA
ATOM      7  H   UNL A   1      36.174  19.142  24.642  1.00  0.00     0.163 HD
BRANCH   5   8
ATOM      8  C   UNL A   1      33.458  20.981  25.349  1.00  0.00     0.039 A 
ATOM      9  C   UNL A   1      31.598  22.969  25.954  1.00  0.00     0.050 A 
ATOM     10  C   UNL A   1      32.578  22.646  26.895  1.00  0.00     0.027 A 
ATOM     11  C   UNL A   1      31.586  22.374  24.693  1.00  0.00     0.027 A 
ATOM     12  C   UNL A   1      33.490  21.631  26.594  1.00  0.00     0.016 A 
ATOM     13  C   UNL A   1      32.561  21.432  24.377  1.00  0.00     0.016 A 
BRANCH   9  14
ATOM     14  N   UNL A   1      30.610  23.929  26.246  1.00  0.00    -0.270 N 
ATOM     15  C   UNL A   1      30.723  25.310  26.097  1.00  0.00     0.169 A 
ATOM     16  N   UNL A   1      29.628  25.876  26.570  1.00  0.00    -0.129 NA
ATOM     17  N   UNL A   1      28.780  24.880  27.009  1.00  0.00    -0.123 NA
ATOM     18  C   UNL A   1      29.378  23.726  26.821  1.00  0.00     0.193 A 
BRANCH  15  19
ATOM     19  C   UNL A   1      31.831  25.987  25.415  1.00  0.00     0.027 A 
ATOM     20  C   UNL A   1      33.338  26.241  23.519  1.00  0.00     0.165 A 
ATOM     21  C   UNL A   1      32.400  25.479  24.245  1.00  0.00     0.062 A 
ATOM     22  C   UNL A   1      33.739  27.518  23.962  1.00  0.00     0.203 A 
ATOM     23  C   UNL A   1      33.206  27.996  25.178  1.00  0.00     0.165 A 
ATOM     24  C   UNL A   1      32.278  27.223  25.891  1.00  0.00     0.062 A 
BRANCH  20  25
ATOM     25  O   UNL A   1      33.656  25.784  22.263  1.00  0.00    -0.493 OA
ATOM     26  C   UNL A   1      32.605  25.031  21.656  1.00  0.00     0.278 C 
ENDBRANCH  20  25
BRANCH  22  27
ATOM     27  O   UNL A   1      34.551  28.387  23.289  1.00  0.00    -0.490 OA
ATOM     28  C   UNL A   1      34.406  28.614  21.902  1.00  0.00     0.278 C 
ENDBRANCH  22  27
BRANCH  23  29
ATOM     29  O   UNL A   1      33.449  29.192  25.810  1.00  0.00    -0.493 OA
ATOM     30  C   UNL A   1      32.969  29.389  27.130  1.00  0.00     0.278 C 
ENDBRANCH  23  29
ENDBRANCH  15  19
BRANCH  18  31
ATOM     31  S   UNL A   1      28.775  22.190  27.353  1.00  0.00    -0.103 SA
ATOM     32  H   UNL A   1      29.466  21.787  28.453  1.00  0.00     0.111 HD
ENDBRANCH  18  31
ENDBRANCH   9  14
ENDBRANCH   5   8
ENDBRANCH   3   4
ENDBRANCH   2   3
ENDBRANCH   1   2
BRANCH   1  33
ATOM     33  C   UNL A   1      39.200  22.782  26.505  1.00  0.00     0.002 C 
BRANCH  33  34
ATOM     34  C   UNL A   1      39.902  21.446  26.217  1.00  0.00     0.021 C 
BRANCH  34  35
ATOM     35  C   UNL A   1      41.301  21.378  26.802  1.00  0.00     0.116 C 
BRANCH  35  36
ATOM     36  N   UNL A   1      42.331  21.711  25.808  1.00  0.00    -0.352 N 
ATOM     37  C   UNL A   1      42.798  22.959  25.443  1.00  0.00     0.251 C 
ATOM     38  H   UNL A   1      42.741  20.947  25.343  1.00  0.00     0.163 HD
ATOM     39  O   UNL A   1      43.372  23.128  24.364  1.00  0.00    -0.269 OA
BRANCH  37  40
ATOM     40  C   UNL A   1      42.615  24.072  26.382  1.00  0.00     0.039 A 
ATOM     41  C   UNL A   1      43.230  24.136  27.635  1.00  0.00     0.014 A 
ATOM     42  C   UNL A   1      41.821  25.115  25.927  1.00  0.00     0.014 A 
ATOM     43  C   UNL A   1      43.057  25.294  28.393  1.00  0.00     0.010 A 
ATOM     44  C   UNL A   1      41.916  26.333  26.521  1.00  0.00     0.010 A 
ATOM     45  C   UNL A   1      42.393  26.388  27.817  1.00  0.00    -0.014 A 
BRANCH  45  46
ATOM     46  C   UNL A   1      42.211  27.661  28.494  1.00  0.00     0.031 A 
ATOM     47  C   UNL A   1      43.312  28.616  28.234  1.00  0.00     0.074 A 
ATOM     48  C   UNL A   1      41.025  28.004  29.053  1.00  0.00     0.049 A 
ATOM     49  N   UNL A   1      44.274  28.945  29.028  1.00  0.00    -0.248 NA
ATOM     50  C   UNL A   1      43.498  29.099  26.853  1.00  0.00     0.031 C 
ATOM     51  C   UNL A   1      39.753  27.257  29.023  1.00  0.00     0.029 A 
ATOM     52  N   UNL A   1      40.668  29.154  29.687  1.00  0.00    -0.354 N 
ATOM     53  C   UNL A   1      45.004  29.912  28.340  1.00  0.00     0.074 A 
ATOM     54  C   UNL A   1      44.654  29.760  26.955  1.00  0.00     0.031 C 
ATOM     55  C   UNL A   1      38.733  28.065  29.393  1.00  0.00     0.029 A 
ATOM     56  C   UNL A   1      39.293  29.309  29.876  1.00  0.00     0.049 A 
ATOM     57  H   UNL A   1      41.325  29.823  29.987  1.00  0.00     0.167 HD
ATOM     58  C   UNL A   1      45.559  30.961  29.008  1.00  0.00     0.037 A 
ATOM     59  C   UNL A   1      38.668  30.391  30.405  1.00  0.00     0.037 A 
ATOM     60  C   UNL A   1      45.478  30.741  30.431  1.00  0.00     0.049 A 
ATOM     61  C   UNL A   1      39.692  31.123  31.189  1.00  0.00     0.074 A 
ATOM     62  C   UNL A   1      46.109  29.933  31.351  1.00  0.00     0.029 A 
ATOM     63  N   UNL A   1      44.283  31.137  30.978  1.00  0.00    -0.354 N 
ATOM     64  N   UNL A   1      40.288  30.617  32.238  1.00  0.00    -0.248 NA
ATOM     65  C   UNL A   1      40.373  32.256  30.577  1.00  0.00     0.031 C 
ATOM     66  C   UNL A   1      45.149  29.691  32.381  1.00  0.00     0.029 A 
ATOM     67  C   UNL A   1      43.986  30.406  32.099  1.00  0.00     0.049 A 
ATOM     68  H   UNL A   1      43.714  31.852  30.614  1.00  0.00     0.167 HD
ATOM     69  C   UNL A   1      41.588  31.082  32.164  1.00  0.00     0.074 A 
ATOM     70  C   UNL A   1      41.540  32.200  31.226  1.00  0.00     0.031 C 
ATOM     71  C   UNL A   1      42.631  30.323  32.613  1.00  0.00     0.037 A 
BRANCH  58  72
ATOM     72  C   UNL A   1      45.726  32.364  28.456  1.00  0.00     0.058 A 
ATOM     73  C   UNL A   1      47.020  32.926  28.393  1.00  0.00     0.135 A 
ATOM     74  C   UNL A   1      44.665  33.273  28.254  1.00  0.00     0.135 A 
ATOM     75  F   UNL A   1      48.107  32.161  28.584  1.00  0.00    -0.206 F 
ATOM     76  C   UNL A   1      47.237  34.293  28.196  1.00  0.00     0.059 A 
ATOM     77  C   UNL A   1      44.860  34.628  28.005  1.00  0.00     0.059 A 
ATOM     78  F   UNL A   1      43.381  32.920  28.382  1.00  0.00    -0.206 F 
ATOM     79  C   UNL A   1      46.147  35.137  28.011  1.00  0.00     0.060 A 
BRANCH  79  80
ATOM     80  S   UNL A   1      46.414  36.909  27.820  1.00  0.00     0.124 S 
ATOM     81  O   UNL A   1      47.864  36.975  27.691  1.00  0.00    -0.237 OA
ATOM     82  O   UNL A   1      45.647  37.199  26.613  1.00  0.00    -0.237 OA
ATOM     83  O   UNL A   1      45.863  37.464  29.053  1.00  0.00    -0.744 OA
ENDBRANCH  79  80
ENDBRANCH  58  72
BRANCH  59  84
ATOM     84  C   UNL A   1      37.370  30.992  30.004  1.00  0.00     0.058 A 
ATOM     85  C   UNL A   1      36.508  31.606  30.931  1.00  0.00     0.135 A 
ATOM     86  C   UNL A   1      37.084  31.226  28.644  1.00  0.00     0.135 A 
ATOM     87  F   UNL A   1      36.722  31.458  32.247  1.00  0.00    -0.206 F 
ATOM     88  C   UNL A   1      35.446  32.431  30.533  1.00  0.00     0.059 A 
ATOM     89  C   UNL A   1      36.035  32.045  28.224  1.00  0.00     0.059 A 
ATOM     90  F   UNL A   1      37.882  30.732  27.684  1.00  0.00    -0.206 F 
ATOM     91  C   UNL A   1      35.229  32.659  29.174  1.00  0.00     0.060 A 
BRANCH  91  92
ATOM     92  S   UNL A   1      33.950  33.833  28.656  1.00  0.00     0.124 S 
ATOM     93  O   UNL A   1      34.728  34.825  27.925  1.00  0.00    -0.237 OA
ATOM     94  O   UNL A   1      33.068  32.994  27.852  1.00  0.00    -0.237 OA
ATOM     95  O   UNL A   1      33.383  34.294  29.921  1.00  0.00    -0.744 OA
ENDBRANCH  91  92
ENDBRANCH  59  84
BRANCH  71  96
ATOM     96  C   UNL A   1      42.336  29.247  33.621  1.00  0.00     0.058 A 
ATOM     97  C   UNL A   1      42.227  27.873  33.344  1.00  0.00     0.135 A 
ATOM     98  C   UNL A   1      42.260  29.636  34.968  1.00  0.00     0.135 A 
ATOM     99  F   UNL A   1      42.366  27.409  32.095  1.00  0.00    -0.206 F 
ATOM    100  C   UNL A   1      42.022  26.934  34.359  1.00  0.00     0.059 A 
ATOM    101  C   UNL A   1      42.087  28.717  35.995  1.00  0.00     0.059 A 
ATOM    102  F   UNL A   1      42.406  30.929  35.300  1.00  0.00    -0.206 F 
ATOM    103  C   UNL A   1      41.954  27.367  35.684  1.00  0.00     0.060 A 
BRANCH 103 104
ATOM    104  S   UNL A   1      41.740  26.155  37.006  1.00  0.00     0.124 S 
ATOM    105  O   UNL A   1      40.483  26.579  37.610  1.00  0.00    -0.237 OA
ATOM    106  O   UNL A   1      41.701  24.893  36.274  1.00  0.00    -0.237 OA
ATOM    107  O   UNL A   1      42.927  26.346  37.839  1.00  0.00    -0.744 OA
ENDBRANCH 103 104
ENDBRANCH  71  96
ENDBRANCH  45  46
ENDBRANCH  37  40
ENDBRANCH  35  36
ENDBRANCH  34  35
ENDBRANCH  33  34
ENDBRANCH   1  33
TORSDOF 22
ENDMDL
