MODEL 1
REMARK VINA RESULT:     -11.6      0.000      0.000
REMARK SMILES C[C@H](C(=O)NCCCCCCNC(=O)c1ccc(-c2c3nc(c(-c4c(F)cc(S(=O)(=O)[O-])cc4F)c4ccc([nH]4)c(-c4c(F)cc(S(=O)(=O)[O-])cc4F)c4nc(c(-c5c(F)cc(S(=O)(=O)[O-])cc5F)c5ccc2[nH]5)C=C4)C=C3)cc1)[N@@H+]1CCc2ccccc2C1
REMARK SMILES IDX 9 1 8 2 7 3 6 4 5 5 3 6 4 7 2 9 1 10 81 11 82 12 90 13 83 15
REMARK SMILES IDX 89 16 84 17 88 18 85 19 87 20 86 21 10 22 11 23 12 24 13 25
REMARK SMILES IDX 14 27 15 28 16 29 80 30 17 31 79 32 18 33 19 34 20 35 73 36
REMARK SMILES IDX 21 37 78 38 72 39 74 40 22 41 77 42 71 43 70 44 23 46 57 47
REMARK SMILES IDX 36 48 56 49 37 50 40 51 55 52 75 53 38 54 39 55 54 57 76 58
REMARK SMILES IDX 41 59 24 60 25 61 34 62 26 63 27 64 33 65 35 66 28 67 29 68
REMARK SMILES IDX 30 69 31 70 32 71 58 72 59 73 68 74 60 75 61 76 67 77 69 78
REMARK SMILES IDX 62 79 63 80 64 81 65 82 66 83 42 84 43 85 52 86 44 87 45 88
REMARK SMILES IDX 51 89 53 90 46 91 47 92 48 93 49 94 50 95
REMARK H PARENT 5 8 81 14 12 26 74 45 40 56
REMARK Flexibility Score: inf
ROOT
ATOM      1  C   UNL A   1      40.165  21.721  26.207  1.00  0.00     0.002 C 
ENDROOT
BRANCH   1   2
ATOM      2  C   UNL A   1      38.721  22.171  25.958  1.00  0.00     0.002 C 
BRANCH   2   3
ATOM      3  C   UNL A   1      37.804  21.106  25.344  1.00  0.00     0.021 C 
BRANCH   3   4
ATOM      4  C   UNL A   1      36.330  21.497  25.332  1.00  0.00     0.116 C 
BRANCH   4   5
ATOM      5  N   UNL A   1      35.483  20.332  25.178  1.00  0.00    -0.351 N 
ATOM      6  C   UNL A   1      34.133  20.261  24.974  1.00  0.00     0.278 C 
ATOM      7  O   UNL A   1      33.635  19.141  24.853  1.00  0.00    -0.268 OA
ATOM      8  H   UNL A   1      35.947  19.465  25.228  1.00  0.00     0.163 HD
BRANCH   6   9
ATOM      9  C   UNL A   1      33.342  21.580  24.836  1.00  0.00     0.271 C 
ATOM     10  C   UNL A   1      32.567  21.454  23.511  1.00  0.00     0.086 C 
BRANCH   9  11
ATOM     11  N   UNL A   1      32.602  22.024  26.044  1.00  0.00    -0.321 N 
ATOM     12  C   UNL A   1      31.137  22.214  25.864  1.00  0.00     0.267 C 
ATOM     13  C   UNL A   1      33.214  23.095  26.820  1.00  0.00     0.299 C 
ATOM     14  H   UNL A   1      32.700  21.198  26.635  1.00  0.00     0.349 HD
ATOM     15  C   UNL A   1      30.526  23.466  26.567  1.00  0.00     0.097 C 
ATOM     16  C   UNL A   1      32.785  24.439  26.311  1.00  0.00     0.010 A 
ATOM     17  C   UNL A   1      31.398  24.666  26.273  1.00  0.00    -0.034 A 
ATOM     18  C   UNL A   1      33.669  25.384  25.798  1.00  0.00     0.010 A 
ATOM     19  C   UNL A   1      30.908  25.906  25.874  1.00  0.00     0.004 A 
ATOM     20  C   UNL A   1      33.170  26.591  25.317  1.00  0.00     0.001 A 
ATOM     21  C   UNL A   1      31.801  26.868  25.394  1.00  0.00     0.000 A 
ENDBRANCH   9  11
ENDBRANCH   6   9
ENDBRANCH   4   5
ENDBRANCH   3   4
ENDBRANCH   2   3
ENDBRANCH   1   2
BRANCH   1  22
ATOM     22  C   UNL A   1      40.725  22.063  27.590  1.00  0.00     0.021 C 
BRANCH  22  23
ATOM     23  C   UNL A   1      41.774  23.162  27.589  1.00  0.00     0.116 C 
BRANCH  23  24
ATOM     24  N   UNL A   1      41.769  23.909  26.346  1.00  0.00    -0.352 N 
ATOM     25  C   UNL A   1      41.430  25.222  26.138  1.00  0.00     0.251 C 
ATOM     26  H   UNL A   1      42.043  23.407  25.546  1.00  0.00     0.163 HD
ATOM     27  O   UNL A   1      41.269  25.639  24.997  1.00  0.00    -0.269 OA
BRANCH  25  28
ATOM     28  C   UNL A   1      41.248  26.123  27.299  1.00  0.00     0.039 A 
ATOM     29  C   UNL A   1      40.157  25.920  28.145  1.00  0.00     0.014 A 
ATOM     30  C   UNL A   1      42.138  27.175  27.537  1.00  0.00     0.014 A 
ATOM     31  C   UNL A   1      39.969  26.762  29.242  1.00  0.00     0.010 A 
ATOM     32  C   UNL A   1      41.998  27.957  28.680  1.00  0.00     0.010 A 
ATOM     33  C   UNL A   1      40.894  27.781  29.525  1.00  0.00    -0.014 A 
BRANCH  33  34
ATOM     34  C   UNL A   1      40.680  28.715  30.659  1.00  0.00     0.031 A 
ATOM     35  C   UNL A   1      41.535  28.596  31.894  1.00  0.00     0.074 A 
ATOM     36  C   UNL A   1      39.704  29.641  30.594  1.00  0.00     0.049 A 
ATOM     37  N   UNL A   1      41.494  29.296  32.999  1.00  0.00    -0.248 NA
ATOM     38  C   UNL A   1      42.550  27.529  31.902  1.00  0.00     0.031 C 
ATOM     39  C   UNL A   1      38.782  29.822  29.471  1.00  0.00     0.029 A 
ATOM     40  N   UNL A   1      39.325  30.605  31.493  1.00  0.00    -0.354 N 
ATOM     41  C   UNL A   1      42.458  28.741  33.835  1.00  0.00     0.074 A 
ATOM     42  C   UNL A   1      43.025  27.610  33.136  1.00  0.00     0.031 C 
ATOM     43  C   UNL A   1      37.968  30.858  29.733  1.00  0.00     0.029 A 
ATOM     44  C   UNL A   1      38.288  31.393  31.054  1.00  0.00     0.049 A 
ATOM     45  H   UNL A   1      39.755  30.723  32.370  1.00  0.00     0.167 HD
ATOM     46  C   UNL A   1      42.855  29.153  35.062  1.00  0.00     0.037 A 
ATOM     47  C   UNL A   1      37.669  32.432  31.647  1.00  0.00     0.037 A 
ATOM     48  C   UNL A   1      42.313  30.305  35.734  1.00  0.00     0.049 A 
ATOM     49  C   UNL A   1      38.141  32.884  33.003  1.00  0.00     0.074 A 
ATOM     50  C   UNL A   1      42.689  30.849  36.949  1.00  0.00     0.029 A 
ATOM     51  N   UNL A   1      41.278  31.090  35.246  1.00  0.00    -0.354 N 
ATOM     52  N   UNL A   1      39.098  32.390  33.752  1.00  0.00    -0.248 NA
ATOM     53  C   UNL A   1      37.457  34.045  33.590  1.00  0.00     0.031 C 
ATOM     54  C   UNL A   1      41.850  31.935  37.218  1.00  0.00     0.029 A 
ATOM     55  C   UNL A   1      40.990  32.104  36.144  1.00  0.00     0.049 A 
ATOM     56  H   UNL A   1      40.817  30.948  34.388  1.00  0.00     0.167 HD
ATOM     57  C   UNL A   1      39.161  33.205  34.878  1.00  0.00     0.074 A 
ATOM     58  C   UNL A   1      38.146  34.224  34.709  1.00  0.00     0.031 C 
ATOM     59  C   UNL A   1      39.987  33.121  35.951  1.00  0.00     0.037 A 
BRANCH  46  60
ATOM     60  C   UNL A   1      43.925  28.353  35.756  1.00  0.00     0.058 A 
ATOM     61  C   UNL A   1      45.291  28.600  35.546  1.00  0.00     0.135 A 
ATOM     62  C   UNL A   1      43.578  27.336  36.662  1.00  0.00     0.135 A 
ATOM     63  F   UNL A   1      45.683  29.548  34.680  1.00  0.00    -0.206 F 
ATOM     64  C   UNL A   1      46.275  27.846  36.178  1.00  0.00     0.059 A 
ATOM     65  C   UNL A   1      44.545  26.590  37.330  1.00  0.00     0.059 A 
ATOM     66  F   UNL A   1      42.288  27.056  36.901  1.00  0.00    -0.206 F 
ATOM     67  C   UNL A   1      45.891  26.841  37.068  1.00  0.00     0.060 A 
BRANCH  67  68
ATOM     68  S   UNL A   1      47.178  25.871  37.880  1.00  0.00     0.124 S 
ATOM     69  O   UNL A   1      48.263  26.844  37.969  1.00  0.00    -0.237 OA
ATOM     70  O   UNL A   1      46.546  25.508  39.144  1.00  0.00    -0.237 OA
ATOM     71  O   UNL A   1      47.404  24.764  36.955  1.00  0.00    -0.744 OA
ENDBRANCH  67  68
ENDBRANCH  46  60
BRANCH  47  72
ATOM     72  C   UNL A   1      36.570  33.147  30.944  1.00  0.00     0.058 A 
ATOM     73  C   UNL A   1      36.846  34.031  29.889  1.00  0.00     0.135 A 
ATOM     74  C   UNL A   1      35.226  32.957  31.301  1.00  0.00     0.135 A 
ATOM     75  F   UNL A   1      38.115  34.250  29.513  1.00  0.00    -0.206 F 
ATOM     76  C   UNL A   1      35.834  34.719  29.229  1.00  0.00     0.059 A 
ATOM     77  C   UNL A   1      34.193  33.612  30.637  1.00  0.00     0.059 A 
ATOM     78  F   UNL A   1      34.907  32.107  32.289  1.00  0.00    -0.206 F 
ATOM     79  C   UNL A   1      34.509  34.500  29.610  1.00  0.00     0.060 A 
BRANCH  79  80
ATOM     80  S   UNL A   1      33.199  35.366  28.717  1.00  0.00     0.124 S 
ATOM     81  O   UNL A   1      32.465  35.994  29.809  1.00  0.00    -0.237 OA
ATOM     82  O   UNL A   1      33.959  36.266  27.856  1.00  0.00    -0.237 OA
ATOM     83  O   UNL A   1      32.499  34.289  28.022  1.00  0.00    -0.744 OA
ENDBRANCH  79  80
ENDBRANCH  47  72
BRANCH  59  84
ATOM     84  C   UNL A   1      39.871  34.194  36.999  1.00  0.00     0.058 A 
ATOM     85  C   UNL A   1      40.500  35.442  36.862  1.00  0.00     0.135 A 
ATOM     86  C   UNL A   1      39.083  33.979  38.143  1.00  0.00     0.135 A 
ATOM     87  F   UNL A   1      41.265  35.698  35.790  1.00  0.00    -0.206 F 
ATOM     88  C   UNL A   1      40.378  36.426  37.838  1.00  0.00     0.059 A 
ATOM     89  C   UNL A   1      38.923  34.960  39.115  1.00  0.00     0.059 A 
ATOM     90  F   UNL A   1      38.449  32.809  38.316  1.00  0.00    -0.206 F 
ATOM     91  C   UNL A   1      39.590  36.175  38.962  1.00  0.00     0.060 A 
BRANCH  91  92
ATOM     92  S   UNL A   1      39.427  37.465  40.214  1.00  0.00     0.124 S 
ATOM     93  O   UNL A   1      40.797  37.962  40.301  1.00  0.00    -0.237 OA
ATOM     94  O   UNL A   1      38.462  38.373  39.603  1.00  0.00    -0.237 OA
ATOM     95  O   UNL A   1      38.945  36.742  41.386  1.00  0.00    -0.744 OA
ENDBRANCH  91  92
ENDBRANCH  59  84
ENDBRANCH  33  34
ENDBRANCH  25  28
ENDBRANCH  23  24
ENDBRANCH  22  23
ENDBRANCH   1  22
TORSDOF 17
ENDMDL
MODEL 2
REMARK VINA RESULT:     -11.5      3.255      9.571
REMARK SMILES C[C@H](C(=O)NCCCCCCNC(=O)c1ccc(-c2c3nc(c(-c4c(F)cc(S(=O)(=O)[O-])cc4F)c4ccc([nH]4)c(-c4c(F)cc(S(=O)(=O)[O-])cc4F)c4nc(c(-c5c(F)cc(S(=O)(=O)[O-])cc5F)c5ccc2[nH]5)C=C4)C=C3)cc1)[N@@H+]1CCc2ccccc2C1
REMARK SMILES IDX 9 1 8 2 7 3 6 4 5 5 3 6 4 7 2 9 1 10 81 11 82 12 90 13 83 15
REMARK SMILES IDX 89 16 84 17 88 18 85 19 87 20 86 21 10 22 11 23 12 24 13 25
REMARK SMILES IDX 14 27 15 28 16 29 80 30 17 31 79 32 18 33 19 34 20 35 73 36
REMARK SMILES IDX 21 37 78 38 72 39 74 40 22 41 77 42 71 43 70 44 23 46 57 47
REMARK SMILES IDX 36 48 56 49 37 50 40 51 55 52 75 53 38 54 39 55 54 57 76 58
REMARK SMILES IDX 41 59 24 60 25 61 34 62 26 63 27 64 33 65 35 66 28 67 29 68
REMARK SMILES IDX 30 69 31 70 32 71 58 72 59 73 68 74 60 75 61 76 67 77 69 78
REMARK SMILES IDX 62 79 63 80 64 81 65 82 66 83 42 84 43 85 52 86 44 87 45 88
REMARK SMILES IDX 51 89 53 90 46 91 47 92 48 93 49 94 50 95
REMARK H PARENT 5 8 81 14 12 26 74 45 40 56
REMARK Flexibility Score: inf
ROOT
ATOM      1  C   UNL A   1      31.766  28.335  25.008  1.00  0.00     0.002 C 
ENDROOT
BRANCH   1   2
ATOM      2  C   UNL A   1      30.951  28.126  23.727  1.00  0.00     0.002 C 
BRANCH   2   3
ATOM      3  C   UNL A   1      29.717  27.230  23.879  1.00  0.00     0.021 C 
BRANCH   3   4
ATOM      4  C   UNL A   1      30.038  25.739  23.905  1.00  0.00     0.116 C 
BRANCH   4   5
ATOM      5  N   UNL A   1      29.896  25.198  25.241  1.00  0.00    -0.351 N 
ATOM      6  C   UNL A   1      30.743  24.386  25.944  1.00  0.00     0.278 C 
ATOM      7  O   UNL A   1      30.409  24.071  27.085  1.00  0.00    -0.268 OA
ATOM      8  H   UNL A   1      29.069  25.452  25.712  1.00  0.00     0.163 HD
BRANCH   6   9
ATOM      9  C   UNL A   1      32.084  23.985  25.291  1.00  0.00     0.271 C 
ATOM     10  C   UNL A   1      33.173  24.633  26.165  1.00  0.00     0.086 C 
BRANCH   9  11
ATOM     11  N   UNL A   1      32.229  22.551  24.933  1.00  0.00    -0.321 N 
ATOM     12  C   UNL A   1      32.685  21.660  26.035  1.00  0.00     0.267 C 
ATOM     13  C   UNL A   1      32.896  22.264  23.670  1.00  0.00     0.299 C 
ATOM     14  H   UNL A   1      31.254  22.303  24.766  1.00  0.00     0.349 HD
ATOM     15  C   UNL A   1      33.727  20.570  25.636  1.00  0.00     0.097 C 
ATOM     16  C   UNL A   1      34.380  22.160  23.858  1.00  0.00     0.010 A 
ATOM     17  C   UNL A   1      34.813  21.214  24.804  1.00  0.00    -0.034 A 
ATOM     18  C   UNL A   1      35.294  23.003  23.235  1.00  0.00     0.010 A 
ATOM     19  C   UNL A   1      36.174  21.002  25.001  1.00  0.00     0.004 A 
ATOM     20  C   UNL A   1      36.652  22.850  23.499  1.00  0.00     0.001 A 
ATOM     21  C   UNL A   1      37.093  21.826  24.345  1.00  0.00     0.000 A 
ENDBRANCH   9  11
ENDBRANCH   6   9
ENDBRANCH   4   5
ENDBRANCH   3   4
ENDBRANCH   2   3
ENDBRANCH   1   2
BRANCH   1  22
ATOM     22  C   UNL A   1      33.258  28.010  24.892  1.00  0.00     0.021 C 
BRANCH  22  23
ATOM     23  C   UNL A   1      34.106  28.535  26.039  1.00  0.00     0.116 C 
BRANCH  23  24
ATOM     24  N   UNL A   1      33.771  29.905  26.373  1.00  0.00    -0.352 N 
ATOM     25  C   UNL A   1      34.341  30.719  27.319  1.00  0.00     0.251 C 
ATOM     26  H   UNL A   1      33.036  30.303  25.854  1.00  0.00     0.163 HD
ATOM     27  O   UNL A   1      33.797  31.775  27.625  1.00  0.00    -0.269 OA
BRANCH  25  28
ATOM     28  C   UNL A   1      35.603  30.307  27.973  1.00  0.00     0.039 A 
ATOM     29  C   UNL A   1      35.546  29.704  29.231  1.00  0.00     0.014 A 
ATOM     30  C   UNL A   1      36.838  30.537  27.358  1.00  0.00     0.014 A 
ATOM     31  C   UNL A   1      36.726  29.312  29.862  1.00  0.00     0.010 A 
ATOM     32  C   UNL A   1      38.006  30.066  27.950  1.00  0.00     0.010 A 
ATOM     33  C   UNL A   1      37.966  29.480  29.223  1.00  0.00    -0.014 A 
BRANCH  33  34
ATOM     34  C   UNL A   1      39.234  29.114  29.903  1.00  0.00     0.031 A 
ATOM     35  C   UNL A   1      39.636  29.832  31.166  1.00  0.00     0.074 A 
ATOM     36  C   UNL A   1      40.034  28.169  29.373  1.00  0.00     0.049 A 
ATOM     37  N   UNL A   1      40.710  29.679  31.898  1.00  0.00    -0.248 NA
ATOM     38  C   UNL A   1      38.726  30.882  31.654  1.00  0.00     0.031 C 
ATOM     39  C   UNL A   1      39.775  27.439  28.131  1.00  0.00     0.029 A 
ATOM     40  N   UNL A   1      41.230  27.661  29.814  1.00  0.00    -0.354 N 
ATOM     41  C   UNL A   1      40.613  30.624  32.914  1.00  0.00     0.074 A 
ATOM     42  C   UNL A   1      39.409  31.386  32.671  1.00  0.00     0.031 C 
ATOM     43  C   UNL A   1      40.763  26.552  27.928  1.00  0.00     0.029 A 
ATOM     44  C   UNL A   1      41.740  26.672  29.006  1.00  0.00     0.049 A 
ATOM     45  H   UNL A   1      41.680  27.973  30.631  1.00  0.00     0.167 HD
ATOM     46  C   UNL A   1      41.438  30.821  33.970  1.00  0.00     0.037 A 
ATOM     47  C   UNL A   1      42.866  25.942  29.127  1.00  0.00     0.037 A 
ATOM     48  C   UNL A   1      42.614  30.031  34.226  1.00  0.00     0.049 A 
ATOM     49  C   UNL A   1      43.757  26.166  30.319  1.00  0.00     0.074 A 
ATOM     50  C   UNL A   1      43.481  30.103  35.301  1.00  0.00     0.029 A 
ATOM     51  N   UNL A   1      43.085  29.024  33.396  1.00  0.00    -0.354 N 
ATOM     52  N   UNL A   1      43.617  27.018  31.307  1.00  0.00    -0.248 NA
ATOM     53  C   UNL A   1      44.953  25.319  30.421  1.00  0.00     0.031 C 
ATOM     54  C   UNL A   1      44.504  29.171  35.098  1.00  0.00     0.029 A 
ATOM     55  C   UNL A   1      44.242  28.478  33.926  1.00  0.00     0.049 A 
ATOM     56  H   UNL A   1      42.659  28.739  32.555  1.00  0.00     0.167 HD
ATOM     57  C   UNL A   1      44.682  26.781  32.169  1.00  0.00     0.074 A 
ATOM     58  C   UNL A   1      45.455  25.703  31.587  1.00  0.00     0.031 C 
ATOM     59  C   UNL A   1      44.989  27.393  33.340  1.00  0.00     0.037 A 
BRANCH  46  60
ATOM     60  C   UNL A   1      41.097  31.935  34.925  1.00  0.00     0.058 A 
ATOM     61  C   UNL A   1      41.628  33.227  34.779  1.00  0.00     0.135 A 
ATOM     62  C   UNL A   1      40.210  31.711  35.990  1.00  0.00     0.135 A 
ATOM     63  F   UNL A   1      42.494  33.496  33.789  1.00  0.00    -0.206 F 
ATOM     64  C   UNL A   1      41.323  34.247  35.675  1.00  0.00     0.059 A 
ATOM     65  C   UNL A   1      39.864  32.724  36.880  1.00  0.00     0.059 A 
ATOM     66  F   UNL A   1      39.673  30.496  36.178  1.00  0.00    -0.206 F 
ATOM     67  C   UNL A   1      40.440  33.984  36.724  1.00  0.00     0.060 A 
BRANCH  67  68
ATOM     68  S   UNL A   1      40.054  35.316  37.879  1.00  0.00     0.124 S 
ATOM     69  O   UNL A   1      38.896  34.768  38.579  1.00  0.00    -0.237 OA
ATOM     70  O   UNL A   1      41.280  35.416  38.663  1.00  0.00    -0.237 OA
ATOM     71  O   UNL A   1      39.777  36.453  37.007  1.00  0.00    -0.744 OA
ENDBRANCH  67  68
ENDBRANCH  46  60
BRANCH  47  72
ATOM     72  C   UNL A   1      43.190  24.899  28.116  1.00  0.00     0.058 A 
ATOM     73  C   UNL A   1      42.798  23.565  28.308  1.00  0.00     0.135 A 
ATOM     74  C   UNL A   1      43.887  25.211  26.938  1.00  0.00     0.135 A 
ATOM     75  F   UNL A   1      42.133  23.215  29.419  1.00  0.00    -0.206 F 
ATOM     76  C   UNL A   1      43.104  22.574  27.382  1.00  0.00     0.059 A 
ATOM     77  C   UNL A   1      44.181  24.243  25.983  1.00  0.00     0.059 A 
ATOM     78  F   UNL A   1      44.267  26.476  26.697  1.00  0.00    -0.206 F 
ATOM     79  C   UNL A   1      43.795  22.924  26.220  1.00  0.00     0.060 A 
BRANCH  79  80
ATOM     80  S   UNL A   1      44.149  21.636  25.004  1.00  0.00     0.124 S 
ATOM     81  O   UNL A   1      44.011  22.370  23.752  1.00  0.00    -0.237 OA
ATOM     82  O   UNL A   1      45.505  21.238  25.367  1.00  0.00    -0.237 OA
ATOM     83  O   UNL A   1      43.119  20.635  25.267  1.00  0.00    -0.744 OA
ENDBRANCH  79  80
ENDBRANCH  47  72
BRANCH  59  84
ATOM     84  C   UNL A   1      46.178  26.875  34.102  1.00  0.00     0.058 A 
ATOM     85  C   UNL A   1      46.069  25.836  35.040  1.00  0.00     0.135 A 
ATOM     86  C   UNL A   1      47.457  27.404  33.857  1.00  0.00     0.135 A 
ATOM     87  F   UNL A   1      44.870  25.297  35.313  1.00  0.00    -0.206 F 
ATOM     88  C   UNL A   1      47.179  25.364  35.732  1.00  0.00     0.059 A 
ATOM     89  C   UNL A   1      48.585  26.926  34.515  1.00  0.00     0.059 A 
ATOM     90  F   UNL A   1      47.620  28.389  32.959  1.00  0.00    -0.206 F 
ATOM     91  C   UNL A   1      48.432  25.916  35.464  1.00  0.00     0.060 A 
BRANCH  91  92
ATOM     92  S   UNL A   1      49.868  25.285  36.358  1.00  0.00     0.124 S 
ATOM     93  O   UNL A   1      49.263  24.249  37.189  1.00  0.00    -0.237 OA
ATOM     94  O   UNL A   1      50.725  24.809  35.276  1.00  0.00    -0.237 OA
ATOM     95  O   UNL A   1      50.365  26.455  37.074  1.00  0.00    -0.744 OA
ENDBRANCH  91  92
ENDBRANCH  59  84
ENDBRANCH  33  34
ENDBRANCH  25  28
ENDBRANCH  23  24
ENDBRANCH  22  23
ENDBRANCH   1  22
TORSDOF 17
ENDMDL
MODEL 3
REMARK VINA RESULT:     -11.5      4.693     10.495
REMARK SMILES C[C@H](C(=O)NCCCCCCNC(=O)c1ccc(-c2c3nc(c(-c4c(F)cc(S(=O)(=O)[O-])cc4F)c4ccc([nH]4)c(-c4c(F)cc(S(=O)(=O)[O-])cc4F)c4nc(c(-c5c(F)cc(S(=O)(=O)[O-])cc5F)c5ccc2[nH]5)C=C4)C=C3)cc1)[N@@H+]1CCc2ccccc2C1
REMARK SMILES IDX 9 1 8 2 7 3 6 4 5 5 3 6 4 7 2 9 1 10 81 11 82 12 90 13 83 15
REMARK SMILES IDX 89 16 84 17 88 18 85 19 87 20 86 21 10 22 11 23 12 24 13 25
REMARK SMILES IDX 14 27 15 28 16 29 80 30 17 31 79 32 18 33 19 34 20 35 73 36
REMARK SMILES IDX 21 37 78 38 72 39 74 40 22 41 77 42 71 43 70 44 23 46 57 47
REMARK SMILES IDX 36 48 56 49 37 50 40 51 55 52 75 53 38 54 39 55 54 57 76 58
REMARK SMILES IDX 41 59 24 60 25 61 34 62 26 63 27 64 33 65 35 66 28 67 29 68
REMARK SMILES IDX 30 69 31 70 32 71 58 72 59 73 68 74 60 75 61 76 67 77 69 78
REMARK SMILES IDX 62 79 63 80 64 81 65 82 66 83 42 84 43 85 52 86 44 87 45 88
REMARK SMILES IDX 51 89 53 90 46 91 47 92 48 93 49 94 50 95
REMARK H PARENT 5 8 81 14 12 26 74 45 40 56
REMARK Flexibility Score: inf
ROOT
ATOM      1  C   UNL A   1      32.558  28.498  24.392  1.00  0.00     0.002 C 
ENDROOT
BRANCH   1   2
ATOM      2  C   UNL A   1      31.840  27.156  24.203  1.00  0.00     0.002 C 
BRANCH   2   3
ATOM      3  C   UNL A   1      30.871  26.772  25.326  1.00  0.00     0.021 C 
BRANCH   3   4
ATOM      4  C   UNL A   1      31.471  25.821  26.357  1.00  0.00     0.116 C 
BRANCH   4   5
ATOM      5  N   UNL A   1      30.691  24.606  26.462  1.00  0.00    -0.351 N 
ATOM      6  C   UNL A   1      31.111  23.305  26.506  1.00  0.00     0.278 C 
ATOM      7  O   UNL A   1      30.248  22.434  26.618  1.00  0.00    -0.268 OA
ATOM      8  H   UNL A   1      29.715  24.734  26.509  1.00  0.00     0.163 HD
BRANCH   6   9
ATOM      9  C   UNL A   1      32.629  23.024  26.487  1.00  0.00     0.271 C 
ATOM     10  C   UNL A   1      32.959  22.474  27.887  1.00  0.00     0.086 C 
BRANCH   9  11
ATOM     11  N   UNL A   1      33.139  22.287  25.303  1.00  0.00    -0.321 N 
ATOM     12  C   UNL A   1      33.595  20.894  25.564  1.00  0.00     0.267 C 
ATOM     13  C   UNL A   1      34.046  23.018  24.428  1.00  0.00     0.299 C 
ATOM     14  H   UNL A   1      32.281  22.196  24.759  1.00  0.00     0.349 HD
ATOM     15  C   UNL A   1      34.900  20.461  24.827  1.00  0.00     0.097 C 
ATOM     16  C   UNL A   1      35.467  22.867  24.882  1.00  0.00     0.010 A 
ATOM     17  C   UNL A   1      35.939  21.547  24.993  1.00  0.00    -0.034 A 
ATOM     18  C   UNL A   1      36.263  23.937  25.280  1.00  0.00     0.010 A 
ATOM     19  C   UNL A   1      37.264  21.311  25.347  1.00  0.00     0.004 A 
ATOM     20  C   UNL A   1      37.561  23.693  25.717  1.00  0.00     0.001 A 
ATOM     21  C   UNL A   1      38.073  22.391  25.711  1.00  0.00     0.000 A 
ENDBRANCH   9  11
ENDBRANCH   6   9
ENDBRANCH   4   5
ENDBRANCH   3   4
ENDBRANCH   2   3
ENDBRANCH   1   2
BRANCH   1  22
ATOM     22  C   UNL A   1      33.955  28.409  25.012  1.00  0.00     0.021 C 
BRANCH  22  23
ATOM     23  C   UNL A   1      33.970  28.419  26.531  1.00  0.00     0.116 C 
BRANCH  23  24
ATOM     24  N   UNL A   1      33.710  29.743  27.063  1.00  0.00    -0.352 N 
ATOM     25  C   UNL A   1      34.496  30.502  27.892  1.00  0.00     0.251 C 
ATOM     26  H   UNL A   1      32.855  30.149  26.795  1.00  0.00     0.163 HD
ATOM     27  O   UNL A   1      34.034  31.505  28.424  1.00  0.00    -0.269 OA
BRANCH  25  28
ATOM     28  C   UNL A   1      35.896  30.094  28.148  1.00  0.00     0.039 A 
ATOM     29  C   UNL A   1      36.228  29.568  29.398  1.00  0.00     0.014 A 
ATOM     30  C   UNL A   1      36.880  30.250  27.166  1.00  0.00     0.014 A 
ATOM     31  C   UNL A   1      37.543  29.181  29.656  1.00  0.00     0.010 A 
ATOM     32  C   UNL A   1      38.170  29.781  27.395  1.00  0.00     0.010 A 
ATOM     33  C   UNL A   1      38.523  29.274  28.653  1.00  0.00    -0.014 A 
BRANCH  33  34
ATOM     34  C   UNL A   1      39.937  28.913  28.929  1.00  0.00     0.031 A 
ATOM     35  C   UNL A   1      40.850  29.920  29.581  1.00  0.00     0.074 A 
ATOM     36  C   UNL A   1      40.406  27.704  28.567  1.00  0.00     0.049 A 
ATOM     37  N   UNL A   1      42.117  29.811  29.886  1.00  0.00    -0.248 NA
ATOM     38  C   UNL A   1      40.269  31.234  29.906  1.00  0.00     0.031 C 
ATOM     39  C   UNL A   1      39.631  26.664  27.888  1.00  0.00     0.029 A 
ATOM     40  N   UNL A   1      41.649  27.145  28.720  1.00  0.00    -0.354 N 
ATOM     41  C   UNL A   1      42.487  31.044  30.415  1.00  0.00     0.074 A 
ATOM     42  C   UNL A   1      41.328  31.904  30.334  1.00  0.00     0.031 C 
ATOM     43  C   UNL A   1      40.406  25.581  27.715  1.00  0.00     0.029 A 
ATOM     44  C   UNL A   1      41.739  25.860  28.241  1.00  0.00     0.049 A 
ATOM     45  H   UNL A   1      42.406  27.619  29.135  1.00  0.00     0.167 HD
ATOM     46  C   UNL A   1      43.675  31.417  30.945  1.00  0.00     0.037 A 
ATOM     47  C   UNL A   1      42.779  25.003  28.232  1.00  0.00     0.037 A 
ATOM     48  C   UNL A   1      44.812  30.541  31.059  1.00  0.00     0.049 A 
ATOM     49  C   UNL A   1      44.085  25.433  28.846  1.00  0.00     0.074 A 
ATOM     50  C   UNL A   1      46.041  30.796  31.640  1.00  0.00     0.029 A 
ATOM     51  N   UNL A   1      44.856  29.239  30.581  1.00  0.00    -0.354 N 
ATOM     52  N   UNL A   1      44.398  26.579  29.402  1.00  0.00    -0.248 NA
ATOM     53  C   UNL A   1      45.175  24.448  28.843  1.00  0.00     0.031 C 
ATOM     54  C   UNL A   1      46.846  29.664  31.472  1.00  0.00     0.029 A 
ATOM     55  C   UNL A   1      46.099  28.683  30.839  1.00  0.00     0.049 A 
ATOM     56  H   UNL A   1      44.114  28.778  30.127  1.00  0.00     0.167 HD
ATOM     57  C   UNL A   1      45.706  26.439  29.853  1.00  0.00     0.074 A 
ATOM     58  C   UNL A   1      46.122  25.095  29.508  1.00  0.00     0.031 C 
ATOM     59  C   UNL A   1      46.490  27.337  30.502  1.00  0.00     0.037 A 
BRANCH  46  60
ATOM     60  C   UNL A   1      43.806  32.832  31.442  1.00  0.00     0.058 A 
ATOM     61  C   UNL A   1      44.206  33.882  30.598  1.00  0.00     0.135 A 
ATOM     62  C   UNL A   1      43.507  33.148  32.778  1.00  0.00     0.135 A 
ATOM     63  F   UNL A   1      44.520  33.637  29.316  1.00  0.00    -0.206 F 
ATOM     64  C   UNL A   1      44.341  35.184  31.068  1.00  0.00     0.059 A 
ATOM     65  C   UNL A   1      43.604  34.449  33.262  1.00  0.00     0.059 A 
ATOM     66  F   UNL A   1      43.122  32.185  33.629  1.00  0.00    -0.206 F 
ATOM     67  C   UNL A   1      44.039  35.458  32.403  1.00  0.00     0.060 A 
BRANCH  67  68
ATOM     68  S   UNL A   1      44.220  37.152  32.998  1.00  0.00     0.124 S 
ATOM     69  O   UNL A   1      43.032  37.295  33.835  1.00  0.00    -0.237 OA
ATOM     70  O   UNL A   1      45.493  37.100  33.708  1.00  0.00    -0.237 OA
ATOM     71  O   UNL A   1      44.220  37.945  31.772  1.00  0.00    -0.744 OA
ENDBRANCH  67  68
ENDBRANCH  46  60
BRANCH  47  72
ATOM     72  C   UNL A   1      42.615  23.636  27.667  1.00  0.00     0.058 A 
ATOM     73  C   UNL A   1      42.347  22.540  28.502  1.00  0.00     0.135 A 
ATOM     74  C   UNL A   1      42.711  23.398  26.287  1.00  0.00     0.135 A 
ATOM     75  F   UNL A   1      42.249  22.715  29.828  1.00  0.00    -0.206 F 
ATOM     76  C   UNL A   1      42.204  21.253  27.993  1.00  0.00     0.059 A 
ATOM     77  C   UNL A   1      42.545  22.124  25.752  1.00  0.00     0.059 A 
ATOM     78  F   UNL A   1      42.946  24.415  25.444  1.00  0.00    -0.206 F 
ATOM     79  C   UNL A   1      42.303  21.056  26.615  1.00  0.00     0.060 A 
BRANCH  79  80
ATOM     80  S   UNL A   1      42.073  19.388  25.962  1.00  0.00     0.124 S 
ATOM     81  O   UNL A   1      42.900  19.426  24.762  1.00  0.00    -0.237 OA
ATOM     82  O   UNL A   1      42.569  18.560  27.056  1.00  0.00    -0.237 OA
ATOM     83  O   UNL A   1      40.632  19.314  25.734  1.00  0.00    -0.744 OA
ENDBRANCH  79  80
ENDBRANCH  47  72
BRANCH  59  84
ATOM     84  C   UNL A   1      47.855  26.879  30.934  1.00  0.00     0.058 A 
ATOM     85  C   UNL A   1      48.081  26.278  32.183  1.00  0.00     0.135 A 
ATOM     86  C   UNL A   1      48.951  27.011  30.064  1.00  0.00     0.135 A 
ATOM     87  F   UNL A   1      47.069  26.130  33.053  1.00  0.00    -0.206 F 
ATOM     88  C   UNL A   1      49.349  25.855  32.566  1.00  0.00     0.059 A 
ATOM     89  C   UNL A   1      50.221  26.567  30.414  1.00  0.00     0.059 A 
ATOM     90  F   UNL A   1      48.788  27.566  28.852  1.00  0.00    -0.206 F 
ATOM     91  C   UNL A   1      50.413  26.005  31.675  1.00  0.00     0.060 A 
BRANCH  91  92
ATOM     92  S   UNL A   1      52.052  25.438  32.178  1.00  0.00     0.124 S 
ATOM     93  O   UNL A   1      51.851  23.995  32.253  1.00  0.00    -0.237 OA
ATOM     94  O   UNL A   1      52.894  25.905  31.081  1.00  0.00    -0.237 OA
ATOM     95  O   UNL A   1      52.267  26.110  33.455  1.00  0.00    -0.744 OA
ENDBRANCH  91  92
ENDBRANCH  59  84
ENDBRANCH  33  34
ENDBRANCH  25  28
ENDBRANCH  23  24
ENDBRANCH  22  23
ENDBRANCH   1  22
TORSDOF 17
ENDMDL
