MODEL 1
REMARK VINA RESULT:     -11.8      0.000      0.000
REMARK SMILES CS(=O)(=O)N1C[C@@H]2CN(C(=O)c3ccco3)C[C@]2(C(=O)NCCCCCCNC(=O)c2ccc(-c3c4nc(c(-c5c(F)cc(S(=O)(=O)[O-])cc5F)c5ccc([nH]5)c(-c5c(F)cc(S(=O)(=O)[O-])cc5F)c5nc(c(-c6c(F)cc(S(=O)(=O)[O-])cc6F)c6ccc3[nH]6)C=C5)C=C4)cc2)C1
REMARK SMILES IDX 25 1 24 2 23 3 22 4 21 5 19 6 20 7 18 9 5 10 6 11 97 12 7 13
REMARK SMILES IDX 8 14 17 15 9 16 2 17 1 18 3 19 4 20 10 21 11 22 12 23 13 24
REMARK SMILES IDX 16 25 14 26 15 27 26 28 27 29 28 30 29 31 30 33 31 34 32 35
REMARK SMILES IDX 96 36 33 37 95 38 34 39 35 40 36 41 89 42 37 43 94 44 88 45
REMARK SMILES IDX 90 46 38 47 93 48 87 49 86 50 39 52 73 53 52 54 72 55 53 56
REMARK SMILES IDX 56 57 71 58 91 59 54 60 55 61 70 63 92 64 57 65 40 66 41 67
REMARK SMILES IDX 50 68 42 69 43 70 49 71 51 72 44 73 45 74 46 75 47 76 48 77
REMARK SMILES IDX 74 78 75 79 84 80 76 81 77 82 83 83 85 84 78 85 79 86 80 87
REMARK SMILES IDX 81 88 82 89 58 90 59 91 68 92 60 93 61 94 67 95 69 96 62 97
REMARK SMILES IDX 63 98 64 99 65 100 66 101
REMARK H PARENT 21 8 28 32 90 51 56 62
REMARK Flexibility Score: inf
ROOT
ATOM      1  C   UNL A   1      37.029  20.703  25.144  1.00  0.00     0.002 C 
ENDROOT
BRANCH   1   2
ATOM      2  C   UNL A   1      37.005  22.057  24.428  1.00  0.00     0.002 C 
BRANCH   2   3
ATOM      3  C   UNL A   1      37.058  23.270  25.360  1.00  0.00     0.021 C 
BRANCH   3   4
ATOM      4  C   UNL A   1      35.689  23.791  25.803  1.00  0.00     0.116 C 
BRANCH   4   5
ATOM      5  N   UNL A   1      35.208  22.998  26.919  1.00  0.00    -0.356 N 
ATOM      6  C   UNL A   1      33.925  22.554  27.116  1.00  0.00     0.229 C 
ATOM      7  O   UNL A   1      33.579  22.267  28.264  1.00  0.00    -0.274 OA
ATOM      8  H   UNL A   1      35.870  22.755  27.605  1.00  0.00     0.163 HD
BRANCH   6   9
ATOM      9  C   UNL A   1      33.029  22.407  25.857  1.00  0.00     0.086 C 
ATOM     10  N   UNL A   1      33.336  20.249  24.615  1.00  0.00    -0.201 NA
ATOM     11  C   UNL A   1      32.342  21.045  23.893  1.00  0.00     0.108 C 
ATOM     12  C   UNL A   1      33.382  20.824  25.997  1.00  0.00     0.121 C 
ATOM     13  C   UNL A   1      31.801  21.925  24.998  1.00  0.00     0.042 C 
ATOM     14  C   UNL A   1      31.082  23.128  24.446  1.00  0.00     0.126 C 
ATOM     15  C   UNL A   1      32.036  23.460  26.576  1.00  0.00     0.138 C 
ATOM     16  N   UNL A   1      31.271  24.080  25.492  1.00  0.00    -0.334 N 
BRANCH  10  17
ATOM     17  S   UNL A   1      33.174  18.573  24.462  1.00  0.00     0.211 S 
ATOM     18  C   UNL A   1      32.460  18.402  22.839  1.00  0.00     0.176 C 
ATOM     19  O   UNL A   1      32.190  18.146  25.438  1.00  0.00    -0.213 OA
ATOM     20  O   UNL A   1      34.501  18.004  24.448  1.00  0.00    -0.213 OA
ENDBRANCH  10  17
BRANCH  16  21
ATOM     21  C   UNL A   1      30.946  25.407  25.239  1.00  0.00     0.289 C 
ATOM     22  O   UNL A   1      30.227  25.686  24.278  1.00  0.00    -0.265 OA
BRANCH  21  23
ATOM     23  C   UNL A   1      31.585  26.442  26.016  1.00  0.00     0.191 A 
ATOM     24  C   UNL A   1      32.780  27.098  25.777  1.00  0.00     0.056 A 
ATOM     25  O   UNL A   1      30.989  26.963  27.130  1.00  0.00    -0.459 OA
ATOM     26  C   UNL A   1      32.928  28.061  26.799  1.00  0.00     0.043 A 
ATOM     27  C   UNL A   1      31.798  27.963  27.577  1.00  0.00     0.196 A 
ENDBRANCH  21  23
ENDBRANCH  16  21
ENDBRANCH   6   9
ENDBRANCH   4   5
ENDBRANCH   3   4
ENDBRANCH   2   3
ENDBRANCH   1   2
BRANCH   1  28
ATOM     28  C   UNL A   1      38.296  19.868  24.930  1.00  0.00     0.021 C 
BRANCH  28  29
ATOM     29  C   UNL A   1      39.503  20.284  25.768  1.00  0.00     0.116 C 
BRANCH  29  30
ATOM     30  N   UNL A   1      40.465  19.206  25.934  1.00  0.00    -0.352 N 
ATOM     31  C   UNL A   1      41.814  19.278  26.175  1.00  0.00     0.251 C 
ATOM     32  H   UNL A   1      40.095  18.296  25.865  1.00  0.00     0.163 HD
ATOM     33  O   UNL A   1      42.501  18.261  26.143  1.00  0.00    -0.269 OA
BRANCH  31  34
ATOM     34  C   UNL A   1      42.440  20.589  26.445  1.00  0.00     0.039 A 
ATOM     35  C   UNL A   1      43.025  21.287  25.386  1.00  0.00     0.014 A 
ATOM     36  C   UNL A   1      42.443  21.130  27.735  1.00  0.00     0.014 A 
ATOM     37  C   UNL A   1      43.561  22.557  25.608  1.00  0.00     0.010 A 
ATOM     38  C   UNL A   1      42.928  22.421  27.942  1.00  0.00     0.010 A 
ATOM     39  C   UNL A   1      43.490  23.149  26.880  1.00  0.00    -0.014 A 
BRANCH  39  40
ATOM     40  C   UNL A   1      43.988  24.532  27.105  1.00  0.00     0.031 A 
ATOM     41  C   UNL A   1      43.041  25.625  27.518  1.00  0.00     0.074 A 
ATOM     42  C   UNL A   1      45.290  24.811  26.894  1.00  0.00     0.049 A 
ATOM     43  N   UNL A   1      43.288  26.892  27.733  1.00  0.00    -0.248 NA
ATOM     44  C   UNL A   1      41.628  25.251  27.691  1.00  0.00     0.031 C 
ATOM     45  C   UNL A   1      46.300  23.846  26.450  1.00  0.00     0.029 A 
ATOM     46  N   UNL A   1      45.989  25.986  27.019  1.00  0.00    -0.354 N 
ATOM     47  C   UNL A   1      42.066  27.467  28.062  1.00  0.00     0.074 A 
ATOM     48  C   UNL A   1      41.070  26.422  27.965  1.00  0.00     0.031 C 
ATOM     49  C   UNL A   1      47.488  24.463  26.360  1.00  0.00     0.029 A 
ATOM     50  C   UNL A   1      47.324  25.873  26.703  1.00  0.00     0.049 A 
ATOM     51  H   UNL A   1      45.575  26.831  27.308  1.00  0.00     0.167 HD
ATOM     52  C   UNL A   1      41.802  28.743  28.432  1.00  0.00     0.037 A 
ATOM     53  C   UNL A   1      48.302  26.799  26.684  1.00  0.00     0.037 A 
ATOM     54  C   UNL A   1      42.802  29.776  28.540  1.00  0.00     0.049 A 
ATOM     55  C   UNL A   1      47.982  28.213  27.087  1.00  0.00     0.074 A 
ATOM     56  C   UNL A   1      42.643  31.086  28.959  1.00  0.00     0.029 A 
ATOM     57  N   UNL A   1      44.143  29.619  28.221  1.00  0.00    -0.354 N 
ATOM     58  N   UNL A   1      46.833  28.723  27.463  1.00  0.00    -0.248 NA
ATOM     59  C   UNL A   1      49.090  29.178  27.071  1.00  0.00     0.031 C 
ATOM     60  C   UNL A   1      43.876  31.735  28.843  1.00  0.00     0.029 A 
ATOM     61  C   UNL A   1      44.817  30.816  28.409  1.00  0.00     0.049 A 
ATOM     62  H   UNL A   1      44.556  28.783  27.907  1.00  0.00     0.167 HD
ATOM     63  C   UNL A   1      47.087  30.059  27.757  1.00  0.00     0.074 A 
ATOM     64  C   UNL A   1      48.500  30.275  27.525  1.00  0.00     0.031 C 
ATOM     65  C   UNL A   1      46.227  31.018  28.182  1.00  0.00     0.037 A 
BRANCH  52  66
ATOM     66  C   UNL A   1      40.374  29.100  28.747  1.00  0.00     0.058 A 
ATOM     67  C   UNL A   1      39.910  29.184  30.071  1.00  0.00     0.135 A 
ATOM     68  C   UNL A   1      39.469  29.404  27.717  1.00  0.00     0.135 A 
ATOM     69  F   UNL A   1      40.727  28.891  31.094  1.00  0.00    -0.206 F 
ATOM     70  C   UNL A   1      38.593  29.526  30.359  1.00  0.00     0.059 A 
ATOM     71  C   UNL A   1      38.156  29.778  27.985  1.00  0.00     0.059 A 
ATOM     72  F   UNL A   1      39.859  29.341  26.434  1.00  0.00    -0.206 F 
ATOM     73  C   UNL A   1      37.723  29.823  29.308  1.00  0.00     0.060 A 
BRANCH  73  74
ATOM     74  S   UNL A   1      36.019  30.272  29.703  1.00  0.00     0.124 S 
ATOM     75  O   UNL A   1      35.869  29.697  31.036  1.00  0.00    -0.237 OA
ATOM     76  O   UNL A   1      36.059  31.729  29.643  1.00  0.00    -0.237 OA
ATOM     77  O   UNL A   1      35.244  29.624  28.650  1.00  0.00    -0.744 OA
ENDBRANCH  73  74
ENDBRANCH  52  66
BRANCH  53  78
ATOM     78  C   UNL A   1      49.683  26.412  26.285  1.00  0.00     0.058 A 
ATOM     79  C   UNL A   1      50.558  25.804  27.198  1.00  0.00     0.135 A 
ATOM     80  C   UNL A   1      50.151  26.633  24.980  1.00  0.00     0.135 A 
ATOM     81  F   UNL A   1      50.161  25.579  28.459  1.00  0.00    -0.206 F 
ATOM     82  C   UNL A   1      51.853  25.444  26.838  1.00  0.00     0.059 A 
ATOM     83  C   UNL A   1      51.432  26.255  24.588  1.00  0.00     0.059 A 
ATOM     84  F   UNL A   1      49.349  27.196  24.063  1.00  0.00    -0.206 F 
ATOM     85  C   UNL A   1      52.279  25.670  25.528  1.00  0.00     0.060 A 
BRANCH  85  86
ATOM     86  S   UNL A   1      53.944  25.151  25.056  1.00  0.00     0.124 S 
ATOM     87  O   UNL A   1      53.778  23.707  24.933  1.00  0.00    -0.237 OA
ATOM     88  O   UNL A   1      54.148  25.879  23.808  1.00  0.00    -0.237 OA
ATOM     89  O   UNL A   1      54.765  25.600  26.177  1.00  0.00    -0.744 OA
ENDBRANCH  85  86
ENDBRANCH  53  78
BRANCH  65  90
ATOM     90  C   UNL A   1      46.792  32.384  28.464  1.00  0.00     0.058 A 
ATOM     91  C   UNL A   1      46.818  33.391  27.487  1.00  0.00     0.135 A 
ATOM     92  C   UNL A   1      47.259  32.707  29.749  1.00  0.00     0.135 A 
ATOM     93  F   UNL A   1      46.390  33.136  26.240  1.00  0.00    -0.206 F 
ATOM     94  C   UNL A   1      47.307  34.663  27.768  1.00  0.00     0.059 A 
ATOM     95  C   UNL A   1      47.724  33.980  30.060  1.00  0.00     0.059 A 
ATOM     96  F   UNL A   1      47.247  31.783  30.724  1.00  0.00    -0.206 F 
ATOM     97  C   UNL A   1      47.754  34.950  29.059  1.00  0.00     0.060 A 
BRANCH  97  98
ATOM     98  S   UNL A   1      48.350  36.615  29.419  1.00  0.00     0.124 S 
ATOM     99  O   UNL A   1      49.562  36.336  30.182  1.00  0.00    -0.237 OA
ATOM    100  O   UNL A   1      48.553  37.169  28.085  1.00  0.00    -0.237 OA
ATOM    101  O   UNL A   1      47.254  37.212  30.179  1.00  0.00    -0.744 OA
ENDBRANCH  97  98
ENDBRANCH  65  90
ENDBRANCH  39  40
ENDBRANCH  31  34
ENDBRANCH  29  30
ENDBRANCH  28  29
ENDBRANCH   1  28
TORSDOF 19
ENDMDL
MODEL 2
REMARK VINA RESULT:     -11.8      0.454      8.056
REMARK SMILES CS(=O)(=O)N1C[C@@H]2CN(C(=O)c3ccco3)C[C@]2(C(=O)NCCCCCCNC(=O)c2ccc(-c3c4nc(c(-c5c(F)cc(S(=O)(=O)[O-])cc5F)c5ccc([nH]5)c(-c5c(F)cc(S(=O)(=O)[O-])cc5F)c5nc(c(-c6c(F)cc(S(=O)(=O)[O-])cc6F)c6ccc3[nH]6)C=C5)C=C4)cc2)C1
REMARK SMILES IDX 25 1 24 2 23 3 22 4 21 5 19 6 20 7 18 9 5 10 6 11 97 12 7 13
REMARK SMILES IDX 8 14 17 15 9 16 2 17 1 18 3 19 4 20 10 21 11 22 12 23 13 24
REMARK SMILES IDX 16 25 14 26 15 27 26 28 27 29 28 30 29 31 30 33 31 34 32 35
REMARK SMILES IDX 96 36 33 37 95 38 34 39 35 40 36 41 89 42 37 43 94 44 88 45
REMARK SMILES IDX 90 46 38 47 93 48 87 49 86 50 39 52 73 53 52 54 72 55 53 56
REMARK SMILES IDX 56 57 71 58 91 59 54 60 55 61 70 63 92 64 57 65 40 66 41 67
REMARK SMILES IDX 50 68 42 69 43 70 49 71 51 72 44 73 45 74 46 75 47 76 48 77
REMARK SMILES IDX 74 78 75 79 84 80 76 81 77 82 83 83 85 84 78 85 79 86 80 87
REMARK SMILES IDX 81 88 82 89 58 90 59 91 68 92 60 93 61 94 67 95 69 96 62 97
REMARK SMILES IDX 63 98 64 99 65 100 66 101
REMARK H PARENT 21 8 28 32 90 51 56 62
REMARK Flexibility Score: inf
ROOT
ATOM      1  C   UNL A   1      37.026  20.798  24.946  1.00  0.00     0.002 C 
ENDROOT
BRANCH   1   2
ATOM      2  C   UNL A   1      37.497  22.240  24.742  1.00  0.00     0.002 C 
BRANCH   2   3
ATOM      3  C   UNL A   1      37.229  23.170  25.928  1.00  0.00     0.021 C 
BRANCH   3   4
ATOM      4  C   UNL A   1      35.775  23.622  26.066  1.00  0.00     0.116 C 
BRANCH   4   5
ATOM      5  N   UNL A   1      35.129  22.855  27.116  1.00  0.00    -0.356 N 
ATOM      6  C   UNL A   1      33.804  22.503  27.177  1.00  0.00     0.229 C 
ATOM      7  O   UNL A   1      33.325  22.231  28.280  1.00  0.00    -0.274 OA
ATOM      8  H   UNL A   1      35.699  22.558  27.860  1.00  0.00     0.163 HD
BRANCH   6   9
ATOM      9  C   UNL A   1      33.030  22.434  25.833  1.00  0.00     0.086 C 
ATOM     10  N   UNL A   1      33.360  20.299  24.559  1.00  0.00    -0.201 NA
ATOM     11  C   UNL A   1      32.479  21.160  23.770  1.00  0.00     0.108 C 
ATOM     12  C   UNL A   1      33.296  20.832  25.957  1.00  0.00     0.121 C 
ATOM     13  C   UNL A   1      31.872  22.035  24.844  1.00  0.00     0.042 C 
ATOM     14  C   UNL A   1      31.266  23.285  24.264  1.00  0.00     0.126 C 
ATOM     15  C   UNL A   1      32.020  23.513  26.485  1.00  0.00     0.138 C 
ATOM     16  N   UNL A   1      31.394  24.198  25.353  1.00  0.00    -0.334 N 
BRANCH  10  17
ATOM     17  S   UNL A   1      33.138  18.636  24.338  1.00  0.00     0.211 S 
ATOM     18  C   UNL A   1      32.338  18.563  22.748  1.00  0.00     0.176 C 
ATOM     19  O   UNL A   1      32.193  18.192  25.344  1.00  0.00    -0.213 OA
ATOM     20  O   UNL A   1      34.445  18.031  24.228  1.00  0.00    -0.213 OA
ENDBRANCH  10  17
BRANCH  16  21
ATOM     21  C   UNL A   1      31.155  25.546  25.112  1.00  0.00     0.289 C 
ATOM     22  O   UNL A   1      30.424  25.878  24.176  1.00  0.00    -0.265 OA
BRANCH  21  23
ATOM     23  C   UNL A   1      31.893  26.530  25.866  1.00  0.00     0.191 A 
ATOM     24  C   UNL A   1      33.252  26.793  25.860  1.00  0.00     0.056 A 
ATOM     25  O   UNL A   1      31.257  27.419  26.687  1.00  0.00    -0.459 OA
ATOM     26  C   UNL A   1      33.459  27.888  26.726  1.00  0.00     0.043 A 
ATOM     27  C   UNL A   1      32.213  28.254  27.178  1.00  0.00     0.196 A 
ENDBRANCH  21  23
ENDBRANCH  16  21
ENDBRANCH   6   9
ENDBRANCH   4   5
ENDBRANCH   3   4
ENDBRANCH   2   3
ENDBRANCH   1   2
BRANCH   1  28
ATOM     28  C   UNL A   1      38.141  19.757  25.101  1.00  0.00     0.021 C 
BRANCH  28  29
ATOM     29  C   UNL A   1      39.417  20.261  25.773  1.00  0.00     0.116 C 
BRANCH  29  30
ATOM     30  N   UNL A   1      40.399  19.207  25.967  1.00  0.00    -0.352 N 
ATOM     31  C   UNL A   1      41.746  19.311  26.209  1.00  0.00     0.251 C 
ATOM     32  H   UNL A   1      40.047  18.288  25.918  1.00  0.00     0.163 HD
ATOM     33  O   UNL A   1      42.453  18.308  26.203  1.00  0.00    -0.269 OA
BRANCH  31  34
ATOM     34  C   UNL A   1      42.345  20.640  26.449  1.00  0.00     0.039 A 
ATOM     35  C   UNL A   1      42.831  21.367  25.359  1.00  0.00     0.014 A 
ATOM     36  C   UNL A   1      42.420  21.170  27.741  1.00  0.00     0.014 A 
ATOM     37  C   UNL A   1      43.339  22.652  25.558  1.00  0.00     0.010 A 
ATOM     38  C   UNL A   1      42.875  22.474  27.928  1.00  0.00     0.010 A 
ATOM     39  C   UNL A   1      43.337  23.231  26.839  1.00  0.00    -0.014 A 
BRANCH  39  40
ATOM     40  C   UNL A   1      43.803  24.627  27.043  1.00  0.00     0.031 A 
ATOM     41  C   UNL A   1      45.252  24.982  26.849  1.00  0.00     0.074 A 
ATOM     42  C   UNL A   1      42.926  25.569  27.446  1.00  0.00     0.049 A 
ATOM     43  N   UNL A   1      45.846  26.138  27.006  1.00  0.00    -0.248 NA
ATOM     44  C   UNL A   1      46.156  23.893  26.446  1.00  0.00     0.031 C 
ATOM     45  C   UNL A   1      41.503  25.340  27.710  1.00  0.00     0.029 A 
ATOM     46  N   UNL A   1      43.100  26.905  27.709  1.00  0.00    -0.354 N 
ATOM     47  C   UNL A   1      47.189  25.915  26.727  1.00  0.00     0.074 A 
ATOM     48  C   UNL A   1      47.332  24.504  26.442  1.00  0.00     0.031 C 
ATOM     49  C   UNL A   1      40.932  26.497  28.077  1.00  0.00     0.029 A 
ATOM     50  C   UNL A   1      41.950  27.544  28.111  1.00  0.00     0.049 A 
ATOM     51  H   UNL A   1      43.966  27.364  27.619  1.00  0.00     0.167 HD
ATOM     52  C   UNL A   1      48.207  26.810  26.688  1.00  0.00     0.037 A 
ATOM     53  C   UNL A   1      41.738  28.825  28.472  1.00  0.00     0.037 A 
ATOM     54  C   UNL A   1      48.055  28.217  26.959  1.00  0.00     0.049 A 
ATOM     55  C   UNL A   1      42.887  29.797  28.434  1.00  0.00     0.074 A 
ATOM     56  C   UNL A   1      49.014  29.213  26.893  1.00  0.00     0.029 A 
ATOM     57  N   UNL A   1      46.873  28.827  27.352  1.00  0.00    -0.354 N 
ATOM     58  N   UNL A   1      44.136  29.584  28.099  1.00  0.00    -0.248 NA
ATOM     59  C   UNL A   1      42.597  31.187  28.816  1.00  0.00     0.031 C 
ATOM     60  C   UNL A   1      48.425  30.416  27.298  1.00  0.00     0.029 A 
ATOM     61  C   UNL A   1      47.084  30.182  27.558  1.00  0.00     0.049 A 
ATOM     62  H   UNL A   1      46.010  28.367  27.469  1.00  0.00     0.167 HD
ATOM     63  C   UNL A   1      44.774  30.816  28.200  1.00  0.00     0.074 A 
ATOM     64  C   UNL A   1      43.770  31.772  28.617  1.00  0.00     0.031 C 
ATOM     65  C   UNL A   1      46.074  31.126  27.966  1.00  0.00     0.037 A 
BRANCH  52  66
ATOM     66  C   UNL A   1      49.579  26.296  26.343  1.00  0.00     0.058 A 
ATOM     67  C   UNL A   1      50.081  26.356  25.032  1.00  0.00     0.135 A 
ATOM     68  C   UNL A   1      50.419  25.776  27.342  1.00  0.00     0.135 A 
ATOM     69  F   UNL A   1      49.317  26.831  24.037  1.00  0.00    -0.206 F 
ATOM     70  C   UNL A   1      51.355  25.892  24.720  1.00  0.00     0.059 A 
ATOM     71  C   UNL A   1      51.708  25.334  27.055  1.00  0.00     0.059 A 
ATOM     72  F   UNL A   1      49.991  25.695  28.611  1.00  0.00    -0.206 F 
ATOM     73  C   UNL A   1      52.161  25.383  25.739  1.00  0.00     0.060 A 
BRANCH  73  74
ATOM     74  S   UNL A   1      53.813  24.792  25.314  1.00  0.00     0.124 S 
ATOM     75  O   UNL A   1      54.111  25.590  24.129  1.00  0.00    -0.237 OA
ATOM     76  O   UNL A   1      54.580  25.125  26.510  1.00  0.00    -0.237 OA
ATOM     77  O   UNL A   1      53.614  23.366  25.076  1.00  0.00    -0.744 OA
ENDBRANCH  73  74
ENDBRANCH  52  66
BRANCH  53  78
ATOM     78  C   UNL A   1      40.378  29.266  28.885  1.00  0.00     0.058 A 
ATOM     79  C   UNL A   1      40.051  29.437  30.239  1.00  0.00     0.135 A 
ATOM     80  C   UNL A   1      39.381  29.535  27.934  1.00  0.00     0.135 A 
ATOM     81  F   UNL A   1      40.966  29.186  31.186  1.00  0.00    -0.206 F 
ATOM     82  C   UNL A   1      38.781  29.843  30.637  1.00  0.00     0.059 A 
ATOM     83  C   UNL A   1      38.112  29.969  28.306  1.00  0.00     0.059 A 
ATOM     84  F   UNL A   1      39.646  29.403  26.625  1.00  0.00    -0.206 F 
ATOM     85  C   UNL A   1      37.819  30.111  29.662  1.00  0.00     0.060 A 
BRANCH  85  86
ATOM     86  S   UNL A   1      36.190  30.687  30.187  1.00  0.00     0.124 S 
ATOM     87  O   UNL A   1      35.875  29.747  31.256  1.00  0.00    -0.237 OA
ATOM     88  O   UNL A   1      36.472  32.058  30.604  1.00  0.00    -0.237 OA
ATOM     89  O   UNL A   1      35.384  30.563  28.976  1.00  0.00    -0.744 OA
ENDBRANCH  85  86
ENDBRANCH  53  78
BRANCH  65  90
ATOM     90  C   UNL A   1      46.484  32.566  28.118  1.00  0.00     0.058 A 
ATOM     91  C   UNL A   1      47.064  33.052  29.300  1.00  0.00     0.135 A 
ATOM     92  C   UNL A   1      46.347  33.459  27.041  1.00  0.00     0.135 A 
ATOM     93  F   UNL A   1      47.212  32.245  30.362  1.00  0.00    -0.206 F 
ATOM     94  C   UNL A   1      47.474  34.376  29.417  1.00  0.00     0.059 A 
ATOM     95  C   UNL A   1      46.778  34.778  27.126  1.00  0.00     0.059 A 
ATOM     96  F   UNL A   1      45.808  33.043  25.884  1.00  0.00    -0.206 F 
ATOM     97  C   UNL A   1      47.332  35.232  28.322  1.00  0.00     0.060 A 
BRANCH  97  98
ATOM     98  S   UNL A   1      47.904  36.937  28.475  1.00  0.00     0.124 S 
ATOM     99  O   UNL A   1      47.606  37.223  29.875  1.00  0.00    -0.237 OA
ATOM    100  O   UNL A   1      49.320  36.822  28.139  1.00  0.00    -0.237 OA
ATOM    101  O   UNL A   1      47.091  37.658  27.500  1.00  0.00    -0.744 OA
ENDBRANCH  97  98
ENDBRANCH  65  90
ENDBRANCH  39  40
ENDBRANCH  31  34
ENDBRANCH  29  30
ENDBRANCH  28  29
ENDBRANCH   1  28
TORSDOF 19
ENDMDL
MODEL 3
REMARK VINA RESULT:     -11.6      2.700      9.015
REMARK SMILES CS(=O)(=O)N1C[C@@H]2CN(C(=O)c3ccco3)C[C@]2(C(=O)NCCCCCCNC(=O)c2ccc(-c3c4nc(c(-c5c(F)cc(S(=O)(=O)[O-])cc5F)c5ccc([nH]5)c(-c5c(F)cc(S(=O)(=O)[O-])cc5F)c5nc(c(-c6c(F)cc(S(=O)(=O)[O-])cc6F)c6ccc3[nH]6)C=C5)C=C4)cc2)C1
REMARK SMILES IDX 25 1 24 2 23 3 22 4 21 5 19 6 20 7 18 9 5 10 6 11 97 12 7 13
REMARK SMILES IDX 8 14 17 15 9 16 2 17 1 18 3 19 4 20 10 21 11 22 12 23 13 24
REMARK SMILES IDX 16 25 14 26 15 27 26 28 27 29 28 30 29 31 30 33 31 34 32 35
REMARK SMILES IDX 96 36 33 37 95 38 34 39 35 40 36 41 89 42 37 43 94 44 88 45
REMARK SMILES IDX 90 46 38 47 93 48 87 49 86 50 39 52 73 53 52 54 72 55 53 56
REMARK SMILES IDX 56 57 71 58 91 59 54 60 55 61 70 63 92 64 57 65 40 66 41 67
REMARK SMILES IDX 50 68 42 69 43 70 49 71 51 72 44 73 45 74 46 75 47 76 48 77
REMARK SMILES IDX 74 78 75 79 84 80 76 81 77 82 83 83 85 84 78 85 79 86 80 87
REMARK SMILES IDX 81 88 82 89 58 90 59 91 68 92 60 93 61 94 67 95 69 96 62 97
REMARK SMILES IDX 63 98 64 99 65 100 66 101
REMARK H PARENT 21 8 28 32 90 51 56 62
REMARK Flexibility Score: inf
ROOT
ATOM      1  C   UNL A   1      34.696  31.145  27.727  1.00  0.00     0.002 C 
ENDROOT
BRANCH   1   2
ATOM      2  C   UNL A   1      33.248  31.173  27.231  1.00  0.00     0.002 C 
BRANCH   2   3
ATOM      3  C   UNL A   1      32.619  29.792  27.030  1.00  0.00     0.021 C 
BRANCH   3   4
ATOM      4  C   UNL A   1      33.539  28.764  26.369  1.00  0.00     0.116 C 
BRANCH   4   5
ATOM      5  N   UNL A   1      33.860  29.199  25.022  1.00  0.00    -0.356 N 
ATOM      6  C   UNL A   1      33.551  28.548  23.855  1.00  0.00     0.229 C 
ATOM      7  O   UNL A   1      34.223  28.800  22.853  1.00  0.00    -0.274 OA
ATOM      8  H   UNL A   1      34.349  30.048  24.938  1.00  0.00     0.163 HD
BRANCH   6   9
ATOM      9  C   UNL A   1      32.342  27.575  23.889  1.00  0.00     0.086 C 
ATOM     10  N   UNL A   1      30.111  28.688  23.616  1.00  0.00    -0.201 NA
ATOM     11  C   UNL A   1      29.878  27.255  23.796  1.00  0.00     0.108 C 
ATOM     12  C   UNL A   1      31.543  28.812  23.195  1.00  0.00     0.121 C 
ATOM     13  C   UNL A   1      31.187  26.673  23.312  1.00  0.00     0.042 C 
ATOM     14  C   UNL A   1      31.378  25.260  23.794  1.00  0.00     0.126 C 
ATOM     15  C   UNL A   1      33.386  26.435  23.418  1.00  0.00     0.138 C 
ATOM     16  N   UNL A   1      32.800  25.164  23.850  1.00  0.00    -0.334 N 
BRANCH  10  17
ATOM     17  S   UNL A   1      28.946  29.504  22.700  1.00  0.00     0.211 S 
ATOM     18  C   UNL A   1      28.817  31.067  23.545  1.00  0.00     0.176 C 
ATOM     19  O   UNL A   1      27.694  28.792  22.867  1.00  0.00    -0.213 OA
ATOM     20  O   UNL A   1      29.501  29.731  21.386  1.00  0.00    -0.213 OA
ENDBRANCH  10  17
BRANCH  16  21
ATOM     21  C   UNL A   1      33.361  24.064  24.488  1.00  0.00     0.289 C 
ATOM     22  O   UNL A   1      32.719  23.472  25.358  1.00  0.00    -0.265 OA
BRANCH  21  23
ATOM     23  C   UNL A   1      34.741  23.735  24.227  1.00  0.00     0.191 A 
ATOM     24  C   UNL A   1      35.813  23.720  25.102  1.00  0.00     0.056 A 
ATOM     25  O   UNL A   1      35.148  23.310  22.993  1.00  0.00    -0.459 OA
ATOM     26  C   UNL A   1      36.933  23.273  24.367  1.00  0.00     0.043 A 
ATOM     27  C   UNL A   1      36.471  23.004  23.100  1.00  0.00     0.196 A 
ENDBRANCH  21  23
ENDBRANCH  16  21
ENDBRANCH   6   9
ENDBRANCH   4   5
ENDBRANCH   3   4
ENDBRANCH   2   3
ENDBRANCH   1   2
BRANCH   1  28
ATOM     28  C   UNL A   1      35.306  32.514  28.052  1.00  0.00     0.021 C 
BRANCH  28  29
ATOM     29  C   UNL A   1      36.266  32.537  29.240  1.00  0.00     0.116 C 
BRANCH  29  30
ATOM     30  N   UNL A   1      35.907  31.574  30.267  1.00  0.00    -0.352 N 
ATOM     31  C   UNL A   1      36.597  30.468  30.699  1.00  0.00     0.251 C 
ATOM     32  H   UNL A   1      35.047  31.738  30.718  1.00  0.00     0.163 HD
ATOM     33  O   UNL A   1      36.073  29.680  31.480  1.00  0.00    -0.269 OA
BRANCH  31  34
ATOM     34  C   UNL A   1      37.963  30.216  30.195  1.00  0.00     0.039 A 
ATOM     35  C   UNL A   1      39.021  30.178  31.106  1.00  0.00     0.014 A 
ATOM     36  C   UNL A   1      38.197  30.011  28.831  1.00  0.00     0.014 A 
ATOM     37  C   UNL A   1      40.308  29.876  30.657  1.00  0.00     0.010 A 
ATOM     38  C   UNL A   1      39.473  29.653  28.395  1.00  0.00     0.010 A 
ATOM     39  C   UNL A   1      40.541  29.579  29.304  1.00  0.00    -0.014 A 
BRANCH  39  40
ATOM     40  C   UNL A   1      41.894  29.179  28.835  1.00  0.00     0.031 A 
ATOM     41  C   UNL A   1      43.001  30.194  28.750  1.00  0.00     0.074 A 
ATOM     42  C   UNL A   1      42.113  27.907  28.445  1.00  0.00     0.049 A 
ATOM     43  N   UNL A   1      44.234  30.036  28.342  1.00  0.00    -0.248 NA
ATOM     44  C   UNL A   1      42.675  31.570  29.157  1.00  0.00     0.031 C 
ATOM     45  C   UNL A   1      41.108  26.840  28.440  1.00  0.00     0.029 A 
ATOM     46  N   UNL A   1      43.247  27.294  27.972  1.00  0.00    -0.354 N 
ATOM     47  C   UNL A   1      44.829  31.288  28.437  1.00  0.00     0.074 A 
ATOM     48  C   UNL A   1      43.807  32.206  28.891  1.00  0.00     0.031 C 
ATOM     49  C   UNL A   1      41.676  25.704  28.007  1.00  0.00     0.029 A 
ATOM     50  C   UNL A   1      43.072  25.964  27.668  1.00  0.00     0.049 A 
ATOM     51  H   UNL A   1      44.106  27.763  27.862  1.00  0.00     0.167 HD
ATOM     52  C   UNL A   1      46.115  31.637  28.191  1.00  0.00     0.037 A 
ATOM     53  C   UNL A   1      43.935  25.058  27.168  1.00  0.00     0.037 A 
ATOM     54  C   UNL A   1      47.132  30.715  27.751  1.00  0.00     0.049 A 
ATOM     55  C   UNL A   1      45.355  25.472  26.889  1.00  0.00     0.074 A 
ATOM     56  C   UNL A   1      48.476  30.960  27.527  1.00  0.00     0.029 A 
ATOM     57  N   UNL A   1      46.918  29.374  27.464  1.00  0.00    -0.354 N 
ATOM     58  N   UNL A   1      45.918  26.645  27.053  1.00  0.00    -0.248 NA
ATOM     59  C   UNL A   1      46.260  24.439  26.366  1.00  0.00     0.031 C 
ATOM     60  C   UNL A   1      49.062  29.782  27.053  1.00  0.00     0.029 A 
ATOM     61  C   UNL A   1      48.099  28.786  27.040  1.00  0.00     0.049 A 
ATOM     62  H   UNL A   1      46.054  28.909  27.549  1.00  0.00     0.167 HD
ATOM     63  C   UNL A   1      47.249  26.484  26.682  1.00  0.00     0.074 A 
ATOM     64  C   UNL A   1      47.409  25.098  26.295  1.00  0.00     0.031 C 
ATOM     65  C   UNL A   1      48.248  27.402  26.665  1.00  0.00     0.037 A 
BRANCH  52  66
ATOM     66  C   UNL A   1      46.500  33.079  28.387  1.00  0.00     0.058 A 
ATOM     67  C   UNL A   1      46.475  34.000  27.326  1.00  0.00     0.135 A 
ATOM     68  C   UNL A   1      46.855  33.557  29.659  1.00  0.00     0.135 A 
ATOM     69  F   UNL A   1      46.156  33.596  26.087  1.00  0.00    -0.206 F 
ATOM     70  C   UNL A   1      46.819  35.335  27.514  1.00  0.00     0.059 A 
ATOM     71  C   UNL A   1      47.173  34.895  29.874  1.00  0.00     0.059 A 
ATOM     72  F   UNL A   1      46.894  32.722  30.709  1.00  0.00    -0.206 F 
ATOM     73  C   UNL A   1      47.165  35.773  28.793  1.00  0.00     0.060 A 
BRANCH  73  74
ATOM     74  S   UNL A   1      47.602  37.511  29.018  1.00  0.00     0.124 S 
ATOM     75  O   UNL A   1      48.410  37.763  27.829  1.00  0.00    -0.237 OA
ATOM     76  O   UNL A   1      46.295  38.159  29.044  1.00  0.00    -0.237 OA
ATOM     77  O   UNL A   1      48.329  37.519  30.283  1.00  0.00    -0.744 OA
ENDBRANCH  73  74
ENDBRANCH  52  66
BRANCH  53  78
ATOM     78  C   UNL A   1      43.482  23.663  26.914  1.00  0.00     0.058 A 
ATOM     79  C   UNL A   1      43.370  22.735  27.960  1.00  0.00     0.135 A 
ATOM     80  C   UNL A   1      43.142  23.233  25.622  1.00  0.00     0.135 A 
ATOM     81  F   UNL A   1      43.691  23.095  29.212  1.00  0.00    -0.206 F 
ATOM     82  C   UNL A   1      42.954  21.427  27.734  1.00  0.00     0.059 A 
ATOM     83  C   UNL A   1      42.696  21.938  25.374  1.00  0.00     0.059 A 
ATOM     84  F   UNL A   1      43.215  24.086  24.587  1.00  0.00    -0.206 F 
ATOM     85  C   UNL A   1      42.614  21.039  26.437  1.00  0.00     0.060 A 
BRANCH  85  86
ATOM     86  S   UNL A   1      42.025  19.354  26.162  1.00  0.00     0.124 S 
ATOM     87  O   UNL A   1      40.609  19.578  25.893  1.00  0.00    -0.237 OA
ATOM     88  O   UNL A   1      42.832  18.931  25.022  1.00  0.00    -0.237 OA
ATOM     89  O   UNL A   1      42.331  18.683  27.421  1.00  0.00    -0.744 OA
ENDBRANCH  85  86
ENDBRANCH  53  78
BRANCH  65  90
ATOM     90  C   UNL A   1      49.617  26.933  26.250  1.00  0.00     0.058 A 
ATOM     91  C   UNL A   1      50.507  26.344  27.161  1.00  0.00     0.135 A 
ATOM     92  C   UNL A   1      50.020  27.023  24.907  1.00  0.00     0.135 A 
ATOM     93  F   UNL A   1      50.175  26.239  28.459  1.00  0.00    -0.206 F 
ATOM     94  C   UNL A   1      51.755  25.879  26.760  1.00  0.00     0.059 A 
ATOM     95  C   UNL A   1      51.251  26.538  24.479  1.00  0.00     0.059 A 
ATOM     96  F   UNL A   1      49.203  27.569  23.992  1.00  0.00    -0.206 F 
ATOM     97  C   UNL A   1      52.117  25.977  25.415  1.00  0.00     0.060 A 
BRANCH  97  98
ATOM     98  S   UNL A   1      53.724  25.335  24.902  1.00  0.00     0.124 S 
ATOM     99  O   UNL A   1      53.904  25.987  23.610  1.00  0.00    -0.237 OA
ATOM    100  O   UNL A   1      54.601  25.797  25.973  1.00  0.00    -0.237 OA
ATOM    101  O   UNL A   1      53.514  23.891  24.853  1.00  0.00    -0.744 OA
ENDBRANCH  97  98
ENDBRANCH  65  90
ENDBRANCH  39  40
ENDBRANCH  31  34
ENDBRANCH  29  30
ENDBRANCH  28  29
ENDBRANCH   1  28
TORSDOF 19
ENDMDL
