MODEL 1
REMARK VINA RESULT:      -9.2      0.000      0.000
REMARK SMILES COc1ccc(NS(=O)(=O)c2cc(C(=O)NCCCCCCNC(=O)c3ccc(-c4c5nc(c(-c6c(F)cc(S(=O)(=O)[O-])cc6F)c6ccc([nH]6)c(-c6c(F)cc(S(=O)(=O)[O-])cc6F)c6nc(c(-c7c(F)cc(S(=O)(=O)[O-])cc7F)c7ccc4[nH]7)C=C6)C=C5)cc3)cc(C)c2C)c(OC)c1
REMARK SMILES IDX 19 1 18 2 17 3 16 4 14 5 15 6 13 8 11 9 12 10 95 11 93 12
REMARK SMILES IDX 96 13 92 14 94 15 8 16 9 17 10 18 7 19 6 21 3 22 4 23 100 24
REMARK SMILES IDX 5 25 97 26 2 27 1 28 98 29 99 30 20 31 21 32 22 33 23 34
REMARK SMILES IDX 24 35 25 37 26 38 27 39 91 40 28 41 90 42 29 43 30 44 31 45
REMARK SMILES IDX 84 46 32 47 89 48 83 49 85 50 33 51 88 52 82 53 81 54 34 56
REMARK SMILES IDX 68 57 47 58 67 59 48 60 51 61 66 62 86 63 49 64 50 65 65 67
REMARK SMILES IDX 87 68 52 69 35 70 36 71 45 72 37 73 38 74 44 75 46 76 39 77
REMARK SMILES IDX 40 78 41 79 42 80 43 81 69 82 70 83 79 84 71 85 72 86 78 87
REMARK SMILES IDX 80 88 73 89 74 90 75 91 76 92 77 93 53 94 54 95 63 96 55 97
REMARK SMILES IDX 56 98 62 99 64 100 57 101 58 102 59 103 60 104 61 105
REMARK H PARENT 16 7 7 20 23 36 85 55 51 66
REMARK Flexibility Score: inf
ROOT
ATOM      1  C   UNL A   1      37.836  33.679  30.733  1.00  0.00     0.002 C 
ENDROOT
BRANCH   1   2
ATOM      2  C   UNL A   1      37.289  32.891  31.928  1.00  0.00     0.021 C 
BRANCH   2   3
ATOM      3  C   UNL A   1      38.288  32.542  33.029  1.00  0.00     0.116 C 
BRANCH   3   4
ATOM      4  N   UNL A   1      37.659  32.256  34.302  1.00  0.00    -0.352 N 
ATOM      5  C   UNL A   1      38.201  31.785  35.470  1.00  0.00     0.251 C 
ATOM      6  O   UNL A   1      37.454  31.531  36.413  1.00  0.00    -0.269 OA
ATOM      7  H   UNL A   1      36.689  32.428  34.333  1.00  0.00     0.163 HD
BRANCH   5   8
ATOM      8  C   UNL A   1      39.661  31.555  35.631  1.00  0.00     0.041 A 
ATOM      9  C   UNL A   1      41.559  30.058  35.284  1.00  0.00     0.091 A 
ATOM     10  C   UNL A   1      40.202  30.387  35.093  1.00  0.00     0.036 A 
ATOM     11  C   UNL A   1      42.384  30.879  36.080  1.00  0.00    -0.028 A 
ATOM     12  C   UNL A   1      41.865  32.127  36.507  1.00  0.00    -0.046 A 
ATOM     13  C   UNL A   1      43.757  30.472  36.538  1.00  0.00     0.046 C 
ATOM     14  C   UNL A   1      40.500  32.424  36.324  1.00  0.00     0.017 A 
ATOM     15  C   UNL A   1      42.728  33.228  37.074  1.00  0.00     0.044 C 
BRANCH   9  16
ATOM     16  S   UNL A   1      42.126  28.651  34.325  1.00  0.00     0.262 S 
ATOM     17  O   UNL A   1      43.314  29.077  33.612  1.00  0.00    -0.201 OA
ATOM     18  O   UNL A   1      40.974  28.143  33.606  1.00  0.00    -0.201 OA
BRANCH  16  19
ATOM     19  N   UNL A   1      42.612  27.427  35.352  1.00  0.00    -0.276 N 
ATOM     20  H   UNL A   1      42.702  27.648  36.308  1.00  0.00     0.180 HD
BRANCH  19  21
ATOM     21  C   UNL A   1      42.909  26.088  34.958  1.00  0.00     0.091 A 
ATOM     22  C   UNL A   1      43.527  23.378  34.675  1.00  0.00     0.122 A 
ATOM     23  C   UNL A   1      44.387  24.364  34.181  1.00  0.00     0.049 A 
ATOM     24  C   UNL A   1      42.296  23.745  35.216  1.00  0.00     0.095 A 
ATOM     25  C   UNL A   1      44.066  25.718  34.284  1.00  0.00     0.034 A 
ATOM     26  C   UNL A   1      41.974  25.102  35.336  1.00  0.00     0.146 A 
BRANCH  22  27
ATOM     27  O   UNL A   1      44.038  22.111  34.633  1.00  0.00    -0.497 OA
ATOM     28  C   UNL A   1      45.295  21.885  35.255  1.00  0.00     0.278 C 
ENDBRANCH  22  27
BRANCH  26  29
ATOM     29  O   UNL A   1      40.822  25.562  35.937  1.00  0.00    -0.494 OA
ATOM     30  C   UNL A   1      40.829  25.538  37.361  1.00  0.00     0.278 C 
ENDBRANCH  26  29
ENDBRANCH  19  21
ENDBRANCH  16  19
ENDBRANCH   9  16
ENDBRANCH   5   8
ENDBRANCH   3   4
ENDBRANCH   2   3
ENDBRANCH   1   2
BRANCH   1  31
ATOM     31  C   UNL A   1      37.425  33.199  29.339  1.00  0.00     0.002 C 
BRANCH  31  32
ATOM     32  C   UNL A   1      35.975  33.452  28.923  1.00  0.00     0.021 C 
BRANCH  32  33
ATOM     33  C   UNL A   1      34.907  32.610  29.617  1.00  0.00     0.116 C 
BRANCH  33  34
ATOM     34  N   UNL A   1      34.224  31.690  28.726  1.00  0.00    -0.352 N 
ATOM     35  C   UNL A   1      34.688  30.545  28.123  1.00  0.00     0.251 C 
ATOM     36  H   UNL A   1      33.289  31.920  28.523  1.00  0.00     0.163 HD
ATOM     37  O   UNL A   1      33.968  29.946  27.328  1.00  0.00    -0.269 OA
BRANCH  35  38
ATOM     38  C   UNL A   1      36.060  30.048  28.391  1.00  0.00     0.039 A 
ATOM     39  C   UNL A   1      37.003  30.109  27.360  1.00  0.00     0.014 A 
ATOM     40  C   UNL A   1      36.422  29.516  29.633  1.00  0.00     0.014 A 
ATOM     41  C   UNL A   1      38.321  29.706  27.592  1.00  0.00     0.010 A 
ATOM     42  C   UNL A   1      37.750  29.166  29.880  1.00  0.00     0.010 A 
ATOM     43  C   UNL A   1      38.715  29.265  28.865  1.00  0.00    -0.014 A 
BRANCH  43  44
ATOM     44  C   UNL A   1      40.133  28.930  29.158  1.00  0.00     0.031 A 
ATOM     45  C   UNL A   1      41.057  29.958  29.750  1.00  0.00     0.074 A 
ATOM     46  C   UNL A   1      40.610  27.714  28.822  1.00  0.00     0.049 A 
ATOM     47  N   UNL A   1      42.337  29.870  30.003  1.00  0.00    -0.248 NA
ATOM     48  C   UNL A   1      40.466  31.263  30.082  1.00  0.00     0.031 C 
ATOM     49  C   UNL A   1      39.832  26.643  28.198  1.00  0.00     0.029 A 
ATOM     50  N   UNL A   1      41.868  27.180  28.947  1.00  0.00    -0.354 N 
ATOM     51  C   UNL A   1      42.712  31.110  30.503  1.00  0.00     0.074 A 
ATOM     52  C   UNL A   1      41.528  31.945  30.487  1.00  0.00     0.031 C 
ATOM     53  C   UNL A   1      40.626  25.578  28.004  1.00  0.00     0.029 A 
ATOM     54  C   UNL A   1      41.974  25.898  28.464  1.00  0.00     0.049 A 
ATOM     55  H   UNL A   1      42.624  27.670  29.346  1.00  0.00     0.167 HD
ATOM     56  C   UNL A   1      43.926  31.514  30.950  1.00  0.00     0.037 A 
ATOM     57  C   UNL A   1      43.037  25.074  28.389  1.00  0.00     0.037 A 
ATOM     58  C   UNL A   1      45.097  30.675  30.993  1.00  0.00     0.049 A 
ATOM     59  C   UNL A   1      44.369  25.533  28.911  1.00  0.00     0.074 A 
ATOM     60  C   UNL A   1      46.354  30.976  31.489  1.00  0.00     0.029 A 
ATOM     61  N   UNL A   1      45.155  29.373  30.521  1.00  0.00    -0.354 N 
ATOM     62  N   UNL A   1      44.692  26.692  29.430  1.00  0.00    -0.248 NA
ATOM     63  C   UNL A   1      45.479  24.573  28.839  1.00  0.00     0.031 C 
ATOM     64  C   UNL A   1      47.181  29.862  31.291  1.00  0.00     0.029 A 
ATOM     65  C   UNL A   1      46.430  28.859  30.700  1.00  0.00     0.049 A 
ATOM     66  H   UNL A   1      44.401  28.884  30.118  1.00  0.00     0.167 HD
ATOM     67  C   UNL A   1      46.038  26.597  29.763  1.00  0.00     0.074 A 
ATOM     68  C   UNL A   1      46.466  25.263  29.394  1.00  0.00     0.031 C 
ATOM     69  C   UNL A   1      46.844  27.531  30.324  1.00  0.00     0.037 A 
BRANCH  56  70
ATOM     70  C   UNL A   1      44.046  32.934  31.426  1.00  0.00     0.058 A 
ATOM     71  C   UNL A   1      44.459  33.964  30.568  1.00  0.00     0.135 A 
ATOM     72  C   UNL A   1      43.740  33.268  32.755  1.00  0.00     0.135 A 
ATOM     73  F   UNL A   1      44.776  33.694  29.291  1.00  0.00    -0.206 F 
ATOM     74  C   UNL A   1      44.601  35.272  31.018  1.00  0.00     0.059 A 
ATOM     75  C   UNL A   1      43.855  34.574  33.222  1.00  0.00     0.059 A 
ATOM     76  F   UNL A   1      43.340  32.320  33.617  1.00  0.00    -0.206 F 
ATOM     77  C   UNL A   1      44.307  35.566  32.351  1.00  0.00     0.060 A 
BRANCH  77  78
ATOM     78  S   UNL A   1      44.519  37.261  32.934  1.00  0.00     0.124 S 
ATOM     79  O   UNL A   1      43.193  37.547  33.474  1.00  0.00    -0.237 OA
ATOM     80  O   UNL A   1      45.587  37.127  33.918  1.00  0.00    -0.237 OA
ATOM     81  O   UNL A   1      44.875  37.993  31.722  1.00  0.00    -0.744 OA
ENDBRANCH  77  78
ENDBRANCH  56  70
BRANCH  57  82
ATOM     82  C   UNL A   1      42.869  23.716  27.813  1.00  0.00     0.058 A 
ATOM     83  C   UNL A   1      42.584  22.618  28.636  1.00  0.00     0.135 A 
ATOM     84  C   UNL A   1      42.944  23.499  26.428  1.00  0.00     0.135 A 
ATOM     85  F   UNL A   1      42.509  22.778  29.965  1.00  0.00    -0.206 F 
ATOM     86  C   UNL A   1      42.377  21.347  28.108  1.00  0.00     0.059 A 
ATOM     87  C   UNL A   1      42.724  22.242  25.876  1.00  0.00     0.059 A 
ATOM     88  F   UNL A   1      43.200  24.523  25.599  1.00  0.00    -0.206 F 
ATOM     89  C   UNL A   1      42.444  21.171  26.725  1.00  0.00     0.060 A 
BRANCH  89  90
ATOM     90  S   UNL A   1      42.094  19.538  26.038  1.00  0.00     0.124 S 
ATOM     91  O   UNL A   1      42.510  18.665  27.130  1.00  0.00    -0.237 OA
ATOM     92  O   UNL A   1      40.657  19.609  25.789  1.00  0.00    -0.237 OA
ATOM     93  O   UNL A   1      42.926  19.495  24.839  1.00  0.00    -0.744 OA
ENDBRANCH  89  90
ENDBRANCH  57  82
BRANCH  69  94
ATOM     94  C   UNL A   1      48.271  27.141  30.584  1.00  0.00     0.058 A 
ATOM     95  C   UNL A   1      49.269  27.326  29.614  1.00  0.00     0.135 A 
ATOM     96  C   UNL A   1      48.651  26.615  31.829  1.00  0.00     0.135 A 
ATOM     97  F   UNL A   1      48.952  27.817  28.405  1.00  0.00    -0.206 F 
ATOM     98  C   UNL A   1      50.594  26.988  29.864  1.00  0.00     0.059 A 
ATOM     99  C   UNL A   1      49.975  26.287  32.106  1.00  0.00     0.059 A 
ATOM    100  F   UNL A   1      47.735  26.426  32.790  1.00  0.00    -0.206 F 
ATOM    101  C   UNL A   1      50.938  26.467  31.113  1.00  0.00     0.060 A 
BRANCH 101 102
ATOM    102  S   UNL A   1      52.667  26.062  31.442  1.00  0.00     0.124 S 
ATOM    103  O   UNL A   1      53.017  27.064  32.443  1.00  0.00    -0.237 OA
ATOM    104  O   UNL A   1      52.584  24.686  31.922  1.00  0.00    -0.237 OA
ATOM    105  O   UNL A   1      53.304  26.225  30.138  1.00  0.00    -0.744 OA
ENDBRANCH 101 102
ENDBRANCH  69  94
ENDBRANCH  43  44
ENDBRANCH  35  38
ENDBRANCH  33  34
ENDBRANCH  32  33
ENDBRANCH  31  32
ENDBRANCH   1  31
TORSDOF 21
ENDMDL
MODEL 2
REMARK VINA RESULT:      -8.9      4.797      9.144
REMARK SMILES COc1ccc(NS(=O)(=O)c2cc(C(=O)NCCCCCCNC(=O)c3ccc(-c4c5nc(c(-c6c(F)cc(S(=O)(=O)[O-])cc6F)c6ccc([nH]6)c(-c6c(F)cc(S(=O)(=O)[O-])cc6F)c6nc(c(-c7c(F)cc(S(=O)(=O)[O-])cc7F)c7ccc4[nH]7)C=C6)C=C5)cc3)cc(C)c2C)c(OC)c1
REMARK SMILES IDX 19 1 18 2 17 3 16 4 14 5 15 6 13 8 11 9 12 10 95 11 93 12
REMARK SMILES IDX 96 13 92 14 94 15 8 16 9 17 10 18 7 19 6 21 3 22 4 23 100 24
REMARK SMILES IDX 5 25 97 26 2 27 1 28 98 29 99 30 20 31 21 32 22 33 23 34
REMARK SMILES IDX 24 35 25 37 26 38 27 39 91 40 28 41 90 42 29 43 30 44 31 45
REMARK SMILES IDX 84 46 32 47 89 48 83 49 85 50 33 51 88 52 82 53 81 54 34 56
REMARK SMILES IDX 68 57 47 58 67 59 48 60 51 61 66 62 86 63 49 64 50 65 65 67
REMARK SMILES IDX 87 68 52 69 35 70 36 71 45 72 37 73 38 74 44 75 46 76 39 77
REMARK SMILES IDX 40 78 41 79 42 80 43 81 69 82 70 83 79 84 71 85 72 86 78 87
REMARK SMILES IDX 80 88 73 89 74 90 75 91 76 92 77 93 53 94 54 95 63 96 55 97
REMARK SMILES IDX 56 98 62 99 64 100 57 101 58 102 59 103 60 104 61 105
REMARK H PARENT 16 7 7 20 23 36 85 55 51 66
REMARK Flexibility Score: inf
ROOT
ATOM      1  C   UNL A   1      33.369  26.863  22.297  1.00  0.00     0.002 C 
ENDROOT
BRANCH   1   2
ATOM      2  C   UNL A   1      32.625  25.571  21.945  1.00  0.00     0.021 C 
BRANCH   2   3
ATOM      3  C   UNL A   1      33.280  24.672  20.900  1.00  0.00     0.116 C 
BRANCH   3   4
ATOM      4  N   UNL A   1      32.684  23.353  20.827  1.00  0.00    -0.352 N 
ATOM      5  C   UNL A   1      32.618  22.359  21.770  1.00  0.00     0.251 C 
ATOM      6  O   UNL A   1      32.133  21.274  21.456  1.00  0.00    -0.269 OA
ATOM      7  H   UNL A   1      32.259  23.137  19.965  1.00  0.00     0.163 HD
BRANCH   5   8
ATOM      8  C   UNL A   1      33.128  22.543  23.154  1.00  0.00     0.041 A 
ATOM      9  C   UNL A   1      32.606  22.997  25.496  1.00  0.00     0.091 A 
ATOM     10  C   UNL A   1      32.196  22.728  24.175  1.00  0.00     0.036 A 
ATOM     11  C   UNL A   1      33.976  23.147  25.797  1.00  0.00    -0.028 A 
ATOM     12  C   UNL A   1      34.917  22.825  24.788  1.00  0.00    -0.046 A 
ATOM     13  C   UNL A   1      34.477  23.680  27.111  1.00  0.00     0.046 C 
ATOM     14  C   UNL A   1      34.484  22.580  23.471  1.00  0.00     0.017 A 
ATOM     15  C   UNL A   1      36.387  22.626  25.066  1.00  0.00     0.044 C 
BRANCH   9  16
ATOM     16  S   UNL A   1      31.282  22.968  26.708  1.00  0.00     0.262 S 
ATOM     17  O   UNL A   1      31.894  22.705  27.995  1.00  0.00    -0.201 OA
ATOM     18  O   UNL A   1      30.255  22.090  26.183  1.00  0.00    -0.201 OA
BRANCH  16  19
ATOM     19  N   UNL A   1      30.589  24.483  26.821  1.00  0.00    -0.276 N 
ATOM     20  H   UNL A   1      30.223  24.748  27.696  1.00  0.00     0.180 HD
BRANCH  19  21
ATOM     21  C   UNL A   1      30.481  25.424  25.753  1.00  0.00     0.091 A 
ATOM     22  C   UNL A   1      29.950  27.500  23.961  1.00  0.00     0.122 A 
ATOM     23  C   UNL A   1      29.614  26.179  23.646  1.00  0.00     0.049 A 
ATOM     24  C   UNL A   1      30.655  27.772  25.133  1.00  0.00     0.095 A 
ATOM     25  C   UNL A   1      29.912  25.132  24.520  1.00  0.00     0.034 A 
ATOM     26  C   UNL A   1      30.944  26.729  26.020  1.00  0.00     0.146 A 
BRANCH  22  27
ATOM     27  O   UNL A   1      29.469  28.429  23.082  1.00  0.00    -0.497 OA
ATOM     28  C   UNL A   1      30.413  29.233  22.388  1.00  0.00     0.278 C 
ENDBRANCH  22  27
BRANCH  26  29
ATOM     29  O   UNL A   1      31.558  26.913  27.240  1.00  0.00    -0.494 OA
ATOM     30  C   UNL A   1      31.404  28.211  27.807  1.00  0.00     0.278 C 
ENDBRANCH  26  29
ENDBRANCH  19  21
ENDBRANCH  16  19
ENDBRANCH   9  16
ENDBRANCH   5   8
ENDBRANCH   3   4
ENDBRANCH   2   3
ENDBRANCH   1   2
BRANCH   1  31
ATOM     31  C   UNL A   1      33.781  27.049  23.759  1.00  0.00     0.002 C 
BRANCH  31  32
ATOM     32  C   UNL A   1      33.875  28.488  24.272  1.00  0.00     0.021 C 
BRANCH  32  33
ATOM     33  C   UNL A   1      34.252  28.669  25.739  1.00  0.00     0.116 C 
BRANCH  33  34
ATOM     34  N   UNL A   1      33.928  29.982  26.265  1.00  0.00    -0.352 N 
ATOM     35  C   UNL A   1      34.543  30.707  27.258  1.00  0.00     0.251 C 
ATOM     36  H   UNL A   1      33.150  30.419  25.848  1.00  0.00     0.163 HD
ATOM     37  O   UNL A   1      34.056  31.777  27.616  1.00  0.00    -0.269 OA
BRANCH  35  38
ATOM     38  C   UNL A   1      35.763  30.193  27.928  1.00  0.00     0.039 A 
ATOM     39  C   UNL A   1      37.000  30.404  27.309  1.00  0.00     0.014 A 
ATOM     40  C   UNL A   1      35.702  29.500  29.141  1.00  0.00     0.014 A 
ATOM     41  C   UNL A   1      38.177  29.988  27.938  1.00  0.00     0.010 A 
ATOM     42  C   UNL A   1      36.880  29.134  29.794  1.00  0.00     0.010 A 
ATOM     43  C   UNL A   1      38.130  29.381  29.203  1.00  0.00    -0.014 A 
BRANCH  43  44
ATOM     44  C   UNL A   1      39.375  29.026  29.932  1.00  0.00     0.031 A 
ATOM     45  C   UNL A   1      39.795  29.796  31.153  1.00  0.00     0.074 A 
ATOM     46  C   UNL A   1      40.169  28.048  29.450  1.00  0.00     0.049 A 
ATOM     47  N   UNL A   1      40.883  29.677  31.870  1.00  0.00    -0.248 NA
ATOM     48  C   UNL A   1      38.882  30.853  31.614  1.00  0.00     0.031 C 
ATOM     49  C   UNL A   1      39.900  27.256  28.248  1.00  0.00     0.029 A 
ATOM     50  N   UNL A   1      41.369  27.563  29.905  1.00  0.00    -0.354 N 
ATOM     51  C   UNL A   1      40.798  30.654  32.854  1.00  0.00     0.074 A 
ATOM     52  C   UNL A   1      39.566  31.379  32.620  1.00  0.00     0.031 C 
ATOM     53  C   UNL A   1      40.900  26.378  28.067  1.00  0.00     0.029 A 
ATOM     54  C   UNL A   1      41.893  26.563  29.121  1.00  0.00     0.049 A 
ATOM     55  H   UNL A   1      41.814  27.900  30.716  1.00  0.00     0.167 HD
ATOM     56  C   UNL A   1      41.658  30.915  33.868  1.00  0.00     0.037 A 
ATOM     57  C   UNL A   1      43.047  25.876  29.231  1.00  0.00     0.037 A 
ATOM     58  C   UNL A   1      42.869  30.175  34.118  1.00  0.00     0.049 A 
ATOM     59  C   UNL A   1      43.975  26.164  30.376  1.00  0.00     0.074 A 
ATOM     60  C   UNL A   1      43.769  30.323  35.160  1.00  0.00     0.029 A 
ATOM     61  N   UNL A   1      43.349  29.149  33.318  1.00  0.00    -0.354 N 
ATOM     62  N   UNL A   1      43.851  27.057  31.329  1.00  0.00    -0.248 NA
ATOM     63  C   UNL A   1      45.196  25.353  30.464  1.00  0.00     0.031 C 
ATOM     64  C   UNL A   1      44.810  29.404  34.973  1.00  0.00     0.029 A 
ATOM     65  C   UNL A   1      44.540  28.664  33.833  1.00  0.00     0.049 A 
ATOM     66  H   UNL A   1      42.907  28.814  32.504  1.00  0.00     0.167 HD
ATOM     67  C   UNL A   1      44.970  26.904  32.139  1.00  0.00     0.074 A 
ATOM     68  C   UNL A   1      45.755  25.827  31.570  1.00  0.00     0.031 C 
ATOM     69  C   UNL A   1      45.314  27.595  33.254  1.00  0.00     0.037 A 
BRANCH  56  70
ATOM     70  C   UNL A   1      41.315  32.055  34.784  1.00  0.00     0.058 A 
ATOM     71  C   UNL A   1      40.472  31.879  35.892  1.00  0.00     0.135 A 
ATOM     72  C   UNL A   1      41.839  33.337  34.554  1.00  0.00     0.135 A 
ATOM     73  F   UNL A   1      39.935  30.675  36.148  1.00  0.00    -0.206 F 
ATOM     74  C   UNL A   1      40.129  32.942  36.720  1.00  0.00     0.059 A 
ATOM     75  C   UNL A   1      41.526  34.411  35.382  1.00  0.00     0.059 A 
ATOM     76  F   UNL A   1      42.650  33.560  33.508  1.00  0.00    -0.206 F 
ATOM     77  C   UNL A   1      40.653  34.208  36.451  1.00  0.00     0.060 A 
BRANCH  77  78
ATOM     78  S   UNL A   1      40.182  35.588  37.516  1.00  0.00     0.124 S 
ATOM     79  O   UNL A   1      39.049  35.018  38.239  1.00  0.00    -0.237 OA
ATOM     80  O   UNL A   1      41.390  35.808  38.303  1.00  0.00    -0.237 OA
ATOM     81  O   UNL A   1      39.853  36.648  36.568  1.00  0.00    -0.744 OA
ENDBRANCH  77  78
ENDBRANCH  56  70
BRANCH  57  82
ATOM     82  C   UNL A   1      43.371  24.828  28.230  1.00  0.00     0.058 A 
ATOM     83  C   UNL A   1      42.962  23.501  28.423  1.00  0.00     0.135 A 
ATOM     84  C   UNL A   1      44.053  25.141  27.045  1.00  0.00     0.135 A 
ATOM     85  F   UNL A   1      42.313  23.156  29.546  1.00  0.00    -0.206 F 
ATOM     86  C   UNL A   1      43.216  22.516  27.474  1.00  0.00     0.059 A 
ATOM     87  C   UNL A   1      44.304  24.177  26.074  1.00  0.00     0.059 A 
ATOM     88  F   UNL A   1      44.451  26.400  26.809  1.00  0.00    -0.206 F 
ATOM     89  C   UNL A   1      43.884  22.866  26.300  1.00  0.00     0.060 A 
BRANCH  89  90
ATOM     90  S   UNL A   1      44.138  21.602  25.034  1.00  0.00     0.124 S 
ATOM     91  O   UNL A   1      45.500  21.170  25.322  1.00  0.00    -0.237 OA
ATOM     92  O   UNL A   1      43.084  20.641  25.341  1.00  0.00    -0.237 OA
ATOM     93  O   UNL A   1      43.958  22.340  23.787  1.00  0.00    -0.744 OA
ENDBRANCH  89  90
ENDBRANCH  57  82
BRANCH  69  94
ATOM     94  C   UNL A   1      46.591  27.200  33.940  1.00  0.00     0.058 A 
ATOM     95  C   UNL A   1      47.812  27.813  33.622  1.00  0.00     0.135 A 
ATOM     96  C   UNL A   1      46.584  26.229  34.954  1.00  0.00     0.135 A 
ATOM     97  F   UNL A   1      47.870  28.741  32.654  1.00  0.00    -0.206 F 
ATOM     98  C   UNL A   1      48.990  27.466  34.275  1.00  0.00     0.059 A 
ATOM     99  C   UNL A   1      47.747  25.879  35.633  1.00  0.00     0.059 A 
ATOM    100  F   UNL A   1      45.440  25.619  35.298  1.00  0.00    -0.206 F 
ATOM    101  C   UNL A   1      48.948  26.496  35.279  1.00  0.00     0.060 A 
BRANCH 101 102
ATOM    102  S   UNL A   1      50.474  26.074  36.146  1.00  0.00     0.124 S 
ATOM    103  O   UNL A   1      51.425  25.993  35.042  1.00  0.00    -0.237 OA
ATOM    104  O   UNL A   1      50.648  27.206  37.051  1.00  0.00    -0.237 OA
ATOM    105  O   UNL A   1      50.155  24.806  36.795  1.00  0.00    -0.744 OA
ENDBRANCH 101 102
ENDBRANCH  69  94
ENDBRANCH  43  44
ENDBRANCH  35  38
ENDBRANCH  33  34
ENDBRANCH  32  33
ENDBRANCH  31  32
ENDBRANCH   1  31
TORSDOF 21
ENDMDL
MODEL 3
REMARK VINA RESULT:      -8.9      2.418      8.970
REMARK SMILES COc1ccc(NS(=O)(=O)c2cc(C(=O)NCCCCCCNC(=O)c3ccc(-c4c5nc(c(-c6c(F)cc(S(=O)(=O)[O-])cc6F)c6ccc([nH]6)c(-c6c(F)cc(S(=O)(=O)[O-])cc6F)c6nc(c(-c7c(F)cc(S(=O)(=O)[O-])cc7F)c7ccc4[nH]7)C=C6)C=C5)cc3)cc(C)c2C)c(OC)c1
REMARK SMILES IDX 19 1 18 2 17 3 16 4 14 5 15 6 13 8 11 9 12 10 95 11 93 12
REMARK SMILES IDX 96 13 92 14 94 15 8 16 9 17 10 18 7 19 6 21 3 22 4 23 100 24
REMARK SMILES IDX 5 25 97 26 2 27 1 28 98 29 99 30 20 31 21 32 22 33 23 34
REMARK SMILES IDX 24 35 25 37 26 38 27 39 91 40 28 41 90 42 29 43 30 44 31 45
REMARK SMILES IDX 84 46 32 47 89 48 83 49 85 50 33 51 88 52 82 53 81 54 34 56
REMARK SMILES IDX 68 57 47 58 67 59 48 60 51 61 66 62 86 63 49 64 50 65 65 67
REMARK SMILES IDX 87 68 52 69 35 70 36 71 45 72 37 73 38 74 44 75 46 76 39 77
REMARK SMILES IDX 40 78 41 79 42 80 43 81 69 82 70 83 79 84 71 85 72 86 78 87
REMARK SMILES IDX 80 88 73 89 74 90 75 91 76 92 77 93 53 94 54 95 63 96 55 97
REMARK SMILES IDX 56 98 62 99 64 100 57 101 58 102 59 103 60 104 61 105
REMARK H PARENT 16 7 7 20 23 36 85 55 51 66
REMARK Flexibility Score: inf
ROOT
ATOM      1  C   UNL A   1      38.442  33.997  28.816  1.00  0.00     0.002 C 
ENDROOT
BRANCH   1   2
ATOM      2  C   UNL A   1      38.869  35.024  29.869  1.00  0.00     0.021 C 
BRANCH   2   3
ATOM      3  C   UNL A   1      38.714  34.606  31.329  1.00  0.00     0.116 C 
BRANCH   3   4
ATOM      4  N   UNL A   1      37.338  34.620  31.784  1.00  0.00    -0.352 N 
ATOM      5  C   UNL A   1      36.700  33.816  32.695  1.00  0.00     0.251 C 
ATOM      6  O   UNL A   1      35.490  33.955  32.865  1.00  0.00    -0.269 OA
ATOM      7  H   UNL A   1      36.773  35.315  31.376  1.00  0.00     0.163 HD
BRANCH   5   8
ATOM      8  C   UNL A   1      37.418  32.772  33.472  1.00  0.00     0.041 A 
ATOM      9  C   UNL A   1      38.068  31.925  35.668  1.00  0.00     0.091 A 
ATOM     10  C   UNL A   1      37.342  32.826  34.864  1.00  0.00     0.036 A 
ATOM     11  C   UNL A   1      38.938  30.986  35.075  1.00  0.00    -0.028 A 
ATOM     12  C   UNL A   1      38.905  30.848  33.665  1.00  0.00    -0.046 A 
ATOM     13  C   UNL A   1      39.928  30.170  35.859  1.00  0.00     0.046 C 
ATOM     14  C   UNL A   1      38.189  31.774  32.882  1.00  0.00     0.017 A 
ATOM     15  C   UNL A   1      39.526  29.681  32.937  1.00  0.00     0.044 C 
BRANCH   9  16
ATOM     16  S   UNL A   1      37.663  31.992  37.415  1.00  0.00     0.262 S 
ATOM     17  O   UNL A   1      37.369  30.636  37.833  1.00  0.00    -0.201 OA
ATOM     18  O   UNL A   1      36.680  33.046  37.576  1.00  0.00    -0.201 OA
BRANCH  16  19
ATOM     19  N   UNL A   1      39.005  32.469  38.287  1.00  0.00    -0.276 N 
ATOM     20  H   UNL A   1      39.230  31.947  39.092  1.00  0.00     0.180 HD
BRANCH  19  21
ATOM     21  C   UNL A   1      39.851  33.572  37.964  1.00  0.00     0.091 A 
ATOM     22  C   UNL A   1      41.667  35.688  37.797  1.00  0.00     0.122 A 
ATOM     23  C   UNL A   1      40.294  35.911  37.657  1.00  0.00     0.049 A 
ATOM     24  C   UNL A   1      42.146  34.384  37.912  1.00  0.00     0.095 A 
ATOM     25  C   UNL A   1      39.384  34.853  37.700  1.00  0.00     0.034 A 
ATOM     26  C   UNL A   1      41.238  33.320  37.970  1.00  0.00     0.146 A 
BRANCH  22  27
ATOM     27  O   UNL A   1      42.418  36.827  37.879  1.00  0.00    -0.497 OA
ATOM     28  C   UNL A   1      42.495  37.478  39.139  1.00  0.00     0.278 C 
ENDBRANCH  22  27
BRANCH  26  29
ATOM     29  O   UNL A   1      41.611  32.009  38.170  1.00  0.00    -0.494 OA
ATOM     30  C   UNL A   1      42.958  31.700  37.820  1.00  0.00     0.278 C 
ENDBRANCH  26  29
ENDBRANCH  19  21
ENDBRANCH  16  19
ENDBRANCH   9  16
ENDBRANCH   5   8
ENDBRANCH   3   4
ENDBRANCH   2   3
ENDBRANCH   1   2
BRANCH   1  31
ATOM     31  C   UNL A   1      37.411  32.950  29.245  1.00  0.00     0.002 C 
BRANCH  31  32
ATOM     32  C   UNL A   1      35.975  33.158  28.760  1.00  0.00     0.021 C 
BRANCH  32  33
ATOM     33  C   UNL A   1      34.884  32.393  29.503  1.00  0.00     0.116 C 
BRANCH  33  34
ATOM     34  N   UNL A   1      34.210  31.401  28.686  1.00  0.00    -0.352 N 
ATOM     35  C   UNL A   1      34.706  30.258  28.106  1.00  0.00     0.251 C 
ATOM     36  H   UNL A   1      33.255  31.573  28.522  1.00  0.00     0.163 HD
ATOM     37  O   UNL A   1      33.982  29.589  27.373  1.00  0.00    -0.269 OA
BRANCH  35  38
ATOM     38  C   UNL A   1      36.115  29.846  28.323  1.00  0.00     0.039 A 
ATOM     39  C   UNL A   1      37.015  29.969  27.259  1.00  0.00     0.014 A 
ATOM     40  C   UNL A   1      36.552  29.332  29.547  1.00  0.00     0.014 A 
ATOM     41  C   UNL A   1      38.363  29.648  27.443  1.00  0.00     0.010 A 
ATOM     42  C   UNL A   1      37.908  29.064  29.746  1.00  0.00     0.010 A 
ATOM     43  C   UNL A   1      38.828  29.227  28.698  1.00  0.00    -0.014 A 
BRANCH  43  44
ATOM     44  C   UNL A   1      40.274  28.979  28.939  1.00  0.00     0.031 A 
ATOM     45  C   UNL A   1      40.896  27.660  28.574  1.00  0.00     0.074 A 
ATOM     46  C   UNL A   1      41.015  29.923  29.554  1.00  0.00     0.049 A 
ATOM     47  N   UNL A   1      42.118  27.240  28.778  1.00  0.00    -0.248 NA
ATOM     48  C   UNL A   1      40.023  26.678  27.914  1.00  0.00     0.031 C 
ATOM     49  C   UNL A   1      40.521  31.227  30.001  1.00  0.00     0.029 A 
ATOM     50  N   UNL A   1      42.337  29.925  29.920  1.00  0.00    -0.354 N 
ATOM     51  C   UNL A   1      42.158  25.939  28.291  1.00  0.00     0.074 A 
ATOM     52  C   UNL A   1      40.827  25.629  27.813  1.00  0.00     0.031 C 
ATOM     53  C   UNL A   1      41.529  31.906  30.572  1.00  0.00     0.029 A 
ATOM     54  C   UNL A   1      42.731  31.078  30.557  1.00  0.00     0.049 A 
ATOM     55  H   UNL A   1      42.946  29.172  29.744  1.00  0.00     0.167 HD
ATOM     56  C   UNL A   1      43.210  25.086  28.234  1.00  0.00     0.037 A 
ATOM     57  C   UNL A   1      43.923  31.428  31.079  1.00  0.00     0.037 A 
ATOM     58  C   UNL A   1      44.541  25.405  28.683  1.00  0.00     0.049 A 
ATOM     59  C   UNL A   1      45.082  30.477  30.984  1.00  0.00     0.074 A 
ATOM     60  C   UNL A   1      45.685  24.629  28.605  1.00  0.00     0.029 A 
ATOM     61  N   UNL A   1      44.906  26.594  29.296  1.00  0.00    -0.354 N 
ATOM     62  N   UNL A   1      45.114  29.271  30.472  1.00  0.00    -0.248 NA
ATOM     63  C   UNL A   1      46.365  30.933  31.535  1.00  0.00     0.031 C 
ATOM     64  C   UNL A   1      46.737  25.340  29.197  1.00  0.00     0.029 A 
ATOM     65  C   UNL A   1      46.254  26.570  29.615  1.00  0.00     0.049 A 
ATOM     66  H   UNL A   1      44.297  27.347  29.476  1.00  0.00     0.167 HD
ATOM     67  C   UNL A   1      46.423  28.829  30.623  1.00  0.00     0.074 A 
ATOM     68  C   UNL A   1      47.154  29.902  31.267  1.00  0.00     0.031 C 
ATOM     69  C   UNL A   1      46.969  27.642  30.260  1.00  0.00     0.037 A 
BRANCH  56  70
ATOM     70  C   UNL A   1      42.956  23.720  27.663  1.00  0.00     0.058 A 
ATOM     71  C   UNL A   1      42.658  22.624  28.487  1.00  0.00     0.135 A 
ATOM     72  C   UNL A   1      43.007  23.505  26.276  1.00  0.00     0.135 A 
ATOM     73  F   UNL A   1      42.610  22.774  29.820  1.00  0.00    -0.206 F 
ATOM     74  C   UNL A   1      42.455  21.353  27.960  1.00  0.00     0.059 A 
ATOM     75  C   UNL A   1      42.787  22.246  25.726  1.00  0.00     0.059 A 
ATOM     76  F   UNL A   1      43.288  24.520  25.444  1.00  0.00    -0.206 F 
ATOM     77  C   UNL A   1      42.532  21.172  26.578  1.00  0.00     0.060 A 
BRANCH  77  78
ATOM     78  S   UNL A   1      42.294  19.513  25.905  1.00  0.00     0.124 S 
ATOM     79  O   UNL A   1      40.906  19.582  25.458  1.00  0.00    -0.237 OA
ATOM     80  O   UNL A   1      43.297  19.453  24.847  1.00  0.00    -0.237 OA
ATOM     81  O   UNL A   1      42.543  18.645  27.051  1.00  0.00    -0.744 OA
ENDBRANCH  77  78
ENDBRANCH  56  70
BRANCH  57  82
ATOM     82  C   UNL A   1      44.077  32.758  31.720  1.00  0.00     0.058 A 
ATOM     83  C   UNL A   1      44.504  33.867  30.976  1.00  0.00     0.135 A 
ATOM     84  C   UNL A   1      43.757  32.956  33.072  1.00  0.00     0.135 A 
ATOM     85  F   UNL A   1      44.827  33.722  29.682  1.00  0.00    -0.206 F 
ATOM     86  C   UNL A   1      44.609  35.130  31.549  1.00  0.00     0.059 A 
ATOM     87  C   UNL A   1      43.838  34.213  33.662  1.00  0.00     0.059 A 
ATOM     88  F   UNL A   1      43.329  31.927  33.820  1.00  0.00    -0.206 F 
ATOM     89  C   UNL A   1      44.269  35.294  32.893  1.00  0.00     0.060 A 
BRANCH  89  90
ATOM     90  S   UNL A   1      44.327  36.950  33.610  1.00  0.00     0.124 S 
ATOM     91  O   UNL A   1      43.855  37.768  32.499  1.00  0.00    -0.237 OA
ATOM     92  O   UNL A   1      43.417  36.828  34.745  1.00  0.00    -0.237 OA
ATOM     93  O   UNL A   1      45.735  37.111  33.963  1.00  0.00    -0.744 OA
ENDBRANCH  89  90
ENDBRANCH  57  82
BRANCH  69  94
ATOM     94  C   UNL A   1      48.431  27.444  30.541  1.00  0.00     0.058 A 
ATOM     95  C   UNL A   1      48.873  26.853  31.734  1.00  0.00     0.135 A 
ATOM     96  C   UNL A   1      49.396  27.809  29.589  1.00  0.00     0.135 A 
ATOM     97  F   UNL A   1      47.988  26.495  32.679  1.00  0.00    -0.206 F 
ATOM     98  C   UNL A   1      50.225  26.646  31.984  1.00  0.00     0.059 A 
ATOM     99  C   UNL A   1      50.752  27.594  29.809  1.00  0.00     0.059 A 
ATOM    100  F   UNL A   1      49.022  28.370  28.429  1.00  0.00    -0.206 F 
ATOM    101  C   UNL A   1      51.159  27.021  31.015  1.00  0.00     0.060 A 
BRANCH 101 102
ATOM    102  S   UNL A   1      52.910  26.718  31.331  1.00  0.00     0.124 S 
ATOM    103  O   UNL A   1      52.848  25.741  32.413  1.00  0.00    -0.237 OA
ATOM    104  O   UNL A   1      53.381  26.211  30.045  1.00  0.00    -0.237 OA
ATOM    105  O   UNL A   1      53.419  28.036  31.701  1.00  0.00    -0.744 OA
ENDBRANCH 101 102
ENDBRANCH  69  94
ENDBRANCH  43  44
ENDBRANCH  35  38
ENDBRANCH  33  34
ENDBRANCH  32  33
ENDBRANCH  31  32
ENDBRANCH   1  31
TORSDOF 21
ENDMDL
