MODEL 1
REMARK VINA RESULT:     -11.6      0.000      0.000
REMARK SMILES O=C(COc1ccccc1[C@@H]1[NH2+]CCc2cc(O)c(O)cc21)NCCCCCCNC(=O)c1ccc(-c2c3nc(c(-c4c(F)cc(S(=O)(=O)[O-])cc4F)c4ccc([nH]4)c(-c4c(F)cc(S(=O)(=O)[O-])cc4F)c4nc(c(-c5c(F)cc(S(=O)(=O)[O-])cc5F)c5ccc2[nH]5)C=C4)C=C3)cc1
REMARK SMILES IDX 26 1 25 2 24 3 23 4 1 5 2 6 3 8 4 9 5 10 6 11 10 12 7 13
REMARK SMILES IDX 9 14 8 15 11 16 12 17 22 18 13 19 15 22 21 23 14 24 16 25
REMARK SMILES IDX 19 26 17 27 20 28 18 30 27 32 28 33 29 34 30 35 31 36 32 38
REMARK SMILES IDX 33 39 34 40 98 41 35 42 97 43 36 44 37 45 38 46 91 47 39 48
REMARK SMILES IDX 96 49 90 50 92 51 40 52 95 53 89 54 88 55 41 57 75 58 54 59
REMARK SMILES IDX 74 60 55 61 58 62 73 63 93 64 56 65 57 66 72 68 94 69 59 70
REMARK SMILES IDX 42 71 43 72 52 73 44 74 45 75 51 76 53 77 46 78 47 79 48 80
REMARK SMILES IDX 49 81 50 82 76 83 77 84 86 85 78 86 79 87 85 88 87 89 80 90
REMARK SMILES IDX 81 91 82 92 83 93 84 94 60 95 61 96 70 97 62 98 63 99 69 100
REMARK SMILES IDX 71 101 64 102 65 103 66 104 67 105 68 106
REMARK H PARENT 23 7 12 20 12 21 20 29 18 31 30 37 92 56 58 67
REMARK Flexibility Score: inf
ROOT
ATOM      1  C   UNL A   1      36.857  23.220  24.756  1.00  0.00     0.002 C 
ENDROOT
BRANCH   1   2
ATOM      2  C   UNL A   1      36.362  21.798  24.494  1.00  0.00     0.021 C 
BRANCH   2   3
ATOM      3  C   UNL A   1      35.934  21.066  25.755  1.00  0.00     0.116 C 
BRANCH   3   4
ATOM      4  N   UNL A   1      34.498  20.976  25.914  1.00  0.00    -0.353 N 
ATOM      5  O   UNL A   1      34.357  22.534  27.591  1.00  0.00    -0.271 OA
ATOM      6  C   UNL A   1      33.806  21.827  26.750  1.00  0.00     0.257 C 
ATOM      7  H   UNL A   1      34.002  20.290  25.412  1.00  0.00     0.163 HD
BRANCH   6   8
ATOM      8  C   UNL A   1      32.286  21.824  26.542  1.00  0.00     0.329 C 
BRANCH   8   9
ATOM      9  O   UNL A   1      31.734  22.468  25.413  1.00  0.00    -0.483 OA
BRANCH   9  10
ATOM     10  C   UNL A   1      32.314  23.430  24.635  1.00  0.00     0.129 A 
ATOM     11  C   UNL A   1      32.682  22.847  23.402  1.00  0.00     0.047 A 
ATOM     12  C   UNL A   1      32.702  24.763  24.904  1.00  0.00     0.056 A 
ATOM     13  C   UNL A   1      33.515  23.491  22.494  1.00  0.00     0.004 A 
ATOM     14  C   UNL A   1      33.636  25.348  24.009  1.00  0.00     0.014 A 
ATOM     15  C   UNL A   1      34.040  24.724  22.827  1.00  0.00     0.001 A 
BRANCH  12  16
ATOM     16  C   UNL A   1      32.238  25.608  26.090  1.00  0.00     0.249 C 
ATOM     17  N   UNL A   1      30.818  25.389  26.413  1.00  0.00    -0.336 N 
ATOM     18  C   UNL A   1      32.428  27.130  26.072  1.00  0.00     0.021 A 
ATOM     19  C   UNL A   1      29.892  25.958  25.425  1.00  0.00     0.266 C 
ATOM     20  H   UNL A   1      30.626  25.816  27.319  1.00  0.00     0.347 HD
ATOM     21  H   UNL A   1      30.667  24.379  26.418  1.00  0.00     0.347 HD
ATOM     22  C   UNL A   1      31.451  27.900  25.397  1.00  0.00    -0.029 A 
ATOM     23  C   UNL A   1      33.391  27.767  26.873  1.00  0.00     0.060 A 
ATOM     24  C   UNL A   1      30.421  27.144  24.603  1.00  0.00     0.097 C 
ATOM     25  C   UNL A   1      31.405  29.284  25.556  1.00  0.00     0.054 A 
ATOM     26  C   UNL A   1      33.314  29.145  27.044  1.00  0.00     0.157 A 
ATOM     27  C   UNL A   1      32.318  29.887  26.406  1.00  0.00     0.157 A 
BRANCH  26  28
ATOM     28  O   UNL A   1      34.162  29.821  27.878  1.00  0.00    -0.504 OA
ATOM     29  H   UNL A   1      34.106  30.754  27.947  1.00  0.00     0.293 HD
ENDBRANCH  26  28
BRANCH  27  30
ATOM     30  O   UNL A   1      32.204  31.224  26.657  1.00  0.00    -0.504 OA
ATOM     31  H   UNL A   1      32.430  31.847  25.995  1.00  0.00     0.293 HD
ENDBRANCH  27  30
ENDBRANCH  12  16
ENDBRANCH   9  10
ENDBRANCH   8   9
ENDBRANCH   6   8
ENDBRANCH   3   4
ENDBRANCH   2   3
ENDBRANCH   1   2
BRANCH   1  32
ATOM     32  C   UNL A   1      37.679  23.384  26.036  1.00  0.00     0.002 C 
BRANCH  32  33
ATOM     33  C   UNL A   1      38.983  22.584  26.069  1.00  0.00     0.021 C 
BRANCH  33  34
ATOM     34  C   UNL A   1      40.078  23.193  26.937  1.00  0.00     0.116 C 
BRANCH  34  35
ATOM     35  N   UNL A   1      41.261  23.537  26.166  1.00  0.00    -0.352 N 
ATOM     36  C   UNL A   1      41.986  24.703  26.167  1.00  0.00     0.251 C 
ATOM     37  H   UNL A   1      41.588  22.836  25.556  1.00  0.00     0.163 HD
ATOM     38  O   UNL A   1      42.847  24.896  25.318  1.00  0.00    -0.269 OA
BRANCH  36  39
ATOM     39  C   UNL A   1      41.698  25.730  27.189  1.00  0.00     0.039 A 
ATOM     40  C   UNL A   1      40.650  25.515  28.087  1.00  0.00     0.014 A 
ATOM     41  C   UNL A   1      42.473  26.890  27.272  1.00  0.00     0.014 A 
ATOM     42  C   UNL A   1      40.416  26.440  29.106  1.00  0.00     0.010 A 
ATOM     43  C   UNL A   1      42.286  27.771  28.333  1.00  0.00     0.010 A 
ATOM     44  C   UNL A   1      41.254  27.557  29.258  1.00  0.00    -0.014 A 
BRANCH  44  45
ATOM     45  C   UNL A   1      41.069  28.511  30.381  1.00  0.00     0.031 A 
ATOM     46  C   UNL A   1      41.922  28.394  31.616  1.00  0.00     0.074 A 
ATOM     47  C   UNL A   1      40.090  29.436  30.315  1.00  0.00     0.049 A 
ATOM     48  N   UNL A   1      41.864  29.084  32.726  1.00  0.00    -0.248 NA
ATOM     49  C   UNL A   1      42.958  27.348  31.617  1.00  0.00     0.031 C 
ATOM     50  C   UNL A   1      39.169  29.616  29.190  1.00  0.00     0.029 A 
ATOM     51  N   UNL A   1      39.696  30.392  31.218  1.00  0.00    -0.354 N 
ATOM     52  C   UNL A   1      42.834  28.542  33.561  1.00  0.00     0.074 A 
ATOM     53  C   UNL A   1      43.440  27.440  32.849  1.00  0.00     0.031 C 
ATOM     54  C   UNL A   1      38.334  30.631  29.460  1.00  0.00     0.029 A 
ATOM     55  C   UNL A   1      38.627  31.149  30.794  1.00  0.00     0.049 A 
ATOM     56  H   UNL A   1      40.136  30.525  32.088  1.00  0.00     0.167 HD
ATOM     57  C   UNL A   1      43.196  28.940  34.803  1.00  0.00     0.037 A 
ATOM     58  C   UNL A   1      37.952  32.136  31.414  1.00  0.00     0.037 A 
ATOM     59  C   UNL A   1      42.615  30.066  35.489  1.00  0.00     0.049 A 
ATOM     60  C   UNL A   1      38.381  32.558  32.796  1.00  0.00     0.074 A 
ATOM     61  C   UNL A   1      42.976  30.603  36.712  1.00  0.00     0.029 A 
ATOM     62  N   UNL A   1      41.551  30.820  35.018  1.00  0.00    -0.354 N 
ATOM     63  N   UNL A   1      39.359  32.091  33.534  1.00  0.00    -0.248 NA
ATOM     64  C   UNL A   1      37.616  33.641  33.427  1.00  0.00     0.031 C 
ATOM     65  C   UNL A   1      42.092  31.644  37.008  1.00  0.00     0.029 A 
ATOM     66  C   UNL A   1      41.219  31.795  35.942  1.00  0.00     0.049 A 
ATOM     67  H   UNL A   1      41.099  30.681  34.155  1.00  0.00     0.167 HD
ATOM     68  C   UNL A   1      39.351  32.850  34.699  1.00  0.00     0.074 A 
ATOM     69  C   UNL A   1      38.277  33.812  34.564  1.00  0.00     0.031 C 
ATOM     70  C   UNL A   1      40.159  32.760  35.784  1.00  0.00     0.037 A 
BRANCH  57  71
ATOM     71  C   UNL A   1      44.271  28.163  35.514  1.00  0.00     0.058 A 
ATOM     72  C   UNL A   1      45.631  28.476  35.372  1.00  0.00     0.135 A 
ATOM     73  C   UNL A   1      43.925  27.138  36.411  1.00  0.00     0.135 A 
ATOM     74  F   UNL A   1      46.019  29.435  34.516  1.00  0.00    -0.206 F 
ATOM     75  C   UNL A   1      46.613  27.793  36.083  1.00  0.00     0.059 A 
ATOM     76  C   UNL A   1      44.887  26.461  37.154  1.00  0.00     0.059 A 
ATOM     77  F   UNL A   1      42.639  26.795  36.582  1.00  0.00    -0.206 F 
ATOM     78  C   UNL A   1      46.230  26.792  36.978  1.00  0.00     0.060 A 
BRANCH  78  79
ATOM     79  S   UNL A   1      47.514  25.946  37.923  1.00  0.00     0.124 S 
ATOM     80  O   UNL A   1      47.827  24.821  37.047  1.00  0.00    -0.237 OA
ATOM     81  O   UNL A   1      48.546  26.971  38.033  1.00  0.00    -0.237 OA
ATOM     82  O   UNL A   1      46.843  25.597  39.172  1.00  0.00    -0.744 OA
ENDBRANCH  78  79
ENDBRANCH  57  71
BRANCH  58  83
ATOM     83  C   UNL A   1      36.805  32.805  30.741  1.00  0.00     0.058 A 
ATOM     84  C   UNL A   1      37.013  33.784  29.758  1.00  0.00     0.135 A 
ATOM     85  C   UNL A   1      35.479  32.500  31.085  1.00  0.00     0.135 A 
ATOM     86  F   UNL A   1      38.262  34.115  29.396  1.00  0.00    -0.206 F 
ATOM     87  C   UNL A   1      35.954  34.465  29.167  1.00  0.00     0.059 A 
ATOM     88  C   UNL A   1      34.401  33.144  30.486  1.00  0.00     0.059 A 
ATOM     89  F   UNL A   1      35.220  31.557  32.005  1.00  0.00    -0.206 F 
ATOM     90  C   UNL A   1      34.649  34.139  29.542  1.00  0.00     0.060 A 
BRANCH  90  91
ATOM     91  S   UNL A   1      33.278  35.021  28.764  1.00  0.00     0.124 S 
ATOM     92  O   UNL A   1      32.768  34.013  27.842  1.00  0.00    -0.237 OA
ATOM     93  O   UNL A   1      32.427  35.333  29.907  1.00  0.00    -0.237 OA
ATOM     94  O   UNL A   1      33.930  36.171  28.144  1.00  0.00    -0.744 OA
ENDBRANCH  90  91
ENDBRANCH  58  83
BRANCH  70  95
ATOM     95  C   UNL A   1      39.952  33.754  36.892  1.00  0.00     0.058 A 
ATOM     96  C   UNL A   1      40.653  34.969  36.939  1.00  0.00     0.135 A 
ATOM     97  C   UNL A   1      38.991  33.513  37.889  1.00  0.00     0.135 A 
ATOM     98  F   UNL A   1      41.586  35.247  36.016  1.00  0.00    -0.206 F 
ATOM     99  C   UNL A   1      40.425  35.900  37.949  1.00  0.00     0.059 A 
ATOM    100  C   UNL A   1      38.725  34.443  38.888  1.00  0.00     0.059 A 
ATOM    101  F   UNL A   1      38.284  32.371  37.885  1.00  0.00    -0.206 F 
ATOM    102  C   UNL A   1      39.456  35.629  38.916  1.00  0.00     0.060 A 
BRANCH 102 103
ATOM    103  S   UNL A   1      39.142  36.864  40.194  1.00  0.00     0.124 S 
ATOM    104  O   UNL A   1      38.548  37.947  39.417  1.00  0.00    -0.237 OA
ATOM    105  O   UNL A   1      38.235  36.158  41.094  1.00  0.00    -0.237 OA
ATOM    106  O   UNL A   1      40.469  37.136  40.739  1.00  0.00    -0.744 OA
ENDBRANCH 102 103
ENDBRANCH  70  95
ENDBRANCH  44  45
ENDBRANCH  36  39
ENDBRANCH  34  35
ENDBRANCH  33  34
ENDBRANCH  32  33
ENDBRANCH   1  32
TORSDOF 21
ENDMDL
MODEL 2
REMARK VINA RESULT:     -11.5      6.140     11.680
REMARK SMILES O=C(COc1ccccc1[C@@H]1[NH2+]CCc2cc(O)c(O)cc21)NCCCCCCNC(=O)c1ccc(-c2c3nc(c(-c4c(F)cc(S(=O)(=O)[O-])cc4F)c4ccc([nH]4)c(-c4c(F)cc(S(=O)(=O)[O-])cc4F)c4nc(c(-c5c(F)cc(S(=O)(=O)[O-])cc5F)c5ccc2[nH]5)C=C4)C=C3)cc1
REMARK SMILES IDX 26 1 25 2 24 3 23 4 1 5 2 6 3 8 4 9 5 10 6 11 10 12 7 13
REMARK SMILES IDX 9 14 8 15 11 16 12 17 22 18 13 19 15 22 21 23 14 24 16 25
REMARK SMILES IDX 19 26 17 27 20 28 18 30 27 32 28 33 29 34 30 35 31 36 32 38
REMARK SMILES IDX 33 39 34 40 98 41 35 42 97 43 36 44 37 45 38 46 91 47 39 48
REMARK SMILES IDX 96 49 90 50 92 51 40 52 95 53 89 54 88 55 41 57 75 58 54 59
REMARK SMILES IDX 74 60 55 61 58 62 73 63 93 64 56 65 57 66 72 68 94 69 59 70
REMARK SMILES IDX 42 71 43 72 52 73 44 74 45 75 51 76 53 77 46 78 47 79 48 80
REMARK SMILES IDX 49 81 50 82 76 83 77 84 86 85 78 86 79 87 85 88 87 89 80 90
REMARK SMILES IDX 81 91 82 92 83 93 84 94 60 95 61 96 70 97 62 98 63 99 69 100
REMARK SMILES IDX 71 101 64 102 65 103 66 104 67 105 68 106
REMARK H PARENT 23 7 12 20 12 21 20 29 18 31 30 37 92 56 58 67
REMARK Flexibility Score: inf
ROOT
ATOM      1  C   UNL A   1      32.904  28.554  27.130  1.00  0.00     0.002 C 
ENDROOT
BRANCH   1   2
ATOM      2  C   UNL A   1      31.851  29.627  26.857  1.00  0.00     0.021 C 
BRANCH   2   3
ATOM      3  C   UNL A   1      31.670  29.935  25.379  1.00  0.00     0.116 C 
BRANCH   3   4
ATOM      4  N   UNL A   1      31.810  28.776  24.524  1.00  0.00    -0.353 N 
ATOM      5  O   UNL A   1      29.831  29.079  23.405  1.00  0.00    -0.271 OA
ATOM      6  C   UNL A   1      30.918  28.514  23.505  1.00  0.00     0.257 C 
ATOM      7  H   UNL A   1      32.561  28.158  24.673  1.00  0.00     0.163 HD
BRANCH   6   8
ATOM      8  C   UNL A   1      31.397  27.461  22.498  1.00  0.00     0.329 C 
BRANCH   8   9
ATOM      9  O   UNL A   1      31.238  26.089  22.792  1.00  0.00    -0.483 OA
BRANCH   9  10
ATOM     10  C   UNL A   1      31.456  25.461  23.986  1.00  0.00     0.129 A 
ATOM     11  C   UNL A   1      30.277  25.545  24.759  1.00  0.00     0.047 A 
ATOM     12  C   UNL A   1      32.622  24.919  24.576  1.00  0.00     0.056 A 
ATOM     13  C   UNL A   1      30.249  25.228  26.112  1.00  0.00     0.004 A 
ATOM     14  C   UNL A   1      32.588  24.708  25.980  1.00  0.00     0.014 A 
ATOM     15  C   UNL A   1      31.425  24.863  26.737  1.00  0.00     0.001 A 
BRANCH  12  16
ATOM     16  C   UNL A   1      33.920  24.582  23.844  1.00  0.00     0.249 C 
ATOM     17  N   UNL A   1      33.680  24.045  22.494  1.00  0.00    -0.336 N 
ATOM     18  C   UNL A   1      34.945  23.639  24.488  1.00  0.00     0.021 A 
ATOM     19  C   UNL A   1      33.123  22.685  22.489  1.00  0.00     0.266 C 
ATOM     20  H   UNL A   1      34.567  24.032  21.991  1.00  0.00     0.347 HD
ATOM     21  H   UNL A   1      32.989  24.652  22.051  1.00  0.00     0.347 HD
ATOM     22  C   UNL A   1      34.732  22.247  24.337  1.00  0.00    -0.029 A 
ATOM     23  C   UNL A   1      36.162  24.109  25.008  1.00  0.00     0.060 A 
ATOM     24  C   UNL A   1      33.426  21.822  23.724  1.00  0.00     0.097 C 
ATOM     25  C   UNL A   1      35.739  21.338  24.658  1.00  0.00     0.054 A 
ATOM     26  C   UNL A   1      37.166  23.191  25.296  1.00  0.00     0.157 A 
ATOM     27  C   UNL A   1      36.958  21.824  25.103  1.00  0.00     0.157 A 
BRANCH  26  28
ATOM     28  O   UNL A   1      38.406  23.582  25.721  1.00  0.00    -0.504 OA
ATOM     29  H   UNL A   1      39.166  23.103  25.454  1.00  0.00     0.293 HD
ENDBRANCH  26  28
BRANCH  27  30
ATOM     30  O   UNL A   1      37.985  20.947  25.305  1.00  0.00    -0.504 OA
ATOM     31  H   UNL A   1      38.784  21.042  24.824  1.00  0.00     0.293 HD
ENDBRANCH  27  30
ENDBRANCH  12  16
ENDBRANCH   9  10
ENDBRANCH   8   9
ENDBRANCH   6   8
ENDBRANCH   3   4
ENDBRANCH   2   3
ENDBRANCH   1   2
BRANCH   1  32
ATOM     32  C   UNL A   1      34.320  29.092  27.353  1.00  0.00     0.002 C 
BRANCH  32  33
ATOM     33  C   UNL A   1      34.422  30.617  27.427  1.00  0.00     0.021 C 
BRANCH  33  34
ATOM     34  C   UNL A   1      35.625  31.134  28.208  1.00  0.00     0.116 C 
BRANCH  34  35
ATOM     35  N   UNL A   1      35.459  30.969  29.643  1.00  0.00    -0.352 N 
ATOM     36  C   UNL A   1      36.343  30.466  30.564  1.00  0.00     0.251 C 
ATOM     37  H   UNL A   1      34.590  31.258  30.004  1.00  0.00     0.163 HD
ATOM     38  O   UNL A   1      35.974  30.224  31.707  1.00  0.00    -0.269 OA
BRANCH  36  39
ATOM     39  C   UNL A   1      37.737  30.198  30.154  1.00  0.00     0.039 A 
ATOM     40  C   UNL A   1      38.703  29.985  31.140  1.00  0.00     0.014 A 
ATOM     41  C   UNL A   1      38.083  30.141  28.801  1.00  0.00     0.014 A 
ATOM     42  C   UNL A   1      40.007  29.655  30.766  1.00  0.00     0.010 A 
ATOM     43  C   UNL A   1      39.363  29.738  28.433  1.00  0.00     0.010 A 
ATOM     44  C   UNL A   1      40.339  29.495  29.411  1.00  0.00    -0.014 A 
BRANCH  44  45
ATOM     45  C   UNL A   1      41.700  29.070  28.996  1.00  0.00     0.031 A 
ATOM     46  C   UNL A   1      42.819  30.075  28.947  1.00  0.00     0.074 A 
ATOM     47  C   UNL A   1      41.909  27.798  28.600  1.00  0.00     0.049 A 
ATOM     48  N   UNL A   1      44.054  29.914  28.545  1.00  0.00    -0.248 NA
ATOM     49  C   UNL A   1      42.506  31.447  29.380  1.00  0.00     0.031 C 
ATOM     50  C   UNL A   1      40.891  26.745  28.559  1.00  0.00     0.029 A 
ATOM     51  N   UNL A   1      43.044  27.175  28.143  1.00  0.00    -0.354 N 
ATOM     52  C   UNL A   1      44.654  31.163  28.653  1.00  0.00     0.074 A 
ATOM     53  C   UNL A   1      43.641  32.082  29.119  1.00  0.00     0.031 C 
ATOM     54  C   UNL A   1      41.451  25.605  28.124  1.00  0.00     0.029 A 
ATOM     55  C   UNL A   1      42.856  25.852  27.812  1.00  0.00     0.049 A 
ATOM     56  H   UNL A   1      43.911  27.631  28.060  1.00  0.00     0.167 HD
ATOM     57  C   UNL A   1      45.939  31.506  28.401  1.00  0.00     0.037 A 
ATOM     58  C   UNL A   1      43.713  24.946  27.303  1.00  0.00     0.037 A 
ATOM     59  C   UNL A   1      46.953  30.575  27.977  1.00  0.00     0.049 A 
ATOM     60  C   UNL A   1      45.137  25.359  27.035  1.00  0.00     0.074 A 
ATOM     61  C   UNL A   1      48.303  30.808  27.783  1.00  0.00     0.029 A 
ATOM     62  N   UNL A   1      46.728  29.241  27.674  1.00  0.00    -0.354 N 
ATOM     63  N   UNL A   1      45.708  26.524  27.228  1.00  0.00    -0.248 NA
ATOM     64  C   UNL A   1      46.034  24.334  26.484  1.00  0.00     0.031 C 
ATOM     65  C   UNL A   1      48.883  29.630  27.305  1.00  0.00     0.029 A 
ATOM     66  C   UNL A   1      47.908  28.647  27.260  1.00  0.00     0.049 A 
ATOM     67  H   UNL A   1      45.859  28.785  27.742  1.00  0.00     0.167 HD
ATOM     68  C   UNL A   1      47.039  26.360  26.859  1.00  0.00     0.074 A 
ATOM     69  C   UNL A   1      47.190  24.982  26.440  1.00  0.00     0.031 C 
ATOM     70  C   UNL A   1      48.047  27.267  26.865  1.00  0.00     0.037 A 
BRANCH  57  71
ATOM     71  C   UNL A   1      46.337  32.947  28.576  1.00  0.00     0.058 A 
ATOM     72  C   UNL A   1      46.259  33.872  27.523  1.00  0.00     0.135 A 
ATOM     73  C   UNL A   1      46.728  33.424  29.838  1.00  0.00     0.135 A 
ATOM     74  F   UNL A   1      45.906  33.468  26.292  1.00  0.00    -0.206 F 
ATOM     75  C   UNL A   1      46.566  35.215  27.711  1.00  0.00     0.059 A 
ATOM     76  C   UNL A   1      47.013  34.768  30.056  1.00  0.00     0.059 A 
ATOM     77  F   UNL A   1      46.824  32.582  30.879  1.00  0.00    -0.206 F 
ATOM     78  C   UNL A   1      46.936  35.655  28.984  1.00  0.00     0.060 A 
BRANCH  78  79
ATOM     79  S   UNL A   1      47.291  37.410  29.218  1.00  0.00     0.124 S 
ATOM     80  O   UNL A   1      48.240  37.662  28.138  1.00  0.00    -0.237 OA
ATOM     81  O   UNL A   1      45.974  38.018  29.060  1.00  0.00    -0.237 OA
ATOM     82  O   UNL A   1      47.847  37.467  30.567  1.00  0.00    -0.744 OA
ENDBRANCH  78  79
ENDBRANCH  57  71
BRANCH  58  83
ATOM     83  C   UNL A   1      43.261  23.557  27.015  1.00  0.00     0.058 A 
ATOM     84  C   UNL A   1      43.139  22.609  28.041  1.00  0.00     0.135 A 
ATOM     85  C   UNL A   1      42.969  23.141  25.707  1.00  0.00     0.135 A 
ATOM     86  F   UNL A   1      43.411  22.955  29.309  1.00  0.00    -0.206 F 
ATOM     87  C   UNL A   1      42.781  21.290  27.780  1.00  0.00     0.059 A 
ATOM     88  C   UNL A   1      42.579  21.836  25.423  1.00  0.00     0.059 A 
ATOM     89  F   UNL A   1      43.049  24.012  24.688  1.00  0.00    -0.206 F 
ATOM     90  C   UNL A   1      42.507  20.913  26.465  1.00  0.00     0.060 A 
BRANCH  90  91
ATOM     91  S   UNL A   1      42.035  19.201  26.135  1.00  0.00     0.124 S 
ATOM     92  O   UNL A   1      40.592  19.323  25.967  1.00  0.00    -0.237 OA
ATOM     93  O   UNL A   1      42.797  18.900  24.927  1.00  0.00    -0.237 OA
ATOM     94  O   UNL A   1      42.474  18.496  27.335  1.00  0.00    -0.744 OA
ENDBRANCH  90  91
ENDBRANCH  58  83
BRANCH  70  95
ATOM     95  C   UNL A   1      49.414  26.794  26.455  1.00  0.00     0.058 A 
ATOM     96  C   UNL A   1      50.275  26.146  27.353  1.00  0.00     0.135 A 
ATOM     97  C   UNL A   1      49.842  26.938  25.124  1.00  0.00     0.135 A 
ATOM     98  F   UNL A   1      49.918  25.989  28.637  1.00  0.00    -0.206 F 
ATOM     99  C   UNL A   1      51.523  25.678  26.953  1.00  0.00     0.059 A 
ATOM    100  C   UNL A   1      51.071  26.449  24.695  1.00  0.00     0.059 A 
ATOM    101  F   UNL A   1      49.052  27.540  24.220  1.00  0.00    -0.206 F 
ATOM    102  C   UNL A   1      51.910  25.830  25.621  1.00  0.00     0.060 A 
BRANCH 102 103
ATOM    103  S   UNL A   1      53.513  25.181  25.106  1.00  0.00     0.124 S 
ATOM    104  O   UNL A   1      53.599  25.664  23.732  1.00  0.00    -0.237 OA
ATOM    105  O   UNL A   1      54.424  25.810  26.058  1.00  0.00    -0.237 OA
ATOM    106  O   UNL A   1      53.360  23.737  25.256  1.00  0.00    -0.744 OA
ENDBRANCH 102 103
ENDBRANCH  70  95
ENDBRANCH  44  45
ENDBRANCH  36  39
ENDBRANCH  34  35
ENDBRANCH  33  34
ENDBRANCH  32  33
ENDBRANCH   1  32
TORSDOF 21
ENDMDL
MODEL 3
REMARK VINA RESULT:     -11.4      6.094     11.892
REMARK SMILES O=C(COc1ccccc1[C@@H]1[NH2+]CCc2cc(O)c(O)cc21)NCCCCCCNC(=O)c1ccc(-c2c3nc(c(-c4c(F)cc(S(=O)(=O)[O-])cc4F)c4ccc([nH]4)c(-c4c(F)cc(S(=O)(=O)[O-])cc4F)c4nc(c(-c5c(F)cc(S(=O)(=O)[O-])cc5F)c5ccc2[nH]5)C=C4)C=C3)cc1
REMARK SMILES IDX 26 1 25 2 24 3 23 4 1 5 2 6 3 8 4 9 5 10 6 11 10 12 7 13
REMARK SMILES IDX 9 14 8 15 11 16 12 17 22 18 13 19 15 22 21 23 14 24 16 25
REMARK SMILES IDX 19 26 17 27 20 28 18 30 27 32 28 33 29 34 30 35 31 36 32 38
REMARK SMILES IDX 33 39 34 40 98 41 35 42 97 43 36 44 37 45 38 46 91 47 39 48
REMARK SMILES IDX 96 49 90 50 92 51 40 52 95 53 89 54 88 55 41 57 75 58 54 59
REMARK SMILES IDX 74 60 55 61 58 62 73 63 93 64 56 65 57 66 72 68 94 69 59 70
REMARK SMILES IDX 42 71 43 72 52 73 44 74 45 75 51 76 53 77 46 78 47 79 48 80
REMARK SMILES IDX 49 81 50 82 76 83 77 84 86 85 78 86 79 87 85 88 87 89 80 90
REMARK SMILES IDX 81 91 82 92 83 93 84 94 60 95 61 96 70 97 62 98 63 99 69 100
REMARK SMILES IDX 71 101 64 102 65 103 66 104 67 105 68 106
REMARK H PARENT 23 7 12 20 12 21 20 29 18 31 30 37 92 56 58 67
REMARK Flexibility Score: inf
ROOT
ATOM      1  C   UNL A   1      33.393  30.504  27.275  1.00  0.00     0.002 C 
ENDROOT
BRANCH   1   2
ATOM      2  C   UNL A   1      33.073  29.009  27.250  1.00  0.00     0.021 C 
BRANCH   2   3
ATOM      3  C   UNL A   1      31.585  28.711  27.155  1.00  0.00     0.116 C 
BRANCH   3   4
ATOM      4  N   UNL A   1      31.273  27.299  27.197  1.00  0.00    -0.353 N 
ATOM      5  O   UNL A   1      30.617  27.145  25.005  1.00  0.00    -0.271 OA
ATOM      6  C   UNL A   1      30.927  26.598  26.061  1.00  0.00     0.257 C 
ATOM      7  H   UNL A   1      31.308  26.826  28.059  1.00  0.00     0.163 HD
BRANCH   6   8
ATOM      8  C   UNL A   1      30.965  25.073  26.221  1.00  0.00     0.329 C 
BRANCH   8   9
ATOM      9  O   UNL A   1      32.207  24.401  26.221  1.00  0.00    -0.483 OA
BRANCH   9  10
ATOM     10  C   UNL A   1      32.957  24.035  25.139  1.00  0.00     0.129 A 
ATOM     11  C   UNL A   1      33.706  25.154  24.713  1.00  0.00     0.047 A 
ATOM     12  C   UNL A   1      32.987  22.856  24.357  1.00  0.00     0.056 A 
ATOM     13  C   UNL A   1      34.373  25.184  23.494  1.00  0.00     0.004 A 
ATOM     14  C   UNL A   1      33.585  22.956  23.073  1.00  0.00     0.014 A 
ATOM     15  C   UNL A   1      34.262  24.100  22.645  1.00  0.00     0.001 A 
BRANCH  12  16
ATOM     16  C   UNL A   1      32.396  21.504  24.756  1.00  0.00     0.249 C 
ATOM     17  N   UNL A   1      32.466  21.268  26.208  1.00  0.00    -0.336 N 
ATOM     18  C   UNL A   1      32.912  20.216  24.102  1.00  0.00     0.021 A 
ATOM     19  C   UNL A   1      33.826  21.013  26.700  1.00  0.00     0.266 C 
ATOM     20  H   UNL A   1      31.886  20.459  26.430  1.00  0.00     0.347 HD
ATOM     21  H   UNL A   1      32.138  22.120  26.664  1.00  0.00     0.347 HD
ATOM     22  C   UNL A   1      34.087  19.638  24.641  1.00  0.00    -0.029 A 
ATOM     23  C   UNL A   1      32.148  19.502  23.163  1.00  0.00     0.060 A 
ATOM     24  C   UNL A   1      34.822  20.439  25.681  1.00  0.00     0.097 C 
ATOM     25  C   UNL A   1      34.470  18.346  24.284  1.00  0.00     0.054 A 
ATOM     26  C   UNL A   1      32.528  18.204  22.839  1.00  0.00     0.157 A 
ATOM     27  C   UNL A   1      33.665  17.631  23.411  1.00  0.00     0.157 A 
BRANCH  26  28
ATOM     28  O   UNL A   1      31.784  17.419  22.002  1.00  0.00    -0.504 OA
ATOM     29  H   UNL A   1      32.169  16.664  21.602  1.00  0.00     0.293 HD
ENDBRANCH  26  28
BRANCH  27  30
ATOM     30  O   UNL A   1      33.970  16.326  23.150  1.00  0.00    -0.504 OA
ATOM     31  H   UNL A   1      33.817  15.970  22.296  1.00  0.00     0.293 HD
ENDBRANCH  27  30
ENDBRANCH  12  16
ENDBRANCH   9  10
ENDBRANCH   8   9
ENDBRANCH   6   8
ENDBRANCH   3   4
ENDBRANCH   2   3
ENDBRANCH   1   2
BRANCH   1  32
ATOM     32  C   UNL A   1      34.861  30.837  27.552  1.00  0.00     0.002 C 
BRANCH  32  33
ATOM     33  C   UNL A   1      35.119  32.275  28.004  1.00  0.00     0.021 C 
BRANCH  33  34
ATOM     34  C   UNL A   1      36.224  32.425  29.043  1.00  0.00     0.116 C 
BRANCH  34  35
ATOM     35  N   UNL A   1      35.860  31.833  30.320  1.00  0.00    -0.352 N 
ATOM     36  C   UNL A   1      36.448  30.788  30.989  1.00  0.00     0.251 C 
ATOM     37  H   UNL A   1      35.082  32.239  30.767  1.00  0.00     0.163 HD
ATOM     38  O   UNL A   1      35.900  30.295  31.967  1.00  0.00    -0.269 OA
BRANCH  36  39
ATOM     39  C   UNL A   1      37.735  30.253  30.501  1.00  0.00     0.039 A 
ATOM     40  C   UNL A   1      37.949  30.156  29.124  1.00  0.00     0.014 A 
ATOM     41  C   UNL A   1      38.733  29.867  31.400  1.00  0.00     0.014 A 
ATOM     42  C   UNL A   1      39.189  29.725  28.649  1.00  0.00     0.010 A 
ATOM     43  C   UNL A   1      39.990  29.511  30.924  1.00  0.00     0.010 A 
ATOM     44  C   UNL A   1      40.230  29.432  29.545  1.00  0.00    -0.014 A 
BRANCH  44  45
ATOM     45  C   UNL A   1      41.579  29.046  29.058  1.00  0.00     0.031 A 
ATOM     46  C   UNL A   1      42.668  30.081  28.958  1.00  0.00     0.074 A 
ATOM     47  C   UNL A   1      41.800  27.782  28.642  1.00  0.00     0.049 A 
ATOM     48  N   UNL A   1      43.884  29.955  28.492  1.00  0.00    -0.248 NA
ATOM     49  C   UNL A   1      42.342  31.441  29.416  1.00  0.00     0.031 C 
ATOM     50  C   UNL A   1      40.810  26.703  28.646  1.00  0.00     0.029 A 
ATOM     51  N   UNL A   1      42.926  27.192  28.123  1.00  0.00    -0.354 N 
ATOM     52  C   UNL A   1      44.456  31.218  28.578  1.00  0.00     0.074 A 
ATOM     53  C   UNL A   1      43.444  32.108  29.102  1.00  0.00     0.031 C 
ATOM     54  C   UNL A   1      41.376  25.581  28.175  1.00  0.00     0.029 A 
ATOM     55  C   UNL A   1      42.756  25.867  27.793  1.00  0.00     0.049 A 
ATOM     56  H   UNL A   1      43.776  27.671  27.999  1.00  0.00     0.167 HD
ATOM     57  C   UNL A   1      45.717  31.597  28.263  1.00  0.00     0.037 A 
ATOM     58  C   UNL A   1      43.609  24.987  27.234  1.00  0.00     0.037 A 
ATOM     59  C   UNL A   1      46.731  30.696  27.781  1.00  0.00     0.049 A 
ATOM     60  C   UNL A   1      45.007  25.438  26.896  1.00  0.00     0.074 A 
ATOM     61  C   UNL A   1      48.063  30.965  27.519  1.00  0.00     0.029 A 
ATOM     62  N   UNL A   1      46.527  29.358  27.480  1.00  0.00    -0.354 N 
ATOM     63  N   UNL A   1      45.556  26.617  27.068  1.00  0.00    -0.248 NA
ATOM     64  C   UNL A   1      45.900  24.441  26.292  1.00  0.00     0.031 C 
ATOM     65  C   UNL A   1      48.649  29.805  27.004  1.00  0.00     0.029 A 
ATOM     66  C   UNL A   1      47.699  28.797  27.002  1.00  0.00     0.049 A 
ATOM     67  H   UNL A   1      45.674  28.878  27.589  1.00  0.00     0.167 HD
ATOM     68  C   UNL A   1      46.870  26.490  26.629  1.00  0.00     0.074 A 
ATOM     69  C   UNL A   1      47.035  25.119  26.193  1.00  0.00     0.031 C 
ATOM     70  C   UNL A   1      47.853  27.424  26.590  1.00  0.00     0.037 A 
BRANCH  57  71
ATOM     71  C   UNL A   1      46.086  33.047  28.427  1.00  0.00     0.058 A 
ATOM     72  C   UNL A   1      45.924  33.976  27.388  1.00  0.00     0.135 A 
ATOM     73  C   UNL A   1      46.534  33.525  29.670  1.00  0.00     0.135 A 
ATOM     74  F   UNL A   1      45.515  33.571  26.175  1.00  0.00    -0.206 F 
ATOM     75  C   UNL A   1      46.206  35.326  27.570  1.00  0.00     0.059 A 
ATOM     76  C   UNL A   1      46.795  34.875  29.883  1.00  0.00     0.059 A 
ATOM     77  F   UNL A   1      46.710  32.679  30.696  1.00  0.00    -0.206 F 
ATOM     78  C   UNL A   1      46.634  35.767  28.824  1.00  0.00     0.060 A 
BRANCH  78  79
ATOM     79  S   UNL A   1      46.955  37.529  29.053  1.00  0.00     0.124 S 
ATOM     80  O   UNL A   1      45.709  38.117  28.570  1.00  0.00    -0.237 OA
ATOM     81  O   UNL A   1      47.184  37.620  30.490  1.00  0.00    -0.237 OA
ATOM     82  O   UNL A   1      48.127  37.773  28.216  1.00  0.00    -0.744 OA
ENDBRANCH  78  79
ENDBRANCH  57  71
BRANCH  58  83
ATOM     83  C   UNL A   1      43.180  23.588  26.959  1.00  0.00     0.058 A 
ATOM     84  C   UNL A   1      43.024  22.661  28.001  1.00  0.00     0.135 A 
ATOM     85  C   UNL A   1      42.942  23.141  25.650  1.00  0.00     0.135 A 
ATOM     86  F   UNL A   1      43.243  23.037  29.271  1.00  0.00    -0.206 F 
ATOM     87  C   UNL A   1      42.687  21.334  27.756  1.00  0.00     0.059 A 
ATOM     88  C   UNL A   1      42.573  21.827  25.381  1.00  0.00     0.059 A 
ATOM     89  F   UNL A   1      43.056  23.990  24.616  1.00  0.00    -0.206 F 
ATOM     90  C   UNL A   1      42.468  20.926  26.439  1.00  0.00     0.060 A 
BRANCH  90  91
ATOM     91  S   UNL A   1      42.022  19.204  26.129  1.00  0.00     0.124 S 
ATOM     92  O   UNL A   1      40.598  19.318  25.839  1.00  0.00    -0.237 OA
ATOM     93  O   UNL A   1      42.880  18.863  24.999  1.00  0.00    -0.237 OA
ATOM     94  O   UNL A   1      42.360  18.540  27.385  1.00  0.00    -0.744 OA
ENDBRANCH  90  91
ENDBRANCH  58  83
BRANCH  70  95
ATOM     95  C   UNL A   1      49.209  26.990  26.107  1.00  0.00     0.058 A 
ATOM     96  C   UNL A   1      49.622  27.187  24.781  1.00  0.00     0.135 A 
ATOM     97  C   UNL A   1      50.130  26.423  27.004  1.00  0.00     0.135 A 
ATOM     98  F   UNL A   1      48.779  27.717  23.882  1.00  0.00    -0.206 F 
ATOM     99  C   UNL A   1      50.893  26.816  24.354  1.00  0.00     0.059 A 
ATOM    100  C   UNL A   1      51.417  26.075  26.606  1.00  0.00     0.059 A 
ATOM    101  F   UNL A   1      49.791  26.223  28.287  1.00  0.00    -0.206 F 
ATOM    102  C   UNL A   1      51.785  26.265  25.276  1.00  0.00     0.060 A 
BRANCH 102 103
ATOM    103  S   UNL A   1      53.445  25.827  24.718  1.00  0.00     0.124 S 
ATOM    104  O   UNL A   1      54.141  27.105  24.835  1.00  0.00    -0.237 OA
ATOM    105  O   UNL A   1      53.837  24.802  25.679  1.00  0.00    -0.237 OA
ATOM    106  O   UNL A   1      53.232  25.351  23.354  1.00  0.00    -0.744 OA
ENDBRANCH 102 103
ENDBRANCH  70  95
ENDBRANCH  44  45
ENDBRANCH  36  39
ENDBRANCH  34  35
ENDBRANCH  33  34
ENDBRANCH  32  33
ENDBRANCH   1  32
TORSDOF 21
ENDMDL
