MODEL 1
REMARK VINA RESULT:      -9.9      0.000      0.000
REMARK SMILES Cn1ccnc(N[C@H]2C=C[C@H](C(=O)NCCCCCCNC(=O)c3ccc(-c4c5nc(c(-c6c(F)cc(S(=O)(=O)[O-])cc6F)c6ccc([nH]6)c(-c6c(F)cc(S(=O)(=O)[O-])cc6F)c6nc(c(-c7c(F)cc(S(=O)(=O)[O-])cc7F)c7ccc4[nH]7)C=C6)C=C5)cc3)C2)c1=O
REMARK SMILES IDX 18 1 17 2 16 3 15 4 14 5 12 6 13 7 11 9 8 10 9 11 90 12
REMARK SMILES IDX 10 13 7 14 6 16 1 17 2 18 3 19 91 20 4 21 92 22 5 23 19 24
REMARK SMILES IDX 20 25 21 26 22 27 23 29 24 30 25 31 89 32 26 33 88 34 27 35
REMARK SMILES IDX 28 36 29 37 82 38 30 39 87 40 81 41 83 42 31 43 86 44 80 45
REMARK SMILES IDX 79 46 32 48 66 49 45 50 65 51 46 52 49 53 64 54 84 55 47 56
REMARK SMILES IDX 48 57 63 59 85 60 50 61 33 62 34 63 43 64 35 65 36 66 42 67
REMARK SMILES IDX 44 68 37 69 38 70 39 71 40 72 41 73 67 74 68 75 77 76 69 77
REMARK SMILES IDX 70 78 76 79 78 80 71 81 72 82 73 83 74 84 75 85 51 86 52 87
REMARK SMILES IDX 61 88 53 89 54 90 60 91 62 92 55 93 56 94 57 95 58 96 59 97
REMARK H PARENT 14 8 7 15 21 28 83 47 49 58
REMARK Flexibility Score: inf
ROOT
ATOM      1  C   UNL A   1      43.136  24.213  29.711  1.00  0.00     0.002 C 
ENDROOT
BRANCH   1   2
ATOM      2  C   UNL A   1      44.502  24.344  30.391  1.00  0.00     0.002 C 
BRANCH   2   3
ATOM      3  C   UNL A   1      45.306  25.586  29.997  1.00  0.00     0.021 C 
BRANCH   3   4
ATOM      4  C   UNL A   1      46.797  25.340  29.802  1.00  0.00     0.116 C 
BRANCH   4   5
ATOM      5  N   UNL A   1      47.355  26.169  28.747  1.00  0.00    -0.356 N 
ATOM      6  C   UNL A   1      47.210  26.031  27.393  1.00  0.00     0.227 C 
ATOM      7  O   UNL A   1      47.701  26.886  26.655  1.00  0.00    -0.274 OA
ATOM      8  H   UNL A   1      47.908  26.927  29.044  1.00  0.00     0.163 HD
BRANCH   6   9
ATOM      9  C   UNL A   1      46.444  24.817  26.880  1.00  0.00     0.103 C 
ATOM     10  C   UNL A   1      46.226  24.154  24.529  1.00  0.00     0.104 C 
ATOM     11  C   UNL A   1      45.017  24.875  24.997  1.00  0.00    -0.006 C 
ATOM     12  C   UNL A   1      47.151  24.059  25.742  1.00  0.00     0.046 C 
ATOM     13  C   UNL A   1      45.141  25.261  26.269  1.00  0.00    -0.016 C 
BRANCH  10  14
ATOM     14  N   UNL A   1      45.892  22.891  23.931  1.00  0.00    -0.359 N 
ATOM     15  H   UNL A   1      45.879  22.915  22.948  1.00  0.00     0.162 HD
BRANCH  14  16
ATOM     16  C   UNL A   1      45.584  21.652  24.450  1.00  0.00     0.193 A 
ATOM     17  C   UNL A   1      42.820  19.426  25.925  1.00  0.00     0.153 C 
ATOM     18  N   UNL A   1      44.101  19.911  25.452  1.00  0.00    -0.314 N 
ATOM     19  C   UNL A   1      45.225  19.130  25.513  1.00  0.00     0.109 A 
ATOM     20  C   UNL A   1      44.162  21.199  24.927  1.00  0.00     0.293 A 
ATOM     21  C   UNL A   1      46.398  19.590  25.067  1.00  0.00     0.131 A 
ATOM     22  O   UNL A   1      43.182  21.926  24.853  1.00  0.00    -0.265 OA
ATOM     23  N   UNL A   1      46.610  20.832  24.535  1.00  0.00    -0.233 NA
ENDBRANCH  14  16
ENDBRANCH  10  14
ENDBRANCH   6   9
ENDBRANCH   4   5
ENDBRANCH   3   4
ENDBRANCH   2   3
ENDBRANCH   1   2
BRANCH   1  24
ATOM     24  C   UNL A   1      43.024  23.073  28.696  1.00  0.00     0.021 C 
BRANCH  24  25
ATOM     25  C   UNL A   1      41.692  23.007  27.957  1.00  0.00     0.116 C 
BRANCH  25  26
ATOM     26  N   UNL A   1      41.765  23.603  26.633  1.00  0.00    -0.352 N 
ATOM     27  C   UNL A   1      41.504  24.894  26.248  1.00  0.00     0.251 C 
ATOM     28  H   UNL A   1      42.042  22.994  25.910  1.00  0.00     0.163 HD
ATOM     29  O   UNL A   1      41.440  25.178  25.056  1.00  0.00    -0.269 OA
BRANCH  27  30
ATOM     30  C   UNL A   1      41.277  25.934  27.275  1.00  0.00     0.039 A 
ATOM     31  C   UNL A   1      40.135  25.857  28.074  1.00  0.00     0.014 A 
ATOM     32  C   UNL A   1      42.191  26.977  27.452  1.00  0.00     0.014 A 
ATOM     33  C   UNL A   1      39.941  26.792  29.092  1.00  0.00     0.010 A 
ATOM     34  C   UNL A   1      42.035  27.861  28.517  1.00  0.00     0.010 A 
ATOM     35  C   UNL A   1      40.907  27.780  29.346  1.00  0.00    -0.014 A 
BRANCH  35  36
ATOM     36  C   UNL A   1      40.754  28.733  30.477  1.00  0.00     0.031 A 
ATOM     37  C   UNL A   1      41.604  28.587  31.710  1.00  0.00     0.074 A 
ATOM     38  C   UNL A   1      39.810  29.694  30.414  1.00  0.00     0.049 A 
ATOM     39  N   UNL A   1      41.574  29.281  32.819  1.00  0.00    -0.248 NA
ATOM     40  C   UNL A   1      42.600  27.504  31.708  1.00  0.00     0.031 C 
ATOM     41  C   UNL A   1      38.893  29.907  29.292  1.00  0.00     0.029 A 
ATOM     42  N   UNL A   1      39.457  30.666  31.317  1.00  0.00    -0.354 N 
ATOM     43  C   UNL A   1      42.536  28.714  33.647  1.00  0.00     0.074 A 
ATOM     44  C   UNL A   1      43.093  27.585  32.937  1.00  0.00     0.031 C 
ATOM     45  C   UNL A   1      38.100  30.957  29.563  1.00  0.00     0.029 A 
ATOM     46  C   UNL A   1      38.419  31.464  30.894  1.00  0.00     0.049 A 
ATOM     47  H   UNL A   1      39.904  30.781  32.187  1.00  0.00     0.167 HD
ATOM     48  C   UNL A   1      42.935  29.114  34.879  1.00  0.00     0.037 A 
ATOM     49  C   UNL A   1      37.787  32.481  31.512  1.00  0.00     0.037 A 
ATOM     50  C   UNL A   1      42.389  30.252  35.572  1.00  0.00     0.049 A 
ATOM     51  C   UNL A   1      38.240  32.897  32.886  1.00  0.00     0.074 A 
ATOM     52  C   UNL A   1      42.764  30.773  36.798  1.00  0.00     0.029 A 
ATOM     53  N   UNL A   1      41.349  31.044  35.105  1.00  0.00    -0.354 N 
ATOM     54  N   UNL A   1      39.197  32.391  33.627  1.00  0.00    -0.248 NA
ATOM     55  C   UNL A   1      37.532  34.025  33.507  1.00  0.00     0.031 C 
ATOM     56  C   UNL A   1      41.915  31.842  37.098  1.00  0.00     0.029 A 
ATOM     57  C   UNL A   1      41.053  32.031  36.031  1.00  0.00     0.049 A 
ATOM     58  H   UNL A   1      40.890  30.922  34.242  1.00  0.00     0.167 HD
ATOM     59  C   UNL A   1      39.227  33.159  34.786  1.00  0.00     0.074 A 
ATOM     60  C   UNL A   1      38.201  34.170  34.642  1.00  0.00     0.031 C 
ATOM     61  C   UNL A   1      40.033  33.038  35.871  1.00  0.00     0.037 A 
BRANCH  48  62
ATOM     62  C   UNL A   1      44.015  28.318  35.561  1.00  0.00     0.058 A 
ATOM     63  C   UNL A   1      45.377  28.622  35.392  1.00  0.00     0.135 A 
ATOM     64  C   UNL A   1      43.686  27.270  36.436  1.00  0.00     0.135 A 
ATOM     65  F   UNL A   1      45.753  29.604  34.557  1.00  0.00    -0.206 F 
ATOM     66  C   UNL A   1      46.370  27.901  36.047  1.00  0.00     0.059 A 
ATOM     67  C   UNL A   1      44.662  26.556  37.125  1.00  0.00     0.059 A 
ATOM     68  F   UNL A   1      42.401  26.934  36.634  1.00  0.00    -0.206 F 
ATOM     69  C   UNL A   1      46.003  26.871  36.914  1.00  0.00     0.060 A 
BRANCH  69  70
ATOM     70  S   UNL A   1      47.305  25.960  37.768  1.00  0.00     0.124 S 
ATOM     71  O   UNL A   1      48.458  26.832  37.556  1.00  0.00    -0.237 OA
ATOM     72  O   UNL A   1      46.799  25.901  39.135  1.00  0.00    -0.237 OA
ATOM     73  O   UNL A   1      47.349  24.683  37.062  1.00  0.00    -0.744 OA
ENDBRANCH  69  70
ENDBRANCH  48  62
BRANCH  49  74
ATOM     74  C   UNL A   1      36.665  33.185  30.832  1.00  0.00     0.058 A 
ATOM     75  C   UNL A   1      35.330  32.896  31.150  1.00  0.00     0.135 A 
ATOM     76  C   UNL A   1      36.905  34.162  29.852  1.00  0.00     0.135 A 
ATOM     77  F   UNL A   1      35.047  31.966  32.075  1.00  0.00    -0.206 F 
ATOM     78  C   UNL A   1      34.273  33.530  30.506  1.00  0.00     0.059 A 
ATOM     79  C   UNL A   1      35.865  34.831  29.216  1.00  0.00     0.059 A 
ATOM     80  F   UNL A   1      38.164  34.489  29.522  1.00  0.00    -0.206 F 
ATOM     81  C   UNL A   1      34.550  34.500  29.540  1.00  0.00     0.060 A 
BRANCH  81  82
ATOM     82  S   UNL A   1      33.171  35.342  28.736  1.00  0.00     0.124 S 
ATOM     83  O   UNL A   1      33.866  36.215  27.797  1.00  0.00    -0.237 OA
ATOM     84  O   UNL A   1      32.433  34.228  28.148  1.00  0.00    -0.237 OA
ATOM     85  O   UNL A   1      32.497  36.016  29.843  1.00  0.00    -0.744 OA
ENDBRANCH  81  82
ENDBRANCH  49  74
BRANCH  61  86
ATOM     86  C   UNL A   1      39.869  34.048  36.974  1.00  0.00     0.058 A 
ATOM     87  C   UNL A   1      40.485  35.309  36.925  1.00  0.00     0.135 A 
ATOM     88  C   UNL A   1      39.039  33.769  38.073  1.00  0.00     0.135 A 
ATOM     89  F   UNL A   1      41.293  35.626  35.901  1.00  0.00    -0.206 F 
ATOM     90  C   UNL A   1      40.304  36.246  37.937  1.00  0.00     0.059 A 
ATOM     91  C   UNL A   1      38.817  34.704  39.078  1.00  0.00     0.059 A 
ATOM     92  F   UNL A   1      38.416  32.583  38.165  1.00  0.00    -0.206 F 
ATOM     93  C   UNL A   1      39.464  35.935  39.008  1.00  0.00     0.060 A 
BRANCH  93  94
ATOM     94  S   UNL A   1      39.210  37.176  40.295  1.00  0.00     0.124 S 
ATOM     95  O   UNL A   1      38.507  38.222  39.560  1.00  0.00    -0.237 OA
ATOM     96  O   UNL A   1      38.414  36.446  41.278  1.00  0.00    -0.237 OA
ATOM     97  O   UNL A   1      40.567  37.510  40.719  1.00  0.00    -0.744 OA
ENDBRANCH  93  94
ENDBRANCH  61  86
ENDBRANCH  35  36
ENDBRANCH  27  30
ENDBRANCH  25  26
ENDBRANCH  24  25
ENDBRANCH   1  24
TORSDOF 18
ENDMDL
MODEL 2
REMARK VINA RESULT:      -9.9      5.511     14.172
REMARK SMILES Cn1ccnc(N[C@H]2C=C[C@H](C(=O)NCCCCCCNC(=O)c3ccc(-c4c5nc(c(-c6c(F)cc(S(=O)(=O)[O-])cc6F)c6ccc([nH]6)c(-c6c(F)cc(S(=O)(=O)[O-])cc6F)c6nc(c(-c7c(F)cc(S(=O)(=O)[O-])cc7F)c7ccc4[nH]7)C=C6)C=C5)cc3)C2)c1=O
REMARK SMILES IDX 18 1 17 2 16 3 15 4 14 5 12 6 13 7 11 9 8 10 9 11 90 12
REMARK SMILES IDX 10 13 7 14 6 16 1 17 2 18 3 19 91 20 4 21 92 22 5 23 19 24
REMARK SMILES IDX 20 25 21 26 22 27 23 29 24 30 25 31 89 32 26 33 88 34 27 35
REMARK SMILES IDX 28 36 29 37 82 38 30 39 87 40 81 41 83 42 31 43 86 44 80 45
REMARK SMILES IDX 79 46 32 48 66 49 45 50 65 51 46 52 49 53 64 54 84 55 47 56
REMARK SMILES IDX 48 57 63 59 85 60 50 61 33 62 34 63 43 64 35 65 36 66 42 67
REMARK SMILES IDX 44 68 37 69 38 70 39 71 40 72 41 73 67 74 68 75 77 76 69 77
REMARK SMILES IDX 70 78 76 79 78 80 71 81 72 82 73 83 74 84 75 85 51 86 52 87
REMARK SMILES IDX 61 88 53 89 54 90 60 91 62 92 55 93 56 94 57 95 58 96 59 97
REMARK H PARENT 14 8 7 15 21 28 83 47 49 58
REMARK Flexibility Score: inf
ROOT
ATOM      1  C   UNL A   1      38.461  33.081  29.487  1.00  0.00     0.002 C 
ENDROOT
BRANCH   1   2
ATOM      2  C   UNL A   1      39.102  34.468  29.586  1.00  0.00     0.002 C 
BRANCH   2   3
ATOM      3  C   UNL A   1      40.425  34.517  30.356  1.00  0.00     0.021 C 
BRANCH   3   4
ATOM      4  C   UNL A   1      40.699  33.292  31.220  1.00  0.00     0.116 C 
BRANCH   4   5
ATOM      5  N   UNL A   1      40.894  33.640  32.618  1.00  0.00    -0.356 N 
ATOM      6  C   UNL A   1      39.970  33.642  33.628  1.00  0.00     0.227 C 
ATOM      7  O   UNL A   1      40.346  33.896  34.773  1.00  0.00    -0.274 OA
ATOM      8  H   UNL A   1      41.806  33.909  32.870  1.00  0.00     0.163 HD
BRANCH   6   9
ATOM      9  C   UNL A   1      38.523  33.327  33.269  1.00  0.00     0.103 C 
ATOM     10  C   UNL A   1      36.542  34.375  34.267  1.00  0.00     0.104 C 
ATOM     11  C   UNL A   1      36.810  33.048  34.874  1.00  0.00    -0.006 C 
ATOM     12  C   UNL A   1      37.609  34.564  33.189  1.00  0.00     0.046 C 
ATOM     13  C   UNL A   1      37.903  32.484  34.352  1.00  0.00    -0.016 C 
BRANCH  10  14
ATOM     14  N   UNL A   1      35.189  34.478  33.794  1.00  0.00    -0.359 N 
ATOM     15  H   UNL A   1      34.599  33.773  34.144  1.00  0.00     0.162 HD
BRANCH  14  16
ATOM     16  C   UNL A   1      34.547  35.359  32.952  1.00  0.00     0.193 A 
ATOM     17  C   UNL A   1      32.823  35.809  29.547  1.00  0.00     0.153 C 
ATOM     18  N   UNL A   1      33.383  36.064  30.858  1.00  0.00    -0.314 N 
ATOM     19  C   UNL A   1      33.354  37.317  31.414  1.00  0.00     0.109 A 
ATOM     20  C   UNL A   1      33.953  34.997  31.548  1.00  0.00     0.293 A 
ATOM     21  C   UNL A   1      33.870  37.534  32.628  1.00  0.00     0.131 A 
ATOM     22  O   UNL A   1      33.997  33.865  31.087  1.00  0.00    -0.265 OA
ATOM     23  N   UNL A   1      34.467  36.589  33.415  1.00  0.00    -0.233 NA
ENDBRANCH  14  16
ENDBRANCH  10  14
ENDBRANCH   6   9
ENDBRANCH   4   5
ENDBRANCH   3   4
ENDBRANCH   2   3
ENDBRANCH   1   2
BRANCH   1  24
ATOM     24  C   UNL A   1      36.967  33.032  29.815  1.00  0.00     0.021 C 
BRANCH  24  25
ATOM     25  C   UNL A   1      36.557  31.905  30.756  1.00  0.00     0.116 C 
BRANCH  25  26
ATOM     26  N   UNL A   1      35.746  30.899  30.090  1.00  0.00    -0.352 N 
ATOM     27  C   UNL A   1      36.126  29.934  29.192  1.00  0.00     0.251 C 
ATOM     28  H   UNL A   1      34.788  30.911  30.317  1.00  0.00     0.163 HD
ATOM     29  O   UNL A   1      35.275  29.286  28.590  1.00  0.00    -0.269 OA
BRANCH  27  30
ATOM     30  C   UNL A   1      37.564  29.697  28.935  1.00  0.00     0.039 A 
ATOM     31  C   UNL A   1      38.399  29.383  30.008  1.00  0.00     0.014 A 
ATOM     32  C   UNL A   1      38.082  29.778  27.639  1.00  0.00     0.014 A 
ATOM     33  C   UNL A   1      39.744  29.091  29.773  1.00  0.00     0.010 A 
ATOM     34  C   UNL A   1      39.403  29.411  27.398  1.00  0.00     0.010 A 
ATOM     35  C   UNL A   1      40.250  29.066  28.463  1.00  0.00    -0.014 A 
BRANCH  35  36
ATOM     36  C   UNL A   1      41.658  28.679  28.188  1.00  0.00     0.031 A 
ATOM     37  C   UNL A   1      42.742  29.723  28.178  1.00  0.00     0.074 A 
ATOM     38  C   UNL A   1      41.950  27.397  27.892  1.00  0.00     0.049 A 
ATOM     39  N   UNL A   1      44.014  29.589  27.901  1.00  0.00    -0.248 NA
ATOM     40  C   UNL A   1      42.340  31.104  28.495  1.00  0.00     0.031 C 
ATOM     41  C   UNL A   1      40.979  26.302  27.825  1.00  0.00     0.029 A 
ATOM     42  N   UNL A   1      43.146  26.796  27.583  1.00  0.00    -0.354 N 
ATOM     43  C   UNL A   1      44.560  30.864  28.000  1.00  0.00     0.074 A 
ATOM     44  C   UNL A   1      43.474  31.767  28.307  1.00  0.00     0.031 C 
ATOM     45  C   UNL A   1      41.620  25.162  27.518  1.00  0.00     0.029 A 
ATOM     46  C   UNL A   1      43.038  25.449  27.323  1.00  0.00     0.049 A 
ATOM     47  H   UNL A   1      44.001  27.284  27.549  1.00  0.00     0.167 HD
ATOM     48  C   UNL A   1      45.855  31.243  27.870  1.00  0.00     0.037 A 
ATOM     49  C   UNL A   1      43.971  24.549  26.958  1.00  0.00     0.037 A 
ATOM     50  C   UNL A   1      46.934  30.333  27.584  1.00  0.00     0.049 A 
ATOM     51  C   UNL A   1      45.400  24.998  26.807  1.00  0.00     0.074 A 
ATOM     52  C   UNL A   1      48.287  30.610  27.489  1.00  0.00     0.029 A 
ATOM     53  N   UNL A   1      46.787  28.975  27.342  1.00  0.00    -0.354 N 
ATOM     54  N   UNL A   1      45.910  26.196  26.971  1.00  0.00    -0.248 NA
ATOM     55  C   UNL A   1      46.383  23.974  26.428  1.00  0.00     0.031 C 
ATOM     56  C   UNL A   1      48.951  29.431  27.134  1.00  0.00     0.029 A 
ATOM     57  C   UNL A   1      48.022  28.406  27.071  1.00  0.00     0.049 A 
ATOM     58  H   UNL A   1      45.932  28.487  27.360  1.00  0.00     0.167 HD
ATOM     59  C   UNL A   1      47.276  26.062  26.746  1.00  0.00     0.074 A 
ATOM     60  C   UNL A   1      47.514  24.665  26.447  1.00  0.00     0.031 C 
ATOM     61  C   UNL A   1      48.245  27.010  26.784  1.00  0.00     0.037 A 
BRANCH  48  62
ATOM     62  C   UNL A   1      46.180  32.703  28.037  1.00  0.00     0.058 A 
ATOM     63  C   UNL A   1      46.029  33.618  26.982  1.00  0.00     0.135 A 
ATOM     64  C   UNL A   1      46.598  33.204  29.280  1.00  0.00     0.135 A 
ATOM     65  F   UNL A   1      45.647  33.195  25.766  1.00  0.00    -0.206 F 
ATOM     66  C   UNL A   1      46.304  34.972  27.148  1.00  0.00     0.059 A 
ATOM     67  C   UNL A   1      46.848  34.559  29.478  1.00  0.00     0.059 A 
ATOM     68  F   UNL A   1      46.762  32.375  30.323  1.00  0.00    -0.206 F 
ATOM     69  C   UNL A   1      46.710  35.434  28.401  1.00  0.00     0.060 A 
BRANCH  69  70
ATOM     70  S   UNL A   1      47.043  37.196  28.602  1.00  0.00     0.124 S 
ATOM     71  O   UNL A   1      48.481  37.193  28.856  1.00  0.00    -0.237 OA
ATOM     72  O   UNL A   1      46.629  37.740  27.314  1.00  0.00    -0.237 OA
ATOM     73  O   UNL A   1      46.209  37.574  29.738  1.00  0.00    -0.744 OA
ENDBRANCH  69  70
ENDBRANCH  48  62
BRANCH  49  74
ATOM     74  C   UNL A   1      43.588  23.130  26.720  1.00  0.00     0.058 A 
ATOM     75  C   UNL A   1      43.236  22.287  27.784  1.00  0.00     0.135 A 
ATOM     76  C   UNL A   1      43.565  22.590  25.424  1.00  0.00     0.135 A 
ATOM     77  F   UNL A   1      43.249  22.753  29.042  1.00  0.00    -0.206 F 
ATOM     78  C   UNL A   1      42.899  20.953  27.578  1.00  0.00     0.059 A 
ATOM     79  C   UNL A   1      43.201  21.268  25.190  1.00  0.00     0.059 A 
ATOM     80  F   UNL A   1      43.876  23.357  24.368  1.00  0.00    -0.206 F 
ATOM     81  C   UNL A   1      42.882  20.452  26.275  1.00  0.00     0.060 A 
BRANCH  81  82
ATOM     82  S   UNL A   1      42.407  18.730  26.014  1.00  0.00     0.124 S 
ATOM     83  O   UNL A   1      41.000  18.863  25.656  1.00  0.00    -0.237 OA
ATOM     84  O   UNL A   1      43.306  18.325  24.938  1.00  0.00    -0.237 OA
ATOM     85  O   UNL A   1      42.673  18.109  27.309  1.00  0.00    -0.744 OA
ENDBRANCH  81  82
ENDBRANCH  49  74
BRANCH  61  86
ATOM     86  C   UNL A   1      49.662  26.567  26.538  1.00  0.00     0.058 A 
ATOM     87  C   UNL A   1      50.452  26.005  27.554  1.00  0.00     0.135 A 
ATOM     88  C   UNL A   1      50.219  26.656  25.251  1.00  0.00     0.135 A 
ATOM     89  F   UNL A   1      49.971  25.901  28.803  1.00  0.00    -0.206 F 
ATOM     90  C   UNL A   1      51.750  25.571  27.309  1.00  0.00     0.059 A 
ATOM     91  C   UNL A   1      51.503  26.198  24.976  1.00  0.00     0.059 A 
ATOM     92  F   UNL A   1      49.505  27.175  24.240  1.00  0.00    -0.206 F 
ATOM     93  C   UNL A   1      52.266  25.668  26.015  1.00  0.00     0.060 A 
BRANCH  93  94
ATOM     94  S   UNL A   1      53.940  25.068  25.705  1.00  0.00     0.124 S 
ATOM     95  O   UNL A   1      53.713  23.635  25.540  1.00  0.00    -0.237 OA
ATOM     96  O   UNL A   1      54.312  25.793  24.493  1.00  0.00    -0.237 OA
ATOM     97  O   UNL A   1      54.670  25.454  26.908  1.00  0.00    -0.744 OA
ENDBRANCH  93  94
ENDBRANCH  61  86
ENDBRANCH  35  36
ENDBRANCH  27  30
ENDBRANCH  25  26
ENDBRANCH  24  25
ENDBRANCH   1  24
TORSDOF 18
ENDMDL
MODEL 3
REMARK VINA RESULT:      -9.7      4.680     10.628
REMARK SMILES Cn1ccnc(N[C@H]2C=C[C@H](C(=O)NCCCCCCNC(=O)c3ccc(-c4c5nc(c(-c6c(F)cc(S(=O)(=O)[O-])cc6F)c6ccc([nH]6)c(-c6c(F)cc(S(=O)(=O)[O-])cc6F)c6nc(c(-c7c(F)cc(S(=O)(=O)[O-])cc7F)c7ccc4[nH]7)C=C6)C=C5)cc3)C2)c1=O
REMARK SMILES IDX 18 1 17 2 16 3 15 4 14 5 12 6 13 7 11 9 8 10 9 11 90 12
REMARK SMILES IDX 10 13 7 14 6 16 1 17 2 18 3 19 91 20 4 21 92 22 5 23 19 24
REMARK SMILES IDX 20 25 21 26 22 27 23 29 24 30 25 31 89 32 26 33 88 34 27 35
REMARK SMILES IDX 28 36 29 37 82 38 30 39 87 40 81 41 83 42 31 43 86 44 80 45
REMARK SMILES IDX 79 46 32 48 66 49 45 50 65 51 46 52 49 53 64 54 84 55 47 56
REMARK SMILES IDX 48 57 63 59 85 60 50 61 33 62 34 63 43 64 35 65 36 66 42 67
REMARK SMILES IDX 44 68 37 69 38 70 39 71 40 72 41 73 67 74 68 75 77 76 69 77
REMARK SMILES IDX 70 78 76 79 78 80 71 81 72 82 73 83 74 84 75 85 51 86 52 87
REMARK SMILES IDX 61 88 53 89 54 90 60 91 62 92 55 93 56 94 57 95 58 96 59 97
REMARK H PARENT 14 8 7 15 21 28 83 47 49 58
REMARK Flexibility Score: inf
ROOT
ATOM      1  C   UNL A   1      31.784  27.764  26.185  1.00  0.00     0.002 C 
ENDROOT
BRANCH   1   2
ATOM      2  C   UNL A   1      30.746  27.165  25.232  1.00  0.00     0.002 C 
BRANCH   2   3
ATOM      3  C   UNL A   1      30.807  27.690  23.795  1.00  0.00     0.021 C 
BRANCH   3   4
ATOM      4  C   UNL A   1      30.504  26.647  22.727  1.00  0.00     0.116 C 
BRANCH   4   5
ATOM      5  N   UNL A   1      31.576  26.535  21.751  1.00  0.00    -0.356 N 
ATOM      6  C   UNL A   1      32.681  25.727  21.793  1.00  0.00     0.227 C 
ATOM      7  O   UNL A   1      33.444  25.718  20.827  1.00  0.00    -0.274 OA
ATOM      8  H   UNL A   1      31.499  27.115  20.960  1.00  0.00     0.163 HD
BRANCH   6   9
ATOM      9  C   UNL A   1      32.896  24.881  23.043  1.00  0.00     0.103 C 
ATOM     10  C   UNL A   1      34.856  23.479  23.499  1.00  0.00     0.104 C 
ATOM     11  C   UNL A   1      33.721  22.667  22.995  1.00  0.00    -0.006 C 
ATOM     12  C   UNL A   1      34.336  24.914  23.586  1.00  0.00     0.046 C 
ATOM     13  C   UNL A   1      32.659  23.430  22.721  1.00  0.00    -0.016 C 
BRANCH  10  14
ATOM     14  N   UNL A   1      35.376  22.955  24.732  1.00  0.00    -0.359 N 
ATOM     15  H   UNL A   1      34.696  22.506  25.283  1.00  0.00     0.162 HD
BRANCH  14  16
ATOM     16  C   UNL A   1      36.630  22.952  25.303  1.00  0.00     0.193 A 
ATOM     17  C   UNL A   1      39.776  20.871  26.040  1.00  0.00     0.153 C 
ATOM     18  N   UNL A   1      38.816  21.954  25.982  1.00  0.00    -0.314 N 
ATOM     19  C   UNL A   1      39.075  23.166  26.567  1.00  0.00     0.109 A 
ATOM     20  C   UNL A   1      37.617  21.735  25.309  1.00  0.00     0.293 A 
ATOM     21  C   UNL A   1      38.181  24.158  26.499  1.00  0.00     0.131 A 
ATOM     22  O   UNL A   1      37.350  20.669  24.773  1.00  0.00    -0.265 OA
ATOM     23  N   UNL A   1      36.964  24.086  25.882  1.00  0.00    -0.233 NA
ENDBRANCH  14  16
ENDBRANCH  10  14
ENDBRANCH   6   9
ENDBRANCH   4   5
ENDBRANCH   3   4
ENDBRANCH   2   3
ENDBRANCH   1   2
BRANCH   1  24
ATOM     24  C   UNL A   1      33.167  27.112  26.131  1.00  0.00     0.021 C 
BRANCH  24  25
ATOM     25  C   UNL A   1      34.335  28.085  26.244  1.00  0.00     0.116 C 
BRANCH  25  26
ATOM     26  N   UNL A   1      33.894  29.460  26.410  1.00  0.00    -0.352 N 
ATOM     27  C   UNL A   1      34.385  30.433  27.244  1.00  0.00     0.251 C 
ATOM     28  H   UNL A   1      33.135  29.732  25.845  1.00  0.00     0.163 HD
ATOM     29  O   UNL A   1      33.771  31.486  27.387  1.00  0.00    -0.269 OA
BRANCH  27  30
ATOM     30  C   UNL A   1      35.642  30.197  27.986  1.00  0.00     0.039 A 
ATOM     31  C   UNL A   1      35.576  29.674  29.279  1.00  0.00     0.014 A 
ATOM     32  C   UNL A   1      36.882  30.485  27.406  1.00  0.00     0.014 A 
ATOM     33  C   UNL A   1      36.756  29.382  29.966  1.00  0.00     0.010 A 
ATOM     34  C   UNL A   1      38.054  30.121  28.061  1.00  0.00     0.010 A 
ATOM     35  C   UNL A   1      38.005  29.569  29.350  1.00  0.00    -0.014 A 
BRANCH  35  36
ATOM     36  C   UNL A   1      39.266  29.189  30.038  1.00  0.00     0.031 A 
ATOM     37  C   UNL A   1      39.712  29.932  31.268  1.00  0.00     0.074 A 
ATOM     38  C   UNL A   1      40.038  28.212  29.520  1.00  0.00     0.049 A 
ATOM     39  N   UNL A   1      40.808  29.787  31.968  1.00  0.00    -0.248 NA
ATOM     40  C   UNL A   1      38.823  30.997  31.762  1.00  0.00     0.031 C 
ATOM     41  C   UNL A   1      39.737  27.450  28.306  1.00  0.00     0.029 A 
ATOM     42  N   UNL A   1      41.239  27.698  29.942  1.00  0.00    -0.354 N 
ATOM     43  C   UNL A   1      40.744  30.743  32.975  1.00  0.00     0.074 A 
ATOM     44  C   UNL A   1      39.532  31.501  32.763  1.00  0.00     0.031 C 
ATOM     45  C   UNL A   1      40.713  26.552  28.095  1.00  0.00     0.029 A 
ATOM     46  C   UNL A   1      41.731  26.702  29.129  1.00  0.00     0.049 A 
ATOM     47  H   UNL A   1      41.706  28.013  30.750  1.00  0.00     0.167 HD
ATOM     48  C   UNL A   1      41.608  30.954  33.998  1.00  0.00     0.037 A 
ATOM     49  C   UNL A   1      42.878  25.998  29.201  1.00  0.00     0.037 A 
ATOM     50  C   UNL A   1      42.804  30.182  34.213  1.00  0.00     0.049 A 
ATOM     51  C   UNL A   1      43.827  26.262  30.340  1.00  0.00     0.074 A 
ATOM     52  C   UNL A   1      43.715  30.280  35.251  1.00  0.00     0.029 A 
ATOM     53  N   UNL A   1      43.262  29.173  33.377  1.00  0.00    -0.354 N 
ATOM     54  N   UNL A   1      43.718  27.125  31.322  1.00  0.00    -0.248 NA
ATOM     55  C   UNL A   1      45.053  25.452  30.384  1.00  0.00     0.031 C 
ATOM     56  C   UNL A   1      44.751  29.371  35.012  1.00  0.00     0.029 A 
ATOM     57  C   UNL A   1      44.454  28.660  33.862  1.00  0.00     0.049 A 
ATOM     58  H   UNL A   1      42.805  28.866  32.560  1.00  0.00     0.167 HD
ATOM     59  C   UNL A   1      44.844  26.940  32.118  1.00  0.00     0.074 A 
ATOM     60  C   UNL A   1      45.613  25.875  31.509  1.00  0.00     0.031 C 
ATOM     61  C   UNL A   1      45.206  27.592  33.250  1.00  0.00     0.037 A 
BRANCH  48  62
ATOM     62  C   UNL A   1      41.295  32.064  34.966  1.00  0.00     0.058 A 
ATOM     63  C   UNL A   1      41.816  33.358  34.801  1.00  0.00     0.135 A 
ATOM     64  C   UNL A   1      40.419  31.846  36.043  1.00  0.00     0.135 A 
ATOM     65  F   UNL A   1      42.670  33.621  33.798  1.00  0.00    -0.206 F 
ATOM     66  C   UNL A   1      41.500  34.388  35.681  1.00  0.00     0.059 A 
ATOM     67  C   UNL A   1      40.065  32.869  36.917  1.00  0.00     0.059 A 
ATOM     68  F   UNL A   1      39.893  30.629  36.250  1.00  0.00    -0.206 F 
ATOM     69  C   UNL A   1      40.621  34.135  36.735  1.00  0.00     0.060 A 
BRANCH  69  70
ATOM     70  S   UNL A   1      40.209  35.488  37.856  1.00  0.00     0.124 S 
ATOM     71  O   UNL A   1      41.403  35.544  38.695  1.00  0.00    -0.237 OA
ATOM     72  O   UNL A   1      40.027  36.607  36.938  1.00  0.00    -0.237 OA
ATOM     73  O   UNL A   1      38.997  35.022  38.523  1.00  0.00    -0.744 OA
ENDBRANCH  69  70
ENDBRANCH  48  62
BRANCH  49  74
ATOM     74  C   UNL A   1      43.187  24.968  28.172  1.00  0.00     0.058 A 
ATOM     75  C   UNL A   1      42.861  23.619  28.376  1.00  0.00     0.135 A 
ATOM     76  C   UNL A   1      43.815  25.312  26.964  1.00  0.00     0.135 A 
ATOM     77  F   UNL A   1      42.267  23.238  29.517  1.00  0.00    -0.206 F 
ATOM     78  C   UNL A   1      43.166  22.644  27.432  1.00  0.00     0.059 A 
ATOM     79  C   UNL A   1      44.102  24.359  25.992  1.00  0.00     0.059 A 
ATOM     80  F   UNL A   1      44.133  26.591  26.710  1.00  0.00    -0.206 F 
ATOM     81  C   UNL A   1      43.785  23.024  26.240  1.00  0.00     0.060 A 
BRANCH  81  82
ATOM     82  S   UNL A   1      44.144  21.756  25.006  1.00  0.00     0.124 S 
ATOM     83  O   UNL A   1      43.153  20.737  25.335  1.00  0.00    -0.237 OA
ATOM     84  O   UNL A   1      43.929  22.477  23.756  1.00  0.00    -0.237 OA
ATOM     85  O   UNL A   1      45.532  21.399  25.285  1.00  0.00    -0.744 OA
ENDBRANCH  81  82
ENDBRANCH  49  74
BRANCH  61  86
ATOM     86  C   UNL A   1      46.471  27.149  33.934  1.00  0.00     0.058 A 
ATOM     87  C   UNL A   1      47.715  27.732  33.646  1.00  0.00     0.135 A 
ATOM     88  C   UNL A   1      46.428  26.161  34.932  1.00  0.00     0.135 A 
ATOM     89  F   UNL A   1      47.815  28.676  32.696  1.00  0.00    -0.206 F 
ATOM     90  C   UNL A   1      48.874  27.334  34.304  1.00  0.00     0.059 A 
ATOM     91  C   UNL A   1      47.568  25.772  35.627  1.00  0.00     0.059 A 
ATOM     92  F   UNL A   1      45.263  25.578  35.256  1.00  0.00    -0.206 F 
ATOM     93  C   UNL A   1      48.790  26.356  35.297  1.00  0.00     0.060 A 
BRANCH  93  94
ATOM     94  S   UNL A   1      50.296  25.876  36.169  1.00  0.00     0.124 S 
ATOM     95  O   UNL A   1      50.354  24.445  35.890  1.00  0.00    -0.237 OA
ATOM     96  O   UNL A   1      51.311  26.692  35.507  1.00  0.00    -0.237 OA
ATOM     97  O   UNL A   1      50.017  26.236  37.555  1.00  0.00    -0.744 OA
ENDBRANCH  93  94
ENDBRANCH  61  86
ENDBRANCH  35  36
ENDBRANCH  27  30
ENDBRANCH  25  26
ENDBRANCH  24  25
ENDBRANCH   1  24
TORSDOF 18
ENDMDL
