MODEL 1
REMARK VINA RESULT:     -10.2      0.000      0.000
REMARK SMILES C[C@H](CNC(=O)c1ccc(Br)nc1)C(=O)NCCCCCCNC(=O)c1ccc(-c2c3nc(c(-c4c(F)cc(S(=O)(=O)[O-])cc4F)c4ccc([nH]4)c(-c4c(F)cc(S(=O)(=O)[O-])cc4F)c4nc(c(-c5c(F)cc(S(=O)(=O)[O-])cc5F)c5ccc2[nH]5)C=C4)C=C3)cc1
REMARK SMILES IDX 19 1 18 2 17 3 16 4 14 5 15 6 2 8 1 9 3 10 4 11 5 12 6 14
REMARK SMILES IDX 7 15 8 16 13 17 9 18 12 19 10 20 11 21 20 22 21 23 22 24
REMARK SMILES IDX 23 25 24 26 25 28 26 29 27 30 91 31 28 32 90 33 29 34 30 35
REMARK SMILES IDX 31 36 84 37 32 38 89 39 83 40 85 41 33 42 88 43 82 44 81 45
REMARK SMILES IDX 34 47 68 48 47 49 67 50 48 51 51 52 66 53 86 54 49 55 50 56
REMARK SMILES IDX 65 58 87 59 52 60 35 61 36 62 45 63 37 64 38 65 44 66 46 67
REMARK SMILES IDX 39 68 40 69 41 70 42 71 43 72 69 73 70 74 79 75 71 76 72 77
REMARK SMILES IDX 78 78 80 79 73 80 74 81 75 82 76 83 77 84 53 85 54 86 63 87
REMARK SMILES IDX 55 88 56 89 62 90 64 91 57 92 58 93 59 94 60 95 61 96
REMARK H PARENT 16 7 4 13 23 27 85 46 51 57
REMARK Flexibility Score: inf
ROOT
ATOM      1  C   UNL A   1      32.413  28.778  23.321  1.00  0.00     0.002 C 
ENDROOT
BRANCH   1   2
ATOM      2  C   UNL A   1      30.891  28.953  23.367  1.00  0.00     0.021 C 
BRANCH   2   3
ATOM      3  C   UNL A   1      30.111  27.639  23.395  1.00  0.00     0.116 C 
BRANCH   3   4
ATOM      4  N   UNL A   1      30.099  27.065  24.729  1.00  0.00    -0.356 N 
ATOM      5  C   UNL A   1      30.536  25.860  25.182  1.00  0.00     0.224 C 
ATOM      6  O   UNL A   1      30.330  25.577  26.364  1.00  0.00    -0.275 OA
ATOM      7  H   UNL A   1      29.708  27.646  25.422  1.00  0.00     0.163 HD
BRANCH   5   8
ATOM      8  C   UNL A   1      31.286  24.894  24.275  1.00  0.00     0.094 C 
ATOM      9  C   UNL A   1      30.371  24.385  23.160  1.00  0.00     0.020 C 
BRANCH   8  10
ATOM     10  C   UNL A   1      32.053  23.839  25.089  1.00  0.00     0.129 C 
BRANCH  10  11
ATOM     11  N   UNL A   1      31.910  22.479  24.582  1.00  0.00    -0.351 N 
ATOM     12  C   UNL A   1      32.883  21.593  24.214  1.00  0.00     0.252 C 
ATOM     13  H   UNL A   1      30.985  22.156  24.493  1.00  0.00     0.163 HD
ATOM     14  O   UNL A   1      32.608  20.592  23.555  1.00  0.00    -0.269 OA
BRANCH  12  15
ATOM     15  C   UNL A   1      34.273  21.844  24.598  1.00  0.00     0.058 A 
ATOM     16  C   UNL A   1      35.117  22.628  23.812  1.00  0.00     0.018 A 
ATOM     17  C   UNL A   1      34.756  21.325  25.788  1.00  0.00     0.126 A 
ATOM     18  C   UNL A   1      36.434  22.816  24.222  1.00  0.00     0.037 A 
ATOM     19  N   UNL A   1      36.036  21.486  26.204  1.00  0.00    -0.249 NA
ATOM     20  C   UNL A   1      36.847  22.224  25.409  1.00  0.00     0.106 A 
ATOM     21  Br  UNL A   1      38.648  22.448  25.960  1.00  0.00    -0.029 Br
ENDBRANCH  12  15
ENDBRANCH  10  11
ENDBRANCH   8  10
ENDBRANCH   5   8
ENDBRANCH   3   4
ENDBRANCH   2   3
ENDBRANCH   1   2
BRANCH   1  22
ATOM     22  C   UNL A   1      33.145  29.122  24.621  1.00  0.00     0.002 C 
BRANCH  22  23
ATOM     23  C   UNL A   1      33.631  27.919  25.435  1.00  0.00     0.021 C 
BRANCH  23  24
ATOM     24  C   UNL A   1      33.747  28.163  26.936  1.00  0.00     0.116 C 
BRANCH  24  25
ATOM     25  N   UNL A   1      33.548  29.561  27.279  1.00  0.00    -0.352 N 
ATOM     26  C   UNL A   1      34.387  30.420  27.943  1.00  0.00     0.251 C 
ATOM     27  H   UNL A   1      32.689  29.946  26.996  1.00  0.00     0.163 HD
ATOM     28  O   UNL A   1      33.972  31.515  28.309  1.00  0.00    -0.269 OA
BRANCH  26  29
ATOM     29  C   UNL A   1      35.783  30.020  28.230  1.00  0.00     0.039 A 
ATOM     30  C   UNL A   1      36.730  30.100  27.206  1.00  0.00     0.014 A 
ATOM     31  C   UNL A   1      36.152  29.545  29.493  1.00  0.00     0.014 A 
ATOM     32  C   UNL A   1      38.057  29.745  27.460  1.00  0.00     0.010 A 
ATOM     33  C   UNL A   1      37.487  29.252  29.762  1.00  0.00     0.010 A 
ATOM     34  C   UNL A   1      38.451  29.339  28.745  1.00  0.00    -0.014 A 
BRANCH  34  35
ATOM     35  C   UNL A   1      39.862  28.980  29.036  1.00  0.00     0.031 A 
ATOM     36  C   UNL A   1      40.786  29.996  29.652  1.00  0.00     0.074 A 
ATOM     37  C   UNL A   1      40.323  27.757  28.704  1.00  0.00     0.049 A 
ATOM     38  N   UNL A   1      42.062  29.894  29.924  1.00  0.00    -0.248 NA
ATOM     39  C   UNL A   1      40.204  31.306  29.983  1.00  0.00     0.031 C 
ATOM     40  C   UNL A   1      39.538  26.702  28.060  1.00  0.00     0.029 A 
ATOM     41  N   UNL A   1      41.567  27.199  28.854  1.00  0.00    -0.354 N 
ATOM     42  C   UNL A   1      42.437  31.125  30.451  1.00  0.00     0.074 A 
ATOM     43  C   UNL A   1      41.266  31.976  30.406  1.00  0.00     0.031 C 
ATOM     44  C   UNL A   1      40.313  25.621  27.885  1.00  0.00     0.029 A 
ATOM     45  C   UNL A   1      41.657  25.913  28.376  1.00  0.00     0.049 A 
ATOM     46  H   UNL A   1      42.324  27.674  29.266  1.00  0.00     0.167 HD
ATOM     47  C   UNL A   1      43.637  31.504  30.950  1.00  0.00     0.037 A 
ATOM     48  C   UNL A   1      42.704  25.066  28.335  1.00  0.00     0.037 A 
ATOM     49  C   UNL A   1      44.792  30.648  31.011  1.00  0.00     0.049 A 
ATOM     50  C   UNL A   1      44.025  25.507  28.909  1.00  0.00     0.074 A 
ATOM     51  C   UNL A   1      46.048  30.929  31.521  1.00  0.00     0.029 A 
ATOM     52  N   UNL A   1      44.832  29.339  30.556  1.00  0.00    -0.354 N 
ATOM     53  N   UNL A   1      44.348  26.661  29.440  1.00  0.00    -0.248 NA
ATOM     54  C   UNL A   1      45.117  24.524  28.890  1.00  0.00     0.031 C 
ATOM     55  C   UNL A   1      46.853  29.796  31.352  1.00  0.00     0.029 A 
ATOM     56  C   UNL A   1      46.088  28.799  30.770  1.00  0.00     0.049 A 
ATOM     57  H   UNL A   1      44.076  28.863  30.140  1.00  0.00     0.167 HD
ATOM     58  C   UNL A   1      45.672  26.535  29.845  1.00  0.00     0.074 A 
ATOM     59  C   UNL A   1      46.085  25.187  29.508  1.00  0.00     0.031 C 
ATOM     60  C   UNL A   1      46.474  27.450  30.443  1.00  0.00     0.037 A 
BRANCH  47  61
ATOM     61  C   UNL A   1      43.753  32.905  31.485  1.00  0.00     0.058 A 
ATOM     62  C   UNL A   1      43.613  33.177  32.856  1.00  0.00     0.135 A 
ATOM     63  C   UNL A   1      44.029  33.983  30.629  1.00  0.00     0.135 A 
ATOM     64  F   UNL A   1      43.332  32.187  33.717  1.00  0.00    -0.206 F 
ATOM     65  C   UNL A   1      43.713  34.472  33.356  1.00  0.00     0.059 A 
ATOM     66  C   UNL A   1      44.161  35.283  31.110  1.00  0.00     0.059 A 
ATOM     67  F   UNL A   1      44.172  33.780  29.310  1.00  0.00    -0.206 F 
ATOM     68  C   UNL A   1      43.985  35.519  32.474  1.00  0.00     0.060 A 
BRANCH  68  69
ATOM     69  S   UNL A   1      44.110  37.194  33.136  1.00  0.00     0.124 S 
ATOM     70  O   UNL A   1      42.829  37.330  33.822  1.00  0.00    -0.237 OA
ATOM     71  O   UNL A   1      45.284  37.104  33.999  1.00  0.00    -0.237 OA
ATOM     72  O   UNL A   1      44.274  38.018  31.944  1.00  0.00    -0.744 OA
ENDBRANCH  68  69
ENDBRANCH  47  61
BRANCH  48  73
ATOM     73  C   UNL A   1      42.544  23.709  27.752  1.00  0.00     0.058 A 
ATOM     74  C   UNL A   1      42.342  22.589  28.572  1.00  0.00     0.135 A 
ATOM     75  C   UNL A   1      42.594  23.503  26.364  1.00  0.00     0.135 A 
ATOM     76  F   UNL A   1      42.289  22.736  29.905  1.00  0.00    -0.206 F 
ATOM     77  C   UNL A   1      42.221  21.309  28.043  1.00  0.00     0.059 A 
ATOM     78  C   UNL A   1      42.452  22.235  25.809  1.00  0.00     0.059 A 
ATOM     79  F   UNL A   1      42.765  24.544  25.536  1.00  0.00    -0.206 F 
ATOM     80  C   UNL A   1      42.281  21.143  26.658  1.00  0.00     0.060 A 
BRANCH  80  81
ATOM     81  S   UNL A   1      42.092  19.482  25.974  1.00  0.00     0.124 S 
ATOM     82  O   UNL A   1      42.580  18.656  27.073  1.00  0.00    -0.237 OA
ATOM     83  O   UNL A   1      40.657  19.415  25.713  1.00  0.00    -0.237 OA
ATOM     84  O   UNL A   1      42.937  19.513  24.784  1.00  0.00    -0.744 OA
ENDBRANCH  80  81
ENDBRANCH  48  73
BRANCH  60  85
ATOM     85  C   UNL A   1      47.865  27.011  30.810  1.00  0.00     0.058 A 
ATOM     86  C   UNL A   1      48.162  26.481  32.075  1.00  0.00     0.135 A 
ATOM     87  C   UNL A   1      48.904  27.092  29.869  1.00  0.00     0.135 A 
ATOM     88  F   UNL A   1      47.204  26.387  33.010  1.00  0.00    -0.206 F 
ATOM     89  C   UNL A   1      49.450  26.071  32.405  1.00  0.00     0.059 A 
ATOM     90  C   UNL A   1      50.194  26.665  30.170  1.00  0.00     0.059 A 
ATOM     91  F   UNL A   1      48.669  27.582  28.642  1.00  0.00    -0.206 F 
ATOM     92  C   UNL A   1      50.460  26.169  31.445  1.00  0.00     0.060 A 
BRANCH  92  93
ATOM     93  S   UNL A   1      52.123  25.614  31.876  1.00  0.00     0.124 S 
ATOM     94  O   UNL A   1      52.391  26.397  33.077  1.00  0.00    -0.237 OA
ATOM     95  O   UNL A   1      51.934  24.182  32.081  1.00  0.00    -0.237 OA
ATOM     96  O   UNL A   1      52.913  25.973  30.702  1.00  0.00    -0.744 OA
ENDBRANCH  92  93
ENDBRANCH  60  85
ENDBRANCH  34  35
ENDBRANCH  26  29
ENDBRANCH  24  25
ENDBRANCH  23  24
ENDBRANCH  22  23
ENDBRANCH   1  22
TORSDOF 19
ENDMDL
MODEL 2
REMARK VINA RESULT:     -10.2      1.269      2.018
REMARK SMILES C[C@H](CNC(=O)c1ccc(Br)nc1)C(=O)NCCCCCCNC(=O)c1ccc(-c2c3nc(c(-c4c(F)cc(S(=O)(=O)[O-])cc4F)c4ccc([nH]4)c(-c4c(F)cc(S(=O)(=O)[O-])cc4F)c4nc(c(-c5c(F)cc(S(=O)(=O)[O-])cc5F)c5ccc2[nH]5)C=C4)C=C3)cc1
REMARK SMILES IDX 19 1 18 2 17 3 16 4 14 5 15 6 2 8 1 9 3 10 4 11 5 12 6 14
REMARK SMILES IDX 7 15 8 16 13 17 9 18 12 19 10 20 11 21 20 22 21 23 22 24
REMARK SMILES IDX 23 25 24 26 25 28 26 29 27 30 91 31 28 32 90 33 29 34 30 35
REMARK SMILES IDX 31 36 84 37 32 38 89 39 83 40 85 41 33 42 88 43 82 44 81 45
REMARK SMILES IDX 34 47 68 48 47 49 67 50 48 51 51 52 66 53 86 54 49 55 50 56
REMARK SMILES IDX 65 58 87 59 52 60 35 61 36 62 45 63 37 64 38 65 44 66 46 67
REMARK SMILES IDX 39 68 40 69 41 70 42 71 43 72 69 73 70 74 79 75 71 76 72 77
REMARK SMILES IDX 78 78 80 79 73 80 74 81 75 82 76 83 77 84 53 85 54 86 63 87
REMARK SMILES IDX 55 88 56 89 62 90 64 91 57 92 58 93 59 94 60 95 61 96
REMARK H PARENT 16 7 4 13 23 27 85 46 51 57
REMARK Flexibility Score: inf
ROOT
ATOM      1  C   UNL A   1      31.200  29.178  24.533  1.00  0.00     0.002 C 
ENDROOT
BRANCH   1   2
ATOM      2  C   UNL A   1      31.846  28.459  23.344  1.00  0.00     0.021 C 
BRANCH   2   3
ATOM      3  C   UNL A   1      30.969  27.377  22.715  1.00  0.00     0.116 C 
BRANCH   3   4
ATOM      4  N   UNL A   1      31.670  26.693  21.643  1.00  0.00    -0.356 N 
ATOM      5  C   UNL A   1      32.516  25.629  21.671  1.00  0.00     0.224 C 
ATOM      6  O   UNL A   1      33.053  25.289  20.614  1.00  0.00    -0.275 OA
ATOM      7  H   UNL A   1      31.506  27.063  20.745  1.00  0.00     0.163 HD
BRANCH   5   8
ATOM      8  C   UNL A   1      32.775  24.853  22.954  1.00  0.00     0.094 C 
ATOM      9  C   UNL A   1      33.814  23.755  22.716  1.00  0.00     0.020 C 
BRANCH   8  10
ATOM     10  C   UNL A   1      31.462  24.438  23.637  1.00  0.00     0.129 C 
BRANCH  10  11
ATOM     11  N   UNL A   1      31.451  24.649  25.080  1.00  0.00    -0.351 N 
ATOM     12  C   UNL A   1      31.709  23.753  26.080  1.00  0.00     0.252 C 
ATOM     13  H   UNL A   1      31.226  25.560  25.373  1.00  0.00     0.163 HD
ATOM     14  O   UNL A   1      31.398  24.001  27.244  1.00  0.00    -0.269 OA
BRANCH  12  15
ATOM     15  C   UNL A   1      32.354  22.479  25.762  1.00  0.00     0.058 A 
ATOM     16  C   UNL A   1      33.699  22.249  26.051  1.00  0.00     0.018 A 
ATOM     17  C   UNL A   1      31.608  21.459  25.194  1.00  0.00     0.126 A 
ATOM     18  C   UNL A   1      34.260  21.023  25.708  1.00  0.00     0.037 A 
ATOM     19  N   UNL A   1      32.134  20.261  24.842  1.00  0.00    -0.249 NA
ATOM     20  C   UNL A   1      33.448  20.071  25.104  1.00  0.00     0.106 A 
ATOM     21  Br  UNL A   1      34.211  18.409  24.603  1.00  0.00    -0.029 Br
ENDBRANCH  12  15
ENDBRANCH  10  11
ENDBRANCH   8  10
ENDBRANCH   5   8
ENDBRANCH   3   4
ENDBRANCH   2   3
ENDBRANCH   1   2
BRANCH   1  22
ATOM     22  C   UNL A   1      31.495  28.559  25.903  1.00  0.00     0.002 C 
BRANCH  22  23
ATOM     23  C   UNL A   1      32.737  27.665  25.961  1.00  0.00     0.021 C 
BRANCH  23  24
ATOM     24  C   UNL A   1      33.865  28.190  26.843  1.00  0.00     0.116 C 
BRANCH  24  25
ATOM     25  N   UNL A   1      33.628  29.556  27.279  1.00  0.00    -0.352 N 
ATOM     26  C   UNL A   1      34.440  30.389  28.007  1.00  0.00     0.251 C 
ATOM     27  H   UNL A   1      32.761  29.937  27.015  1.00  0.00     0.163 HD
ATOM     28  O   UNL A   1      33.993  31.445  28.443  1.00  0.00    -0.269 OA
BRANCH  26  29
ATOM     29  C   UNL A   1      35.843  30.006  28.278  1.00  0.00     0.039 A 
ATOM     30  C   UNL A   1      36.778  30.100  27.244  1.00  0.00     0.014 A 
ATOM     31  C   UNL A   1      36.231  29.532  29.535  1.00  0.00     0.014 A 
ATOM     32  C   UNL A   1      38.112  29.762  27.483  1.00  0.00     0.010 A 
ATOM     33  C   UNL A   1      37.573  29.255  29.789  1.00  0.00     0.010 A 
ATOM     34  C   UNL A   1      38.525  29.357  28.763  1.00  0.00    -0.014 A 
BRANCH  34  35
ATOM     35  C   UNL A   1      39.944  29.015  29.038  1.00  0.00     0.031 A 
ATOM     36  C   UNL A   1      40.863  30.043  29.640  1.00  0.00     0.074 A 
ATOM     37  C   UNL A   1      40.414  27.797  28.704  1.00  0.00     0.049 A 
ATOM     38  N   UNL A   1      42.143  29.958  29.897  1.00  0.00    -0.248 NA
ATOM     39  C   UNL A   1      40.270  31.348  29.975  1.00  0.00     0.031 C 
ATOM     40  C   UNL A   1      39.634  26.731  28.072  1.00  0.00     0.029 A 
ATOM     41  N   UNL A   1      41.667  27.254  28.841  1.00  0.00    -0.354 N 
ATOM     42  C   UNL A   1      42.509  31.194  30.416  1.00  0.00     0.074 A 
ATOM     43  C   UNL A   1      41.329  32.031  30.383  1.00  0.00     0.031 C 
ATOM     44  C   UNL A   1      40.420  25.658  27.890  1.00  0.00     0.029 A 
ATOM     45  C   UNL A   1      41.765  25.968  28.365  1.00  0.00     0.049 A 
ATOM     46  H   UNL A   1      42.423  27.739  29.242  1.00  0.00     0.167 HD
ATOM     47  C   UNL A   1      43.712  31.589  30.900  1.00  0.00     0.037 A 
ATOM     48  C   UNL A   1      42.822  25.133  28.314  1.00  0.00     0.037 A 
ATOM     49  C   UNL A   1      44.877  30.746  30.950  1.00  0.00     0.049 A 
ATOM     50  C   UNL A   1      44.144  25.591  28.870  1.00  0.00     0.074 A 
ATOM     51  C   UNL A   1      46.136  31.043  31.444  1.00  0.00     0.029 A 
ATOM     52  N   UNL A   1      44.926  29.436  30.497  1.00  0.00    -0.354 N 
ATOM     53  N   UNL A   1      44.460  26.750  29.395  1.00  0.00    -0.248 NA
ATOM     54  C   UNL A   1      45.248  24.621  28.841  1.00  0.00     0.031 C 
ATOM     55  C   UNL A   1      46.952  29.919  31.268  1.00  0.00     0.029 A 
ATOM     56  C   UNL A   1      46.191  28.911  30.698  1.00  0.00     0.049 A 
ATOM     57  H   UNL A   1      44.171  28.950  30.092  1.00  0.00     0.167 HD
ATOM     58  C   UNL A   1      45.791  26.640  29.784  1.00  0.00     0.074 A 
ATOM     59  C   UNL A   1      46.215  25.297  29.446  1.00  0.00     0.031 C 
ATOM     60  C   UNL A   1      46.589  27.566  30.370  1.00  0.00     0.037 A 
BRANCH  47  61
ATOM     61  C   UNL A   1      43.817  32.992  31.430  1.00  0.00     0.058 A 
ATOM     62  C   UNL A   1      44.214  34.057  30.605  1.00  0.00     0.135 A 
ATOM     63  C   UNL A   1      43.498  33.284  32.766  1.00  0.00     0.135 A 
ATOM     64  F   UNL A   1      44.547  33.832  29.324  1.00  0.00    -0.206 F 
ATOM     65  C   UNL A   1      44.319  35.356  31.092  1.00  0.00     0.059 A 
ATOM     66  C   UNL A   1      43.570  34.580  33.268  1.00  0.00     0.059 A 
ATOM     67  F   UNL A   1      43.114  32.304  33.599  1.00  0.00    -0.206 F 
ATOM     68  C   UNL A   1      43.998  35.607  32.426  1.00  0.00     0.060 A 
BRANCH  68  69
ATOM     69  S   UNL A   1      44.142  37.298  33.044  1.00  0.00     0.124 S 
ATOM     70  O   UNL A   1      43.891  38.071  31.833  1.00  0.00    -0.237 OA
ATOM     71  O   UNL A   1      43.094  37.351  34.059  1.00  0.00    -0.237 OA
ATOM     72  O   UNL A   1      45.508  37.356  33.555  1.00  0.00    -0.744 OA
ENDBRANCH  68  69
ENDBRANCH  47  61
BRANCH  48  73
ATOM     73  C   UNL A   1      42.671  23.772  27.736  1.00  0.00     0.058 A 
ATOM     74  C   UNL A   1      42.503  22.651  28.562  1.00  0.00     0.135 A 
ATOM     75  C   UNL A   1      42.695  23.565  26.348  1.00  0.00     0.135 A 
ATOM     76  F   UNL A   1      42.476  22.800  29.895  1.00  0.00    -0.206 F 
ATOM     77  C   UNL A   1      42.391  21.368  28.037  1.00  0.00     0.059 A 
ATOM     78  C   UNL A   1      42.561  22.294  25.798  1.00  0.00     0.059 A 
ATOM     79  F   UNL A   1      42.833  24.607  25.514  1.00  0.00    -0.206 F 
ATOM     80  C   UNL A   1      42.425  21.200  26.652  1.00  0.00     0.060 A 
BRANCH  80  81
ATOM     81  S   UNL A   1      42.247  19.535  25.974  1.00  0.00     0.124 S 
ATOM     82  O   UNL A   1      40.823  19.498  25.659  1.00  0.00    -0.237 OA
ATOM     83  O   UNL A   1      43.154  19.567  24.831  1.00  0.00    -0.237 OA
ATOM     84  O   UNL A   1      42.672  18.680  27.078  1.00  0.00    -0.744 OA
ENDBRANCH  80  81
ENDBRANCH  48  73
BRANCH  60  85
ATOM     85  C   UNL A   1      47.989  27.144  30.722  1.00  0.00     0.058 A 
ATOM     86  C   UNL A   1      48.295  26.561  31.960  1.00  0.00     0.135 A 
ATOM     87  C   UNL A   1      49.029  27.297  29.790  1.00  0.00     0.135 A 
ATOM     88  F   UNL A   1      47.337  26.399  32.886  1.00  0.00    -0.206 F 
ATOM     89  C   UNL A   1      49.592  26.167  32.276  1.00  0.00     0.059 A 
ATOM     90  C   UNL A   1      50.328  26.887  30.076  1.00  0.00     0.059 A 
ATOM     91  F   UNL A   1      48.786  27.839  28.587  1.00  0.00    -0.206 F 
ATOM     92  C   UNL A   1      50.602  26.337  31.327  1.00  0.00     0.060 A 
BRANCH  92  93
ATOM     93  S   UNL A   1      52.277  25.803  31.737  1.00  0.00     0.124 S 
ATOM     94  O   UNL A   1      52.964  25.991  30.464  1.00  0.00    -0.237 OA
ATOM     95  O   UNL A   1      52.650  26.729  32.802  1.00  0.00    -0.237 OA
ATOM     96  O   UNL A   1      52.097  24.417  32.156  1.00  0.00    -0.744 OA
ENDBRANCH  92  93
ENDBRANCH  60  85
ENDBRANCH  34  35
ENDBRANCH  26  29
ENDBRANCH  24  25
ENDBRANCH  23  24
ENDBRANCH  22  23
ENDBRANCH   1  22
TORSDOF 19
ENDMDL
MODEL 3
REMARK VINA RESULT:     -10.2      2.830      3.657
REMARK SMILES C[C@H](CNC(=O)c1ccc(Br)nc1)C(=O)NCCCCCCNC(=O)c1ccc(-c2c3nc(c(-c4c(F)cc(S(=O)(=O)[O-])cc4F)c4ccc([nH]4)c(-c4c(F)cc(S(=O)(=O)[O-])cc4F)c4nc(c(-c5c(F)cc(S(=O)(=O)[O-])cc5F)c5ccc2[nH]5)C=C4)C=C3)cc1
REMARK SMILES IDX 19 1 18 2 17 3 16 4 14 5 15 6 2 8 1 9 3 10 4 11 5 12 6 14
REMARK SMILES IDX 7 15 8 16 13 17 9 18 12 19 10 20 11 21 20 22 21 23 22 24
REMARK SMILES IDX 23 25 24 26 25 28 26 29 27 30 91 31 28 32 90 33 29 34 30 35
REMARK SMILES IDX 31 36 84 37 32 38 89 39 83 40 85 41 33 42 88 43 82 44 81 45
REMARK SMILES IDX 34 47 68 48 47 49 67 50 48 51 51 52 66 53 86 54 49 55 50 56
REMARK SMILES IDX 65 58 87 59 52 60 35 61 36 62 45 63 37 64 38 65 44 66 46 67
REMARK SMILES IDX 39 68 40 69 41 70 42 71 43 72 69 73 70 74 79 75 71 76 72 77
REMARK SMILES IDX 78 78 80 79 73 80 74 81 75 82 76 83 77 84 53 85 54 86 63 87
REMARK SMILES IDX 55 88 56 89 62 90 64 91 57 92 58 93 59 94 60 95 61 96
REMARK H PARENT 16 7 4 13 23 27 85 46 51 57
REMARK Flexibility Score: inf
ROOT
ATOM      1  C   UNL A   1      31.069  29.200  24.402  1.00  0.00     0.002 C 
ENDROOT
BRANCH   1   2
ATOM      2  C   UNL A   1      31.629  28.656  23.083  1.00  0.00     0.021 C 
BRANCH   2   3
ATOM      3  C   UNL A   1      30.799  27.530  22.468  1.00  0.00     0.116 C 
BRANCH   3   4
ATOM      4  N   UNL A   1      31.591  26.742  21.541  1.00  0.00    -0.356 N 
ATOM      5  C   UNL A   1      32.553  25.807  21.764  1.00  0.00     0.224 C 
ATOM      6  O   UNL A   1      33.144  25.340  20.788  1.00  0.00    -0.275 OA
ATOM      7  H   UNL A   1      31.401  26.915  20.590  1.00  0.00     0.163 HD
BRANCH   5   8
ATOM      8  C   UNL A   1      32.879  25.322  23.169  1.00  0.00     0.094 C 
ATOM      9  C   UNL A   1      34.232  24.610  23.191  1.00  0.00     0.020 C 
BRANCH   8  10
ATOM     10  C   UNL A   1      31.688  24.581  23.799  1.00  0.00     0.129 C 
BRANCH  10  11
ATOM     11  N   UNL A   1      31.621  24.690  25.252  1.00  0.00    -0.351 N 
ATOM     12  C   UNL A   1      31.797  23.716  26.195  1.00  0.00     0.252 C 
ATOM     13  H   UNL A   1      31.421  25.588  25.600  1.00  0.00     0.163 HD
ATOM     14  O   UNL A   1      31.446  23.895  27.360  1.00  0.00    -0.269 OA
BRANCH  12  15
ATOM     15  C   UNL A   1      32.402  22.440  25.813  1.00  0.00     0.058 A 
ATOM     16  C   UNL A   1      33.765  22.197  25.988  1.00  0.00     0.018 A 
ATOM     17  C   UNL A   1      31.603  21.433  25.298  1.00  0.00     0.126 A 
ATOM     18  C   UNL A   1      34.285  20.969  25.588  1.00  0.00     0.037 A 
ATOM     19  N   UNL A   1      32.087  20.233  24.894  1.00  0.00    -0.249 NA
ATOM     20  C   UNL A   1      33.417  20.030  25.044  1.00  0.00     0.106 A 
ATOM     21  Br  UNL A   1      34.121  18.367  24.467  1.00  0.00    -0.029 Br
ENDBRANCH  12  15
ENDBRANCH  10  11
ENDBRANCH   8  10
ENDBRANCH   5   8
ENDBRANCH   3   4
ENDBRANCH   2   3
ENDBRANCH   1   2
BRANCH   1  22
ATOM     22  C   UNL A   1      31.683  28.591  25.666  1.00  0.00     0.002 C 
BRANCH  22  23
ATOM     23  C   UNL A   1      33.047  27.921  25.471  1.00  0.00     0.021 C 
BRANCH  23  24
ATOM     24  C   UNL A   1      34.206  28.604  26.191  1.00  0.00     0.116 C 
BRANCH  24  25
ATOM     25  N   UNL A   1      33.898  29.980  26.541  1.00  0.00    -0.352 N 
ATOM     26  C   UNL A   1      34.493  30.793  27.472  1.00  0.00     0.251 C 
ATOM     27  H   UNL A   1      33.157  30.386  26.038  1.00  0.00     0.163 HD
ATOM     28  O   UNL A   1      33.975  31.867  27.762  1.00  0.00    -0.269 OA
BRANCH  26  29
ATOM     29  C   UNL A   1      35.746  30.369  28.135  1.00  0.00     0.039 A 
ATOM     30  C   UNL A   1      36.967  30.689  27.537  1.00  0.00     0.014 A 
ATOM     31  C   UNL A   1      35.718  29.636  29.327  1.00  0.00     0.014 A 
ATOM     32  C   UNL A   1      38.162  30.314  28.155  1.00  0.00     0.010 A 
ATOM     33  C   UNL A   1      36.911  29.318  29.974  1.00  0.00     0.010 A 
ATOM     34  C   UNL A   1      38.144  29.645  29.390  1.00  0.00    -0.014 A 
BRANCH  34  35
ATOM     35  C   UNL A   1      39.407  29.259  30.070  1.00  0.00     0.031 A 
ATOM     36  C   UNL A   1      39.862  30.008  31.294  1.00  0.00     0.074 A 
ATOM     37  C   UNL A   1      40.164  28.267  29.561  1.00  0.00     0.049 A 
ATOM     38  N   UNL A   1      40.959  29.864  31.990  1.00  0.00    -0.248 NA
ATOM     39  C   UNL A   1      38.976  31.077  31.784  1.00  0.00     0.031 C 
ATOM     40  C   UNL A   1      39.854  27.498  28.354  1.00  0.00     0.029 A 
ATOM     41  N   UNL A   1      41.358  27.743  29.990  1.00  0.00    -0.354 N 
ATOM     42  C   UNL A   1      40.901  30.823  32.994  1.00  0.00     0.074 A 
ATOM     43  C   UNL A   1      39.687  31.582  32.781  1.00  0.00     0.031 C 
ATOM     44  C   UNL A   1      40.822  26.592  28.149  1.00  0.00     0.029 A 
ATOM     45  C   UNL A   1      41.836  26.733  29.190  1.00  0.00     0.049 A 
ATOM     46  H   UNL A   1      41.826  28.061  30.795  1.00  0.00     0.167 HD
ATOM     47  C   UNL A   1      41.765  31.036  34.016  1.00  0.00     0.037 A 
ATOM     48  C   UNL A   1      42.966  26.004  29.283  1.00  0.00     0.037 A 
ATOM     49  C   UNL A   1      42.961  30.265  34.235  1.00  0.00     0.049 A 
ATOM     50  C   UNL A   1      43.903  26.252  30.435  1.00  0.00     0.074 A 
ATOM     51  C   UNL A   1      43.890  30.386  35.254  1.00  0.00     0.029 A 
ATOM     52  N   UNL A   1      43.389  29.223  33.427  1.00  0.00    -0.354 N 
ATOM     53  N   UNL A   1      43.810  27.137  31.398  1.00  0.00    -0.248 NA
ATOM     54  C   UNL A   1      45.091  25.391  30.520  1.00  0.00     0.031 C 
ATOM     55  C   UNL A   1      44.892  29.431  35.048  1.00  0.00     0.029 A 
ATOM     56  C   UNL A   1      44.568  28.692  33.922  1.00  0.00     0.049 A 
ATOM     57  H   UNL A   1      42.923  28.906  32.619  1.00  0.00     0.167 HD
ATOM     58  C   UNL A   1      44.911  26.921  32.219  1.00  0.00     0.074 A 
ATOM     59  C   UNL A   1      45.649  25.813  31.646  1.00  0.00     0.031 C 
ATOM     60  C   UNL A   1      45.278  27.578  33.346  1.00  0.00     0.037 A 
BRANCH  47  61
ATOM     61  C   UNL A   1      41.436  32.140  34.982  1.00  0.00     0.058 A 
ATOM     62  C   UNL A   1      40.558  31.931  36.059  1.00  0.00     0.135 A 
ATOM     63  C   UNL A   1      42.017  33.411  34.850  1.00  0.00     0.135 A 
ATOM     64  F   UNL A   1      39.962  30.740  36.223  1.00  0.00    -0.206 F 
ATOM     65  C   UNL A   1      40.245  32.950  36.952  1.00  0.00     0.059 A 
ATOM     66  C   UNL A   1      41.739  34.439  35.747  1.00  0.00     0.059 A 
ATOM     67  F   UNL A   1      42.862  33.667  33.839  1.00  0.00    -0.206 F 
ATOM     68  C   UNL A   1      40.839  34.202  36.787  1.00  0.00     0.060 A 
BRANCH  68  69
ATOM     69  S   UNL A   1      40.421  35.516  37.953  1.00  0.00     0.124 S 
ATOM     70  O   UNL A   1      41.696  35.715  38.633  1.00  0.00    -0.237 OA
ATOM     71  O   UNL A   1      39.999  36.598  37.068  1.00  0.00    -0.237 OA
ATOM     72  O   UNL A   1      39.362  34.925  38.763  1.00  0.00    -0.744 OA
ENDBRANCH  68  69
ENDBRANCH  47  61
BRANCH  48  73
ATOM     73  C   UNL A   1      43.264  24.957  28.272  1.00  0.00     0.058 A 
ATOM     74  C   UNL A   1      43.897  25.280  27.063  1.00  0.00     0.135 A 
ATOM     75  C   UNL A   1      42.918  23.615  28.491  1.00  0.00     0.135 A 
ATOM     76  F   UNL A   1      44.245  26.550  26.807  1.00  0.00    -0.206 F 
ATOM     77  C   UNL A   1      44.155  24.316  26.094  1.00  0.00     0.059 A 
ATOM     78  C   UNL A   1      43.186  22.628  27.548  1.00  0.00     0.059 A 
ATOM     79  F   UNL A   1      42.328  23.252  29.640  1.00  0.00    -0.206 F 
ATOM     80  C   UNL A   1      43.791  22.991  26.346  1.00  0.00     0.060 A 
BRANCH  80  81
ATOM     81  S   UNL A   1      44.157  21.739  25.097  1.00  0.00     0.124 S 
ATOM     82  O   UNL A   1      43.127  20.742  25.373  1.00  0.00    -0.237 OA
ATOM     83  O   UNL A   1      44.004  22.487  23.853  1.00  0.00    -0.237 OA
ATOM     84  O   UNL A   1      45.524  21.339  25.416  1.00  0.00    -0.744 OA
ENDBRANCH  80  81
ENDBRANCH  48  73
BRANCH  60  85
ATOM     85  C   UNL A   1      46.509  27.089  34.058  1.00  0.00     0.058 A 
ATOM     86  C   UNL A   1      47.782  27.606  33.773  1.00  0.00     0.135 A 
ATOM     87  C   UNL A   1      46.404  26.114  35.063  1.00  0.00     0.135 A 
ATOM     88  F   UNL A   1      47.935  28.535  32.817  1.00  0.00    -0.206 F 
ATOM     89  C   UNL A   1      48.915  27.153  34.441  1.00  0.00     0.059 A 
ATOM     90  C   UNL A   1      47.521  25.665  35.761  1.00  0.00     0.059 A 
ATOM     91  F   UNL A   1      45.208  25.596  35.381  1.00  0.00    -0.206 F 
ATOM     92  C   UNL A   1      48.774  26.180  35.433  1.00  0.00     0.060 A 
BRANCH  92  93
ATOM     93  S   UNL A   1      50.248  25.613  36.309  1.00  0.00     0.124 S 
ATOM     94  O   UNL A   1      51.293  26.398  35.661  1.00  0.00    -0.237 OA
ATOM     95  O   UNL A   1      49.949  25.974  37.691  1.00  0.00    -0.237 OA
ATOM     96  O   UNL A   1      50.274  24.180  36.034  1.00  0.00    -0.744 OA
ENDBRANCH  92  93
ENDBRANCH  60  85
ENDBRANCH  34  35
ENDBRANCH  26  29
ENDBRANCH  24  25
ENDBRANCH  23  24
ENDBRANCH  22  23
ENDBRANCH   1  22
TORSDOF 19
ENDMDL
