MODEL 1
REMARK VINA RESULT:     -11.1      0.000      0.000
REMARK SMILES O=C(NCCCCCCNC(=O)[C@H]1C=C[C@@H](NS(=O)(=O)c2ccccc2)C1)c1ccc(-c2c3nc(c(-c4c(F)cc(S(=O)(=O)[O-])cc4F)c4ccc([nH]4)c(-c4c(F)cc(S(=O)(=O)[O-])cc4F)c4nc(c(-c5c(F)cc(S(=O)(=O)[O-])cc5F)c5ccc2[nH]5)C=C4)C=C3)cc1
REMARK SMILES IDX 6 1 5 2 4 3 3 4 1 5 2 6 28 8 29 9 93 10 30 11 92 12 31 13
REMARK SMILES IDX 32 14 33 15 86 16 34 17 91 18 85 19 87 20 35 21 90 22 84 23
REMARK SMILES IDX 83 24 36 26 70 27 49 28 69 29 50 30 53 31 68 32 88 33 51 34
REMARK SMILES IDX 52 35 67 37 89 38 54 39 37 40 38 41 47 42 39 43 40 44 46 45
REMARK SMILES IDX 48 46 41 47 42 48 43 49 44 50 45 51 71 52 72 53 81 54 73 55
REMARK SMILES IDX 74 56 80 57 82 58 75 59 76 60 77 61 78 62 79 63 55 64 56 65
REMARK SMILES IDX 65 66 57 67 58 68 64 69 66 70 59 71 60 72 61 73 62 74 63 75
REMARK SMILES IDX 7 76 8 77 9 78 10 79 11 80 12 82 13 83 14 84 27 85 15 86
REMARK SMILES IDX 16 87 17 88 18 90 19 91 20 92 21 93 22 94 26 95 23 96 25 97
REMARK SMILES IDX 24 98
REMARK H PARENT 3 7 87 25 53 36 10 81 17 89
REMARK Flexibility Score: inf
ROOT
ATOM      1  C   UNL A   1      31.679  28.434  25.991  1.00  0.00     0.002 C 
ENDROOT
BRANCH   1   2
ATOM      2  C   UNL A   1      32.918  27.546  26.094  1.00  0.00     0.021 C 
BRANCH   2   3
ATOM      3  C   UNL A   1      34.136  28.263  26.661  1.00  0.00     0.116 C 
BRANCH   3   4
ATOM      4  N   UNL A   1      33.810  29.622  27.068  1.00  0.00    -0.352 N 
ATOM      5  O   UNL A   1      33.991  31.473  28.346  1.00  0.00    -0.269 OA
ATOM      6  C   UNL A   1      34.517  30.463  27.891  1.00  0.00     0.251 C 
ATOM      7  H   UNL A   1      32.971  29.987  26.704  1.00  0.00     0.163 HD
BRANCH   6   8
ATOM      8  C   UNL A   1      35.916  30.126  28.227  1.00  0.00     0.039 A 
ATOM      9  C   UNL A   1      36.926  30.331  27.284  1.00  0.00     0.014 A 
ATOM     10  C   UNL A   1      36.220  29.603  29.486  1.00  0.00     0.014 A 
ATOM     11  C   UNL A   1      38.212  29.886  27.545  1.00  0.00     0.010 A 
ATOM     12  C   UNL A   1      37.539  29.251  29.785  1.00  0.00     0.010 A 
ATOM     13  C   UNL A   1      38.543  29.375  28.810  1.00  0.00    -0.014 A 
BRANCH  13  14
ATOM     14  C   UNL A   1      39.965  29.078  29.114  1.00  0.00     0.031 A 
ATOM     15  C   UNL A   1      40.853  30.089  29.782  1.00  0.00     0.074 A 
ATOM     16  C   UNL A   1      40.438  27.858  28.793  1.00  0.00     0.049 A 
ATOM     17  N   UNL A   1      42.111  29.976  30.123  1.00  0.00    -0.248 NA
ATOM     18  C   UNL A   1      40.261  31.396  30.106  1.00  0.00     0.031 C 
ATOM     19  C   UNL A   1      39.663  26.804  28.126  1.00  0.00     0.029 A 
ATOM     20  N   UNL A   1      41.667  27.285  28.992  1.00  0.00    -0.354 N 
ATOM     21  C   UNL A   1      42.469  31.196  30.685  1.00  0.00     0.074 A 
ATOM     22  C   UNL A   1      41.299  32.046  30.616  1.00  0.00     0.031 C 
ATOM     23  C   UNL A   1      40.417  25.703  28.017  1.00  0.00     0.029 A 
ATOM     24  C   UNL A   1      41.749  25.992  28.531  1.00  0.00     0.049 A 
ATOM     25  H   UNL A   1      42.417  27.754  29.424  1.00  0.00     0.167 HD
ATOM     26  C   UNL A   1      43.660  31.562  31.215  1.00  0.00     0.037 A 
ATOM     27  C   UNL A   1      42.789  25.139  28.497  1.00  0.00     0.037 A 
ATOM     28  C   UNL A   1      44.815  30.698  31.277  1.00  0.00     0.049 A 
ATOM     29  C   UNL A   1      44.108  25.588  29.056  1.00  0.00     0.074 A 
ATOM     30  C   UNL A   1      46.059  30.964  31.821  1.00  0.00     0.029 A 
ATOM     31  N   UNL A   1      44.871  29.405  30.772  1.00  0.00    -0.354 N 
ATOM     32  N   UNL A   1      44.416  26.732  29.619  1.00  0.00    -0.248 NA
ATOM     33  C   UNL A   1      45.219  24.633  28.976  1.00  0.00     0.031 C 
ATOM     34  C   UNL A   1      46.883  29.856  31.595  1.00  0.00     0.029 A 
ATOM     35  C   UNL A   1      46.136  28.874  30.966  1.00  0.00     0.049 A 
ATOM     36  H   UNL A   1      44.122  28.937  30.338  1.00  0.00     0.167 HD
ATOM     37  C   UNL A   1      45.753  26.628  29.978  1.00  0.00     0.074 A 
ATOM     38  C   UNL A   1      46.186  25.301  29.589  1.00  0.00     0.031 C 
ATOM     39  C   UNL A   1      46.551  27.548  30.573  1.00  0.00     0.037 A 
BRANCH  26  40
ATOM     40  C   UNL A   1      43.794  32.962  31.755  1.00  0.00     0.058 A 
ATOM     41  C   UNL A   1      44.178  34.038  30.939  1.00  0.00     0.135 A 
ATOM     42  C   UNL A   1      43.471  33.243  33.094  1.00  0.00     0.135 A 
ATOM     43  F   UNL A   1      44.511  33.828  29.655  1.00  0.00    -0.206 F 
ATOM     44  C   UNL A   1      44.258  35.336  31.435  1.00  0.00     0.059 A 
ATOM     45  C   UNL A   1      43.518  34.538  33.604  1.00  0.00     0.059 A 
ATOM     46  F   UNL A   1      43.098  32.253  33.921  1.00  0.00    -0.206 F 
ATOM     47  C   UNL A   1      43.924  35.577  32.769  1.00  0.00     0.060 A 
BRANCH  47  48
ATOM     48  S   UNL A   1      44.023  37.269  33.389  1.00  0.00     0.124 S 
ATOM     49  O   UNL A   1      42.781  37.374  34.149  1.00  0.00    -0.237 OA
ATOM     50  O   UNL A   1      45.249  37.239  34.181  1.00  0.00    -0.237 OA
ATOM     51  O   UNL A   1      44.084  38.076  32.174  1.00  0.00    -0.744 OA
ENDBRANCH  47  48
ENDBRANCH  26  40
BRANCH  27  52
ATOM     52  C   UNL A   1      42.622  23.791  27.894  1.00  0.00     0.058 A 
ATOM     53  C   UNL A   1      42.614  23.612  26.504  1.00  0.00     0.135 A 
ATOM     54  C   UNL A   1      42.484  22.648  28.700  1.00  0.00     0.135 A 
ATOM     55  F   UNL A   1      42.741  24.672  25.691  1.00  0.00    -0.206 F 
ATOM     56  C   UNL A   1      42.455  22.354  25.932  1.00  0.00     0.059 A 
ATOM     57  C   UNL A   1      42.359  21.377  28.153  1.00  0.00     0.059 A 
ATOM     58  F   UNL A   1      42.506  22.761  30.038  1.00  0.00    -0.206 F 
ATOM     59  C   UNL A   1      42.330  21.242  26.767  1.00  0.00     0.060 A 
BRANCH  59  60
ATOM     60  S   UNL A   1      42.155  19.610  26.015  1.00  0.00     0.124 S 
ATOM     61  O   UNL A   1      40.728  19.578  25.716  1.00  0.00    -0.237 OA
ATOM     62  O   UNL A   1      43.048  19.707  24.864  1.00  0.00    -0.237 OA
ATOM     63  O   UNL A   1      42.600  18.705  27.070  1.00  0.00    -0.744 OA
ENDBRANCH  59  60
ENDBRANCH  27  52
BRANCH  39  64
ATOM     64  C   UNL A   1      47.968  27.138  30.869  1.00  0.00     0.058 A 
ATOM     65  C   UNL A   1      48.328  26.551  32.093  1.00  0.00     0.135 A 
ATOM     66  C   UNL A   1      48.972  27.307  29.902  1.00  0.00     0.135 A 
ATOM     67  F   UNL A   1      47.408  26.377  33.055  1.00  0.00    -0.206 F 
ATOM     68  C   UNL A   1      49.640  26.174  32.359  1.00  0.00     0.059 A 
ATOM     69  C   UNL A   1      50.283  26.906  30.134  1.00  0.00     0.059 A 
ATOM     70  F   UNL A   1      48.681  27.854  28.712  1.00  0.00    -0.206 F 
ATOM     71  C   UNL A   1      50.611  26.354  31.372  1.00  0.00     0.060 A 
BRANCH  71  72
ATOM     72  S   UNL A   1      52.303  25.834  31.721  1.00  0.00     0.124 S 
ATOM     73  O   UNL A   1      52.114  24.428  32.065  1.00  0.00    -0.237 OA
ATOM     74  O   UNL A   1      52.976  26.093  30.452  1.00  0.00    -0.237 OA
ATOM     75  O   UNL A   1      52.705  26.701  32.825  1.00  0.00    -0.744 OA
ENDBRANCH  71  72
ENDBRANCH  39  64
ENDBRANCH  13  14
ENDBRANCH   6   8
ENDBRANCH   3   4
ENDBRANCH   2   3
ENDBRANCH   1   2
BRANCH   1  76
ATOM     76  C   UNL A   1      30.734  28.073  24.840  1.00  0.00     0.002 C 
BRANCH  76  77
ATOM     77  C   UNL A   1      31.244  28.460  23.446  1.00  0.00     0.021 C 
BRANCH  77  78
ATOM     78  C   UNL A   1      30.639  27.617  22.318  1.00  0.00     0.116 C 
BRANCH  78  79
ATOM     79  N   UNL A   1      31.681  26.894  21.622  1.00  0.00    -0.356 N 
ATOM     80  C   UNL A   1      32.551  25.933  22.018  1.00  0.00     0.226 C 
ATOM     81  H   UNL A   1      31.776  27.150  20.675  1.00  0.00     0.163 HD
ATOM     82  O   UNL A   1      33.405  25.610  21.180  1.00  0.00    -0.274 OA
BRANCH  80  83
ATOM     83  C   UNL A   1      32.451  25.179  23.358  1.00  0.00     0.103 C 
ATOM     84  C   UNL A   1      31.463  24.049  23.208  1.00  0.00    -0.016 C 
ATOM     85  C   UNL A   1      33.662  24.432  23.922  1.00  0.00     0.042 C 
ATOM     86  C   UNL A   1      31.873  22.921  23.794  1.00  0.00    -0.011 C 
ATOM     87  C   UNL A   1      33.164  23.101  24.501  1.00  0.00     0.093 C 
BRANCH  87  88
ATOM     88  N   UNL A   1      34.130  22.064  24.188  1.00  0.00    -0.204 NA
ATOM     89  H   UNL A   1      34.982  22.550  23.904  1.00  0.00     0.142 HD
BRANCH  88  90
ATOM     90  S   UNL A   1      34.605  20.905  25.288  1.00  0.00     0.241 S 
ATOM     91  O   UNL A   1      36.050  20.909  25.359  1.00  0.00    -0.207 OA
ATOM     92  O   UNL A   1      33.803  21.127  26.470  1.00  0.00    -0.207 OA
BRANCH  90  93
ATOM     93  C   UNL A   1      34.080  19.390  24.539  1.00  0.00     0.082 A 
ATOM     94  C   UNL A   1      34.919  18.275  24.539  1.00  0.00     0.022 A 
ATOM     95  C   UNL A   1      32.826  19.344  23.920  1.00  0.00     0.022 A 
ATOM     96  C   UNL A   1      34.488  17.099  23.923  1.00  0.00     0.001 A 
ATOM     97  C   UNL A   1      32.402  18.167  23.309  1.00  0.00     0.001 A 
ATOM     98  C   UNL A   1      33.233  17.046  23.310  1.00  0.00     0.000 A 
ENDBRANCH  90  93
ENDBRANCH  88  90
ENDBRANCH  87  88
ENDBRANCH  80  83
ENDBRANCH  78  79
ENDBRANCH  77  78
ENDBRANCH  76  77
ENDBRANCH   1  76
TORSDOF 19
ENDMDL
MODEL 2
REMARK VINA RESULT:     -11.0      3.257      4.127
REMARK SMILES O=C(NCCCCCCNC(=O)[C@H]1C=C[C@@H](NS(=O)(=O)c2ccccc2)C1)c1ccc(-c2c3nc(c(-c4c(F)cc(S(=O)(=O)[O-])cc4F)c4ccc([nH]4)c(-c4c(F)cc(S(=O)(=O)[O-])cc4F)c4nc(c(-c5c(F)cc(S(=O)(=O)[O-])cc5F)c5ccc2[nH]5)C=C4)C=C3)cc1
REMARK SMILES IDX 6 1 5 2 4 3 3 4 1 5 2 6 28 8 29 9 93 10 30 11 92 12 31 13
REMARK SMILES IDX 32 14 33 15 86 16 34 17 91 18 85 19 87 20 35 21 90 22 84 23
REMARK SMILES IDX 83 24 36 26 70 27 49 28 69 29 50 30 53 31 68 32 88 33 51 34
REMARK SMILES IDX 52 35 67 37 89 38 54 39 37 40 38 41 47 42 39 43 40 44 46 45
REMARK SMILES IDX 48 46 41 47 42 48 43 49 44 50 45 51 71 52 72 53 81 54 73 55
REMARK SMILES IDX 74 56 80 57 82 58 75 59 76 60 77 61 78 62 79 63 55 64 56 65
REMARK SMILES IDX 65 66 57 67 58 68 64 69 66 70 59 71 60 72 61 73 62 74 63 75
REMARK SMILES IDX 7 76 8 77 9 78 10 79 11 80 12 82 13 83 14 84 27 85 15 86
REMARK SMILES IDX 16 87 17 88 18 90 19 91 20 92 21 93 22 94 26 95 23 96 25 97
REMARK SMILES IDX 24 98
REMARK H PARENT 3 7 87 25 53 36 10 81 17 89
REMARK Flexibility Score: inf
ROOT
ATOM      1  C   UNL A   1      33.760  29.310  26.881  1.00  0.00     0.002 C 
ENDROOT
BRANCH   1   2
ATOM      2  C   UNL A   1      34.968  29.299  27.818  1.00  0.00     0.021 C 
BRANCH   2   3
ATOM      3  C   UNL A   1      35.506  30.687  28.136  1.00  0.00     0.116 C 
BRANCH   3   4
ATOM      4  N   UNL A   1      35.459  30.960  29.565  1.00  0.00    -0.352 N 
ATOM      5  O   UNL A   1      36.112  30.731  31.712  1.00  0.00    -0.269 OA
ATOM      6  C   UNL A   1      36.402  30.678  30.522  1.00  0.00     0.251 C 
ATOM      7  H   UNL A   1      34.643  31.406  29.888  1.00  0.00     0.163 HD
BRANCH   6   8
ATOM      8  C   UNL A   1      37.766  30.301  30.094  1.00  0.00     0.039 A 
ATOM      9  C   UNL A   1      38.146  30.466  28.761  1.00  0.00     0.014 A 
ATOM     10  C   UNL A   1      38.666  29.782  31.027  1.00  0.00     0.014 A 
ATOM     11  C   UNL A   1      39.372  29.984  28.330  1.00  0.00     0.010 A 
ATOM     12  C   UNL A   1      39.942  29.393  30.610  1.00  0.00     0.010 A 
ATOM     13  C   UNL A   1      40.298  29.476  29.254  1.00  0.00    -0.014 A 
BRANCH  13  14
ATOM     14  C   UNL A   1      41.666  29.139  28.786  1.00  0.00     0.031 A 
ATOM     15  C   UNL A   1      42.761  30.167  28.753  1.00  0.00     0.074 A 
ATOM     16  C   UNL A   1      41.909  27.868  28.409  1.00  0.00     0.049 A 
ATOM     17  N   UNL A   1      44.008  30.024  28.382  1.00  0.00    -0.248 NA
ATOM     18  C   UNL A   1      42.417  31.530  29.185  1.00  0.00     0.031 C 
ATOM     19  C   UNL A   1      40.911  26.791  28.388  1.00  0.00     0.029 A 
ATOM     20  N   UNL A   1      43.061  27.255  27.989  1.00  0.00    -0.354 N 
ATOM     21  C   UNL A   1      44.595  31.277  28.518  1.00  0.00     0.074 A 
ATOM     22  C   UNL A   1      43.559  32.175  28.983  1.00  0.00     0.031 C 
ATOM     23  C   UNL A   1      41.504  25.646  28.025  1.00  0.00     0.029 A 
ATOM     24  C   UNL A   1      42.900  25.918  27.712  1.00  0.00     0.049 A 
ATOM     25  H   UNL A   1      43.920  27.727  27.896  1.00  0.00     0.167 HD
ATOM     26  C   UNL A   1      45.881  31.634  28.284  1.00  0.00     0.037 A 
ATOM     27  C   UNL A   1      43.771  25.013  27.231  1.00  0.00     0.037 A 
ATOM     28  C   UNL A   1      46.900  30.721  27.824  1.00  0.00     0.049 A 
ATOM     29  C   UNL A   1      45.178  25.448  26.944  1.00  0.00     0.074 A 
ATOM     30  C   UNL A   1      48.238  30.978  27.585  1.00  0.00     0.029 A 
ATOM     31  N   UNL A   1      46.693  29.381  27.523  1.00  0.00    -0.354 N 
ATOM     32  N   UNL A   1      45.726  26.628  27.116  1.00  0.00    -0.248 NA
ATOM     33  C   UNL A   1      46.086  24.433  26.398  1.00  0.00     0.031 C 
ATOM     34  C   UNL A   1      48.828  29.810  27.088  1.00  0.00     0.029 A 
ATOM     35  C   UNL A   1      47.873  28.808  27.075  1.00  0.00     0.049 A 
ATOM     36  H   UNL A   1      45.834  28.910  27.614  1.00  0.00     0.167 HD
ATOM     37  C   UNL A   1      47.048  26.493  26.717  1.00  0.00     0.074 A 
ATOM     38  C   UNL A   1      47.223  25.111  26.317  1.00  0.00     0.031 C 
ATOM     39  C   UNL A   1      48.029  27.428  26.681  1.00  0.00     0.037 A 
BRANCH  26  40
ATOM     40  C   UNL A   1      46.264  33.074  28.500  1.00  0.00     0.058 A 
ATOM     41  C   UNL A   1      46.168  34.029  27.475  1.00  0.00     0.135 A 
ATOM     42  C   UNL A   1      46.674  33.520  29.769  1.00  0.00     0.135 A 
ATOM     43  F   UNL A   1      45.796  33.659  26.239  1.00  0.00    -0.206 F 
ATOM     44  C   UNL A   1      46.485  35.367  27.693  1.00  0.00     0.059 A 
ATOM     45  C   UNL A   1      46.969  34.859  30.016  1.00  0.00     0.059 A 
ATOM     46  F   UNL A   1      46.784  32.652  30.787  1.00  0.00    -0.206 F 
ATOM     47  C   UNL A   1      46.882  35.773  28.968  1.00  0.00     0.060 A 
BRANCH  47  48
ATOM     48  S   UNL A   1      47.276  37.514  29.233  1.00  0.00     0.124 S 
ATOM     49  O   UNL A   1      46.457  37.824  30.401  1.00  0.00    -0.237 OA
ATOM     50  O   UNL A   1      48.718  37.475  29.464  1.00  0.00    -0.237 OA
ATOM     51  O   UNL A   1      46.860  38.153  27.989  1.00  0.00    -0.744 OA
ENDBRANCH  47  48
ENDBRANCH  26  40
BRANCH  27  52
ATOM     52  C   UNL A   1      43.324  23.618  26.974  1.00  0.00     0.058 A 
ATOM     53  C   UNL A   1      43.104  22.720  28.027  1.00  0.00     0.135 A 
ATOM     54  C   UNL A   1      43.088  23.162  25.666  1.00  0.00     0.135 A 
ATOM     55  F   UNL A   1      43.316  23.107  29.294  1.00  0.00    -0.206 F 
ATOM     56  C   UNL A   1      42.689  21.413  27.795  1.00  0.00     0.059 A 
ATOM     57  C   UNL A   1      42.640  21.872  25.411  1.00  0.00     0.059 A 
ATOM     58  F   UNL A   1      43.262  23.988  24.623  1.00  0.00    -0.206 F 
ATOM     59  C   UNL A   1      42.458  20.999  26.482  1.00  0.00     0.060 A 
BRANCH  59  60
ATOM     60  S   UNL A   1      41.889  19.311  26.193  1.00  0.00     0.124 S 
ATOM     61  O   UNL A   1      42.275  18.656  27.438  1.00  0.00    -0.237 OA
ATOM     62  O   UNL A   1      40.456  19.502  25.989  1.00  0.00    -0.237 OA
ATOM     63  O   UNL A   1      42.636  18.903  25.007  1.00  0.00    -0.744 OA
ENDBRANCH  59  60
ENDBRANCH  27  52
BRANCH  39  64
ATOM     64  C   UNL A   1      49.389  26.977  26.224  1.00  0.00     0.058 A 
ATOM     65  C   UNL A   1      50.297  26.358  27.098  1.00  0.00     0.135 A 
ATOM     66  C   UNL A   1      49.777  27.140  24.884  1.00  0.00     0.135 A 
ATOM     67  F   UNL A   1      49.980  26.187  28.391  1.00  0.00    -0.206 F 
ATOM     68  C   UNL A   1      51.553  25.944  26.667  1.00  0.00     0.059 A 
ATOM     69  C   UNL A   1      51.014  26.703  24.423  1.00  0.00     0.059 A 
ATOM     70  F   UNL A   1      48.945  27.717  24.004  1.00  0.00    -0.206 F 
ATOM     71  C   UNL A   1      51.902  26.119  25.326  1.00  0.00     0.060 A 
BRANCH  71  72
ATOM     72  S   UNL A   1      53.524  25.551  24.775  1.00  0.00     0.124 S 
ATOM     73  O   UNL A   1      54.415  26.361  25.600  1.00  0.00    -0.237 OA
ATOM     74  O   UNL A   1      53.481  24.128  25.095  1.00  0.00    -0.237 OA
ATOM     75  O   UNL A   1      53.529  25.868  23.349  1.00  0.00    -0.744 OA
ENDBRANCH  71  72
ENDBRANCH  39  64
ENDBRANCH  13  14
ENDBRANCH   6   8
ENDBRANCH   3   4
ENDBRANCH   2   3
ENDBRANCH   1   2
BRANCH   1  76
ATOM     76  C   UNL A   1      33.925  28.452  25.622  1.00  0.00     0.002 C 
BRANCH  76  77
ATOM     77  C   UNL A   1      33.117  28.931  24.409  1.00  0.00     0.021 C 
BRANCH  77  78
ATOM     78  C   UNL A   1      31.682  29.344  24.757  1.00  0.00     0.116 C 
BRANCH  78  79
ATOM     79  N   UNL A   1      30.964  29.710  23.556  1.00  0.00    -0.356 N 
ATOM     80  C   UNL A   1      30.378  28.975  22.579  1.00  0.00     0.226 C 
ATOM     81  H   UNL A   1      30.884  30.683  23.422  1.00  0.00     0.163 HD
ATOM     82  O   UNL A   1      29.943  29.621  21.615  1.00  0.00    -0.274 OA
BRANCH  80  83
ATOM     83  C   UNL A   1      30.138  27.456  22.670  1.00  0.00     0.103 C 
ATOM     84  C   UNL A   1      31.364  26.739  22.160  1.00  0.00    -0.016 C 
ATOM     85  C   UNL A   1      29.950  26.779  24.029  1.00  0.00     0.042 C 
ATOM     86  C   UNL A   1      31.694  25.682  22.907  1.00  0.00    -0.011 C 
ATOM     87  C   UNL A   1      30.720  25.451  24.002  1.00  0.00     0.093 C 
BRANCH  87  88
ATOM     88  N   UNL A   1      31.356  25.253  25.292  1.00  0.00    -0.204 NA
ATOM     89  H   UNL A   1      30.790  25.769  25.966  1.00  0.00     0.142 HD
BRANCH  88  90
ATOM     90  S   UNL A   1      31.605  23.746  25.958  1.00  0.00     0.241 S 
ATOM     91  O   UNL A   1      31.206  23.789  27.348  1.00  0.00    -0.207 OA
ATOM     92  O   UNL A   1      31.005  22.802  25.042  1.00  0.00    -0.207 OA
BRANCH  90  93
ATOM     93  C   UNL A   1      33.363  23.551  25.881  1.00  0.00     0.082 A 
ATOM     94  C   UNL A   1      34.170  24.596  25.429  1.00  0.00     0.022 A 
ATOM     95  C   UNL A   1      33.921  22.322  26.250  1.00  0.00     0.022 A 
ATOM     96  C   UNL A   1      35.551  24.408  25.360  1.00  0.00     0.001 A 
ATOM     97  C   UNL A   1      35.300  22.142  26.179  1.00  0.00     0.001 A 
ATOM     98  C   UNL A   1      36.113  23.184  25.733  1.00  0.00     0.000 A 
ENDBRANCH  90  93
ENDBRANCH  88  90
ENDBRANCH  87  88
ENDBRANCH  80  83
ENDBRANCH  78  79
ENDBRANCH  77  78
ENDBRANCH  76  77
ENDBRANCH   1  76
TORSDOF 19
ENDMDL
MODEL 3
REMARK VINA RESULT:     -10.9      3.158      8.792
REMARK SMILES O=C(NCCCCCCNC(=O)[C@H]1C=C[C@@H](NS(=O)(=O)c2ccccc2)C1)c1ccc(-c2c3nc(c(-c4c(F)cc(S(=O)(=O)[O-])cc4F)c4ccc([nH]4)c(-c4c(F)cc(S(=O)(=O)[O-])cc4F)c4nc(c(-c5c(F)cc(S(=O)(=O)[O-])cc5F)c5ccc2[nH]5)C=C4)C=C3)cc1
REMARK SMILES IDX 6 1 5 2 4 3 3 4 1 5 2 6 28 8 29 9 93 10 30 11 92 12 31 13
REMARK SMILES IDX 32 14 33 15 86 16 34 17 91 18 85 19 87 20 35 21 90 22 84 23
REMARK SMILES IDX 83 24 36 26 70 27 49 28 69 29 50 30 53 31 68 32 88 33 51 34
REMARK SMILES IDX 52 35 67 37 89 38 54 39 37 40 38 41 47 42 39 43 40 44 46 45
REMARK SMILES IDX 48 46 41 47 42 48 43 49 44 50 45 51 71 52 72 53 81 54 73 55
REMARK SMILES IDX 74 56 80 57 82 58 75 59 76 60 77 61 78 62 79 63 55 64 56 65
REMARK SMILES IDX 65 66 57 67 58 68 64 69 66 70 59 71 60 72 61 73 62 74 63 75
REMARK SMILES IDX 7 76 8 77 9 78 10 79 11 80 12 82 13 83 14 84 27 85 15 86
REMARK SMILES IDX 16 87 17 88 18 90 19 91 20 92 21 93 22 94 26 95 23 96 25 97
REMARK SMILES IDX 24 98
REMARK H PARENT 3 7 87 25 53 36 10 81 17 89
REMARK Flexibility Score: inf
ROOT
ATOM      1  C   UNL A   1      34.318  24.830  24.400  1.00  0.00     0.002 C 
ENDROOT
BRANCH   1   2
ATOM      2  C   UNL A   1      35.537  23.910  24.451  1.00  0.00     0.021 C 
BRANCH   2   3
ATOM      3  C   UNL A   1      36.321  24.010  25.752  1.00  0.00     0.116 C 
BRANCH   3   4
ATOM      4  N   UNL A   1      37.132  22.821  25.975  1.00  0.00    -0.352 N 
ATOM      5  O   UNL A   1      39.063  21.674  26.188  1.00  0.00    -0.269 OA
ATOM      6  C   UNL A   1      38.466  22.741  26.286  1.00  0.00     0.251 C 
ATOM      7  H   UNL A   1      36.660  21.961  25.892  1.00  0.00     0.163 HD
BRANCH   6   8
ATOM      8  C   UNL A   1      39.172  23.960  26.732  1.00  0.00     0.039 A 
ATOM      9  C   UNL A   1      39.194  24.293  28.089  1.00  0.00     0.014 A 
ATOM     10  C   UNL A   1      39.813  24.773  25.794  1.00  0.00     0.014 A 
ATOM     11  C   UNL A   1      39.733  25.506  28.491  1.00  0.00     0.010 A 
ATOM     12  C   UNL A   1      40.447  25.944  26.217  1.00  0.00     0.010 A 
ATOM     13  C   UNL A   1      40.397  26.328  27.567  1.00  0.00    -0.014 A 
BRANCH  13  14
ATOM     14  C   UNL A   1      41.118  27.527  28.064  1.00  0.00     0.031 A 
ATOM     15  C   UNL A   1      42.611  27.648  27.954  1.00  0.00     0.074 A 
ATOM     16  C   UNL A   1      40.388  28.525  28.600  1.00  0.00     0.049 A 
ATOM     17  N   UNL A   1      43.383  28.634  28.331  1.00  0.00    -0.248 NA
ATOM     18  C   UNL A   1      43.335  26.518  27.352  1.00  0.00     0.031 C 
ATOM     19  C   UNL A   1      38.930  28.504  28.768  1.00  0.00     0.029 A 
ATOM     20  N   UNL A   1      40.756  29.752  29.086  1.00  0.00    -0.354 N 
ATOM     21  C   UNL A   1      44.682  28.243  28.029  1.00  0.00     0.074 A 
ATOM     22  C   UNL A   1      44.597  26.914  27.460  1.00  0.00     0.031 C 
ATOM     23  C   UNL A   1      38.526  29.678  29.272  1.00  0.00     0.029 A 
ATOM     24  C   UNL A   1      39.697  30.503  29.536  1.00  0.00     0.049 A 
ATOM     25  H   UNL A   1      41.690  30.065  29.111  1.00  0.00     0.167 HD
ATOM     26  C   UNL A   1      45.833  28.937  28.204  1.00  0.00     0.037 A 
ATOM     27  C   UNL A   1      39.668  31.714  30.123  1.00  0.00     0.037 A 
ATOM     28  C   UNL A   1      45.897  30.263  28.770  1.00  0.00     0.049 A 
ATOM     29  C   UNL A   1      40.963  32.441  30.340  1.00  0.00     0.074 A 
ATOM     30  C   UNL A   1      47.009  31.062  28.963  1.00  0.00     0.029 A 
ATOM     31  N   UNL A   1      44.806  30.980  29.244  1.00  0.00    -0.354 N 
ATOM     32  N   UNL A   1      42.179  32.071  30.012  1.00  0.00    -0.248 NA
ATOM     33  C   UNL A   1      40.885  33.746  31.005  1.00  0.00     0.031 C 
ATOM     34  C   UNL A   1      46.601  32.238  29.603  1.00  0.00     0.029 A 
ATOM     35  C   UNL A   1      45.224  32.200  29.752  1.00  0.00     0.049 A 
ATOM     36  H   UNL A   1      43.873  30.668  29.221  1.00  0.00     0.167 HD
ATOM     37  C   UNL A   1      43.010  33.107  30.415  1.00  0.00     0.074 A 
ATOM     38  C   UNL A   1      42.155  34.127  30.989  1.00  0.00     0.031 C 
ATOM     39  C   UNL A   1      44.359  33.205  30.321  1.00  0.00     0.037 A 
BRANCH  26  40
ATOM     40  C   UNL A   1      47.125  28.276  27.800  1.00  0.00     0.058 A 
ATOM     41  C   UNL A   1      47.668  28.432  26.515  1.00  0.00     0.135 A 
ATOM     42  C   UNL A   1      47.863  27.525  28.733  1.00  0.00     0.135 A 
ATOM     43  F   UNL A   1      47.001  29.127  25.579  1.00  0.00    -0.206 F 
ATOM     44  C   UNL A   1      48.884  27.853  26.162  1.00  0.00     0.059 A 
ATOM     45  C   UNL A   1      49.094  26.960  28.409  1.00  0.00     0.059 A 
ATOM     46  F   UNL A   1      47.392  27.342  29.976  1.00  0.00    -0.206 F 
ATOM     47  C   UNL A   1      49.590  27.120  27.117  1.00  0.00     0.060 A 
BRANCH  47  48
ATOM     48  S   UNL A   1      51.171  26.387  26.643  1.00  0.00     0.124 S 
ATOM     49  O   UNL A   1      51.063  26.379  25.187  1.00  0.00    -0.237 OA
ATOM     50  O   UNL A   1      52.132  27.334  27.201  1.00  0.00    -0.237 OA
ATOM     51  O   UNL A   1      51.145  25.075  27.281  1.00  0.00    -0.744 OA
ENDBRANCH  47  48
ENDBRANCH  26  40
BRANCH  27  52
ATOM     52  C   UNL A   1      38.371  32.293  30.562  1.00  0.00     0.058 A 
ATOM     53  C   UNL A   1      37.830  31.994  31.819  1.00  0.00     0.135 A 
ATOM     54  C   UNL A   1      37.656  33.177  29.736  1.00  0.00     0.135 A 
ATOM     55  F   UNL A   1      38.474  31.155  32.644  1.00  0.00    -0.206 F 
ATOM     56  C   UNL A   1      36.616  32.530  32.236  1.00  0.00     0.059 A 
ATOM     57  C   UNL A   1      36.459  33.753  30.143  1.00  0.00     0.059 A 
ATOM     58  F   UNL A   1      38.141  33.514  28.530  1.00  0.00    -0.206 F 
ATOM     59  C   UNL A   1      35.938  33.411  31.390  1.00  0.00     0.060 A 
BRANCH  59  60
ATOM     60  S   UNL A   1      34.379  34.126  31.952  1.00  0.00     0.124 S 
ATOM     61  O   UNL A   1      33.670  34.308  30.690  1.00  0.00    -0.237 OA
ATOM     62  O   UNL A   1      33.863  33.081  32.830  1.00  0.00    -0.237 OA
ATOM     63  O   UNL A   1      34.795  35.352  32.625  1.00  0.00    -0.744 OA
ENDBRANCH  59  60
ENDBRANCH  27  52
BRANCH  39  64
ATOM     64  C   UNL A   1      44.990  34.476  30.822  1.00  0.00     0.058 A 
ATOM     65  C   UNL A   1      45.157  35.597  29.993  1.00  0.00     0.135 A 
ATOM     66  C   UNL A   1      45.405  34.582  32.159  1.00  0.00     0.135 A 
ATOM     67  F   UNL A   1      44.786  35.545  28.704  1.00  0.00    -0.206 F 
ATOM     68  C   UNL A   1      45.741  36.767  30.464  1.00  0.00     0.059 A 
ATOM     69  C   UNL A   1      45.961  35.754  32.660  1.00  0.00     0.059 A 
ATOM     70  F   UNL A   1      45.261  33.543  32.997  1.00  0.00    -0.206 F 
ATOM     71  C   UNL A   1      46.138  36.837  31.801  1.00  0.00     0.060 A 
BRANCH  71  72
ATOM     72  S   UNL A   1      46.870  38.372  32.405  1.00  0.00     0.124 S 
ATOM     73  O   UNL A   1      46.335  39.345  31.458  1.00  0.00    -0.237 OA
ATOM     74  O   UNL A   1      46.344  38.453  33.764  1.00  0.00    -0.237 OA
ATOM     75  O   UNL A   1      48.306  38.126  32.309  1.00  0.00    -0.744 OA
ENDBRANCH  71  72
ENDBRANCH  39  64
ENDBRANCH  13  14
ENDBRANCH   6   8
ENDBRANCH   3   4
ENDBRANCH   2   3
ENDBRANCH   1   2
BRANCH   1  76
ATOM     76  C   UNL A   1      33.988  25.371  23.004  1.00  0.00     0.002 C 
BRANCH  76  77
ATOM     77  C   UNL A   1      32.671  24.854  22.412  1.00  0.00     0.021 C 
BRANCH  77  78
ATOM     78  C   UNL A   1      31.875  25.929  21.664  1.00  0.00     0.116 C 
BRANCH  78  79
ATOM     79  N   UNL A   1      32.328  27.247  22.053  1.00  0.00    -0.356 N 
ATOM     80  C   UNL A   1      31.911  28.113  23.009  1.00  0.00     0.226 C 
ATOM     81  H   UNL A   1      33.087  27.579  21.520  1.00  0.00     0.163 HD
ATOM     82  O   UNL A   1      32.456  29.225  22.992  1.00  0.00    -0.274 OA
BRANCH  80  83
ATOM     83  C   UNL A   1      30.922  27.747  24.133  1.00  0.00     0.103 C 
ATOM     84  C   UNL A   1      29.623  27.301  23.510  1.00  0.00    -0.016 C 
ATOM     85  C   UNL A   1      31.212  26.572  25.071  1.00  0.00     0.042 C 
ATOM     86  C   UNL A   1      29.095  26.235  24.118  1.00  0.00    -0.011 C 
ATOM     87  C   UNL A   1      29.896  25.815  25.293  1.00  0.00     0.093 C 
BRANCH  87  88
ATOM     88  N   UNL A   1      30.173  24.390  25.309  1.00  0.00    -0.204 NA
ATOM     89  H   UNL A   1      30.799  24.217  24.521  1.00  0.00     0.142 HD
BRANCH  88  90
ATOM     90  S   UNL A   1      30.853  23.612  26.617  1.00  0.00     0.241 S 
ATOM     91  O   UNL A   1      31.614  24.579  27.379  1.00  0.00    -0.207 OA
ATOM     92  O   UNL A   1      29.783  22.859  27.232  1.00  0.00    -0.207 OA
BRANCH  90  93
ATOM     93  C   UNL A   1      31.979  22.468  25.872  1.00  0.00     0.082 A 
ATOM     94  C   UNL A   1      31.799  22.060  24.549  1.00  0.00     0.022 A 
ATOM     95  C   UNL A   1      33.030  21.958  26.643  1.00  0.00     0.022 A 
ATOM     96  C   UNL A   1      32.690  21.141  23.994  1.00  0.00     0.001 A 
ATOM     97  C   UNL A   1      33.916  21.043  26.081  1.00  0.00     0.001 A 
ATOM     98  C   UNL A   1      33.745  20.634  24.758  1.00  0.00     0.000 A 
ENDBRANCH  90  93
ENDBRANCH  88  90
ENDBRANCH  87  88
ENDBRANCH  80  83
ENDBRANCH  78  79
ENDBRANCH  77  78
ENDBRANCH  76  77
ENDBRANCH   1  76
TORSDOF 19
ENDMDL
