MODEL 1
REMARK VINA RESULT:     -11.9      0.000      0.000
REMARK SMILES CS(=O)(=O)c1ccc(/C=C(/C(=O)NCCCCCCNC(=O)c2ccc(-c3c4nc(c(-c5c(F)cc(S(=O)(=O)[O-])cc5F)c5ccc([nH]5)c(-c5c(F)cc(S(=O)(=O)[O-])cc5F)c5nc(c(-c6c(F)cc(S(=O)(=O)[O-])cc6F)c6ccc3[nH]6)C=C5)C=C4)cc2)c2ccc(O)cc2)cc1
REMARK SMILES IDX 17 1 16 2 15 3 14 4 13 5 11 6 12 7 10 9 9 10 8 11 5 12 6 13
REMARK SMILES IDX 97 14 7 15 96 16 2 17 1 18 3 19 4 20 89 21 90 22 95 23 91 24
REMARK SMILES IDX 94 25 92 26 93 27 18 29 19 30 20 31 21 32 22 34 23 35 24 36
REMARK SMILES IDX 88 37 25 38 87 39 26 40 27 41 28 42 81 43 29 44 86 45 80 46
REMARK SMILES IDX 82 47 30 48 85 49 79 50 78 51 31 53 65 54 44 55 64 56 45 57
REMARK SMILES IDX 48 58 63 59 83 60 46 61 47 62 62 64 84 65 49 66 32 67 33 68
REMARK SMILES IDX 42 69 34 70 35 71 41 72 43 73 36 74 37 75 38 76 39 77 40 78
REMARK SMILES IDX 66 79 67 80 76 81 68 82 69 83 75 84 77 85 70 86 71 87 72 88
REMARK SMILES IDX 73 89 74 90 50 91 51 92 60 93 52 94 53 95 59 96 61 97 54 98
REMARK SMILES IDX 55 99 56 100 57 101 58 102
REMARK H PARENT 13 8 93 28 20 33 82 52 48 63
REMARK Flexibility Score: inf
ROOT
ATOM      1  C   UNL A   1      32.020  26.448  26.311  1.00  0.00     0.002 C 
ENDROOT
BRANCH   1   2
ATOM      2  C   UNL A   1      30.522  26.421  25.986  1.00  0.00     0.002 C 
BRANCH   2   3
ATOM      3  C   UNL A   1      30.176  26.520  24.491  1.00  0.00     0.021 C 
BRANCH   3   4
ATOM      4  C   UNL A   1      30.411  25.218  23.718  1.00  0.00     0.116 C 
BRANCH   4   5
ATOM      5  N   UNL A   1      31.434  25.422  22.712  1.00  0.00    -0.352 N 
ATOM      6  C   UNL A   1      32.581  24.780  22.373  1.00  0.00     0.251 C 
ATOM      7  O   UNL A   1      33.249  25.311  21.481  1.00  0.00    -0.269 OA
ATOM      8  H   UNL A   1      31.255  26.205  22.143  1.00  0.00     0.163 HD
BRANCH   6   9
ATOM      9  C   UNL A   1      33.006  23.447  22.949  1.00  0.00     0.047 C 
ATOM     10  C   UNL A   1      32.201  22.360  22.956  1.00  0.00     0.022 C 
BRANCH  10  11
ATOM     11  C   UNL A   1      32.510  20.969  23.361  1.00  0.00    -0.025 A 
ATOM     12  C   UNL A   1      33.158  18.294  23.926  1.00  0.00     0.067 A 
ATOM     13  C   UNL A   1      33.421  19.288  24.870  1.00  0.00     0.021 A 
ATOM     14  C   UNL A   1      32.520  18.608  22.727  1.00  0.00     0.021 A 
ATOM     15  C   UNL A   1      33.079  20.616  24.590  1.00  0.00     0.009 A 
ATOM     16  C   UNL A   1      32.204  19.943  22.448  1.00  0.00     0.009 A 
BRANCH  12  17
ATOM     17  S   UNL A   1      33.602  16.611  24.284  1.00  0.00     0.175 S 
ATOM     18  C   UNL A   1      35.150  16.766  25.139  1.00  0.00     0.163 C 
ATOM     19  O   UNL A   1      33.851  15.937  23.029  1.00  0.00    -0.224 OA
ATOM     20  O   UNL A   1      32.622  16.097  25.228  1.00  0.00    -0.224 OA
ENDBRANCH  12  17
ENDBRANCH  10  11
BRANCH   9  21
ATOM     21  C   UNL A   1      34.300  23.428  23.680  1.00  0.00    -0.013 A 
ATOM     22  C   UNL A   1      35.431  22.915  23.019  1.00  0.00     0.013 A 
ATOM     23  C   UNL A   1      34.452  23.977  24.960  1.00  0.00     0.013 A 
ATOM     24  C   UNL A   1      36.694  22.988  23.604  1.00  0.00     0.047 A 
ATOM     25  C   UNL A   1      35.721  24.062  25.542  1.00  0.00     0.047 A 
ATOM     26  C   UNL A   1      36.832  23.581  24.851  1.00  0.00     0.115 A 
BRANCH  26  27
ATOM     27  O   UNL A   1      38.092  23.687  25.361  1.00  0.00    -0.508 OA
ATOM     28  H   UNL A   1      38.227  23.657  26.287  1.00  0.00     0.293 HD
ENDBRANCH  26  27
ENDBRANCH   9  21
ENDBRANCH   6   9
ENDBRANCH   4   5
ENDBRANCH   3   4
ENDBRANCH   2   3
ENDBRANCH   1   2
BRANCH   1  29
ATOM     29  C   UNL A   1      32.743  27.745  25.938  1.00  0.00     0.021 C 
BRANCH  29  30
ATOM     30  C   UNL A   1      33.811  28.188  26.934  1.00  0.00     0.116 C 
BRANCH  30  31
ATOM     31  N   UNL A   1      33.598  29.553  27.380  1.00  0.00    -0.352 N 
ATOM     32  C   UNL A   1      34.438  30.381  28.084  1.00  0.00     0.251 C 
ATOM     33  H   UNL A   1      32.725  29.942  27.144  1.00  0.00     0.163 HD
ATOM     34  O   UNL A   1      34.001  31.427  28.556  1.00  0.00    -0.269 OA
BRANCH  32  35
ATOM     35  C   UNL A   1      35.858  30.012  28.286  1.00  0.00     0.039 A 
ATOM     36  C   UNL A   1      36.267  29.586  29.553  1.00  0.00     0.014 A 
ATOM     37  C   UNL A   1      36.794  30.135  27.254  1.00  0.00     0.014 A 
ATOM     38  C   UNL A   1      37.606  29.258  29.777  1.00  0.00     0.010 A 
ATOM     39  C   UNL A   1      38.116  29.747  27.462  1.00  0.00     0.010 A 
ATOM     40  C   UNL A   1      38.540  29.325  28.731  1.00  0.00    -0.014 A 
BRANCH  40  41
ATOM     41  C   UNL A   1      39.968  28.992  28.965  1.00  0.00     0.031 A 
ATOM     42  C   UNL A   1      40.894  30.018  29.563  1.00  0.00     0.074 A 
ATOM     43  C   UNL A   1      40.438  27.780  28.613  1.00  0.00     0.049 A 
ATOM     44  N   UNL A   1      42.171  29.922  29.832  1.00  0.00    -0.248 NA
ATOM     45  C   UNL A   1      40.314  31.334  29.875  1.00  0.00     0.031 C 
ATOM     46  C   UNL A   1      39.654  26.720  27.976  1.00  0.00     0.029 A 
ATOM     47  N   UNL A   1      41.692  27.236  28.739  1.00  0.00    -0.354 N 
ATOM     48  C   UNL A   1      42.550  31.164  30.329  1.00  0.00     0.074 A 
ATOM     49  C   UNL A   1      41.379  32.013  30.278  1.00  0.00     0.031 C 
ATOM     50  C   UNL A   1      40.437  25.646  27.789  1.00  0.00     0.029 A 
ATOM     51  C   UNL A   1      41.782  25.946  28.272  1.00  0.00     0.049 A 
ATOM     52  H   UNL A   1      42.454  27.723  29.126  1.00  0.00     0.167 HD
ATOM     53  C   UNL A   1      43.755  31.556  30.809  1.00  0.00     0.037 A 
ATOM     54  C   UNL A   1      42.829  25.100  28.245  1.00  0.00     0.037 A 
ATOM     55  C   UNL A   1      44.909  30.698  30.889  1.00  0.00     0.049 A 
ATOM     56  C   UNL A   1      44.145  25.541  28.823  1.00  0.00     0.074 A 
ATOM     57  C   UNL A   1      46.161  30.981  31.406  1.00  0.00     0.029 A 
ATOM     58  N   UNL A   1      44.950  29.385  30.444  1.00  0.00    -0.354 N 
ATOM     59  N   UNL A   1      44.469  26.702  29.343  1.00  0.00    -0.248 NA
ATOM     60  C   UNL A   1      45.232  24.553  28.828  1.00  0.00     0.031 C 
ATOM     61  C   UNL A   1      46.967  29.847  31.250  1.00  0.00     0.029 A 
ATOM     62  C   UNL A   1      46.206  28.846  30.669  1.00  0.00     0.049 A 
ATOM     63  H   UNL A   1      44.197  28.906  30.028  1.00  0.00     0.167 HD
ATOM     64  C   UNL A   1      45.791  26.575  29.759  1.00  0.00     0.074 A 
ATOM     65  C   UNL A   1      46.198  25.220  29.442  1.00  0.00     0.031 C 
ATOM     66  C   UNL A   1      46.593  27.495  30.349  1.00  0.00     0.037 A 
BRANCH  53  67
ATOM     67  C   UNL A   1      43.879  32.975  31.291  1.00  0.00     0.058 A 
ATOM     68  C   UNL A   1      44.319  34.004  30.442  1.00  0.00     0.135 A 
ATOM     69  C   UNL A   1      43.544  33.315  32.611  1.00  0.00     0.135 A 
ATOM     70  F   UNL A   1      44.669  33.731  29.174  1.00  0.00    -0.206 F 
ATOM     71  C   UNL A   1      44.457  35.313  30.894  1.00  0.00     0.059 A 
ATOM     72  C   UNL A   1      43.648  34.624  33.077  1.00  0.00     0.059 A 
ATOM     73  F   UNL A   1      43.117  32.372  33.465  1.00  0.00    -0.206 F 
ATOM     74  C   UNL A   1      44.123  35.611  32.216  1.00  0.00     0.060 A 
BRANCH  74  75
ATOM     75  S   UNL A   1      44.316  37.311  32.792  1.00  0.00     0.124 S 
ATOM     76  O   UNL A   1      44.247  38.052  31.536  1.00  0.00    -0.237 OA
ATOM     77  O   UNL A   1      43.174  37.473  33.686  1.00  0.00    -0.237 OA
ATOM     78  O   UNL A   1      45.621  37.302  33.445  1.00  0.00    -0.744 OA
ENDBRANCH  74  75
ENDBRANCH  53  67
BRANCH  54  79
ATOM     79  C   UNL A   1      42.660  23.732  27.689  1.00  0.00     0.058 A 
ATOM     80  C   UNL A   1      42.433  22.635  28.533  1.00  0.00     0.135 A 
ATOM     81  C   UNL A   1      42.702  23.498  26.306  1.00  0.00     0.135 A 
ATOM     82  F   UNL A   1      42.389  22.810  29.862  1.00  0.00    -0.206 F 
ATOM     83  C   UNL A   1      42.268  21.349  28.029  1.00  0.00     0.059 A 
ATOM     84  C   UNL A   1      42.517  22.225  25.776  1.00  0.00     0.059 A 
ATOM     85  F   UNL A   1      42.896  24.518  25.456  1.00  0.00    -0.206 F 
ATOM     86  C   UNL A   1      42.310  21.155  26.646  1.00  0.00     0.060 A 
BRANCH  86  87
ATOM     87  S   UNL A   1      42.037  19.492  25.996  1.00  0.00     0.124 S 
ATOM     88  O   UNL A   1      40.614  19.527  25.686  1.00  0.00    -0.237 OA
ATOM     89  O   UNL A   1      42.941  19.456  24.849  1.00  0.00    -0.237 OA
ATOM     90  O   UNL A   1      42.422  18.631  27.111  1.00  0.00    -0.744 OA
ENDBRANCH  86  87
ENDBRANCH  54  79
BRANCH  66  91
ATOM     91  C   UNL A   1      47.981  27.052  30.719  1.00  0.00     0.058 A 
ATOM     92  C   UNL A   1      48.254  26.433  31.949  1.00  0.00     0.135 A 
ATOM     93  C   UNL A   1      49.047  27.238  29.825  1.00  0.00     0.135 A 
ATOM     94  F   UNL A   1      47.270  26.236  32.840  1.00  0.00    -0.206 F 
ATOM     95  C   UNL A   1      49.545  26.049  32.297  1.00  0.00     0.059 A 
ATOM     96  C   UNL A   1      50.342  26.840  30.142  1.00  0.00     0.059 A 
ATOM     97  F   UNL A   1      48.837  27.814  28.631  1.00  0.00    -0.206 F 
ATOM     98  C   UNL A   1      50.584  26.263  31.389  1.00  0.00     0.060 A 
BRANCH  98  99
ATOM     99  S   UNL A   1      52.257  25.765  31.848  1.00  0.00     0.124 S 
ATOM    100  O   UNL A   1      52.059  24.362  32.197  1.00  0.00    -0.237 OA
ATOM    101  O   UNL A   1      53.009  26.012  30.620  1.00  0.00    -0.237 OA
ATOM    102  O   UNL A   1      52.580  26.651  32.961  1.00  0.00    -0.744 OA
ENDBRANCH  98  99
ENDBRANCH  66  91
ENDBRANCH  40  41
ENDBRANCH  32  35
ENDBRANCH  30  31
ENDBRANCH  29  30
ENDBRANCH   1  29
TORSDOF 20
ENDMDL
MODEL 2
REMARK VINA RESULT:     -11.7      2.583      3.136
REMARK SMILES CS(=O)(=O)c1ccc(/C=C(/C(=O)NCCCCCCNC(=O)c2ccc(-c3c4nc(c(-c5c(F)cc(S(=O)(=O)[O-])cc5F)c5ccc([nH]5)c(-c5c(F)cc(S(=O)(=O)[O-])cc5F)c5nc(c(-c6c(F)cc(S(=O)(=O)[O-])cc6F)c6ccc3[nH]6)C=C5)C=C4)cc2)c2ccc(O)cc2)cc1
REMARK SMILES IDX 17 1 16 2 15 3 14 4 13 5 11 6 12 7 10 9 9 10 8 11 5 12 6 13
REMARK SMILES IDX 97 14 7 15 96 16 2 17 1 18 3 19 4 20 89 21 90 22 95 23 91 24
REMARK SMILES IDX 94 25 92 26 93 27 18 29 19 30 20 31 21 32 22 34 23 35 24 36
REMARK SMILES IDX 88 37 25 38 87 39 26 40 27 41 28 42 81 43 29 44 86 45 80 46
REMARK SMILES IDX 82 47 30 48 85 49 79 50 78 51 31 53 65 54 44 55 64 56 45 57
REMARK SMILES IDX 48 58 63 59 83 60 46 61 47 62 62 64 84 65 49 66 32 67 33 68
REMARK SMILES IDX 42 69 34 70 35 71 41 72 43 73 36 74 37 75 38 76 39 77 40 78
REMARK SMILES IDX 66 79 67 80 76 81 68 82 69 83 75 84 77 85 70 86 71 87 72 88
REMARK SMILES IDX 73 89 74 90 50 91 51 92 60 93 52 94 53 95 59 96 61 97 54 98
REMARK SMILES IDX 55 99 56 100 57 101 58 102
REMARK H PARENT 13 8 93 28 20 33 82 52 48 63
REMARK Flexibility Score: inf
ROOT
ATOM      1  C   UNL A   1      32.250  26.628  26.041  1.00  0.00     0.002 C 
ENDROOT
BRANCH   1   2
ATOM      2  C   UNL A   1      30.725  26.702  25.914  1.00  0.00     0.002 C 
BRANCH   2   3
ATOM      3  C   UNL A   1      30.188  26.677  24.473  1.00  0.00     0.021 C 
BRANCH   3   4
ATOM      4  C   UNL A   1      30.515  25.385  23.718  1.00  0.00     0.116 C 
BRANCH   4   5
ATOM      5  N   UNL A   1      31.549  25.641  22.734  1.00  0.00    -0.352 N 
ATOM      6  C   UNL A   1      32.706  25.024  22.382  1.00  0.00     0.251 C 
ATOM      7  O   UNL A   1      33.379  25.598  21.521  1.00  0.00    -0.269 OA
ATOM      8  H   UNL A   1      31.369  26.445  22.196  1.00  0.00     0.163 HD
BRANCH   6   9
ATOM      9  C   UNL A   1      33.137  23.672  22.907  1.00  0.00     0.047 C 
ATOM     10  C   UNL A   1      32.298  22.615  22.988  1.00  0.00     0.022 C 
BRANCH  10  11
ATOM     11  C   UNL A   1      32.594  21.209  23.353  1.00  0.00    -0.025 A 
ATOM     12  C   UNL A   1      33.202  18.510  23.839  1.00  0.00     0.067 A 
ATOM     13  C   UNL A   1      33.566  19.484  24.770  1.00  0.00     0.021 A 
ATOM     14  C   UNL A   1      32.483  18.858  22.696  1.00  0.00     0.021 A 
ATOM     15  C   UNL A   1      33.245  20.824  24.532  1.00  0.00     0.009 A 
ATOM     16  C   UNL A   1      32.188  20.205  22.457  1.00  0.00     0.009 A 
BRANCH  12  17
ATOM     17  S   UNL A   1      33.620  16.810  24.144  1.00  0.00     0.175 S 
ATOM     18  C   UNL A   1      35.121  16.917  25.086  1.00  0.00     0.163 C 
ATOM     19  O   UNL A   1      33.933  16.192  22.875  1.00  0.00    -0.224 OA
ATOM     20  O   UNL A   1      32.589  16.260  25.011  1.00  0.00    -0.224 OA
ENDBRANCH  12  17
ENDBRANCH  10  11
BRANCH   9  21
ATOM     21  C   UNL A   1      34.495  23.600  23.505  1.00  0.00    -0.013 A 
ATOM     22  C   UNL A   1      34.690  24.149  24.786  1.00  0.00     0.013 A 
ATOM     23  C   UNL A   1      35.560  22.934  22.882  1.00  0.00     0.013 A 
ATOM     24  C   UNL A   1      35.905  23.999  25.450  1.00  0.00     0.047 A 
ATOM     25  C   UNL A   1      36.776  22.772  23.555  1.00  0.00     0.047 A 
ATOM     26  C   UNL A   1      36.931  23.293  24.838  1.00  0.00     0.115 A 
BRANCH  26  27
ATOM     27  O   UNL A   1      38.083  23.116  25.547  1.00  0.00    -0.508 OA
ATOM     28  H   UNL A   1      38.732  23.791  25.562  1.00  0.00     0.293 HD
ENDBRANCH  26  27
ENDBRANCH   9  21
ENDBRANCH   6   9
ENDBRANCH   4   5
ENDBRANCH   3   4
ENDBRANCH   2   3
ENDBRANCH   1   2
BRANCH   1  29
ATOM     29  C   UNL A   1      33.019  27.719  25.291  1.00  0.00     0.021 C 
BRANCH  29  30
ATOM     30  C   UNL A   1      34.139  28.376  26.093  1.00  0.00     0.116 C 
BRANCH  30  31
ATOM     31  N   UNL A   1      33.831  29.756  26.420  1.00  0.00    -0.352 N 
ATOM     32  C   UNL A   1      34.429  30.590  27.331  1.00  0.00     0.251 C 
ATOM     33  H   UNL A   1      33.085  30.152  25.914  1.00  0.00     0.163 HD
ATOM     34  O   UNL A   1      33.892  31.657  27.619  1.00  0.00    -0.269 OA
BRANCH  32  35
ATOM     35  C   UNL A   1      35.706  30.206  27.974  1.00  0.00     0.039 A 
ATOM     36  C   UNL A   1      35.671  29.657  29.260  1.00  0.00     0.014 A 
ATOM     37  C   UNL A   1      36.934  30.432  27.344  1.00  0.00     0.014 A 
ATOM     38  C   UNL A   1      36.863  29.310  29.900  1.00  0.00     0.010 A 
ATOM     39  C   UNL A   1      38.118  30.027  27.959  1.00  0.00     0.010 A 
ATOM     40  C   UNL A   1      38.096  29.481  29.250  1.00  0.00    -0.014 A 
BRANCH  40  41
ATOM     41  C   UNL A   1      39.368  29.129  29.931  1.00  0.00     0.031 A 
ATOM     42  C   UNL A   1      39.795  29.874  31.167  1.00  0.00     0.074 A 
ATOM     43  C   UNL A   1      40.153  28.161  29.419  1.00  0.00     0.049 A 
ATOM     44  N   UNL A   1      40.873  29.722  31.893  1.00  0.00    -0.248 NA
ATOM     45  C   UNL A   1      38.906  30.950  31.635  1.00  0.00     0.031 C 
ATOM     46  C   UNL A   1      39.877  27.405  28.196  1.00  0.00     0.029 A 
ATOM     47  N   UNL A   1      41.347  27.651  29.863  1.00  0.00    -0.354 N 
ATOM     48  C   UNL A   1      40.799  30.688  32.891  1.00  0.00     0.074 A 
ATOM     49  C   UNL A   1      39.596  31.454  32.647  1.00  0.00     0.031 C 
ATOM     50  C   UNL A   1      40.859  26.510  28.002  1.00  0.00     0.029 A 
ATOM     51  C   UNL A   1      41.844  26.644  29.070  1.00  0.00     0.049 A 
ATOM     52  H   UNL A   1      41.804  27.975  30.672  1.00  0.00     0.167 HD
ATOM     53  C   UNL A   1      41.642  30.903  33.930  1.00  0.00     0.037 A 
ATOM     54  C   UNL A   1      42.964  25.906  29.197  1.00  0.00     0.037 A 
ATOM     55  C   UNL A   1      42.821  30.117  34.188  1.00  0.00     0.049 A 
ATOM     56  C   UNL A   1      43.862  26.132  30.382  1.00  0.00     0.074 A 
ATOM     57  C   UNL A   1      43.712  30.219  35.242  1.00  0.00     0.029 A 
ATOM     58  N   UNL A   1      43.269  29.078  33.385  1.00  0.00    -0.354 N 
ATOM     59  N   UNL A   1      43.746  27.013  31.349  1.00  0.00    -0.248 NA
ATOM     60  C   UNL A   1      45.032  25.252  30.505  1.00  0.00     0.031 C 
ATOM     61  C   UNL A   1      44.715  29.257  35.062  1.00  0.00     0.029 A 
ATOM     62  C   UNL A   1      44.427  28.534  33.916  1.00  0.00     0.049 A 
ATOM     63  H   UNL A   1      42.830  28.773  32.559  1.00  0.00     0.167 HD
ATOM     64  C   UNL A   1      44.814  26.777  32.207  1.00  0.00     0.074 A 
ATOM     65  C   UNL A   1      45.556  25.662  31.652  1.00  0.00     0.031 C 
ATOM     66  C   UNL A   1      45.151  27.423  33.350  1.00  0.00     0.037 A 
BRANCH  53  67
ATOM     67  C   UNL A   1      41.310  32.030  34.869  1.00  0.00     0.058 A 
ATOM     68  C   UNL A   1      41.904  33.296  34.735  1.00  0.00     0.135 A 
ATOM     69  C   UNL A   1      40.380  31.850  35.905  1.00  0.00     0.135 A 
ATOM     70  F   UNL A   1      42.812  33.519  33.772  1.00  0.00    -0.206 F 
ATOM     71  C   UNL A   1      41.614  34.333  35.618  1.00  0.00     0.059 A 
ATOM     72  C   UNL A   1      40.054  32.881  36.782  1.00  0.00     0.059 A 
ATOM     73  F   UNL A   1      39.782  30.660  36.077  1.00  0.00    -0.206 F 
ATOM     74  C   UNL A   1      40.691  34.113  36.642  1.00  0.00     0.060 A 
BRANCH  74  75
ATOM     75  S   UNL A   1      40.332  35.463  37.785  1.00  0.00     0.124 S 
ATOM     76  O   UNL A   1      39.798  36.475  36.880  1.00  0.00    -0.237 OA
ATOM     77  O   UNL A   1      39.369  34.856  38.698  1.00  0.00    -0.237 OA
ATOM     78  O   UNL A   1      41.636  35.768  38.369  1.00  0.00    -0.744 OA
ENDBRANCH  74  75
ENDBRANCH  53  67
BRANCH  54  79
ATOM     79  C   UNL A   1      43.274  24.854  28.195  1.00  0.00     0.058 A 
ATOM     80  C   UNL A   1      42.897  23.520  28.412  1.00  0.00     0.135 A 
ATOM     81  C   UNL A   1      43.932  25.162  26.995  1.00  0.00     0.135 A 
ATOM     82  F   UNL A   1      42.270  23.177  29.548  1.00  0.00    -0.206 F 
ATOM     83  C   UNL A   1      43.175  22.523  27.483  1.00  0.00     0.059 A 
ATOM     84  C   UNL A   1      44.200  24.186  26.040  1.00  0.00     0.059 A 
ATOM     85  F   UNL A   1      44.294  26.427  26.731  1.00  0.00    -0.206 F 
ATOM     86  C   UNL A   1      43.827  22.868  26.297  1.00  0.00     0.060 A 
BRANCH  86  87
ATOM     87  S   UNL A   1      44.132  21.579  25.069  1.00  0.00     0.124 S 
ATOM     88  O   UNL A   1      45.486  21.161  25.413  1.00  0.00    -0.237 OA
ATOM     89  O   UNL A   1      43.073  20.617  25.359  1.00  0.00    -0.237 OA
ATOM     90  O   UNL A   1      43.992  22.288  23.800  1.00  0.00    -0.744 OA
ENDBRANCH  86  87
ENDBRANCH  54  79
BRANCH  66  91
ATOM     91  C   UNL A   1      46.357  26.916  34.091  1.00  0.00     0.058 A 
ATOM     92  C   UNL A   1      46.251  25.929  35.082  1.00  0.00     0.135 A 
ATOM     93  C   UNL A   1      47.635  27.416  33.794  1.00  0.00     0.135 A 
ATOM     94  F   UNL A   1      45.052  25.421  35.407  1.00  0.00    -0.206 F 
ATOM     95  C   UNL A   1      47.367  25.482  35.783  1.00  0.00     0.059 A 
ATOM     96  C   UNL A   1      48.767  26.966  34.464  1.00  0.00     0.059 A 
ATOM     97  F   UNL A   1      47.791  28.352  32.844  1.00  0.00    -0.206 F 
ATOM     98  C   UNL A   1      48.621  26.012  35.471  1.00  0.00     0.060 A 
BRANCH  98  99
ATOM     99  S   UNL A   1      50.064  25.429  36.385  1.00  0.00     0.124 S 
ATOM    100  O   UNL A   1      50.434  26.623  37.138  1.00  0.00    -0.237 OA
ATOM    101  O   UNL A   1      49.517  24.327  37.172  1.00  0.00    -0.237 OA
ATOM    102  O   UNL A   1      50.994  25.036  35.332  1.00  0.00    -0.744 OA
ENDBRANCH  98  99
ENDBRANCH  66  91
ENDBRANCH  40  41
ENDBRANCH  32  35
ENDBRANCH  30  31
ENDBRANCH  29  30
ENDBRANCH   1  29
TORSDOF 20
ENDMDL
MODEL 3
REMARK VINA RESULT:     -11.2      2.810      8.530
REMARK SMILES CS(=O)(=O)c1ccc(/C=C(/C(=O)NCCCCCCNC(=O)c2ccc(-c3c4nc(c(-c5c(F)cc(S(=O)(=O)[O-])cc5F)c5ccc([nH]5)c(-c5c(F)cc(S(=O)(=O)[O-])cc5F)c5nc(c(-c6c(F)cc(S(=O)(=O)[O-])cc6F)c6ccc3[nH]6)C=C5)C=C4)cc2)c2ccc(O)cc2)cc1
REMARK SMILES IDX 17 1 16 2 15 3 14 4 13 5 11 6 12 7 10 9 9 10 8 11 5 12 6 13
REMARK SMILES IDX 97 14 7 15 96 16 2 17 1 18 3 19 4 20 89 21 90 22 95 23 91 24
REMARK SMILES IDX 94 25 92 26 93 27 18 29 19 30 20 31 21 32 22 34 23 35 24 36
REMARK SMILES IDX 88 37 25 38 87 39 26 40 27 41 28 42 81 43 29 44 86 45 80 46
REMARK SMILES IDX 82 47 30 48 85 49 79 50 78 51 31 53 65 54 44 55 64 56 45 57
REMARK SMILES IDX 48 58 63 59 83 60 46 61 47 62 62 64 84 65 49 66 32 67 33 68
REMARK SMILES IDX 42 69 34 70 35 71 41 72 43 73 36 74 37 75 38 76 39 77 40 78
REMARK SMILES IDX 66 79 67 80 76 81 68 82 69 83 75 84 77 85 70 86 71 87 72 88
REMARK SMILES IDX 73 89 74 90 50 91 51 92 60 93 52 94 53 95 59 96 61 97 54 98
REMARK SMILES IDX 55 99 56 100 57 101 58 102
REMARK H PARENT 13 8 93 28 20 33 82 52 48 63
REMARK Flexibility Score: inf
ROOT
ATOM      1  C   UNL A   1      34.465  29.376  27.505  1.00  0.00     0.002 C 
ENDROOT
BRANCH   1   2
ATOM      2  C   UNL A   1      33.482  28.866  26.445  1.00  0.00     0.002 C 
BRANCH   2   3
ATOM      3  C   UNL A   1      33.437  27.338  26.277  1.00  0.00     0.021 C 
BRANCH   3   4
ATOM      4  C   UNL A   1      32.345  26.858  25.316  1.00  0.00     0.116 C 
BRANCH   4   5
ATOM      5  N   UNL A   1      32.847  26.873  23.956  1.00  0.00    -0.352 N 
ATOM      6  C   UNL A   1      33.448  25.960  23.150  1.00  0.00     0.251 C 
ATOM      7  O   UNL A   1      33.812  26.377  22.047  1.00  0.00    -0.269 OA
ATOM      8  H   UNL A   1      32.723  27.745  23.516  1.00  0.00     0.163 HD
BRANCH   6   9
ATOM      9  C   UNL A   1      33.595  24.495  23.494  1.00  0.00     0.047 C 
ATOM     10  C   UNL A   1      32.543  23.648  23.562  1.00  0.00     0.022 C 
BRANCH  10  11
ATOM     11  C   UNL A   1      32.534  22.179  23.757  1.00  0.00    -0.025 A 
ATOM     12  C   UNL A   1      32.616  19.377  23.939  1.00  0.00     0.067 A 
ATOM     13  C   UNL A   1      32.815  20.154  25.080  1.00  0.00     0.021 A 
ATOM     14  C   UNL A   1      32.315  19.978  22.717  1.00  0.00     0.021 A 
ATOM     15  C   UNL A   1      32.755  21.549  24.988  1.00  0.00     0.009 A 
ATOM     16  C   UNL A   1      32.281  21.374  22.631  1.00  0.00     0.009 A 
BRANCH  12  17
ATOM     17  S   UNL A   1      32.702  17.606  24.062  1.00  0.00     0.175 S 
ATOM     18  C   UNL A   1      34.366  17.311  24.603  1.00  0.00     0.163 C 
ATOM     19  O   UNL A   1      32.562  17.058  22.731  1.00  0.00    -0.224 OA
ATOM     20  O   UNL A   1      31.807  17.203  25.135  1.00  0.00    -0.224 OA
ENDBRANCH  12  17
ENDBRANCH  10  11
BRANCH   9  21
ATOM     21  C   UNL A   1      34.943  24.054  23.937  1.00  0.00    -0.013 A 
ATOM     22  C   UNL A   1      35.357  24.383  25.241  1.00  0.00     0.013 A 
ATOM     23  C   UNL A   1      35.775  23.255  23.142  1.00  0.00     0.013 A 
ATOM     24  C   UNL A   1      36.553  23.889  25.756  1.00  0.00     0.047 A 
ATOM     25  C   UNL A   1      36.970  22.749  23.663  1.00  0.00     0.047 A 
ATOM     26  C   UNL A   1      37.340  23.058  24.971  1.00  0.00     0.115 A 
BRANCH  26  27
ATOM     27  O   UNL A   1      38.472  22.548  25.533  1.00  0.00    -0.508 OA
ATOM     28  H   UNL A   1      39.135  22.168  24.991  1.00  0.00     0.293 HD
ENDBRANCH  26  27
ENDBRANCH   9  21
ENDBRANCH   6   9
ENDBRANCH   4   5
ENDBRANCH   3   4
ENDBRANCH   2   3
ENDBRANCH   1   2
BRANCH   1  29
ATOM     29  C   UNL A   1      34.323  30.857  27.864  1.00  0.00     0.021 C 
BRANCH  29  30
ATOM     30  C   UNL A   1      35.580  31.493  28.453  1.00  0.00     0.116 C 
BRANCH  30  31
ATOM     31  N   UNL A   1      35.559  31.483  29.905  1.00  0.00    -0.352 N 
ATOM     32  C   UNL A   1      36.481  30.975  30.786  1.00  0.00     0.251 C 
ATOM     33  H   UNL A   1      34.770  31.901  30.318  1.00  0.00     0.163 HD
ATOM     34  O   UNL A   1      36.190  30.869  31.974  1.00  0.00    -0.269 OA
BRANCH  32  35
ATOM     35  C   UNL A   1      37.816  30.545  30.309  1.00  0.00     0.039 A 
ATOM     36  C   UNL A   1      38.729  30.038  31.238  1.00  0.00     0.014 A 
ATOM     37  C   UNL A   1      38.189  30.689  28.968  1.00  0.00     0.014 A 
ATOM     38  C   UNL A   1      40.004  29.650  30.819  1.00  0.00     0.010 A 
ATOM     39  C   UNL A   1      39.439  30.243  28.541  1.00  0.00     0.010 A 
ATOM     40  C   UNL A   1      40.366  29.739  29.465  1.00  0.00    -0.014 A 
BRANCH  40  41
ATOM     41  C   UNL A   1      41.725  29.343  29.015  1.00  0.00     0.031 A 
ATOM     42  C   UNL A   1      41.985  27.937  28.545  1.00  0.00     0.074 A 
ATOM     43  C   UNL A   1      42.730  30.238  29.058  1.00  0.00     0.049 A 
ATOM     44  N   UNL A   1      43.102  27.398  28.126  1.00  0.00    -0.248 NA
ATOM     45  C   UNL A   1      40.846  27.005  28.573  1.00  0.00     0.031 C 
ATOM     46  C   UNL A   1      42.617  31.615  29.546  1.00  0.00     0.029 A 
ATOM     47  N   UNL A   1      44.046  30.123  28.690  1.00  0.00    -0.354 N 
ATOM     48  C   UNL A   1      42.805  26.067  27.856  1.00  0.00     0.074 A 
ATOM     49  C   UNL A   1      41.415  25.866  28.206  1.00  0.00     0.031 C 
ATOM     50  C   UNL A   1      43.807  32.223  29.422  1.00  0.00     0.029 A 
ATOM     51  C   UNL A   1      44.772  31.278  28.870  1.00  0.00     0.049 A 
ATOM     52  H   UNL A   1      44.435  29.294  28.331  1.00  0.00     0.167 HD
ATOM     53  C   UNL A   1      43.608  25.105  27.340  1.00  0.00     0.037 A 
ATOM     54  C   UNL A   1      46.067  31.543  28.610  1.00  0.00     0.037 A 
ATOM     55  C   UNL A   1      44.981  25.317  26.962  1.00  0.00     0.049 A 
ATOM     56  C   UNL A   1      46.927  30.473  27.997  1.00  0.00     0.074 A 
ATOM     57  C   UNL A   1      45.865  24.424  26.382  1.00  0.00     0.029 A 
ATOM     58  N   UNL A   1      45.669  26.511  27.122  1.00  0.00    -0.354 N 
ATOM     59  N   UNL A   1      46.613  29.236  27.694  1.00  0.00    -0.248 NA
ATOM     60  C   UNL A   1      48.311  30.841  27.672  1.00  0.00     0.031 C 
ATOM     61  C   UNL A   1      47.096  25.070  26.215  1.00  0.00     0.029 A 
ATOM     62  C   UNL A   1      46.966  26.377  26.657  1.00  0.00     0.049 A 
ATOM     63  H   UNL A   1      45.290  27.333  27.508  1.00  0.00     0.167 HD
ATOM     64  C   UNL A   1      47.754  28.684  27.121  1.00  0.00     0.074 A 
ATOM     65  C   UNL A   1      48.759  29.729  27.107  1.00  0.00     0.031 C 
ATOM     66  C   UNL A   1      47.953  27.429  26.649  1.00  0.00     0.037 A 
BRANCH  53  67
ATOM     67  C   UNL A   1      43.013  23.737  27.149  1.00  0.00     0.058 A 
ATOM     68  C   UNL A   1      42.540  23.310  25.896  1.00  0.00     0.135 A 
ATOM     69  C   UNL A   1      42.923  22.837  28.222  1.00  0.00     0.135 A 
ATOM     70  F   UNL A   1      42.586  24.135  24.839  1.00  0.00    -0.206 F 
ATOM     71  C   UNL A   1      41.968  22.053  25.724  1.00  0.00     0.059 A 
ATOM     72  C   UNL A   1      42.379  21.565  28.067  1.00  0.00     0.059 A 
ATOM     73  F   UNL A   1      43.361  23.193  29.441  1.00  0.00    -0.206 F 
ATOM     74  C   UNL A   1      41.888  21.189  26.817  1.00  0.00     0.060 A 
BRANCH  74  75
ATOM     75  S   UNL A   1      41.134  19.566  26.582  1.00  0.00     0.124 S 
ATOM     76  O   UNL A   1      39.881  19.922  25.923  1.00  0.00    -0.237 OA
ATOM     77  O   UNL A   1      42.115  18.880  25.749  1.00  0.00    -0.237 OA
ATOM     78  O   UNL A   1      41.004  19.052  27.942  1.00  0.00    -0.744 OA
ENDBRANCH  74  75
ENDBRANCH  53  67
BRANCH  54  79
ATOM     79  C   UNL A   1      46.614  32.896  28.889  1.00  0.00     0.058 A 
ATOM     80  C   UNL A   1      47.204  33.193  30.126  1.00  0.00     0.135 A 
ATOM     81  C   UNL A   1      46.578  33.910  27.920  1.00  0.00     0.135 A 
ATOM     82  F   UNL A   1      47.258  32.256  31.085  1.00  0.00    -0.206 F 
ATOM     83  C   UNL A   1      47.726  34.453  30.401  1.00  0.00     0.059 A 
ATOM     84  C   UNL A   1      47.113  35.171  28.163  1.00  0.00     0.059 A 
ATOM     85  F   UNL A   1      46.042  33.669  26.713  1.00  0.00    -0.206 F 
ATOM     86  C   UNL A   1      47.677  35.436  29.411  1.00  0.00     0.060 A 
BRANCH  86  87
ATOM     87  S   UNL A   1      48.408  37.051  29.755  1.00  0.00     0.124 S 
ATOM     88  O   UNL A   1      49.277  37.233  28.599  1.00  0.00    -0.237 OA
ATOM     89  O   UNL A   1      47.233  37.916  29.815  1.00  0.00    -0.237 OA
ATOM     90  O   UNL A   1      49.087  36.845  31.031  1.00  0.00    -0.744 OA
ENDBRANCH  86  87
ENDBRANCH  54  79
BRANCH  66  91
ATOM     91  C   UNL A   1      49.298  27.130  26.050  1.00  0.00     0.058 A 
ATOM     92  C   UNL A   1      49.543  27.286  24.676  1.00  0.00     0.135 A 
ATOM     93  C   UNL A   1      50.357  26.696  26.862  1.00  0.00     0.135 A 
ATOM     94  F   UNL A   1      48.563  27.694  23.856  1.00  0.00    -0.206 F 
ATOM     95  C   UNL A   1      50.783  26.982  24.122  1.00  0.00     0.059 A 
ATOM     96  C   UNL A   1      51.611  26.411  26.333  1.00  0.00     0.059 A 
ATOM     97  F   UNL A   1      50.178  26.543  28.184  1.00  0.00    -0.206 F 
ATOM     98  C   UNL A   1      51.810  26.539  24.958  1.00  0.00     0.060 A 
BRANCH  98  99
ATOM     99  S   UNL A   1      53.415  26.146  24.233  1.00  0.00     0.124 S 
ATOM    100  O   UNL A   1      53.201  26.508  22.836  1.00  0.00    -0.237 OA
ATOM    101  O   UNL A   1      54.321  27.013  24.981  1.00  0.00    -0.237 OA
ATOM    102  O   UNL A   1      53.564  24.718  24.498  1.00  0.00    -0.744 OA
ENDBRANCH  98  99
ENDBRANCH  66  91
ENDBRANCH  40  41
ENDBRANCH  32  35
ENDBRANCH  30  31
ENDBRANCH  29  30
ENDBRANCH   1  29
TORSDOF 20
ENDMDL
