MODEL 1
REMARK VINA RESULT:      -9.7      0.000      0.000
REMARK SMILES C[C@H](CCCO)NS(=O)(=O)c1cc(Cl)cc(C(=O)NCCCCCCNC(=O)c2ccc(-c3c4nc(c(-c5c(F)cc(S(=O)(=O)[O-])cc5F)c5ccc([nH]5)c(-c5c(F)cc(S(=O)(=O)[O-])cc5F)c5nc(c(-c6c(F)cc(S(=O)(=O)[O-])cc6F)c6ccc3[nH]6)C=C5)C=C4)cc2)c1Cl
REMARK SMILES IDX 20 1 19 2 17 3 18 4 16 6 11 7 12 8 95 9 13 10 96 11 14 12
REMARK SMILES IDX 15 13 8 14 9 15 10 16 7 17 2 19 1 20 3 21 4 22 5 23 6 24
REMARK SMILES IDX 21 26 22 27 23 28 24 29 25 30 26 31 27 32 28 34 29 35 30 36
REMARK SMILES IDX 94 37 31 38 93 39 32 40 33 41 34 42 87 43 35 44 92 45 86 46
REMARK SMILES IDX 88 47 36 48 91 49 85 50 84 51 37 53 71 54 50 55 70 56 51 57
REMARK SMILES IDX 54 58 69 59 89 60 52 61 53 62 68 64 90 65 55 66 38 67 39 68
REMARK SMILES IDX 48 69 40 70 41 71 47 72 49 73 42 74 43 75 44 76 45 77 46 78
REMARK SMILES IDX 72 79 73 80 82 81 74 82 75 83 81 84 83 85 76 86 77 87 78 88
REMARK SMILES IDX 79 89 80 90 56 91 57 92 66 93 58 94 59 95 65 96 67 97 60 98
REMARK SMILES IDX 61 99 62 100 63 101 64 102
REMARK H PARENT 19 5 7 18 6 25 26 33 88 52 54 63
REMARK Flexibility Score: inf
ROOT
ATOM      1  C   UNL A   1      32.596  27.084  25.512  1.00  0.00     0.116 C 
ENDROOT
BRANCH   1   2
ATOM      2  N   UNL A   1      33.874  26.467  25.835  1.00  0.00    -0.352 N 
ATOM      3  C   UNL A   1      34.465  25.324  25.335  1.00  0.00     0.252 C 
ATOM      4  O   UNL A   1      35.602  25.029  25.701  1.00  0.00    -0.269 OA
ATOM      5  H   UNL A   1      34.400  26.939  26.519  1.00  0.00     0.163 HD
BRANCH   3   6
ATOM      6  C   UNL A   1      33.731  24.366  24.463  1.00  0.00     0.061 A 
ATOM      7  C   UNL A   1      32.718  22.234  23.976  1.00  0.00     0.103 A 
ATOM      8  C   UNL A   1      32.694  22.543  22.609  1.00  0.00     0.044 A 
ATOM      9  C   UNL A   1      33.108  23.197  24.916  1.00  0.00     0.073 A 
ATOM     10  C   UNL A   1      33.109  23.798  22.186  1.00  0.00     0.043 A 
ATOM     11  Cl  UNL A   1      32.548  23.137  26.554  1.00  0.00    -0.082 Cl
ATOM     12  Cl  UNL A   1      32.981  24.228  20.528  1.00  0.00    -0.084 Cl
ATOM     13  C   UNL A   1      33.675  24.687  23.096  1.00  0.00     0.036 A 
BRANCH   7  14
ATOM     14  S   UNL A   1      32.561  20.520  24.409  1.00  0.00     0.242 S 
ATOM     15  O   UNL A   1      32.436  19.714  23.227  1.00  0.00    -0.207 OA
ATOM     16  O   UNL A   1      31.529  20.457  25.429  1.00  0.00    -0.207 OA
BRANCH  14  17
ATOM     17  N   UNL A   1      33.994  20.123  25.191  1.00  0.00    -0.208 NA
ATOM     18  H   UNL A   1      34.374  21.000  25.548  1.00  0.00     0.141 HD
BRANCH  17  19
ATOM     19  C   UNL A   1      35.111  19.440  24.505  1.00  0.00     0.067 C 
ATOM     20  C   UNL A   1      35.006  17.929  24.617  1.00  0.00     0.025 C 
BRANCH  19  21
ATOM     21  C   UNL A   1      36.419  20.071  25.051  1.00  0.00     0.022 C 
BRANCH  21  22
ATOM     22  C   UNL A   1      36.437  21.567  25.392  1.00  0.00     0.030 C 
BRANCH  22  23
ATOM     23  C   UNL A   1      37.816  22.200  25.564  1.00  0.00     0.156 C 
BRANCH  23  24
ATOM     24  O   UNL A   1      37.782  23.236  26.536  1.00  0.00    -0.396 OA
ATOM     25  H   UNL A   1      37.547  24.073  26.107  1.00  0.00     0.210 HD
ENDBRANCH  23  24
ENDBRANCH  22  23
ENDBRANCH  21  22
ENDBRANCH  19  21
ENDBRANCH  17  19
ENDBRANCH  14  17
ENDBRANCH   7  14
ENDBRANCH   3   6
ENDBRANCH   1   2
BRANCH   1  26
ATOM     26  C   UNL A   1      31.675  27.336  26.701  1.00  0.00     0.021 C 
BRANCH  26  27
ATOM     27  C   UNL A   1      31.699  28.743  27.306  1.00  0.00     0.002 C 
BRANCH  27  28
ATOM     28  C   UNL A   1      32.330  29.864  26.472  1.00  0.00     0.002 C 
BRANCH  28  29
ATOM     29  C   UNL A   1      31.984  31.304  26.856  1.00  0.00     0.021 C 
BRANCH  29  30
ATOM     30  C   UNL A   1      33.140  32.179  27.330  1.00  0.00     0.116 C 
BRANCH  30  31
ATOM     31  N   UNL A   1      32.744  33.549  27.611  1.00  0.00    -0.352 N 
ATOM     32  C   UNL A   1      33.246  34.431  28.539  1.00  0.00     0.251 C 
ATOM     33  H   UNL A   1      32.008  33.897  27.055  1.00  0.00     0.163 HD
ATOM     34  O   UNL A   1      32.700  35.517  28.709  1.00  0.00    -0.269 OA
BRANCH  32  35
ATOM     35  C   UNL A   1      34.424  34.061  29.356  1.00  0.00     0.039 A 
ATOM     36  C   UNL A   1      34.224  33.413  30.579  1.00  0.00     0.014 A 
ATOM     37  C   UNL A   1      35.721  34.347  28.921  1.00  0.00     0.014 A 
ATOM     38  C   UNL A   1      35.324  32.983  31.328  1.00  0.00     0.010 A 
ATOM     39  C   UNL A   1      36.814  33.861  29.635  1.00  0.00     0.010 A 
ATOM     40  C   UNL A   1      36.628  33.169  30.843  1.00  0.00    -0.014 A 
BRANCH  40  41
ATOM     41  C   UNL A   1      37.817  32.647  31.566  1.00  0.00     0.031 A 
ATOM     42  C   UNL A   1      38.548  31.445  31.033  1.00  0.00     0.074 A 
ATOM     43  C   UNL A   1      38.179  33.191  32.744  1.00  0.00     0.049 A 
ATOM     44  N   UNL A   1      39.498  30.741  31.591  1.00  0.00    -0.248 NA
ATOM     45  C   UNL A   1      38.133  30.954  29.709  1.00  0.00     0.031 C 
ATOM     46  C   UNL A   1      37.534  34.342  33.380  1.00  0.00     0.029 A 
ATOM     47  N   UNL A   1      39.161  32.832  33.635  1.00  0.00    -0.354 N 
ATOM     48  C   UNL A   1      39.779  29.711  30.701  1.00  0.00     0.074 A 
ATOM     49  C   UNL A   1      38.872  29.861  29.583  1.00  0.00     0.031 C 
ATOM     50  C   UNL A   1      38.138  34.595  34.552  1.00  0.00     0.029 A 
ATOM     51  C   UNL A   1      39.181  33.599  34.776  1.00  0.00     0.049 A 
ATOM     52  H   UNL A   1      39.792  32.093  33.471  1.00  0.00     0.167 HD
ATOM     53  C   UNL A   1      40.717  28.739  30.800  1.00  0.00     0.037 A 
ATOM     54  C   UNL A   1      39.936  33.497  35.889  1.00  0.00     0.037 A 
ATOM     55  C   UNL A   1      41.633  28.615  31.902  1.00  0.00     0.049 A 
ATOM     56  C   UNL A   1      40.964  32.401  35.984  1.00  0.00     0.074 A 
ATOM     57  C   UNL A   1      42.654  27.695  32.072  1.00  0.00     0.029 A 
ATOM     58  N   UNL A   1      41.642  29.433  33.022  1.00  0.00    -0.354 N 
ATOM     59  N   UNL A   1      41.245  31.462  35.113  1.00  0.00    -0.248 NA
ATOM     60  C   UNL A   1      41.775  32.348  37.209  1.00  0.00     0.031 C 
ATOM     61  C   UNL A   1      43.254  27.932  33.312  1.00  0.00     0.029 A 
ATOM     62  C   UNL A   1      42.639  29.030  33.895  1.00  0.00     0.049 A 
ATOM     63  H   UNL A   1      41.030  30.188  33.175  1.00  0.00     0.167 HD
ATOM     64  C   UNL A   1      42.288  30.729  35.667  1.00  0.00     0.074 A 
ATOM     65  C   UNL A   1      42.588  31.331  36.951  1.00  0.00     0.031 C 
ATOM     66  C   UNL A   1      42.942  29.657  35.157  1.00  0.00     0.037 A 
BRANCH  53  67
ATOM     67  C   UNL A   1      40.799  27.731  29.687  1.00  0.00     0.058 A 
ATOM     68  C   UNL A   1      41.803  27.793  28.709  1.00  0.00     0.135 A 
ATOM     69  C   UNL A   1      39.884  26.667  29.619  1.00  0.00     0.135 A 
ATOM     70  F   UNL A   1      42.696  28.795  28.718  1.00  0.00    -0.206 F 
ATOM     71  C   UNL A   1      41.879  26.856  27.683  1.00  0.00     0.059 A 
ATOM     72  C   UNL A   1      39.957  25.701  28.619  1.00  0.00     0.059 A 
ATOM     73  F   UNL A   1      38.904  26.558  30.530  1.00  0.00    -0.206 F 
ATOM     74  C   UNL A   1      40.950  25.814  27.646  1.00  0.00     0.060 A 
BRANCH  74  75
ATOM     75  S   UNL A   1      41.063  24.606  26.309  1.00  0.00     0.124 S 
ATOM     76  O   UNL A   1      39.977  25.040  25.435  1.00  0.00    -0.237 OA
ATOM     77  O   UNL A   1      42.412  24.827  25.800  1.00  0.00    -0.237 OA
ATOM     78  O   UNL A   1      40.852  23.330  26.985  1.00  0.00    -0.744 OA
ENDBRANCH  74  75
ENDBRANCH  53  67
BRANCH  54  79
ATOM     79  C   UNL A   1      39.752  34.468  37.001  1.00  0.00     0.058 A 
ATOM     80  C   UNL A   1      38.970  34.141  38.119  1.00  0.00     0.135 A 
ATOM     81  C   UNL A   1      40.364  35.731  36.980  1.00  0.00     0.135 A 
ATOM     82  F   UNL A   1      38.357  32.949  38.183  1.00  0.00    -0.206 F 
ATOM     83  C   UNL A   1      38.791  35.035  39.171  1.00  0.00     0.059 A 
ATOM     84  C   UNL A   1      40.219  36.633  38.029  1.00  0.00     0.059 A 
ATOM     85  F   UNL A   1      41.134  36.087  35.940  1.00  0.00    -0.206 F 
ATOM     86  C   UNL A   1      39.423  36.278  39.117  1.00  0.00     0.060 A 
BRANCH  86  87
ATOM     87  S   UNL A   1      39.224  37.413  40.509  1.00  0.00     0.124 S 
ATOM     88  O   UNL A   1      40.594  37.870  40.712  1.00  0.00    -0.237 OA
ATOM     89  O   UNL A   1      38.294  38.399  39.970  1.00  0.00    -0.237 OA
ATOM     90  O   UNL A   1      38.682  36.560  41.561  1.00  0.00    -0.744 OA
ENDBRANCH  86  87
ENDBRANCH  54  79
BRANCH  66  91
ATOM     91  C   UNL A   1      44.083  29.086  35.950  1.00  0.00     0.058 A 
ATOM     92  C   UNL A   1      45.360  29.664  35.929  1.00  0.00     0.135 A 
ATOM     93  C   UNL A   1      43.862  28.009  36.825  1.00  0.00     0.135 A 
ATOM     94  F   UNL A   1      45.625  30.690  35.103  1.00  0.00    -0.206 F 
ATOM     95  C   UNL A   1      46.381  29.198  36.752  1.00  0.00     0.059 A 
ATOM     96  C   UNL A   1      44.860  27.541  37.673  1.00  0.00     0.059 A 
ATOM     97  F   UNL A   1      42.654  27.425  36.886  1.00  0.00    -0.206 F 
ATOM     98  C   UNL A   1      46.117  28.143  37.629  1.00  0.00     0.060 A 
BRANCH  98  99
ATOM     99  S   UNL A   1      47.425  27.604  38.752  1.00  0.00     0.124 S 
ATOM    100  O   UNL A   1      46.745  27.659  40.043  1.00  0.00    -0.237 OA
ATOM    101  O   UNL A   1      47.732  26.267  38.254  1.00  0.00    -0.237 OA
ATOM    102  O   UNL A   1      48.475  28.597  38.553  1.00  0.00    -0.744 OA
ENDBRANCH  98  99
ENDBRANCH  66  91
ENDBRANCH  40  41
ENDBRANCH  32  35
ENDBRANCH  30  31
ENDBRANCH  29  30
ENDBRANCH  28  29
ENDBRANCH  27  28
ENDBRANCH  26  27
ENDBRANCH   1  26
TORSDOF 23
ENDMDL
MODEL 2
REMARK VINA RESULT:      -9.3      0.986      2.226
REMARK SMILES C[C@H](CCCO)NS(=O)(=O)c1cc(Cl)cc(C(=O)NCCCCCCNC(=O)c2ccc(-c3c4nc(c(-c5c(F)cc(S(=O)(=O)[O-])cc5F)c5ccc([nH]5)c(-c5c(F)cc(S(=O)(=O)[O-])cc5F)c5nc(c(-c6c(F)cc(S(=O)(=O)[O-])cc6F)c6ccc3[nH]6)C=C5)C=C4)cc2)c1Cl
REMARK SMILES IDX 20 1 19 2 17 3 18 4 16 6 11 7 12 8 95 9 13 10 96 11 14 12
REMARK SMILES IDX 15 13 8 14 9 15 10 16 7 17 2 19 1 20 3 21 4 22 5 23 6 24
REMARK SMILES IDX 21 26 22 27 23 28 24 29 25 30 26 31 27 32 28 34 29 35 30 36
REMARK SMILES IDX 94 37 31 38 93 39 32 40 33 41 34 42 87 43 35 44 92 45 86 46
REMARK SMILES IDX 88 47 36 48 91 49 85 50 84 51 37 53 71 54 50 55 70 56 51 57
REMARK SMILES IDX 54 58 69 59 89 60 52 61 53 62 68 64 90 65 55 66 38 67 39 68
REMARK SMILES IDX 48 69 40 70 41 71 47 72 49 73 42 74 43 75 44 76 45 77 46 78
REMARK SMILES IDX 72 79 73 80 82 81 74 82 75 83 81 84 83 85 76 86 77 87 78 88
REMARK SMILES IDX 79 89 80 90 56 91 57 92 66 93 58 94 59 95 65 96 67 97 60 98
REMARK SMILES IDX 61 99 62 100 63 101 64 102
REMARK H PARENT 19 5 7 18 6 25 26 33 88 52 54 63
REMARK Flexibility Score: inf
ROOT
ATOM      1  C   UNL A   1      32.933  27.385  25.257  1.00  0.00     0.116 C 
ENDROOT
BRANCH   1   2
ATOM      2  N   UNL A   1      34.187  26.744  25.622  1.00  0.00    -0.352 N 
ATOM      3  C   UNL A   1      34.706  25.521  25.247  1.00  0.00     0.252 C 
ATOM      4  O   UNL A   1      35.837  25.211  25.619  1.00  0.00    -0.269 OA
ATOM      5  H   UNL A   1      34.757  27.265  26.231  1.00  0.00     0.163 HD
BRANCH   3   6
ATOM      6  C   UNL A   1      33.900  24.507  24.513  1.00  0.00     0.061 A 
ATOM      7  C   UNL A   1      32.776  22.385  24.304  1.00  0.00     0.103 A 
ATOM      8  C   UNL A   1      32.718  22.538  22.912  1.00  0.00     0.044 A 
ATOM      9  C   UNL A   1      33.241  23.428  25.116  1.00  0.00     0.073 A 
ATOM     10  C   UNL A   1      33.175  23.715  22.336  1.00  0.00     0.043 A 
ATOM     11  Cl  UNL A   1      32.736  23.582  26.765  1.00  0.00    -0.082 Cl
ATOM     12  Cl  UNL A   1      33.009  23.960  20.643  1.00  0.00    -0.084 Cl
ATOM     13  C   UNL A   1      33.811  24.673  23.120  1.00  0.00     0.036 A 
BRANCH   7  14
ATOM     14  S   UNL A   1      32.557  20.741  24.936  1.00  0.00     0.242 S 
ATOM     15  O   UNL A   1      31.347  20.657  25.707  1.00  0.00    -0.207 OA
ATOM     16  O   UNL A   1      33.821  20.377  25.551  1.00  0.00    -0.207 OA
BRANCH  14  17
ATOM     17  N   UNL A   1      32.412  19.757  23.583  1.00  0.00    -0.208 NA
ATOM     18  H   UNL A   1      31.415  19.708  23.375  1.00  0.00     0.141 HD
BRANCH  17  19
ATOM     19  C   UNL A   1      32.905  18.363  23.558  1.00  0.00     0.067 C 
ATOM     20  C   UNL A   1      32.642  17.693  22.221  1.00  0.00     0.025 C 
BRANCH  19  21
ATOM     21  C   UNL A   1      32.300  17.656  24.800  1.00  0.00     0.022 C 
BRANCH  21  22
ATOM     22  C   UNL A   1      33.205  16.765  25.663  1.00  0.00     0.030 C 
BRANCH  22  23
ATOM     23  C   UNL A   1      34.559  16.399  25.059  1.00  0.00     0.156 C 
BRANCH  23  24
ATOM     24  O   UNL A   1      34.841  15.019  25.242  1.00  0.00    -0.396 OA
ATOM     25  H   UNL A   1      34.347  14.688  26.008  1.00  0.00     0.210 HD
ENDBRANCH  23  24
ENDBRANCH  22  23
ENDBRANCH  21  22
ENDBRANCH  19  21
ENDBRANCH  17  19
ENDBRANCH  14  17
ENDBRANCH   7  14
ENDBRANCH   3   6
ENDBRANCH   1   2
BRANCH   1  26
ATOM     26  C   UNL A   1      31.914  27.511  26.385  1.00  0.00     0.021 C 
BRANCH  26  27
ATOM     27  C   UNL A   1      31.439  28.926  26.731  1.00  0.00     0.002 C 
BRANCH  27  28
ATOM     28  C   UNL A   1      32.366  30.093  26.374  1.00  0.00     0.002 C 
BRANCH  28  29
ATOM     29  C   UNL A   1      31.998  31.474  26.921  1.00  0.00     0.021 C 
BRANCH  29  30
ATOM     30  C   UNL A   1      33.159  32.385  27.307  1.00  0.00     0.116 C 
BRANCH  30  31
ATOM     31  N   UNL A   1      32.740  33.736  27.641  1.00  0.00    -0.352 N 
ATOM     32  C   UNL A   1      33.227  34.589  28.604  1.00  0.00     0.251 C 
ATOM     33  H   UNL A   1      32.001  34.094  27.098  1.00  0.00     0.163 HD
ATOM     34  O   UNL A   1      32.663  35.659  28.816  1.00  0.00    -0.269 OA
BRANCH  32  35
ATOM     35  C   UNL A   1      34.409  34.206  29.409  1.00  0.00     0.039 A 
ATOM     36  C   UNL A   1      34.216  33.518  30.612  1.00  0.00     0.014 A 
ATOM     37  C   UNL A   1      35.703  34.518  28.983  1.00  0.00     0.014 A 
ATOM     38  C   UNL A   1      35.321  33.076  31.347  1.00  0.00     0.010 A 
ATOM     39  C   UNL A   1      36.801  34.022  29.681  1.00  0.00     0.010 A 
ATOM     40  C   UNL A   1      36.622  33.290  30.867  1.00  0.00    -0.014 A 
BRANCH  40  41
ATOM     41  C   UNL A   1      37.817  32.758  31.574  1.00  0.00     0.031 A 
ATOM     42  C   UNL A   1      38.530  31.550  31.031  1.00  0.00     0.074 A 
ATOM     43  C   UNL A   1      38.200  33.298  32.747  1.00  0.00     0.049 A 
ATOM     44  N   UNL A   1      39.482  30.838  31.575  1.00  0.00    -0.248 NA
ATOM     45  C   UNL A   1      38.094  31.063  29.712  1.00  0.00     0.031 C 
ATOM     46  C   UNL A   1      37.573  34.455  33.392  1.00  0.00     0.029 A 
ATOM     47  N   UNL A   1      39.191  32.931  33.624  1.00  0.00    -0.354 N 
ATOM     48  C   UNL A   1      39.743  29.807  30.680  1.00  0.00     0.074 A 
ATOM     49  C   UNL A   1      38.821  29.964  29.575  1.00  0.00     0.031 C 
ATOM     50  C   UNL A   1      38.196  34.702  34.555  1.00  0.00     0.029 A 
ATOM     51  C   UNL A   1      39.233  33.697  34.765  1.00  0.00     0.049 A 
ATOM     52  H   UNL A   1      39.814  32.187  33.451  1.00  0.00     0.167 HD
ATOM     53  C   UNL A   1      40.673  28.827  30.766  1.00  0.00     0.037 A 
ATOM     54  C   UNL A   1      40.003  33.589  35.867  1.00  0.00     0.037 A 
ATOM     55  C   UNL A   1      41.604  28.694  31.856  1.00  0.00     0.049 A 
ATOM     56  C   UNL A   1      41.023  32.485  35.947  1.00  0.00     0.074 A 
ATOM     57  C   UNL A   1      42.620  27.767  32.010  1.00  0.00     0.029 A 
ATOM     58  N   UNL A   1      41.635  29.512  32.976  1.00  0.00    -0.354 N 
ATOM     59  N   UNL A   1      41.284  31.543  35.072  1.00  0.00    -0.248 NA
ATOM     60  C   UNL A   1      41.851  32.424  37.161  1.00  0.00     0.031 C 
ATOM     61  C   UNL A   1      43.238  27.998  33.243  1.00  0.00     0.029 A 
ATOM     62  C   UNL A   1      42.641  29.100  33.834  1.00  0.00     0.049 A 
ATOM     63  H   UNL A   1      41.032  30.272  33.137  1.00  0.00     0.167 HD
ATOM     64  C   UNL A   1      42.329  30.801  35.612  1.00  0.00     0.074 A 
ATOM     65  C   UNL A   1      42.651  31.401  36.891  1.00  0.00     0.031 C 
ATOM     66  C   UNL A   1      42.967  29.724  35.092  1.00  0.00     0.037 A 
BRANCH  53  67
ATOM     67  C   UNL A   1      40.732  27.818  29.652  1.00  0.00     0.058 A 
ATOM     68  C   UNL A   1      39.818  26.756  29.570  1.00  0.00     0.135 A 
ATOM     69  C   UNL A   1      41.689  27.938  28.631  1.00  0.00     0.135 A 
ATOM     70  F   UNL A   1      38.889  26.587  30.525  1.00  0.00    -0.206 F 
ATOM     71  C   UNL A   1      39.871  25.828  28.535  1.00  0.00     0.059 A 
ATOM     72  C   UNL A   1      41.744  27.038  27.570  1.00  0.00     0.059 A 
ATOM     73  F   UNL A   1      42.586  28.937  28.658  1.00  0.00    -0.206 F 
ATOM     74  C   UNL A   1      40.839  25.977  27.540  1.00  0.00     0.060 A 
BRANCH  74  75
ATOM     75  S   UNL A   1      40.895  24.764  26.203  1.00  0.00     0.124 S 
ATOM     76  O   UNL A   1      39.479  24.632  25.873  1.00  0.00    -0.237 OA
ATOM     77  O   UNL A   1      41.719  25.437  25.204  1.00  0.00    -0.237 OA
ATOM     78  O   UNL A   1      41.504  23.596  26.831  1.00  0.00    -0.744 OA
ENDBRANCH  74  75
ENDBRANCH  53  67
BRANCH  54  79
ATOM     79  C   UNL A   1      39.842  34.561  36.982  1.00  0.00     0.058 A 
ATOM     80  C   UNL A   1      40.566  35.762  37.000  1.00  0.00     0.135 A 
ATOM     81  C   UNL A   1      38.953  34.319  38.040  1.00  0.00     0.135 A 
ATOM     82  F   UNL A   1      41.436  36.036  36.015  1.00  0.00    -0.206 F 
ATOM     83  C   UNL A   1      40.424  36.685  38.032  1.00  0.00     0.059 A 
ATOM     84  C   UNL A   1      38.775  35.236  39.072  1.00  0.00     0.059 A 
ATOM     85  F   UNL A   1      38.225  33.192  38.063  1.00  0.00    -0.206 F 
ATOM     86  C   UNL A   1      39.523  36.413  39.063  1.00  0.00     0.060 A 
BRANCH  86  87
ATOM     87  S   UNL A   1      39.309  37.637  40.374  1.00  0.00     0.124 S 
ATOM     88  O   UNL A   1      38.150  38.382  39.893  1.00  0.00    -0.237 OA
ATOM     89  O   UNL A   1      39.088  36.797  41.546  1.00  0.00    -0.237 OA
ATOM     90  O   UNL A   1      40.575  38.364  40.362  1.00  0.00    -0.744 OA
ENDBRANCH  86  87
ENDBRANCH  54  79
BRANCH  66  91
ATOM     91  C   UNL A   1      44.114  29.143  35.869  1.00  0.00     0.058 A 
ATOM     92  C   UNL A   1      43.949  28.036  36.714  1.00  0.00     0.135 A 
ATOM     93  C   UNL A   1      45.415  29.637  35.677  1.00  0.00     0.135 A 
ATOM     94  F   UNL A   1      42.724  27.533  36.937  1.00  0.00    -0.206 F 
ATOM     95  C   UNL A   1      45.036  27.435  37.340  1.00  0.00     0.059 A 
ATOM     96  C   UNL A   1      46.519  29.037  36.275  1.00  0.00     0.059 A 
ATOM     97  F   UNL A   1      45.626  30.691  34.872  1.00  0.00    -0.206 F 
ATOM     98  C   UNL A   1      46.318  27.936  37.106  1.00  0.00     0.060 A 
BRANCH  98  99
ATOM     99  S   UNL A   1      47.727  27.093  37.857  1.00  0.00     0.124 S 
ATOM    100  O   UNL A   1      48.851  27.762  37.208  1.00  0.00    -0.237 OA
ATOM    101  O   UNL A   1      47.547  27.387  39.275  1.00  0.00    -0.237 OA
ATOM    102  O   UNL A   1      47.528  25.697  37.482  1.00  0.00    -0.744 OA
ENDBRANCH  98  99
ENDBRANCH  66  91
ENDBRANCH  40  41
ENDBRANCH  32  35
ENDBRANCH  30  31
ENDBRANCH  29  30
ENDBRANCH  28  29
ENDBRANCH  27  28
ENDBRANCH  26  27
ENDBRANCH   1  26
TORSDOF 23
ENDMDL
MODEL 3
REMARK VINA RESULT:      -9.2      6.083      9.194
REMARK SMILES C[C@H](CCCO)NS(=O)(=O)c1cc(Cl)cc(C(=O)NCCCCCCNC(=O)c2ccc(-c3c4nc(c(-c5c(F)cc(S(=O)(=O)[O-])cc5F)c5ccc([nH]5)c(-c5c(F)cc(S(=O)(=O)[O-])cc5F)c5nc(c(-c6c(F)cc(S(=O)(=O)[O-])cc6F)c6ccc3[nH]6)C=C5)C=C4)cc2)c1Cl
REMARK SMILES IDX 20 1 19 2 17 3 18 4 16 6 11 7 12 8 95 9 13 10 96 11 14 12
REMARK SMILES IDX 15 13 8 14 9 15 10 16 7 17 2 19 1 20 3 21 4 22 5 23 6 24
REMARK SMILES IDX 21 26 22 27 23 28 24 29 25 30 26 31 27 32 28 34 29 35 30 36
REMARK SMILES IDX 94 37 31 38 93 39 32 40 33 41 34 42 87 43 35 44 92 45 86 46
REMARK SMILES IDX 88 47 36 48 91 49 85 50 84 51 37 53 71 54 50 55 70 56 51 57
REMARK SMILES IDX 54 58 69 59 89 60 52 61 53 62 68 64 90 65 55 66 38 67 39 68
REMARK SMILES IDX 48 69 40 70 41 71 47 72 49 73 42 74 43 75 44 76 45 77 46 78
REMARK SMILES IDX 72 79 73 80 82 81 74 82 75 83 81 84 83 85 76 86 77 87 78 88
REMARK SMILES IDX 79 89 80 90 56 91 57 92 66 93 58 94 59 95 65 96 67 97 60 98
REMARK SMILES IDX 61 99 62 100 63 101 64 102
REMARK H PARENT 19 5 7 18 6 25 26 33 88 52 54 63
REMARK Flexibility Score: inf
ROOT
ATOM      1  C   UNL A   1      34.775  32.788  30.523  1.00  0.00     0.116 C 
ENDROOT
BRANCH   1   2
ATOM      2  N   UNL A   1      33.961  33.482  29.536  1.00  0.00    -0.352 N 
ATOM      3  C   UNL A   1      33.419  33.030  28.350  1.00  0.00     0.252 C 
ATOM      4  O   UNL A   1      32.687  33.778  27.703  1.00  0.00    -0.269 OA
ATOM      5  H   UNL A   1      33.765  34.422  29.748  1.00  0.00     0.163 HD
BRANCH   3   6
ATOM      6  C   UNL A   1      33.786  31.714  27.759  1.00  0.00     0.061 A 
ATOM      7  C   UNL A   1      33.280  29.523  26.891  1.00  0.00     0.103 A 
ATOM      8  C   UNL A   1      34.625  29.150  27.013  1.00  0.00     0.044 A 
ATOM      9  C   UNL A   1      32.883  30.845  27.133  1.00  0.00     0.073 A 
ATOM     10  C   UNL A   1      35.559  30.090  27.425  1.00  0.00     0.043 A 
ATOM     11  Cl  UNL A   1      31.468  31.513  26.392  1.00  0.00    -0.082 Cl
ATOM     12  Cl  UNL A   1      37.226  29.677  27.472  1.00  0.00    -0.084 Cl
ATOM     13  C   UNL A   1      35.140  31.349  27.847  1.00  0.00     0.036 A 
BRANCH   7  14
ATOM     14  S   UNL A   1      32.097  28.207  26.752  1.00  0.00     0.242 S 
ATOM     15  O   UNL A   1      31.315  28.361  25.556  1.00  0.00    -0.207 OA
ATOM     16  O   UNL A   1      31.426  28.134  28.038  1.00  0.00    -0.207 OA
BRANCH  14  17
ATOM     17  N   UNL A   1      33.004  26.799  26.634  1.00  0.00    -0.208 NA
ATOM     18  H   UNL A   1      33.978  27.095  26.573  1.00  0.00     0.141 HD
BRANCH  17  19
ATOM     19  C   UNL A   1      32.806  25.814  25.549  1.00  0.00     0.067 C 
ATOM     20  C   UNL A   1      31.742  24.789  25.902  1.00  0.00     0.025 C 
BRANCH  19  21
ATOM     21  C   UNL A   1      34.207  25.245  25.205  1.00  0.00     0.022 C 
BRANCH  21  22
ATOM     22  C   UNL A   1      34.774  24.099  26.056  1.00  0.00     0.030 C 
BRANCH  22  23
ATOM     23  C   UNL A   1      34.940  22.756  25.348  1.00  0.00     0.156 C 
BRANCH  23  24
ATOM     24  O   UNL A   1      36.308  22.379  25.288  1.00  0.00    -0.396 OA
ATOM     25  H   UNL A   1      36.727  22.805  24.525  1.00  0.00     0.210 HD
ENDBRANCH  23  24
ENDBRANCH  22  23
ENDBRANCH  21  22
ENDBRANCH  19  21
ENDBRANCH  17  19
ENDBRANCH  14  17
ENDBRANCH   7  14
ENDBRANCH   3   6
ENDBRANCH   1   2
BRANCH   1  26
ATOM     26  C   UNL A   1      36.147  33.401  30.781  1.00  0.00     0.021 C 
BRANCH  26  27
ATOM     27  C   UNL A   1      36.336  34.137  32.111  1.00  0.00     0.002 C 
BRANCH  27  28
ATOM     28  C   UNL A   1      37.632  33.881  32.887  1.00  0.00     0.002 C 
BRANCH  28  29
ATOM     29  C   UNL A   1      37.541  33.000  34.135  1.00  0.00     0.021 C 
BRANCH  29  30
ATOM     30  C   UNL A   1      37.917  31.532  33.962  1.00  0.00     0.116 C 
BRANCH  30  31
ATOM     31  N   UNL A   1      36.950  30.782  33.178  1.00  0.00    -0.352 N 
ATOM     32  C   UNL A   1      37.128  30.082  32.007  1.00  0.00     0.251 C 
ATOM     33  H   UNL A   1      36.033  30.772  33.538  1.00  0.00     0.163 HD
ATOM     34  O   UNL A   1      36.158  29.604  31.426  1.00  0.00    -0.269 OA
BRANCH  32  35
ATOM     35  C   UNL A   1      38.483  29.933  31.428  1.00  0.00     0.039 A 
ATOM     36  C   UNL A   1      39.418  29.130  32.089  1.00  0.00     0.014 A 
ATOM     37  C   UNL A   1      38.833  30.577  30.238  1.00  0.00     0.014 A 
ATOM     38  C   UNL A   1      40.675  28.909  31.519  1.00  0.00     0.010 A 
ATOM     39  C   UNL A   1      40.061  30.305  29.639  1.00  0.00     0.010 A 
ATOM     40  C   UNL A   1      40.992  29.464  30.269  1.00  0.00    -0.014 A 
BRANCH  40  41
ATOM     41  C   UNL A   1      42.284  29.181  29.589  1.00  0.00     0.031 A 
ATOM     42  C   UNL A   1      42.530  27.824  28.988  1.00  0.00     0.074 A 
ATOM     43  C   UNL A   1      43.264  30.105  29.598  1.00  0.00     0.049 A 
ATOM     44  N   UNL A   1      43.635  27.325  28.499  1.00  0.00    -0.248 NA
ATOM     45  C   UNL A   1      41.387  26.897  28.959  1.00  0.00     0.031 C 
ATOM     46  C   UNL A   1      43.158  31.447  30.172  1.00  0.00     0.029 A 
ATOM     47  N   UNL A   1      44.556  30.047  29.132  1.00  0.00    -0.354 N 
ATOM     48  C   UNL A   1      43.330  26.021  28.126  1.00  0.00     0.074 A 
ATOM     49  C   UNL A   1      41.945  25.794  28.482  1.00  0.00     0.031 C 
ATOM     50  C   UNL A   1      44.330  32.085  30.023  1.00  0.00     0.029 A 
ATOM     51  C   UNL A   1      45.286  31.185  29.386  1.00  0.00     0.049 A 
ATOM     52  H   UNL A   1      44.924  29.264  28.662  1.00  0.00     0.167 HD
ATOM     53  C   UNL A   1      44.127  25.102  27.531  1.00  0.00     0.037 A 
ATOM     54  C   UNL A   1      46.585  31.463  29.154  1.00  0.00     0.037 A 
ATOM     55  C   UNL A   1      45.494  25.346  27.156  1.00  0.00     0.049 A 
ATOM     56  C   UNL A   1      47.456  30.423  28.503  1.00  0.00     0.074 A 
ATOM     57  C   UNL A   1      46.370  24.497  26.501  1.00  0.00     0.029 A 
ATOM     58  N   UNL A   1      46.186  26.523  27.400  1.00  0.00    -0.354 N 
ATOM     59  N   UNL A   1      47.139  29.209  28.119  1.00  0.00    -0.248 NA
ATOM     60  C   UNL A   1      48.859  30.785  28.254  1.00  0.00     0.031 C 
ATOM     61  C   UNL A   1      47.603  25.146  26.385  1.00  0.00     0.029 A 
ATOM     62  C   UNL A   1      47.482  26.417  26.924  1.00  0.00     0.049 A 
ATOM     63  H   UNL A   1      45.811  27.316  27.846  1.00  0.00     0.167 HD
ATOM     64  C   UNL A   1      48.291  28.676  27.552  1.00  0.00     0.074 A 
ATOM     65  C   UNL A   1      49.315  29.698  27.644  1.00  0.00     0.031 C 
ATOM     66  C   UNL A   1      48.481  27.454  27.000  1.00  0.00     0.037 A 
BRANCH  53  67
ATOM     67  C   UNL A   1      43.540  23.746  27.249  1.00  0.00     0.058 A 
ATOM     68  C   UNL A   1      43.325  22.809  28.270  1.00  0.00     0.135 A 
ATOM     69  C   UNL A   1      43.152  23.394  25.945  1.00  0.00     0.135 A 
ATOM     70  F   UNL A   1      43.688  23.088  29.533  1.00  0.00    -0.206 F 
ATOM     71  C   UNL A   1      42.777  21.557  28.007  1.00  0.00     0.059 A 
ATOM     72  C   UNL A   1      42.575  22.159  25.662  1.00  0.00     0.059 A 
ATOM     73  F   UNL A   1      43.333  24.254  24.930  1.00  0.00    -0.206 F 
ATOM     74  C   UNL A   1      42.407  21.241  26.698  1.00  0.00     0.060 A 
BRANCH  74  75
ATOM     75  S   UNL A   1      41.697  19.613  26.373  1.00  0.00     0.124 S 
ATOM     76  O   UNL A   1      40.271  19.920  26.341  1.00  0.00    -0.237 OA
ATOM     77  O   UNL A   1      42.299  19.260  25.091  1.00  0.00    -0.237 OA
ATOM     78  O   UNL A   1      42.142  18.816  27.512  1.00  0.00    -0.744 OA
ENDBRANCH  74  75
ENDBRANCH  53  67
BRANCH  54  79
ATOM     79  C   UNL A   1      47.138  32.791  29.537  1.00  0.00     0.058 A 
ATOM     80  C   UNL A   1      47.664  33.009  30.819  1.00  0.00     0.135 A 
ATOM     81  C   UNL A   1      47.170  33.859  28.628  1.00  0.00     0.135 A 
ATOM     82  F   UNL A   1      47.649  32.020  31.727  1.00  0.00    -0.206 F 
ATOM     83  C   UNL A   1      48.190  34.242  31.192  1.00  0.00     0.059 A 
ATOM     84  C   UNL A   1      47.712  35.095  28.969  1.00  0.00     0.059 A 
ATOM     85  F   UNL A   1      46.693  33.699  27.384  1.00  0.00    -0.206 F 
ATOM     86  C   UNL A   1      48.212  35.279  30.258  1.00  0.00     0.060 A 
BRANCH  86  87
ATOM     87  S   UNL A   1      48.940  36.861  30.735  1.00  0.00     0.124 S 
ATOM     88  O   UNL A   1      50.364  36.592  30.565  1.00  0.00    -0.237 OA
ATOM     89  O   UNL A   1      48.344  37.778  29.769  1.00  0.00    -0.237 OA
ATOM     90  O   UNL A   1      48.491  37.035  32.112  1.00  0.00    -0.744 OA
ENDBRANCH  86  87
ENDBRANCH  54  79
BRANCH  66  91
ATOM     91  C   UNL A   1      49.826  27.154  26.400  1.00  0.00     0.058 A 
ATOM     92  C   UNL A   1      50.910  26.739  27.187  1.00  0.00     0.135 A 
ATOM     93  C   UNL A   1      49.995  27.178  25.006  1.00  0.00     0.135 A 
ATOM     94  F   UNL A   1      50.801  26.708  28.526  1.00  0.00    -0.206 F 
ATOM     95  C   UNL A   1      52.118  26.355  26.613  1.00  0.00     0.059 A 
ATOM     96  C   UNL A   1      51.186  26.776  24.408  1.00  0.00     0.059 A 
ATOM     97  F   UNL A   1      48.985  27.561  24.209  1.00  0.00    -0.206 F 
ATOM     98  C   UNL A   1      52.242  26.366  25.222  1.00  0.00     0.060 A 
BRANCH  98  99
ATOM     99  S   UNL A   1      53.785  25.783  24.486  1.00  0.00     0.124 S 
ATOM    100  O   UNL A   1      54.775  26.327  25.410  1.00  0.00    -0.237 OA
ATOM    101  O   UNL A   1      53.617  24.334  24.517  1.00  0.00    -0.237 OA
ATOM    102  O   UNL A   1      53.774  26.381  23.154  1.00  0.00    -0.744 OA
ENDBRANCH  98  99
ENDBRANCH  66  91
ENDBRANCH  40  41
ENDBRANCH  32  35
ENDBRANCH  30  31
ENDBRANCH  29  30
ENDBRANCH  28  29
ENDBRANCH  27  28
ENDBRANCH  26  27
ENDBRANCH   1  26
TORSDOF 23
ENDMDL
