MODEL 1
REMARK VINA RESULT:     -13.7      0.000      0.000
REMARK SMILES Cc1cccc(-c2ncc(C[NH+]3CCC4(CC3)NC(=O)C[C@H]4C(=O)NCCCCCCNC(=O)c3ccc(-c4c5nc(c(-c6c(F)cc(S(=O)(=O)[O-])cc6F)c6ccc([nH]6)c(-c6c(F)cc(S(=O)(=O)[O-])cc6F)c6nc(c(-c7c(F)cc(S(=O)(=O)[O-])cc7F)c7ccc4[nH]7)C=C6)C=C5)cc3)cn2)c1
REMARK SMILES IDX 28 1 27 2 26 3 25 4 23 5 24 6 22 8 12 9 13 10 17 11 14 13
REMARK SMILES IDX 16 14 15 15 18 16 19 17 21 19 20 20 11 21 10 22 7 23 8 24
REMARK SMILES IDX 102 25 9 26 101 27 6 28 1 29 2 30 3 31 103 32 4 33 5 34
REMARK SMILES IDX 29 35 30 36 31 37 32 38 33 39 34 41 35 42 36 43 100 44 37 45
REMARK SMILES IDX 99 46 38 47 39 48 40 49 93 50 41 51 98 52 92 53 94 54 42 55
REMARK SMILES IDX 97 56 91 57 90 58 43 60 77 61 56 62 76 63 57 64 60 65 75 66
REMARK SMILES IDX 95 67 58 68 59 69 74 71 96 72 61 73 44 74 45 75 54 76 46 77
REMARK SMILES IDX 47 78 53 79 55 80 48 81 49 82 50 83 51 84 52 85 78 86 79 87
REMARK SMILES IDX 88 88 80 89 81 90 87 91 89 92 82 93 83 94 84 95 85 96 86 97
REMARK SMILES IDX 62 98 63 99 72 100 64 101 65 102 71 103 73 104 66 105 67 106
REMARK SMILES IDX 68 107 69 108 70 109
REMARK H PARENT 25 7 12 12 18 18 32 40 94 59 60 70
REMARK Flexibility Score: inf
ROOT
ATOM      1  C   UNL A   1      34.011  27.904  24.660  1.00  0.00     0.002 C 
ENDROOT
BRANCH   1   2
ATOM      2  C   UNL A   1      33.343  28.974  23.794  1.00  0.00     0.021 C 
BRANCH   2   3
ATOM      3  C   UNL A   1      32.343  28.470  22.734  1.00  0.00     0.116 C 
BRANCH   3   4
ATOM      4  N   UNL A   1      32.882  27.505  21.773  1.00  0.00    -0.356 N 
ATOM      5  C   UNL A   1      32.630  26.189  21.505  1.00  0.00     0.226 C 
ATOM      6  O   UNL A   1      33.312  25.670  20.611  1.00  0.00    -0.275 OA
ATOM      7  H   UNL A   1      33.580  27.890  21.193  1.00  0.00     0.163 HD
BRANCH   5   8
ATOM      8  C   UNL A   1      31.579  25.308  22.222  1.00  0.00     0.114 C 
ATOM      9  N   UNL A   1      33.636  21.969  23.585  1.00  0.00    -0.331 N 
ATOM     10  C   UNL A   1      32.195  21.878  23.391  1.00  0.00     0.264 C 
ATOM     11  C   UNL A   1      34.154  23.171  22.970  1.00  0.00     0.264 C 
ATOM     12  H   UNL A   1      33.984  21.151  23.084  1.00  0.00     0.348 HD
ATOM     13  C   UNL A   1      31.361  23.126  23.719  1.00  0.00     0.091 C 
ATOM     14  C   UNL A   1      33.539  24.423  23.561  1.00  0.00     0.091 C 
ATOM     15  C   UNL A   1      32.017  24.519  23.481  1.00  0.00     0.063 C 
ATOM     16  N   UNL A   1      31.448  25.350  24.537  1.00  0.00    -0.349 N 
ATOM     17  C   UNL A   1      30.480  26.239  24.125  1.00  0.00     0.221 C 
ATOM     18  H   UNL A   1      31.736  25.280  25.476  1.00  0.00     0.164 HD
ATOM     19  C   UNL A   1      30.380  26.169  22.630  1.00  0.00     0.116 C 
ATOM     20  O   UNL A   1      29.821  26.950  24.851  1.00  0.00    -0.275 OA
BRANCH   9  21
ATOM     21  C   UNL A   1      34.237  21.606  24.887  1.00  0.00     0.302 C 
BRANCH  21  22
ATOM     22  C   UNL A   1      35.737  21.639  24.994  1.00  0.00     0.043 A 
ATOM     23  C   UNL A   1      38.347  21.464  25.755  1.00  0.00     0.159 A 
ATOM     24  N   UNL A   1      37.778  20.382  25.185  1.00  0.00    -0.236 NA
ATOM     25  N   UNL A   1      37.737  22.656  25.898  1.00  0.00    -0.236 NA
ATOM     26  C   UNL A   1      36.504  20.518  24.766  1.00  0.00     0.124 A 
ATOM     27  C   UNL A   1      36.444  22.720  25.499  1.00  0.00     0.124 A 
BRANCH  23  28
ATOM     28  C   UNL A   1      39.665  21.276  26.373  1.00  0.00     0.019 A 
ATOM     29  C   UNL A   1      42.574  18.772  26.276  1.00  0.00     0.044 C 
ATOM     30  C   UNL A   1      41.743  19.974  26.621  1.00  0.00    -0.050 A 
ATOM     31  C   UNL A   1      42.254  20.966  27.459  1.00  0.00     0.003 A 
ATOM     32  C   UNL A   1      40.457  20.143  26.085  1.00  0.00     0.015 A 
ATOM     33  C   UNL A   1      41.484  22.086  27.774  1.00  0.00     0.001 A 
ATOM     34  C   UNL A   1      40.197  22.233  27.246  1.00  0.00     0.012 A 
ENDBRANCH  23  28
ENDBRANCH  21  22
ENDBRANCH   9  21
ENDBRANCH   5   8
ENDBRANCH   3   4
ENDBRANCH   2   3
ENDBRANCH   1   2
BRANCH   1  35
ATOM     35  C   UNL A   1      33.338  27.618  26.006  1.00  0.00     0.002 C 
BRANCH  35  36
ATOM     36  C   UNL A   1      33.774  28.504  27.170  1.00  0.00     0.021 C 
BRANCH  36  37
ATOM     37  C   UNL A   1      33.056  29.834  27.247  1.00  0.00     0.116 C 
BRANCH  37  38
ATOM     38  N   UNL A   1      33.903  30.991  27.004  1.00  0.00    -0.352 N 
ATOM     39  C   UNL A   1      34.791  31.469  27.964  1.00  0.00     0.251 C 
ATOM     40  H   UNL A   1      33.848  31.450  26.134  1.00  0.00     0.163 HD
ATOM     41  O   UNL A   1      34.792  32.618  28.384  1.00  0.00    -0.269 OA
BRANCH  39  42
ATOM     42  C   UNL A   1      35.842  30.507  28.362  1.00  0.00     0.039 A 
ATOM     43  C   UNL A   1      35.817  29.947  29.645  1.00  0.00     0.014 A 
ATOM     44  C   UNL A   1      36.967  30.398  27.553  1.00  0.00     0.014 A 
ATOM     45  C   UNL A   1      36.997  29.449  30.186  1.00  0.00     0.010 A 
ATOM     46  C   UNL A   1      38.154  30.077  28.138  1.00  0.00     0.010 A 
ATOM     47  C   UNL A   1      38.164  29.618  29.457  1.00  0.00    -0.014 A 
BRANCH  47  48
ATOM     48  C   UNL A   1      39.492  29.235  29.871  1.00  0.00     0.031 A 
ATOM     49  C   UNL A   1      40.011  27.974  29.307  1.00  0.00     0.074 A 
ATOM     50  C   UNL A   1      40.263  30.204  30.407  1.00  0.00     0.049 A 
ATOM     51  N   UNL A   1      41.130  27.446  29.634  1.00  0.00    -0.248 NA
ATOM     52  C   UNL A   1      39.282  27.183  28.313  1.00  0.00     0.031 C 
ATOM     53  C   UNL A   1      41.716  30.301  30.425  1.00  0.00     0.029 A 
ATOM     54  N   UNL A   1      39.843  31.260  31.217  1.00  0.00    -0.354 N 
ATOM     55  C   UNL A   1      41.417  26.456  28.715  1.00  0.00     0.074 A 
ATOM     56  C   UNL A   1      40.196  26.267  27.978  1.00  0.00     0.031 C 
ATOM     57  C   UNL A   1      42.084  31.148  31.402  1.00  0.00     0.029 A 
ATOM     58  C   UNL A   1      40.879  31.496  32.141  1.00  0.00     0.049 A 
ATOM     59  H   UNL A   1      38.988  31.744  31.156  1.00  0.00     0.167 HD
ATOM     60  C   UNL A   1      42.711  26.038  28.632  1.00  0.00     0.037 A 
ATOM     61  C   UNL A   1      40.677  31.201  33.463  1.00  0.00     0.037 A 
ATOM     62  C   UNL A   1      43.485  26.689  29.689  1.00  0.00     0.049 A 
ATOM     63  C   UNL A   1      41.544  30.054  33.937  1.00  0.00     0.074 A 
ATOM     64  C   UNL A   1      44.274  27.826  29.701  1.00  0.00     0.029 A 
ATOM     65  N   UNL A   1      43.190  26.388  31.011  1.00  0.00    -0.354 N 
ATOM     66  N   UNL A   1      42.024  29.127  33.151  1.00  0.00    -0.248 NA
ATOM     67  C   UNL A   1      42.004  29.905  35.314  1.00  0.00     0.031 C 
ATOM     68  C   UNL A   1      44.393  28.250  31.049  1.00  0.00     0.029 A 
ATOM     69  C   UNL A   1      43.694  27.361  31.849  1.00  0.00     0.049 A 
ATOM     70  H   UNL A   1      42.693  25.592  31.309  1.00  0.00     0.167 HD
ATOM     71  C   UNL A   1      42.845  28.292  33.867  1.00  0.00     0.074 A 
ATOM     72  C   UNL A   1      42.795  28.823  35.217  1.00  0.00     0.031 C 
ATOM     73  C   UNL A   1      43.517  27.251  33.288  1.00  0.00     0.037 A 
BRANCH  60  74
ATOM     74  C   UNL A   1      43.369  25.246  27.522  1.00  0.00     0.058 A 
ATOM     75  C   UNL A   1      44.202  24.149  27.854  1.00  0.00     0.135 A 
ATOM     76  C   UNL A   1      43.282  25.507  26.140  1.00  0.00     0.135 A 
ATOM     77  F   UNL A   1      44.366  23.748  29.123  1.00  0.00    -0.206 F 
ATOM     78  C   UNL A   1      44.917  23.413  26.913  1.00  0.00     0.059 A 
ATOM     79  C   UNL A   1      44.001  24.788  25.175  1.00  0.00     0.059 A 
ATOM     80  F   UNL A   1      42.479  26.452  25.644  1.00  0.00    -0.206 F 
ATOM     81  C   UNL A   1      44.821  23.745  25.573  1.00  0.00     0.060 A 
BRANCH  81  82
ATOM     82  S   UNL A   1      45.760  22.778  24.379  1.00  0.00     0.124 S 
ATOM     83  O   UNL A   1      46.360  21.753  25.228  1.00  0.00    -0.237 OA
ATOM     84  O   UNL A   1      44.717  22.319  23.469  1.00  0.00    -0.237 OA
ATOM     85  O   UNL A   1      46.697  23.746  23.817  1.00  0.00    -0.744 OA
ENDBRANCH  81  82
ENDBRANCH  60  74
BRANCH  61  86
ATOM     86  C   UNL A   1      39.270  31.502  33.886  1.00  0.00     0.058 A 
ATOM     87  C   UNL A   1      38.970  32.861  34.122  1.00  0.00     0.135 A 
ATOM     88  C   UNL A   1      38.207  30.668  33.506  1.00  0.00     0.135 A 
ATOM     89  F   UNL A   1      39.938  33.699  34.529  1.00  0.00    -0.206 F 
ATOM     90  C   UNL A   1      37.742  33.413  33.764  1.00  0.00     0.059 A 
ATOM     91  C   UNL A   1      36.959  31.200  33.163  1.00  0.00     0.059 A 
ATOM     92  F   UNL A   1      38.416  29.360  33.293  1.00  0.00    -0.206 F 
ATOM     93  C   UNL A   1      36.776  32.584  33.200  1.00  0.00     0.060 A 
BRANCH  93  94
ATOM     94  S   UNL A   1      35.369  33.365  32.364  1.00  0.00     0.124 S 
ATOM     95  O   UNL A   1      34.520  32.217  32.061  1.00  0.00    -0.237 OA
ATOM     96  O   UNL A   1      34.861  34.271  33.398  1.00  0.00    -0.237 OA
ATOM     97  O   UNL A   1      35.982  34.012  31.211  1.00  0.00    -0.744 OA
ENDBRANCH  93  94
ENDBRANCH  61  86
BRANCH  73  98
ATOM     98  C   UNL A   1      44.164  26.076  33.998  1.00  0.00     0.058 A 
ATOM     99  C   UNL A   1      45.544  25.820  34.005  1.00  0.00     0.135 A 
ATOM    100  C   UNL A   1      43.395  25.233  34.847  1.00  0.00     0.135 A 
ATOM    101  F   UNL A   1      46.411  26.613  33.360  1.00  0.00    -0.206 F 
ATOM    102  C   UNL A   1      46.105  24.758  34.715  1.00  0.00     0.059 A 
ATOM    103  C   UNL A   1      43.945  24.222  35.626  1.00  0.00     0.059 A 
ATOM    104  F   UNL A   1      42.066  25.364  34.969  1.00  0.00    -0.206 F 
ATOM    105  C   UNL A   1      45.298  23.962  35.520  1.00  0.00     0.060 A 
BRANCH 105 106
ATOM    106  S   UNL A   1      46.029  22.599  36.436  1.00  0.00     0.124 S 
ATOM    107  O   UNL A   1      45.596  22.905  37.796  1.00  0.00    -0.237 OA
ATOM    108  O   UNL A   1      45.403  21.431  35.822  1.00  0.00    -0.237 OA
ATOM    109  O   UNL A   1      47.459  22.742  36.180  1.00  0.00    -0.744 OA
ENDBRANCH 105 106
ENDBRANCH  73  98
ENDBRANCH  47  48
ENDBRANCH  39  42
ENDBRANCH  37  38
ENDBRANCH  36  37
ENDBRANCH  35  36
ENDBRANCH   1  35
TORSDOF 19
ENDMDL
MODEL 2
REMARK VINA RESULT:     -12.9      1.749      2.931
REMARK SMILES Cc1cccc(-c2ncc(C[NH+]3CCC4(CC3)NC(=O)C[C@H]4C(=O)NCCCCCCNC(=O)c3ccc(-c4c5nc(c(-c6c(F)cc(S(=O)(=O)[O-])cc6F)c6ccc([nH]6)c(-c6c(F)cc(S(=O)(=O)[O-])cc6F)c6nc(c(-c7c(F)cc(S(=O)(=O)[O-])cc7F)c7ccc4[nH]7)C=C6)C=C5)cc3)cn2)c1
REMARK SMILES IDX 28 1 27 2 26 3 25 4 23 5 24 6 22 8 12 9 13 10 17 11 14 13
REMARK SMILES IDX 16 14 15 15 18 16 19 17 21 19 20 20 11 21 10 22 7 23 8 24
REMARK SMILES IDX 102 25 9 26 101 27 6 28 1 29 2 30 3 31 103 32 4 33 5 34
REMARK SMILES IDX 29 35 30 36 31 37 32 38 33 39 34 41 35 42 36 43 100 44 37 45
REMARK SMILES IDX 99 46 38 47 39 48 40 49 93 50 41 51 98 52 92 53 94 54 42 55
REMARK SMILES IDX 97 56 91 57 90 58 43 60 77 61 56 62 76 63 57 64 60 65 75 66
REMARK SMILES IDX 95 67 58 68 59 69 74 71 96 72 61 73 44 74 45 75 54 76 46 77
REMARK SMILES IDX 47 78 53 79 55 80 48 81 49 82 50 83 51 84 52 85 78 86 79 87
REMARK SMILES IDX 88 88 80 89 81 90 87 91 89 92 82 93 83 94 84 95 85 96 86 97
REMARK SMILES IDX 62 98 63 99 72 100 64 101 65 102 71 103 73 104 66 105 67 106
REMARK SMILES IDX 68 107 69 108 70 109
REMARK H PARENT 25 7 12 12 18 18 32 40 94 59 60 70
REMARK Flexibility Score: inf
ROOT
ATOM      1  C   UNL A   1      32.552  25.623  26.258  1.00  0.00     0.002 C 
ENDROOT
BRANCH   1   2
ATOM      2  C   UNL A   1      31.206  24.988  25.902  1.00  0.00     0.021 C 
BRANCH   2   3
ATOM      3  C   UNL A   1      31.194  24.055  24.674  1.00  0.00     0.116 C 
BRANCH   3   4
ATOM      4  N   UNL A   1      32.089  24.445  23.582  1.00  0.00    -0.356 N 
ATOM      5  C   UNL A   1      33.129  23.832  22.940  1.00  0.00     0.226 C 
ATOM      6  O   UNL A   1      33.690  24.487  22.052  1.00  0.00    -0.275 OA
ATOM      7  H   UNL A   1      31.900  25.347  23.234  1.00  0.00     0.163 HD
BRANCH   5   8
ATOM      8  C   UNL A   1      33.656  22.407  23.236  1.00  0.00     0.114 C 
ATOM      9  N   UNL A   1      37.505  22.903  24.710  1.00  0.00    -0.331 N 
ATOM     10  C   UNL A   1      37.137  21.623  24.120  1.00  0.00     0.264 C 
ATOM     11  C   UNL A   1      36.510  23.907  24.404  1.00  0.00     0.264 C 
ATOM     12  H   UNL A   1      38.378  23.131  24.232  1.00  0.00     0.348 HD
ATOM     13  C   UNL A   1      35.700  21.131  24.351  1.00  0.00     0.091 C 
ATOM     14  C   UNL A   1      35.144  23.536  24.946  1.00  0.00     0.091 C 
ATOM     15  C   UNL A   1      34.575  22.203  24.465  1.00  0.00     0.063 C 
ATOM     16  N   UNL A   1      33.637  21.615  25.415  1.00  0.00    -0.349 N 
ATOM     17  C   UNL A   1      32.479  21.115  24.861  1.00  0.00     0.221 C 
ATOM     18  H   UNL A   1      33.818  21.579  26.382  1.00  0.00     0.164 HD
ATOM     19  C   UNL A   1      32.475  21.446  23.398  1.00  0.00     0.116 C 
ATOM     20  O   UNL A   1      31.617  20.508  25.456  1.00  0.00    -0.275 OA
BRANCH   9  21
ATOM     21  C   UNL A   1      38.072  22.960  26.075  1.00  0.00     0.302 C 
BRANCH  21  22
ATOM     22  C   UNL A   1      39.347  22.204  26.331  1.00  0.00     0.043 A 
ATOM     23  C   UNL A   1      41.706  20.850  26.173  1.00  0.00     0.159 A 
ATOM     24  N   UNL A   1      41.749  22.197  26.226  1.00  0.00    -0.236 NA
ATOM     25  N   UNL A   1      40.578  20.122  26.278  1.00  0.00    -0.236 NA
ATOM     26  C   UNL A   1      40.570  22.835  26.363  1.00  0.00     0.124 A 
ATOM     27  C   UNL A   1      39.420  20.819  26.369  1.00  0.00     0.124 A 
BRANCH  23  28
ATOM     28  C   UNL A   1      42.957  20.155  25.846  1.00  0.00     0.019 A 
ATOM     29  C   UNL A   1      46.469  20.987  24.535  1.00  0.00     0.044 C 
ATOM     30  C   UNL A   1      45.293  20.216  25.063  1.00  0.00    -0.050 A 
ATOM     31  C   UNL A   1      45.409  18.852  25.333  1.00  0.00     0.003 A 
ATOM     32  C   UNL A   1      44.070  20.852  25.327  1.00  0.00     0.015 A 
ATOM     33  C   UNL A   1      44.318  18.137  25.829  1.00  0.00     0.001 A 
ATOM     34  C   UNL A   1      43.100  18.781  26.072  1.00  0.00     0.012 A 
ENDBRANCH  23  28
ENDBRANCH  21  22
ENDBRANCH   9  21
ENDBRANCH   5   8
ENDBRANCH   3   4
ENDBRANCH   2   3
ENDBRANCH   1   2
BRANCH   1  35
ATOM     35  C   UNL A   1      32.684  27.119  25.960  1.00  0.00     0.002 C 
BRANCH  35  36
ATOM     36  C   UNL A   1      34.107  27.671  25.939  1.00  0.00     0.021 C 
BRANCH  36  37
ATOM     37  C   UNL A   1      34.401  28.684  27.024  1.00  0.00     0.116 C 
BRANCH  37  38
ATOM     38  N   UNL A   1      34.147  30.064  26.644  1.00  0.00    -0.352 N 
ATOM     39  C   UNL A   1      33.982  31.072  27.590  1.00  0.00     0.251 C 
ATOM     40  H   UNL A   1      34.089  30.293  25.688  1.00  0.00     0.163 HD
ATOM     41  O   UNL A   1      33.000  31.798  27.654  1.00  0.00    -0.269 OA
BRANCH  39  42
ATOM     42  C   UNL A   1      35.159  31.296  28.458  1.00  0.00     0.039 A 
ATOM     43  C   UNL A   1      36.141  32.215  28.070  1.00  0.00     0.014 A 
ATOM     44  C   UNL A   1      35.389  30.395  29.492  1.00  0.00     0.014 A 
ATOM     45  C   UNL A   1      37.424  32.092  28.592  1.00  0.00     0.010 A 
ATOM     46  C   UNL A   1      36.675  30.159  29.870  1.00  0.00     0.010 A 
ATOM     47  C   UNL A   1      37.689  31.000  29.405  1.00  0.00    -0.014 A 
BRANCH  47  48
ATOM     48  C   UNL A   1      38.964  30.659  29.987  1.00  0.00     0.031 A 
ATOM     49  C   UNL A   1      39.640  29.474  29.425  1.00  0.00     0.074 A 
ATOM     50  C   UNL A   1      39.585  31.626  30.695  1.00  0.00     0.049 A 
ATOM     51  N   UNL A   1      40.731  28.984  29.880  1.00  0.00    -0.248 NA
ATOM     52  C   UNL A   1      39.116  28.721  28.283  1.00  0.00     0.031 C 
ATOM     53  C   UNL A   1      41.010  31.800  30.936  1.00  0.00     0.029 A 
ATOM     54  N   UNL A   1      38.983  32.594  31.501  1.00  0.00    -0.354 N 
ATOM     55  C   UNL A   1      41.212  28.083  28.951  1.00  0.00     0.074 A 
ATOM     56  C   UNL A   1      40.126  27.883  28.029  1.00  0.00     0.031 C 
ATOM     57  C   UNL A   1      41.177  32.590  32.012  1.00  0.00     0.029 A 
ATOM     58  C   UNL A   1      39.857  32.816  32.583  1.00  0.00     0.049 A 
ATOM     59  H   UNL A   1      38.117  33.035  31.345  1.00  0.00     0.167 HD
ATOM     60  C   UNL A   1      42.529  27.742  29.036  1.00  0.00     0.037 A 
ATOM     61  C   UNL A   1      39.484  32.412  33.838  1.00  0.00     0.037 A 
ATOM     62  C   UNL A   1      43.097  28.354  30.237  1.00  0.00     0.049 A 
ATOM     63  C   UNL A   1      40.345  31.282  34.359  1.00  0.00     0.074 A 
ATOM     64  C   UNL A   1      43.801  29.528  30.442  1.00  0.00     0.029 A 
ATOM     65  N   UNL A   1      42.633  27.940  31.477  1.00  0.00    -0.354 N 
ATOM     66  N   UNL A   1      40.993  30.444  33.595  1.00  0.00    -0.248 NA
ATOM     67  C   UNL A   1      40.608  31.055  35.777  1.00  0.00     0.031 C 
ATOM     68  C   UNL A   1      43.695  29.856  31.818  1.00  0.00     0.029 A 
ATOM     69  C   UNL A   1      42.946  28.873  32.444  1.00  0.00     0.049 A 
ATOM     70  H   UNL A   1      42.150  27.098  31.644  1.00  0.00     0.167 HD
ATOM     71  C   UNL A   1      41.754  29.603  34.369  1.00  0.00     0.074 A 
ATOM     72  C   UNL A   1      41.474  30.028  35.728  1.00  0.00     0.031 C 
ATOM     73  C   UNL A   1      42.569  28.646  33.830  1.00  0.00     0.037 A 
BRANCH  60  74
ATOM     74  C   UNL A   1      43.391  27.073  27.987  1.00  0.00     0.058 A 
ATOM     75  C   UNL A   1      44.029  25.846  28.296  1.00  0.00     0.135 A 
ATOM     76  C   UNL A   1      43.682  27.567  26.699  1.00  0.00     0.135 A 
ATOM     77  F   UNL A   1      43.831  25.225  29.468  1.00  0.00    -0.206 F 
ATOM     78  C   UNL A   1      44.907  25.196  27.432  1.00  0.00     0.059 A 
ATOM     79  C   UNL A   1      44.570  26.937  25.818  1.00  0.00     0.059 A 
ATOM     80  F   UNL A   1      43.104  28.668  26.213  1.00  0.00    -0.206 F 
ATOM     81  C   UNL A   1      45.183  25.754  26.196  1.00  0.00     0.060 A 
BRANCH  81  82
ATOM     82  S   UNL A   1      46.325  24.893  25.102  1.00  0.00     0.124 S 
ATOM     83  O   UNL A   1      47.131  24.128  26.048  1.00  0.00    -0.237 OA
ATOM     84  O   UNL A   1      45.418  24.114  24.265  1.00  0.00    -0.237 OA
ATOM     85  O   UNL A   1      47.027  25.977  24.421  1.00  0.00    -0.744 OA
ENDBRANCH  81  82
ENDBRANCH  60  74
BRANCH  61  86
ATOM     86  C   UNL A   1      38.014  32.605  34.064  1.00  0.00     0.058 A 
ATOM     87  C   UNL A   1      37.599  33.919  34.369  1.00  0.00     0.135 A 
ATOM     88  C   UNL A   1      37.073  31.761  33.454  1.00  0.00     0.135 A 
ATOM     89  F   UNL A   1      38.442  34.759  34.991  1.00  0.00    -0.206 F 
ATOM     90  C   UNL A   1      36.407  34.443  33.876  1.00  0.00     0.059 A 
ATOM     91  C   UNL A   1      35.859  32.263  32.970  1.00  0.00     0.059 A 
ATOM     92  F   UNL A   1      37.391  30.490  33.162  1.00  0.00    -0.206 F 
ATOM     93  C   UNL A   1      35.588  33.627  33.100  1.00  0.00     0.060 A 
BRANCH  93  94
ATOM     94  S   UNL A   1      34.275  34.417  32.129  1.00  0.00     0.124 S 
ATOM     95  O   UNL A   1      33.073  33.978  32.830  1.00  0.00    -0.237 OA
ATOM     96  O   UNL A   1      34.603  35.838  32.266  1.00  0.00    -0.237 OA
ATOM     97  O   UNL A   1      34.462  33.857  30.797  1.00  0.00    -0.744 OA
ENDBRANCH  93  94
ENDBRANCH  61  86
BRANCH  73  98
ATOM     98  C   UNL A   1      43.179  27.458  34.549  1.00  0.00     0.058 A 
ATOM     99  C   UNL A   1      42.451  26.342  34.991  1.00  0.00     0.135 A 
ATOM    100  C   UNL A   1      44.591  27.342  34.684  1.00  0.00     0.135 A 
ATOM    101  F   UNL A   1      41.126  26.249  34.809  1.00  0.00    -0.206 F 
ATOM    102  C   UNL A   1      43.058  25.245  35.602  1.00  0.00     0.059 A 
ATOM    103  C   UNL A   1      45.221  26.223  35.215  1.00  0.00     0.059 A 
ATOM    104  F   UNL A   1      45.426  28.313  34.288  1.00  0.00    -0.206 F 
ATOM    105  C   UNL A   1      44.443  25.196  35.714  1.00  0.00     0.060 A 
BRANCH 105 106
ATOM    106  S   UNL A   1      45.220  23.776  36.498  1.00  0.00     0.124 S 
ATOM    107  O   UNL A   1      44.526  22.673  35.841  1.00  0.00    -0.237 OA
ATOM    108  O   UNL A   1      46.625  23.944  36.136  1.00  0.00    -0.237 OA
ATOM    109  O   UNL A   1      44.918  23.960  37.914  1.00  0.00    -0.744 OA
ENDBRANCH 105 106
ENDBRANCH  73  98
ENDBRANCH  47  48
ENDBRANCH  39  42
ENDBRANCH  37  38
ENDBRANCH  36  37
ENDBRANCH  35  36
ENDBRANCH   1  35
TORSDOF 19
ENDMDL
MODEL 3
REMARK VINA RESULT:     -12.8      1.807      3.035
REMARK SMILES Cc1cccc(-c2ncc(C[NH+]3CCC4(CC3)NC(=O)C[C@H]4C(=O)NCCCCCCNC(=O)c3ccc(-c4c5nc(c(-c6c(F)cc(S(=O)(=O)[O-])cc6F)c6ccc([nH]6)c(-c6c(F)cc(S(=O)(=O)[O-])cc6F)c6nc(c(-c7c(F)cc(S(=O)(=O)[O-])cc7F)c7ccc4[nH]7)C=C6)C=C5)cc3)cn2)c1
REMARK SMILES IDX 28 1 27 2 26 3 25 4 23 5 24 6 22 8 12 9 13 10 17 11 14 13
REMARK SMILES IDX 16 14 15 15 18 16 19 17 21 19 20 20 11 21 10 22 7 23 8 24
REMARK SMILES IDX 102 25 9 26 101 27 6 28 1 29 2 30 3 31 103 32 4 33 5 34
REMARK SMILES IDX 29 35 30 36 31 37 32 38 33 39 34 41 35 42 36 43 100 44 37 45
REMARK SMILES IDX 99 46 38 47 39 48 40 49 93 50 41 51 98 52 92 53 94 54 42 55
REMARK SMILES IDX 97 56 91 57 90 58 43 60 77 61 56 62 76 63 57 64 60 65 75 66
REMARK SMILES IDX 95 67 58 68 59 69 74 71 96 72 61 73 44 74 45 75 54 76 46 77
REMARK SMILES IDX 47 78 53 79 55 80 48 81 49 82 50 83 51 84 52 85 78 86 79 87
REMARK SMILES IDX 88 88 80 89 81 90 87 91 89 92 82 93 83 94 84 95 85 96 86 97
REMARK SMILES IDX 62 98 63 99 72 100 64 101 65 102 71 103 73 104 66 105 67 106
REMARK SMILES IDX 68 107 69 108 70 109
REMARK H PARENT 25 7 12 12 18 18 32 40 94 59 60 70
REMARK Flexibility Score: inf
ROOT
ATOM      1  C   UNL A   1      33.015  29.987  26.019  1.00  0.00     0.002 C 
ENDROOT
BRANCH   1   2
ATOM      2  C   UNL A   1      31.515  29.785  25.798  1.00  0.00     0.021 C 
BRANCH   2   3
ATOM      3  C   UNL A   1      30.885  30.567  24.628  1.00  0.00     0.116 C 
BRANCH   3   4
ATOM      4  N   UNL A   1      30.333  29.744  23.549  1.00  0.00    -0.356 N 
ATOM      5  C   UNL A   1      30.749  28.608  22.912  1.00  0.00     0.226 C 
ATOM      6  O   UNL A   1      30.020  28.189  22.003  1.00  0.00    -0.275 OA
ATOM      7  H   UNL A   1      29.474  30.084  23.208  1.00  0.00     0.163 HD
BRANCH   5   8
ATOM      8  C   UNL A   1      32.042  27.818  23.230  1.00  0.00     0.114 C 
ATOM      9  N   UNL A   1      31.163  25.491  26.554  1.00  0.00    -0.331 N 
ATOM     10  C   UNL A   1      32.555  25.810  26.266  1.00  0.00     0.264 C 
ATOM     11  C   UNL A   1      30.280  26.315  25.758  1.00  0.00     0.264 C 
ATOM     12  H   UNL A   1      31.071  25.743  27.538  1.00  0.00     0.348 HD
ATOM     13  C   UNL A   1      32.969  25.879  24.788  1.00  0.00     0.091 C 
ATOM     14  C   UNL A   1      30.493  26.107  24.273  1.00  0.00     0.091 C 
ATOM     15  C   UNL A   1      31.907  26.369  23.759  1.00  0.00     0.063 C 
ATOM     16  N   UNL A   1      32.220  25.607  22.554  1.00  0.00    -0.349 N 
ATOM     17  C   UNL A   1      32.851  26.319  21.559  1.00  0.00     0.221 C 
ATOM     18  H   UNL A   1      31.995  24.653  22.461  1.00  0.00     0.164 HD
ATOM     19  C   UNL A   1      32.925  27.757  21.981  1.00  0.00     0.116 C 
ATOM     20  O   UNL A   1      33.278  25.858  20.524  1.00  0.00    -0.275 OA
BRANCH   9  21
ATOM     21  C   UNL A   1      30.742  24.083  26.727  1.00  0.00     0.302 C 
BRANCH  21  22
ATOM     22  C   UNL A   1      31.761  23.013  26.452  1.00  0.00     0.043 A 
ATOM     23  C   UNL A   1      33.982  21.559  25.839  1.00  0.00     0.159 A 
ATOM     24  N   UNL A   1      33.820  21.962  27.116  1.00  0.00    -0.236 NA
ATOM     25  N   UNL A   1      33.079  21.754  24.860  1.00  0.00    -0.236 NA
ATOM     26  C   UNL A   1      32.683  22.629  27.399  1.00  0.00     0.124 A 
ATOM     27  C   UNL A   1      31.977  22.468  25.194  1.00  0.00     0.124 A 
BRANCH  23  28
ATOM     28  C   UNL A   1      35.289  20.993  25.479  1.00  0.00     0.019 A 
ATOM     29  C   UNL A   1      39.009  21.902  25.759  1.00  0.00     0.044 C 
ATOM     30  C   UNL A   1      37.748  21.145  25.453  1.00  0.00    -0.050 A 
ATOM     31  C   UNL A   1      37.813  19.862  24.909  1.00  0.00     0.003 A 
ATOM     32  C   UNL A   1      36.488  21.694  25.735  1.00  0.00     0.015 A 
ATOM     33  C   UNL A   1      36.641  19.156  24.630  1.00  0.00     0.001 A 
ATOM     34  C   UNL A   1      35.392  19.723  24.902  1.00  0.00     0.012 A 
ENDBRANCH  23  28
ENDBRANCH  21  22
ENDBRANCH   9  21
ENDBRANCH   5   8
ENDBRANCH   3   4
ENDBRANCH   2   3
ENDBRANCH   1   2
BRANCH   1  35
ATOM     35  C   UNL A   1      33.558  29.523  27.373  1.00  0.00     0.002 C 
BRANCH  35  36
ATOM     36  C   UNL A   1      34.880  28.761  27.336  1.00  0.00     0.021 C 
BRANCH  36  37
ATOM     37  C   UNL A   1      36.108  29.630  27.503  1.00  0.00     0.116 C 
BRANCH  37  38
ATOM     38  N   UNL A   1      35.826  30.999  27.908  1.00  0.00    -0.352 N 
ATOM     39  C   UNL A   1      35.802  31.383  29.245  1.00  0.00     0.251 C 
ATOM     40  H   UNL A   1      35.648  31.674  27.214  1.00  0.00     0.163 HD
ATOM     41  O   UNL A   1      34.847  31.924  29.786  1.00  0.00    -0.269 OA
BRANCH  39  42
ATOM     42  C   UNL A   1      37.085  31.202  29.960  1.00  0.00     0.039 A 
ATOM     43  C   UNL A   1      38.222  31.893  29.525  1.00  0.00     0.014 A 
ATOM     44  C   UNL A   1      37.186  30.151  30.864  1.00  0.00     0.014 A 
ATOM     45  C   UNL A   1      39.479  31.395  29.851  1.00  0.00     0.010 A 
ATOM     46  C   UNL A   1      38.401  29.562  31.038  1.00  0.00     0.010 A 
ATOM     47  C   UNL A   1      39.540  30.180  30.516  1.00  0.00    -0.014 A 
BRANCH  47  48
ATOM     48  C   UNL A   1      40.740  29.467  30.882  1.00  0.00     0.031 A 
ATOM     49  C   UNL A   1      41.068  28.282  30.066  1.00  0.00     0.074 A 
ATOM     50  C   UNL A   1      41.626  30.130  31.654  1.00  0.00     0.049 A 
ATOM     51  N   UNL A   1      42.043  27.490  30.306  1.00  0.00    -0.248 NA
ATOM     52  C   UNL A   1      40.291  27.881  28.891  1.00  0.00     0.031 C 
ATOM     53  C   UNL A   1      43.067  29.938  31.749  1.00  0.00     0.029 A 
ATOM     54  N   UNL A   1      41.338  31.046  32.667  1.00  0.00    -0.354 N 
ATOM     55  C   UNL A   1      42.221  26.686  29.198  1.00  0.00     0.074 A 
ATOM     56  C   UNL A   1      41.050  26.900  28.391  1.00  0.00     0.031 C 
ATOM     57  C   UNL A   1      43.501  30.467  32.907  1.00  0.00     0.029 A 
ATOM     58  C   UNL A   1      42.322  30.872  33.659  1.00  0.00     0.049 A 
ATOM     59  H   UNL A   1      40.592  31.688  32.685  1.00  0.00     0.167 HD
ATOM     60  C   UNL A   1      43.422  26.054  29.072  1.00  0.00     0.037 A 
ATOM     61  C   UNL A   1      41.965  30.342  34.871  1.00  0.00     0.037 A 
ATOM     62  C   UNL A   1      44.212  26.299  30.278  1.00  0.00     0.049 A 
ATOM     63  C   UNL A   1      42.571  28.974  35.103  1.00  0.00     0.074 A 
ATOM     64  C   UNL A   1      45.189  27.233  30.579  1.00  0.00     0.029 A 
ATOM     65  N   UNL A   1      43.763  25.782  31.484  1.00  0.00    -0.354 N 
ATOM     66  N   UNL A   1      42.938  28.165  34.146  1.00  0.00    -0.248 NA
ATOM     67  C   UNL A   1      42.883  28.445  36.427  1.00  0.00     0.031 C 
ATOM     68  C   UNL A   1      45.273  27.324  31.992  1.00  0.00     0.029 A 
ATOM     69  C   UNL A   1      44.364  26.435  32.541  1.00  0.00     0.049 A 
ATOM     70  H   UNL A   1      43.109  25.052  31.574  1.00  0.00     0.167 HD
ATOM     71  C   UNL A   1      43.536  27.052  34.684  1.00  0.00     0.074 A 
ATOM     72  C   UNL A   1      43.473  27.278  36.116  1.00  0.00     0.031 C 
ATOM     73  C   UNL A   1      44.055  26.051  33.909  1.00  0.00     0.037 A 
BRANCH  60  74
ATOM     74  C   UNL A   1      44.015  25.410  27.836  1.00  0.00     0.058 A 
ATOM     75  C   UNL A   1      43.752  24.042  27.576  1.00  0.00     0.135 A 
ATOM     76  C   UNL A   1      44.867  26.023  26.897  1.00  0.00     0.135 A 
ATOM     77  F   UNL A   1      42.934  23.321  28.356  1.00  0.00    -0.206 F 
ATOM     78  C   UNL A   1      44.318  23.338  26.516  1.00  0.00     0.059 A 
ATOM     79  C   UNL A   1      45.457  25.334  25.829  1.00  0.00     0.059 A 
ATOM     80  F   UNL A   1      45.155  27.327  26.943  1.00  0.00    -0.206 F 
ATOM     81  C   UNL A   1      45.181  23.988  25.650  1.00  0.00     0.060 A 
BRANCH  81  82
ATOM     82  S   UNL A   1      45.899  23.052  24.291  1.00  0.00     0.124 S 
ATOM     83  O   UNL A   1      46.913  23.976  23.791  1.00  0.00    -0.237 OA
ATOM     84  O   UNL A   1      46.402  21.863  24.969  1.00  0.00    -0.237 OA
ATOM     85  O   UNL A   1      44.768  22.829  23.395  1.00  0.00    -0.744 OA
ENDBRANCH  81  82
ENDBRANCH  60  74
BRANCH  61  86
ATOM     86  C   UNL A   1      40.605  30.811  35.297  1.00  0.00     0.058 A 
ATOM     87  C   UNL A   1      40.538  32.112  35.840  1.00  0.00     0.135 A 
ATOM     88  C   UNL A   1      39.445  30.312  34.685  1.00  0.00     0.135 A 
ATOM     89  F   UNL A   1      41.604  32.626  36.476  1.00  0.00    -0.206 F 
ATOM     90  C   UNL A   1      39.467  32.961  35.577  1.00  0.00     0.059 A 
ATOM     91  C   UNL A   1      38.348  31.143  34.430  1.00  0.00     0.059 A 
ATOM     92  F   UNL A   1      39.429  29.072  34.172  1.00  0.00    -0.206 F 
ATOM     93  C   UNL A   1      38.418  32.490  34.792  1.00  0.00     0.060 A 
BRANCH  93  94
ATOM     94  S   UNL A   1      37.253  33.703  34.113  1.00  0.00     0.124 S 
ATOM     95  O   UNL A   1      37.052  33.205  32.756  1.00  0.00    -0.237 OA
ATOM     96  O   UNL A   1      36.106  33.566  35.013  1.00  0.00    -0.237 OA
ATOM     97  O   UNL A   1      37.983  34.961  34.216  1.00  0.00    -0.744 OA
ENDBRANCH  93  94
ENDBRANCH  61  86
BRANCH  73  98
ATOM     98  C   UNL A   1      44.420  24.649  34.357  1.00  0.00     0.058 A 
ATOM     99  C   UNL A   1      43.487  23.679  34.755  1.00  0.00     0.135 A 
ATOM    100  C   UNL A   1      45.760  24.182  34.248  1.00  0.00     0.135 A 
ATOM    101  F   UNL A   1      42.172  23.933  34.775  1.00  0.00    -0.206 F 
ATOM    102  C   UNL A   1      43.861  22.382  35.110  1.00  0.00     0.059 A 
ATOM    103  C   UNL A   1      46.139  22.872  34.518  1.00  0.00     0.059 A 
ATOM    104  F   UNL A   1      46.763  24.980  33.859  1.00  0.00    -0.206 F 
ATOM    105  C   UNL A   1      45.189  21.988  34.992  1.00  0.00     0.060 A 
BRANCH 105 106
ATOM    106  S   UNL A   1      45.661  20.314  35.446  1.00  0.00     0.124 S 
ATOM    107  O   UNL A   1      45.656  20.401  36.902  1.00  0.00    -0.237 OA
ATOM    108  O   UNL A   1      44.592  19.513  34.856  1.00  0.00    -0.237 OA
ATOM    109  O   UNL A   1      46.972  20.149  34.826  1.00  0.00    -0.744 OA
ENDBRANCH 105 106
ENDBRANCH  73  98
ENDBRANCH  47  48
ENDBRANCH  39  42
ENDBRANCH  37  38
ENDBRANCH  36  37
ENDBRANCH  35  36
ENDBRANCH   1  35
TORSDOF 19
ENDMDL
