MODEL 1
REMARK VINA RESULT:     -11.9      0.000      0.000
REMARK SMILES Cc1nn(C)cc1C[NH+]1CCN(C(=O)c2cnn(CC(=O)NCCCCCCNC(=O)c3ccc(-c4c5nc(c(-c6c(F)cc(S(=O)(=O)[O-])cc6F)c6ccc([nH]6)c(-c6c(F)cc(S(=O)(=O)[O-])cc6F)c6nc(c(-c7c(F)cc(S(=O)(=O)[O-])cc7F)c7ccc4[nH]7)C=C6)C=C5)cc3)c2)CC1
REMARK SMILES IDX 25 1 24 2 23 3 22 4 20 5 21 6 19 8 18 9 15 10 16 11 98 12
REMARK SMILES IDX 17 13 13 14 9 15 10 16 100 17 11 19 99 20 12 21 14 22 8 23
REMARK SMILES IDX 7 24 1 25 2 26 3 27 4 28 6 29 5 30 26 31 27 32 28 33 29 34
REMARK SMILES IDX 30 35 31 37 32 38 33 39 97 40 34 41 96 42 35 43 36 44 37 45
REMARK SMILES IDX 90 46 38 47 95 48 89 49 91 50 39 51 94 52 88 53 87 54 40 56
REMARK SMILES IDX 74 57 53 58 73 59 54 60 57 61 72 62 92 63 55 64 56 65 71 67
REMARK SMILES IDX 93 68 58 69 41 70 42 71 51 72 43 73 44 74 50 75 52 76 45 77
REMARK SMILES IDX 46 78 47 79 48 80 49 81 75 82 76 83 85 84 77 85 78 86 84 87
REMARK SMILES IDX 86 88 79 89 80 90 81 91 82 92 83 93 59 94 60 95 69 96 61 97
REMARK SMILES IDX 62 98 68 99 70 100 63 101 64 102 65 103 66 104 67 105
REMARK H PARENT 22 7 9 18 29 36 91 55 57 66
REMARK Flexibility Score: inf
ROOT
ATOM      1  C   UNL A   1      39.566  22.192  26.873  1.00  0.00     0.002 C 
ENDROOT
BRANCH   1   2
ATOM      2  C   UNL A   1      39.165  23.615  26.461  1.00  0.00     0.021 C 
BRANCH   2   3
ATOM      3  C   UNL A   1      37.694  23.796  26.086  1.00  0.00     0.116 C 
BRANCH   3   4
ATOM      4  N   UNL A   1      37.480  23.656  24.661  1.00  0.00    -0.354 N 
ATOM      5  C   UNL A   1      36.699  22.773  23.969  1.00  0.00     0.241 C 
ATOM      6  O   UNL A   1      36.654  22.909  22.740  1.00  0.00    -0.273 OA
ATOM      7  H   UNL A   1      37.975  24.298  24.101  1.00  0.00     0.163 HD
BRANCH   5   8
ATOM      8  C   UNL A   1      35.799  21.784  24.676  1.00  0.00     0.243 C 
BRANCH   8   9
ATOM      9  N   UNL A   1      34.759  22.388  25.486  1.00  0.00    -0.262 N 
ATOM     10  C   UNL A   1      33.052  23.611  26.152  1.00  0.00     0.078 A 
ATOM     11  C   UNL A   1      33.509  22.722  27.149  1.00  0.00     0.149 A 
ATOM     12  C   UNL A   1      33.837  23.299  25.058  1.00  0.00     0.123 A 
ATOM     13  N   UNL A   1      34.567  22.002  26.758  1.00  0.00    -0.180 NA
BRANCH  10  14
ATOM     14  C   UNL A   1      31.977  24.590  26.149  1.00  0.00     0.257 C 
ATOM     15  N   UNL A   1      32.845  28.824  25.942  1.00  0.00    -0.328 N 
ATOM     16  C   UNL A   1      31.536  28.368  26.399  1.00  0.00     0.284 C 
ATOM     17  C   UNL A   1      33.895  27.923  26.394  1.00  0.00     0.284 C 
ATOM     18  H   UNL A   1      32.992  29.714  26.416  1.00  0.00     0.348 HD
ATOM     19  C   UNL A   1      31.213  26.896  26.092  1.00  0.00     0.181 C 
ATOM     20  C   UNL A   1      33.682  26.440  26.096  1.00  0.00     0.181 C 
ATOM     21  N   UNL A   1      32.315  25.943  26.280  1.00  0.00    -0.327 N 
ATOM     22  O   UNL A   1      30.825  24.219  25.934  1.00  0.00    -0.269 OA
BRANCH  15  23
ATOM     23  C   UNL A   1      32.961  29.334  24.582  1.00  0.00     0.302 C 
BRANCH  23  24
ATOM     24  C   UNL A   1      32.371  28.461  23.523  1.00  0.00     0.047 A 
ATOM     25  C   UNL A   1      29.966  29.471  23.299  1.00  0.00     0.069 C 
ATOM     26  C   UNL A   1      31.064  28.540  22.961  1.00  0.00     0.068 A 
ATOM     27  N   UNL A   1      30.854  27.590  22.043  1.00  0.00    -0.178 NA
ATOM     28  N   UNL A   1      31.968  26.857  22.087  1.00  0.00    -0.275 N 
ATOM     29  C   UNL A   1      32.960  27.420  22.828  1.00  0.00     0.118 A 
ATOM     30  C   UNL A   1      31.965  25.562  21.459  1.00  0.00     0.173 C 
ENDBRANCH  23  24
ENDBRANCH  15  23
ENDBRANCH  10  14
ENDBRANCH   8   9
ENDBRANCH   5   8
ENDBRANCH   3   4
ENDBRANCH   2   3
ENDBRANCH   1   2
BRANCH   1  31
ATOM     31  C   UNL A   1      40.790  22.061  27.791  1.00  0.00     0.002 C 
BRANCH  31  32
ATOM     32  C   UNL A   1      41.767  20.917  27.488  1.00  0.00     0.021 C 
BRANCH  32  33
ATOM     33  C   UNL A   1      41.607  20.286  26.108  1.00  0.00     0.116 C 
BRANCH  33  34
ATOM     34  N   UNL A   1      42.887  19.983  25.482  1.00  0.00    -0.352 N 
ATOM     35  C   UNL A   1      43.886  20.855  25.103  1.00  0.00     0.251 C 
ATOM     36  H   UNL A   1      43.062  19.030  25.306  1.00  0.00     0.163 HD
ATOM     37  O   UNL A   1      44.738  20.496  24.296  1.00  0.00    -0.269 OA
BRANCH  35  38
ATOM     38  C   UNL A   1      43.912  22.228  25.652  1.00  0.00     0.039 A 
ATOM     39  C   UNL A   1      43.074  23.215  25.126  1.00  0.00     0.014 A 
ATOM     40  C   UNL A   1      44.775  22.537  26.697  1.00  0.00     0.014 A 
ATOM     41  C   UNL A   1      43.039  24.483  25.716  1.00  0.00     0.010 A 
ATOM     42  C   UNL A   1      44.669  23.761  27.338  1.00  0.00     0.010 A 
ATOM     43  C   UNL A   1      43.813  24.759  26.853  1.00  0.00    -0.014 A 
BRANCH  43  44
ATOM     44  C   UNL A   1      43.633  26.032  27.592  1.00  0.00     0.031 A 
ATOM     45  C   UNL A   1      44.649  27.128  27.361  1.00  0.00     0.074 A 
ATOM     46  C   UNL A   1      42.489  26.344  28.251  1.00  0.00     0.049 A 
ATOM     47  N   UNL A   1      45.187  27.926  28.232  1.00  0.00    -0.248 NA
ATOM     48  C   UNL A   1      45.136  27.366  25.993  1.00  0.00     0.031 C 
ATOM     49  C   UNL A   1      41.272  25.537  28.390  1.00  0.00     0.029 A 
ATOM     50  N   UNL A   1      42.113  27.539  28.803  1.00  0.00    -0.354 N 
ATOM     51  C   UNL A   1      45.963  28.856  27.526  1.00  0.00     0.074 A 
ATOM     52  C   UNL A   1      45.926  28.431  26.151  1.00  0.00     0.031 C 
ATOM     53  C   UNL A   1      40.240  26.332  28.744  1.00  0.00     0.029 A 
ATOM     54  C   UNL A   1      40.739  27.669  29.006  1.00  0.00     0.049 A 
ATOM     55  H   UNL A   1      42.757  28.246  29.037  1.00  0.00     0.167 HD
ATOM     56  C   UNL A   1      46.504  29.966  28.115  1.00  0.00     0.037 A 
ATOM     57  C   UNL A   1      40.049  28.792  29.340  1.00  0.00     0.037 A 
ATOM     58  C   UNL A   1      46.598  29.796  29.540  1.00  0.00     0.049 A 
ATOM     59  C   UNL A   1      41.027  29.725  29.953  1.00  0.00     0.074 A 
ATOM     60  C   UNL A   1      47.222  28.870  30.355  1.00  0.00     0.029 A 
ATOM     61  N   UNL A   1      45.736  30.481  30.358  1.00  0.00    -0.354 N 
ATOM     62  N   UNL A   1      41.569  29.547  31.125  1.00  0.00    -0.248 NA
ATOM     63  C   UNL A   1      41.691  30.699  29.099  1.00  0.00     0.031 C 
ATOM     64  C   UNL A   1      46.336  28.697  31.455  1.00  0.00     0.029 A 
ATOM     65  C   UNL A   1      45.261  29.563  31.258  1.00  0.00     0.049 A 
ATOM     66  H   UNL A   1      45.504  31.437  30.309  1.00  0.00     0.167 HD
ATOM     67  C   UNL A   1      42.855  30.040  30.993  1.00  0.00     0.074 A 
ATOM     68  C   UNL A   1      42.829  30.852  29.779  1.00  0.00     0.031 C 
ATOM     69  C   UNL A   1      43.892  29.523  31.717  1.00  0.00     0.037 A 
BRANCH  56  70
ATOM     70  C   UNL A   1      46.728  31.323  27.467  1.00  0.00     0.058 A 
ATOM     71  C   UNL A   1      47.974  31.979  27.599  1.00  0.00     0.135 A 
ATOM     72  C   UNL A   1      45.681  32.137  27.001  1.00  0.00     0.135 A 
ATOM     73  F   UNL A   1      49.065  31.305  27.993  1.00  0.00    -0.206 F 
ATOM     74  C   UNL A   1      48.123  33.357  27.418  1.00  0.00     0.059 A 
ATOM     75  C   UNL A   1      45.810  33.507  26.780  1.00  0.00     0.059 A 
ATOM     76  F   UNL A   1      44.456  31.650  26.818  1.00  0.00    -0.206 F 
ATOM     77  C   UNL A   1      47.022  34.119  27.047  1.00  0.00     0.060 A 
BRANCH  77  78
ATOM     78  S   UNL A   1      47.160  35.917  27.016  1.00  0.00     0.124 S 
ATOM     79  O   UNL A   1      48.075  36.157  28.127  1.00  0.00    -0.237 OA
ATOM     80  O   UNL A   1      47.696  36.157  25.681  1.00  0.00    -0.237 OA
ATOM     81  O   UNL A   1      45.786  36.363  27.228  1.00  0.00    -0.744 OA
ENDBRANCH  77  78
ENDBRANCH  56  70
BRANCH  57  82
ATOM     82  C   UNL A   1      38.645  29.202  29.044  1.00  0.00     0.058 A 
ATOM     83  C   UNL A   1      37.715  29.392  30.086  1.00  0.00     0.135 A 
ATOM     84  C   UNL A   1      38.245  29.677  27.783  1.00  0.00     0.135 A 
ATOM     85  F   UNL A   1      37.986  28.955  31.326  1.00  0.00    -0.206 F 
ATOM     86  C   UNL A   1      36.516  30.093  29.909  1.00  0.00     0.059 A 
ATOM     87  C   UNL A   1      37.056  30.380  27.581  1.00  0.00     0.059 A 
ATOM     88  F   UNL A   1      39.027  29.538  26.705  1.00  0.00    -0.206 F 
ATOM     89  C   UNL A   1      36.211  30.613  28.656  1.00  0.00     0.060 A 
BRANCH  89  90
ATOM     90  S   UNL A   1      34.796  31.720  28.456  1.00  0.00     0.124 S 
ATOM     91  O   UNL A   1      34.548  32.140  29.830  1.00  0.00    -0.237 OA
ATOM     92  O   UNL A   1      35.319  32.745  27.558  1.00  0.00    -0.237 OA
ATOM     93  O   UNL A   1      33.777  30.851  27.871  1.00  0.00    -0.744 OA
ENDBRANCH  89  90
ENDBRANCH  57  82
BRANCH  69  94
ATOM     94  C   UNL A   1      43.597  28.611  32.881  1.00  0.00     0.058 A 
ATOM     95  C   UNL A   1      43.320  29.055  34.186  1.00  0.00     0.135 A 
ATOM     96  C   UNL A   1      43.420  27.241  32.624  1.00  0.00     0.135 A 
ATOM     97  F   UNL A   1      43.336  30.358  34.494  1.00  0.00    -0.206 F 
ATOM     98  C   UNL A   1      42.941  28.175  35.198  1.00  0.00     0.059 A 
ATOM     99  C   UNL A   1      43.003  26.350  33.611  1.00  0.00     0.059 A 
ATOM    100  F   UNL A   1      43.598  26.759  31.383  1.00  0.00    -0.206 F 
ATOM    101  C   UNL A   1      42.783  26.823  34.902  1.00  0.00     0.060 A 
BRANCH 101 102
ATOM    102  S   UNL A   1      42.205  25.703  36.194  1.00  0.00     0.124 S 
ATOM    103  O   UNL A   1      42.404  26.500  37.399  1.00  0.00    -0.237 OA
ATOM    104  O   UNL A   1      40.815  25.463  35.814  1.00  0.00    -0.237 OA
ATOM    105  O   UNL A   1      43.085  24.544  36.058  1.00  0.00    -0.744 OA
ENDBRANCH 101 102
ENDBRANCH  69  94
ENDBRANCH  43  44
ENDBRANCH  35  38
ENDBRANCH  33  34
ENDBRANCH  32  33
ENDBRANCH  31  32
ENDBRANCH   1  31
TORSDOF 20
ENDMDL
MODEL 2
REMARK VINA RESULT:     -11.9      1.437      2.382
REMARK SMILES Cc1nn(C)cc1C[NH+]1CCN(C(=O)c2cnn(CC(=O)NCCCCCCNC(=O)c3ccc(-c4c5nc(c(-c6c(F)cc(S(=O)(=O)[O-])cc6F)c6ccc([nH]6)c(-c6c(F)cc(S(=O)(=O)[O-])cc6F)c6nc(c(-c7c(F)cc(S(=O)(=O)[O-])cc7F)c7ccc4[nH]7)C=C6)C=C5)cc3)c2)CC1
REMARK SMILES IDX 25 1 24 2 23 3 22 4 20 5 21 6 19 8 18 9 15 10 16 11 98 12
REMARK SMILES IDX 17 13 13 14 9 15 10 16 100 17 11 19 99 20 12 21 14 22 8 23
REMARK SMILES IDX 7 24 1 25 2 26 3 27 4 28 6 29 5 30 26 31 27 32 28 33 29 34
REMARK SMILES IDX 30 35 31 37 32 38 33 39 97 40 34 41 96 42 35 43 36 44 37 45
REMARK SMILES IDX 90 46 38 47 95 48 89 49 91 50 39 51 94 52 88 53 87 54 40 56
REMARK SMILES IDX 74 57 53 58 73 59 54 60 57 61 72 62 92 63 55 64 56 65 71 67
REMARK SMILES IDX 93 68 58 69 41 70 42 71 51 72 43 73 44 74 50 75 52 76 45 77
REMARK SMILES IDX 46 78 47 79 48 80 49 81 75 82 76 83 85 84 77 85 78 86 84 87
REMARK SMILES IDX 86 88 79 89 80 90 81 91 82 92 83 93 59 94 60 95 69 96 61 97
REMARK SMILES IDX 62 98 68 99 70 100 63 101 64 102 65 103 66 104 67 105
REMARK H PARENT 22 7 9 18 29 36 91 55 57 66
REMARK Flexibility Score: inf
ROOT
ATOM      1  C   UNL A   1      40.782  21.637  26.978  1.00  0.00     0.002 C 
ENDROOT
BRANCH   1   2
ATOM      2  C   UNL A   1      39.473  22.325  26.570  1.00  0.00     0.021 C 
BRANCH   2   3
ATOM      3  C   UNL A   1      38.474  21.438  25.826  1.00  0.00     0.116 C 
BRANCH   3   4
ATOM      4  N   UNL A   1      37.869  22.131  24.707  1.00  0.00    -0.354 N 
ATOM      5  C   UNL A   1      36.614  22.023  24.176  1.00  0.00     0.241 C 
ATOM      6  O   UNL A   1      36.335  22.782  23.241  1.00  0.00    -0.273 OA
ATOM      7  H   UNL A   1      38.455  22.782  24.256  1.00  0.00     0.163 HD
BRANCH   5   8
ATOM      8  C   UNL A   1      35.558  21.141  24.805  1.00  0.00     0.243 C 
BRANCH   8   9
ATOM      9  N   UNL A   1      34.276  21.789  25.008  1.00  0.00    -0.262 N 
ATOM     10  C   UNL A   1      32.707  23.206  25.626  1.00  0.00     0.078 A 
ATOM     11  C   UNL A   1      32.212  22.166  24.810  1.00  0.00     0.149 A 
ATOM     12  C   UNL A   1      34.069  22.971  25.658  1.00  0.00     0.123 A 
ATOM     13  N   UNL A   1      33.157  21.286  24.461  1.00  0.00    -0.180 NA
BRANCH  10  14
ATOM     14  C   UNL A   1      32.046  24.339  26.255  1.00  0.00     0.257 C 
ATOM     15  N   UNL A   1      31.151  27.914  23.989  1.00  0.00    -0.328 N 
ATOM     16  C   UNL A   1      31.163  27.958  25.448  1.00  0.00     0.284 C 
ATOM     17  C   UNL A   1      32.182  27.017  23.489  1.00  0.00     0.284 C 
ATOM     18  H   UNL A   1      31.410  28.856  23.697  1.00  0.00     0.348 HD
ATOM     19  C   UNL A   1      31.130  26.586  26.143  1.00  0.00     0.181 C 
ATOM     20  C   UNL A   1      32.202  25.613  24.092  1.00  0.00     0.181 C 
ATOM     21  N   UNL A   1      31.959  25.537  25.536  1.00  0.00    -0.327 N 
ATOM     22  O   UNL A   1      31.502  24.187  27.346  1.00  0.00    -0.269 OA
BRANCH  15  23
ATOM     23  C   UNL A   1      29.862  27.873  23.312  1.00  0.00     0.302 C 
BRANCH  23  24
ATOM     24  C   UNL A   1      29.148  29.181  23.223  1.00  0.00     0.047 A 
ATOM     25  C   UNL A   1      26.646  28.413  23.296  1.00  0.00     0.069 C 
ATOM     26  C   UNL A   1      27.741  29.405  23.230  1.00  0.00     0.068 A 
ATOM     27  N   UNL A   1      27.438  30.703  23.115  1.00  0.00    -0.178 NA
ATOM     28  N   UNL A   1      28.624  31.289  22.938  1.00  0.00    -0.275 N 
ATOM     29  C   UNL A   1      29.679  30.457  23.153  1.00  0.00     0.118 A 
ATOM     30  C   UNL A   1      28.657  32.647  22.463  1.00  0.00     0.173 C 
ENDBRANCH  23  24
ENDBRANCH  15  23
ENDBRANCH  10  14
ENDBRANCH   8   9
ENDBRANCH   5   8
ENDBRANCH   3   4
ENDBRANCH   2   3
ENDBRANCH   1   2
BRANCH   1  31
ATOM     31  C   UNL A   1      40.902  20.140  26.658  1.00  0.00     0.002 C 
BRANCH  31  32
ATOM     32  C   UNL A   1      42.126  19.700  25.844  1.00  0.00     0.021 C 
BRANCH  32  33
ATOM     33  C   UNL A   1      43.430  20.401  26.215  1.00  0.00     0.116 C 
BRANCH  33  34
ATOM     34  N   UNL A   1      44.078  21.016  25.064  1.00  0.00    -0.352 N 
ATOM     35  C   UNL A   1      44.078  22.342  24.684  1.00  0.00     0.251 C 
ATOM     36  H   UNL A   1      44.584  20.404  24.481  1.00  0.00     0.163 HD
ATOM     37  O   UNL A   1      44.374  22.648  23.533  1.00  0.00    -0.269 OA
BRANCH  35  38
ATOM     38  C   UNL A   1      43.696  23.386  25.658  1.00  0.00     0.039 A 
ATOM     39  C   UNL A   1      44.342  23.470  26.895  1.00  0.00     0.014 A 
ATOM     40  C   UNL A   1      42.688  24.290  25.340  1.00  0.00     0.014 A 
ATOM     41  C   UNL A   1      44.037  24.521  27.768  1.00  0.00     0.010 A 
ATOM     42  C   UNL A   1      42.458  25.381  26.163  1.00  0.00     0.010 A 
ATOM     43  C   UNL A   1      43.114  25.510  27.395  1.00  0.00    -0.014 A 
BRANCH  43  44
ATOM     44  C   UNL A   1      42.935  26.721  28.230  1.00  0.00     0.031 A 
ATOM     45  C   UNL A   1      44.014  27.779  28.174  1.00  0.00     0.074 A 
ATOM     46  C   UNL A   1      41.758  27.034  28.828  1.00  0.00     0.049 A 
ATOM     47  N   UNL A   1      44.518  28.470  29.150  1.00  0.00    -0.248 NA
ATOM     48  C   UNL A   1      44.616  28.109  26.872  1.00  0.00     0.031 C 
ATOM     49  C   UNL A   1      40.499  26.281  28.805  1.00  0.00     0.029 A 
ATOM     50  N   UNL A   1      41.394  28.195  29.457  1.00  0.00    -0.354 N 
ATOM     51  C   UNL A   1      45.388  29.416  28.589  1.00  0.00     0.074 A 
ATOM     52  C   UNL A   1      45.439  29.114  27.183  1.00  0.00     0.031 C 
ATOM     53  C   UNL A   1      39.479  27.096  29.152  1.00  0.00     0.029 A 
ATOM     54  C   UNL A   1      40.016  28.378  29.569  1.00  0.00     0.049 A 
ATOM     55  H   UNL A   1      42.050  28.844  29.800  1.00  0.00     0.167 HD
ATOM     56  C   UNL A   1      45.930  30.442  29.314  1.00  0.00     0.037 A 
ATOM     57  C   UNL A   1      39.354  29.502  29.951  1.00  0.00     0.037 A 
ATOM     58  C   UNL A   1      45.906  30.145  30.721  1.00  0.00     0.049 A 
ATOM     59  C   UNL A   1      40.321  30.326  30.715  1.00  0.00     0.074 A 
ATOM     60  C   UNL A   1      46.422  29.121  31.493  1.00  0.00     0.029 A 
ATOM     61  N   UNL A   1      45.014  30.801  31.532  1.00  0.00    -0.354 N 
ATOM     62  N   UNL A   1      40.763  30.020  31.903  1.00  0.00    -0.248 NA
ATOM     63  C   UNL A   1      41.093  31.335  30.003  1.00  0.00     0.031 C 
ATOM     64  C   UNL A   1      45.447  28.900  32.505  1.00  0.00     0.029 A 
ATOM     65  C   UNL A   1      44.430  29.834  32.309  1.00  0.00     0.049 A 
ATOM     66  H   UNL A   1      44.830  31.768  31.552  1.00  0.00     0.167 HD
ATOM     67  C   UNL A   1      42.076  30.456  31.912  1.00  0.00     0.074 A 
ATOM     68  C   UNL A   1      42.181  31.369  30.777  1.00  0.00     0.031 C 
ATOM     69  C   UNL A   1      43.029  29.825  32.660  1.00  0.00     0.037 A 
BRANCH  56  70
ATOM     70  C   UNL A   1      46.265  31.836  28.809  1.00  0.00     0.058 A 
ATOM     71  C   UNL A   1      45.322  32.563  28.046  1.00  0.00     0.135 A 
ATOM     72  C   UNL A   1      47.572  32.349  28.771  1.00  0.00     0.135 A 
ATOM     73  F   UNL A   1      44.029  32.204  28.032  1.00  0.00    -0.206 F 
ATOM     74  C   UNL A   1      45.684  33.621  27.208  1.00  0.00     0.059 A 
ATOM     75  C   UNL A   1      47.956  33.424  27.970  1.00  0.00     0.059 A 
ATOM     76  F   UNL A   1      48.561  31.773  29.451  1.00  0.00    -0.206 F 
ATOM     77  C   UNL A   1      47.015  34.018  27.147  1.00  0.00     0.060 A 
BRANCH  77  78
ATOM     78  S   UNL A   1      47.520  35.237  25.918  1.00  0.00     0.124 S 
ATOM     79  O   UNL A   1      48.350  34.428  25.032  1.00  0.00    -0.237 OA
ATOM     80  O   UNL A   1      46.237  35.671  25.377  1.00  0.00    -0.237 OA
ATOM     81  O   UNL A   1      48.235  36.234  26.709  1.00  0.00    -0.744 OA
ENDBRANCH  77  78
ENDBRANCH  56  70
BRANCH  57  82
ATOM     82  C   UNL A   1      37.997  30.007  29.591  1.00  0.00     0.058 A 
ATOM     83  C   UNL A   1      37.147  30.554  30.574  1.00  0.00     0.135 A 
ATOM     84  C   UNL A   1      37.597  30.220  28.260  1.00  0.00     0.135 A 
ATOM     85  F   UNL A   1      37.422  30.389  31.877  1.00  0.00    -0.206 F 
ATOM     86  C   UNL A   1      36.034  31.341  30.256  1.00  0.00     0.059 A 
ATOM     87  C   UNL A   1      36.493  31.002  27.917  1.00  0.00     0.059 A 
ATOM     88  F   UNL A   1      38.304  29.734  27.233  1.00  0.00    -0.206 F 
ATOM     89  C   UNL A   1      35.735  31.588  28.920  1.00  0.00     0.060 A 
BRANCH  89  90
ATOM     90  S   UNL A   1      34.455  32.789  28.487  1.00  0.00     0.124 S 
ATOM     91  O   UNL A   1      34.031  33.261  29.800  1.00  0.00    -0.237 OA
ATOM     92  O   UNL A   1      35.186  33.750  27.667  1.00  0.00    -0.237 OA
ATOM     93  O   UNL A   1      33.475  31.982  27.764  1.00  0.00    -0.744 OA
ENDBRANCH  89  90
ENDBRANCH  57  82
BRANCH  69  94
ATOM     94  C   UNL A   1      42.604  28.833  33.712  1.00  0.00     0.058 A 
ATOM     95  C   UNL A   1      42.524  27.444  33.508  1.00  0.00     0.135 A 
ATOM     96  C   UNL A   1      42.436  29.292  35.030  1.00  0.00     0.135 A 
ATOM     97  F   UNL A   1      42.796  26.902  32.313  1.00  0.00    -0.206 F 
ATOM     98  C   UNL A   1      42.236  26.561  34.548  1.00  0.00     0.059 A 
ATOM     99  C   UNL A   1      42.187  28.425  36.091  1.00  0.00     0.059 A 
ATOM    100  F   UNL A   1      42.569  30.599  35.310  1.00  0.00    -0.206 F 
ATOM    101  C   UNL A   1      42.070  27.060  35.838  1.00  0.00     0.060 A 
BRANCH 101 102
ATOM    102  S   UNL A   1      41.787  25.905  37.195  1.00  0.00     0.124 S 
ATOM    103  O   UNL A   1      42.037  24.618  36.556  1.00  0.00    -0.237 OA
ATOM    104  O   UNL A   1      42.776  26.323  38.186  1.00  0.00    -0.237 OA
ATOM    105  O   UNL A   1      40.398  26.157  37.573  1.00  0.00    -0.744 OA
ENDBRANCH 101 102
ENDBRANCH  69  94
ENDBRANCH  43  44
ENDBRANCH  35  38
ENDBRANCH  33  34
ENDBRANCH  32  33
ENDBRANCH  31  32
ENDBRANCH   1  31
TORSDOF 20
ENDMDL
MODEL 3
REMARK VINA RESULT:     -10.9      1.585      2.412
REMARK SMILES Cc1nn(C)cc1C[NH+]1CCN(C(=O)c2cnn(CC(=O)NCCCCCCNC(=O)c3ccc(-c4c5nc(c(-c6c(F)cc(S(=O)(=O)[O-])cc6F)c6ccc([nH]6)c(-c6c(F)cc(S(=O)(=O)[O-])cc6F)c6nc(c(-c7c(F)cc(S(=O)(=O)[O-])cc7F)c7ccc4[nH]7)C=C6)C=C5)cc3)c2)CC1
REMARK SMILES IDX 25 1 24 2 23 3 22 4 20 5 21 6 19 8 18 9 15 10 16 11 98 12
REMARK SMILES IDX 17 13 13 14 9 15 10 16 100 17 11 19 99 20 12 21 14 22 8 23
REMARK SMILES IDX 7 24 1 25 2 26 3 27 4 28 6 29 5 30 26 31 27 32 28 33 29 34
REMARK SMILES IDX 30 35 31 37 32 38 33 39 97 40 34 41 96 42 35 43 36 44 37 45
REMARK SMILES IDX 90 46 38 47 95 48 89 49 91 50 39 51 94 52 88 53 87 54 40 56
REMARK SMILES IDX 74 57 53 58 73 59 54 60 57 61 72 62 92 63 55 64 56 65 71 67
REMARK SMILES IDX 93 68 58 69 41 70 42 71 51 72 43 73 44 74 50 75 52 76 45 77
REMARK SMILES IDX 46 78 47 79 48 80 49 81 75 82 76 83 85 84 77 85 78 86 84 87
REMARK SMILES IDX 86 88 79 89 80 90 81 91 82 92 83 93 59 94 60 95 69 96 61 97
REMARK SMILES IDX 62 98 68 99 70 100 63 101 64 102 65 103 66 104 67 105
REMARK H PARENT 22 7 9 18 29 36 91 55 57 66
REMARK Flexibility Score: inf
ROOT
ATOM      1  C   UNL A   1      40.135  22.875  27.721  1.00  0.00     0.002 C 
ENDROOT
BRANCH   1   2
ATOM      2  C   UNL A   1      39.593  24.026  26.863  1.00  0.00     0.021 C 
BRANCH   2   3
ATOM      3  C   UNL A   1      38.302  23.722  26.102  1.00  0.00     0.116 C 
BRANCH   3   4
ATOM      4  N   UNL A   1      38.393  22.481  25.362  1.00  0.00    -0.354 N 
ATOM      5  C   UNL A   1      37.553  21.402  25.341  1.00  0.00     0.241 C 
ATOM      6  O   UNL A   1      37.843  20.482  24.567  1.00  0.00    -0.273 OA
ATOM      7  H   UNL A   1      39.185  22.400  24.782  1.00  0.00     0.163 HD
BRANCH   5   8
ATOM      8  C   UNL A   1      36.243  21.400  26.098  1.00  0.00     0.243 C 
BRANCH   8   9
ATOM      9  N   UNL A   1      35.064  21.513  25.261  1.00  0.00    -0.262 N 
ATOM     10  C   UNL A   1      33.483  22.304  23.948  1.00  0.00     0.078 A 
ATOM     11  C   UNL A   1      33.377  20.911  24.151  1.00  0.00     0.149 A 
ATOM     12  C   UNL A   1      34.644  22.641  24.617  1.00  0.00     0.123 A 
ATOM     13  N   UNL A   1      34.317  20.435  24.975  1.00  0.00    -0.180 NA
BRANCH  10  14
ATOM     14  C   UNL A   1      32.671  23.232  23.176  1.00  0.00     0.257 C 
ATOM     15  N   UNL A   1      29.988  25.992  25.150  1.00  0.00    -0.328 N 
ATOM     16  C   UNL A   1      29.818  25.697  23.731  1.00  0.00     0.284 C 
ATOM     17  C   UNL A   1      30.423  24.809  25.877  1.00  0.00     0.284 C 
ATOM     18  H   UNL A   1      29.052  26.220  25.484  1.00  0.00     0.348 HD
ATOM     19  C   UNL A   1      31.016  25.007  23.059  1.00  0.00     0.181 C 
ATOM     20  C   UNL A   1      31.637  24.078  25.307  1.00  0.00     0.181 C 
ATOM     21  N   UNL A   1      31.682  23.961  23.846  1.00  0.00    -0.327 N 
ATOM     22  O   UNL A   1      32.938  23.423  21.992  1.00  0.00    -0.269 OA
BRANCH  15  23
ATOM     23  C   UNL A   1      30.613  27.255  25.520  1.00  0.00     0.302 C 
BRANCH  23  24
ATOM     24  C   UNL A   1      31.401  27.916  24.438  1.00  0.00     0.047 A 
ATOM     25  C   UNL A   1      29.533  29.246  23.174  1.00  0.00     0.069 C 
ATOM     26  C   UNL A   1      30.919  28.796  23.426  1.00  0.00     0.068 A 
ATOM     27  N   UNL A   1      31.894  29.196  22.602  1.00  0.00    -0.178 NA
ATOM     28  N   UNL A   1      32.960  28.509  23.017  1.00  0.00    -0.275 N 
ATOM     29  C   UNL A   1      32.762  27.861  24.197  1.00  0.00     0.118 A 
ATOM     30  C   UNL A   1      34.116  28.448  22.163  1.00  0.00     0.173 C 
ENDBRANCH  23  24
ENDBRANCH  15  23
ENDBRANCH  10  14
ENDBRANCH   8   9
ENDBRANCH   5   8
ENDBRANCH   3   4
ENDBRANCH   2   3
ENDBRANCH   1   2
BRANCH   1  31
ATOM     31  C   UNL A   1      41.640  22.896  28.029  1.00  0.00     0.002 C 
BRANCH  31  32
ATOM     32  C   UNL A   1      42.510  21.855  27.311  1.00  0.00     0.021 C 
BRANCH  32  33
ATOM     33  C   UNL A   1      42.236  21.709  25.817  1.00  0.00     0.116 C 
BRANCH  33  34
ATOM     34  N   UNL A   1      43.453  21.774  25.019  1.00  0.00    -0.352 N 
ATOM     35  C   UNL A   1      44.221  22.877  24.710  1.00  0.00     0.251 C 
ATOM     36  H   UNL A   1      43.768  20.916  24.650  1.00  0.00     0.163 HD
ATOM     37  O   UNL A   1      45.005  22.832  23.767  1.00  0.00    -0.269 OA
BRANCH  35  38
ATOM     38  C   UNL A   1      44.077  24.118  25.500  1.00  0.00     0.039 A 
ATOM     39  C   UNL A   1      43.132  25.082  25.137  1.00  0.00     0.014 A 
ATOM     40  C   UNL A   1      44.887  24.326  26.612  1.00  0.00     0.014 A 
ATOM     41  C   UNL A   1      42.940  26.206  25.948  1.00  0.00     0.010 A 
ATOM     42  C   UNL A   1      44.629  25.390  27.461  1.00  0.00     0.010 A 
ATOM     43  C   UNL A   1      43.664  26.355  27.140  1.00  0.00    -0.014 A 
BRANCH  43  44
ATOM     44  C   UNL A   1      43.327  27.440  28.092  1.00  0.00     0.031 A 
ATOM     45  C   UNL A   1      44.298  28.592  28.219  1.00  0.00     0.074 A 
ATOM     46  C   UNL A   1      42.097  27.571  28.650  1.00  0.00     0.049 A 
ATOM     47  N   UNL A   1      44.684  29.207  29.294  1.00  0.00    -0.248 NA
ATOM     48  C   UNL A   1      44.928  29.124  27.000  1.00  0.00     0.031 C 
ATOM     49  C   UNL A   1      40.920  26.714  28.468  1.00  0.00     0.029 A 
ATOM     50  N   UNL A   1      41.591  28.612  29.382  1.00  0.00    -0.354 N 
ATOM     51  C   UNL A   1      45.483  30.288  28.895  1.00  0.00     0.074 A 
ATOM     52  C   UNL A   1      45.632  30.157  27.470  1.00  0.00     0.031 C 
ATOM     53  C   UNL A   1      39.810  27.385  28.843  1.00  0.00     0.029 A 
ATOM     54  C   UNL A   1      40.197  28.654  29.431  1.00  0.00     0.049 A 
ATOM     55  H   UNL A   1      42.162  29.275  29.834  1.00  0.00     0.167 HD
ATOM     56  C   UNL A   1      45.886  31.268  29.761  1.00  0.00     0.037 A 
ATOM     57  C   UNL A   1      39.410  29.660  29.895  1.00  0.00     0.037 A 
ATOM     58  C   UNL A   1      45.822  30.808  31.122  1.00  0.00     0.049 A 
ATOM     59  C   UNL A   1      40.254  30.475  30.803  1.00  0.00     0.074 A 
ATOM     60  C   UNL A   1      46.398  29.753  31.805  1.00  0.00     0.029 A 
ATOM     61  N   UNL A   1      44.832  31.280  31.946  1.00  0.00    -0.354 N 
ATOM     62  N   UNL A   1      40.665  30.074  31.974  1.00  0.00    -0.248 NA
ATOM     63  C   UNL A   1      40.957  31.627  30.255  1.00  0.00     0.031 C 
ATOM     64  C   UNL A   1      45.401  29.327  32.726  1.00  0.00     0.029 A 
ATOM     65  C   UNL A   1      44.309  30.180  32.574  1.00  0.00     0.049 A 
ATOM     66  H   UNL A   1      44.553  32.218  32.063  1.00  0.00     0.167 HD
ATOM     67  C   UNL A   1      41.927  30.625  32.109  1.00  0.00     0.074 A 
ATOM     68  C   UNL A   1      41.997  31.670  31.091  1.00  0.00     0.031 C 
ATOM     69  C   UNL A   1      42.900  30.002  32.838  1.00  0.00     0.037 A 
BRANCH  56  70
ATOM     70  C   UNL A   1      46.106  32.736  29.435  1.00  0.00     0.058 A 
ATOM     71  C   UNL A   1      45.088  33.487  28.804  1.00  0.00     0.135 A 
ATOM     72  C   UNL A   1      47.374  33.342  29.426  1.00  0.00     0.135 A 
ATOM     73  F   UNL A   1      43.822  33.041  28.780  1.00  0.00    -0.206 F 
ATOM     74  C   UNL A   1      45.346  34.668  28.102  1.00  0.00     0.059 A 
ATOM     75  C   UNL A   1      47.653  34.537  28.763  1.00  0.00     0.059 A 
ATOM     76  F   UNL A   1      48.425  32.755  29.994  1.00  0.00    -0.206 F 
ATOM     77  C   UNL A   1      46.644  35.164  28.055  1.00  0.00     0.060 A 
BRANCH  77  78
ATOM     78  S   UNL A   1      47.018  36.565  26.984  1.00  0.00     0.124 S 
ATOM     79  O   UNL A   1      47.078  35.922  25.675  1.00  0.00    -0.237 OA
ATOM     80  O   UNL A   1      45.873  37.438  27.216  1.00  0.00    -0.237 OA
ATOM     81  O   UNL A   1      48.292  37.053  27.502  1.00  0.00    -0.744 OA
ENDBRANCH  77  78
ENDBRANCH  56  70
BRANCH  57  82
ATOM     82  C   UNL A   1      38.029  30.077  29.514  1.00  0.00     0.058 A 
ATOM     83  C   UNL A   1      37.137  30.586  30.479  1.00  0.00     0.135 A 
ATOM     84  C   UNL A   1      37.633  30.246  28.175  1.00  0.00     0.135 A 
ATOM     85  F   UNL A   1      37.407  30.458  31.787  1.00  0.00    -0.206 F 
ATOM     86  C   UNL A   1      35.983  31.300  30.137  1.00  0.00     0.059 A 
ATOM     87  C   UNL A   1      36.487  30.955  27.809  1.00  0.00     0.059 A 
ATOM     88  F   UNL A   1      38.379  29.787  27.163  1.00  0.00    -0.206 F 
ATOM     89  C   UNL A   1      35.684  31.508  28.795  1.00  0.00     0.060 A 
BRANCH  89  90
ATOM     90  S   UNL A   1      34.340  32.623  28.330  1.00  0.00     0.124 S 
ATOM     91  O   UNL A   1      35.042  33.625  27.535  1.00  0.00    -0.237 OA
ATOM     92  O   UNL A   1      33.436  31.743  27.596  1.00  0.00    -0.237 OA
ATOM     93  O   UNL A   1      33.834  33.088  29.620  1.00  0.00    -0.744 OA
ENDBRANCH  89  90
ENDBRANCH  57  82
BRANCH  69  94
ATOM     94  C   UNL A   1      42.523  28.859  33.746  1.00  0.00     0.058 A 
ATOM     95  C   UNL A   1      42.572  27.503  33.377  1.00  0.00     0.135 A 
ATOM     96  C   UNL A   1      42.266  29.141  35.099  1.00  0.00     0.135 A 
ATOM     97  F   UNL A   1      42.935  27.132  32.143  1.00  0.00    -0.206 F 
ATOM     98  C   UNL A   1      42.323  26.481  34.293  1.00  0.00     0.059 A 
ATOM     99  C   UNL A   1      42.053  28.135  36.039  1.00  0.00     0.059 A 
ATOM    100  F   UNL A   1      42.275  30.412  35.536  1.00  0.00    -0.206 F 
ATOM    101  C   UNL A   1      42.065  26.805  35.623  1.00  0.00     0.060 A 
BRANCH 101 102
ATOM    102  S   UNL A   1      41.833  25.477  36.821  1.00  0.00     0.124 S 
ATOM    103  O   UNL A   1      41.597  24.326  35.957  1.00  0.00    -0.237 OA
ATOM    104  O   UNL A   1      43.099  25.474  37.549  1.00  0.00    -0.237 OA
ATOM    105  O   UNL A   1      40.680  25.920  37.601  1.00  0.00    -0.744 OA
ENDBRANCH 101 102
ENDBRANCH  69  94
ENDBRANCH  43  44
ENDBRANCH  35  38
ENDBRANCH  33  34
ENDBRANCH  32  33
ENDBRANCH  31  32
ENDBRANCH   1  31
TORSDOF 20
ENDMDL
