MODEL 1
REMARK VINA RESULT:     -10.5      0.000      0.000
REMARK SMILES O=C(NCCCCCCNC(=O)[C@@H]1CC[C@]2(CC[NH2+]C2)C1)c1ccc(-c2c3nc(c(-c4c(F)cc(S(=O)(=O)[O-])cc4F)c4ccc([nH]4)c(-c4c(F)cc(S(=O)(=O)[O-])cc4F)c4nc(c(-c5c(F)cc(S(=O)(=O)[O-])cc5F)c5ccc2[nH]5)C=C4)C=C3)cc1
REMARK SMILES IDX 5 1 4 2 3 3 1 4 2 5 22 7 23 8 87 9 24 10 86 11 25 12 26 13
REMARK SMILES IDX 27 14 80 15 28 16 85 17 79 18 81 19 29 20 84 21 78 22 77 23
REMARK SMILES IDX 30 25 64 26 43 27 63 28 44 29 47 30 62 31 82 32 45 33 46 34
REMARK SMILES IDX 61 36 83 37 48 38 31 39 32 40 41 41 33 42 34 43 40 44 42 45
REMARK SMILES IDX 35 46 36 47 37 48 38 49 39 50 65 51 66 52 75 53 67 54 68 55
REMARK SMILES IDX 74 56 76 57 69 58 70 59 71 60 72 61 73 62 49 63 50 64 59 65
REMARK SMILES IDX 51 66 52 67 58 68 60 69 53 70 54 71 55 72 56 73 57 74 6 75
REMARK SMILES IDX 7 76 8 77 9 78 10 79 11 80 12 82 13 83 14 84 21 85 15 86
REMARK SMILES IDX 16 87 17 88 20 89 18 90 19 91
REMARK H PARENT 3 6 81 24 47 35 10 81 19 92 19 93
REMARK Flexibility Score: inf
ROOT
ATOM      1  C   UNL A   1      42.537  22.607  28.074  1.00  0.00     0.021 C 
ENDROOT
BRANCH   1   2
ATOM      2  C   UNL A   1      41.147  23.040  27.628  1.00  0.00     0.116 C 
BRANCH   2   3
ATOM      3  N   UNL A   1      41.168  23.802  26.391  1.00  0.00    -0.352 N 
ATOM      4  O   UNL A   1      40.887  25.621  25.084  1.00  0.00    -0.269 OA
ATOM      5  C   UNL A   1      40.991  25.155  26.214  1.00  0.00     0.251 C 
ATOM      6  H   UNL A   1      41.331  23.283  25.572  1.00  0.00     0.163 HD
BRANCH   5   7
ATOM      7  C   UNL A   1      40.897  26.038  27.399  1.00  0.00     0.039 A 
ATOM      8  C   UNL A   1      39.927  25.809  28.378  1.00  0.00     0.014 A 
ATOM      9  C   UNL A   1      41.784  27.110  27.527  1.00  0.00     0.014 A 
ATOM     10  C   UNL A   1      39.756  26.727  29.406  1.00  0.00     0.010 A 
ATOM     11  C   UNL A   1      41.664  27.985  28.612  1.00  0.00     0.010 A 
ATOM     12  C   UNL A   1      40.633  27.817  29.546  1.00  0.00    -0.014 A 
BRANCH  12  13
ATOM     13  C   UNL A   1      40.480  28.714  30.721  1.00  0.00     0.031 A 
ATOM     14  C   UNL A   1      41.381  28.599  31.920  1.00  0.00     0.074 A 
ATOM     15  C   UNL A   1      39.539  29.678  30.668  1.00  0.00     0.049 A 
ATOM     16  N   UNL A   1      41.406  29.338  33.000  1.00  0.00    -0.248 NA
ATOM     17  C   UNL A   1      42.375  27.516  31.912  1.00  0.00     0.031 C 
ATOM     18  C   UNL A   1      38.590  29.867  29.567  1.00  0.00     0.029 A 
ATOM     19  N   UNL A   1      39.237  30.691  31.541  1.00  0.00    -0.354 N 
ATOM     20  C   UNL A   1      42.410  28.810  33.804  1.00  0.00     0.074 A 
ATOM     21  C   UNL A   1      42.952  27.667  33.099  1.00  0.00     0.031 C 
ATOM     22  C   UNL A   1      37.848  30.956  29.806  1.00  0.00     0.029 A 
ATOM     23  C   UNL A   1      38.228  31.512  31.099  1.00  0.00     0.049 A 
ATOM     24  H   UNL A   1      39.700  30.818  32.401  1.00  0.00     0.167 HD
ATOM     25  C   UNL A   1      42.847  29.247  35.010  1.00  0.00     0.037 A 
ATOM     26  C   UNL A   1      37.658  32.588  31.674  1.00  0.00     0.037 A 
ATOM     27  C   UNL A   1      42.304  30.389  35.703  1.00  0.00     0.049 A 
ATOM     28  C   UNL A   1      38.165  33.052  33.008  1.00  0.00     0.074 A 
ATOM     29  C   UNL A   1      42.676  30.910  36.931  1.00  0.00     0.029 A 
ATOM     30  N   UNL A   1      41.276  31.192  35.228  1.00  0.00    -0.354 N 
ATOM     31  N   UNL A   1      39.125  32.544  33.745  1.00  0.00    -0.248 NA
ATOM     32  C   UNL A   1      37.514  34.232  33.590  1.00  0.00     0.031 C 
ATOM     33  C   UNL A   1      41.856  32.010  37.209  1.00  0.00     0.029 A 
ATOM     34  C   UNL A   1      40.998  32.198  36.139  1.00  0.00     0.049 A 
ATOM     35  H   UNL A   1      40.812  31.063  34.368  1.00  0.00     0.167 HD
ATOM     36  C   UNL A   1      39.196  33.346  34.877  1.00  0.00     0.074 A 
ATOM     37  C   UNL A   1      38.203  34.389  34.713  1.00  0.00     0.031 C 
ATOM     38  C   UNL A   1      40.002  33.224  35.959  1.00  0.00     0.037 A 
BRANCH  25  39
ATOM     39  C   UNL A   1      43.969  28.488  35.665  1.00  0.00     0.058 A 
ATOM     40  C   UNL A   1      43.717  27.435  36.558  1.00  0.00     0.135 A 
ATOM     41  C   UNL A   1      45.309  28.779  35.358  1.00  0.00     0.135 A 
ATOM     42  F   UNL A   1      42.456  27.125  36.899  1.00  0.00    -0.206 F 
ATOM     43  C   UNL A   1      44.753  26.707  37.137  1.00  0.00     0.059 A 
ATOM     44  C   UNL A   1      46.360  28.050  35.908  1.00  0.00     0.059 A 
ATOM     45  F   UNL A   1      45.606  29.775  34.509  1.00  0.00    -0.206 F 
ATOM     46  C   UNL A   1      46.072  27.022  36.806  1.00  0.00     0.060 A 
BRANCH  46  47
ATOM     47  S   UNL A   1      47.403  26.061  37.556  1.00  0.00     0.124 S 
ATOM     48  O   UNL A   1      48.539  26.437  36.719  1.00  0.00    -0.237 OA
ATOM     49  O   UNL A   1      47.428  26.572  38.922  1.00  0.00    -0.237 OA
ATOM     50  O   UNL A   1      46.950  24.681  37.413  1.00  0.00    -0.744 OA
ENDBRANCH  46  47
ENDBRANCH  25  39
BRANCH  26  51
ATOM     51  C   UNL A   1      36.540  33.285  30.989  1.00  0.00     0.058 A 
ATOM     52  C   UNL A   1      35.220  33.170  31.448  1.00  0.00     0.135 A 
ATOM     53  C   UNL A   1      36.777  34.101  29.872  1.00  0.00     0.135 A 
ATOM     54  F   UNL A   1      34.944  32.400  32.513  1.00  0.00    -0.206 F 
ATOM     55  C   UNL A   1      34.171  33.825  30.813  1.00  0.00     0.059 A 
ATOM     56  C   UNL A   1      35.750  34.788  29.238  1.00  0.00     0.059 A 
ATOM     57  F   UNL A   1      38.027  34.261  29.409  1.00  0.00    -0.206 F 
ATOM     58  C   UNL A   1      34.447  34.632  29.708  1.00  0.00     0.060 A 
BRANCH  58  59
ATOM     59  S   UNL A   1      33.088  35.517  28.912  1.00  0.00     0.124 S 
ATOM     60  O   UNL A   1      32.480  34.461  28.112  1.00  0.00    -0.237 OA
ATOM     61  O   UNL A   1      32.308  35.981  30.056  1.00  0.00    -0.237 OA
ATOM     62  O   UNL A   1      33.770  36.568  28.163  1.00  0.00    -0.744 OA
ENDBRANCH  58  59
ENDBRANCH  26  51
BRANCH  38  63
ATOM     63  C   UNL A   1      39.846  34.256  37.039  1.00  0.00     0.058 A 
ATOM     64  C   UNL A   1      39.066  34.011  38.180  1.00  0.00     0.135 A 
ATOM     65  C   UNL A   1      40.490  35.499  36.936  1.00  0.00     0.135 A 
ATOM     66  F   UNL A   1      38.425  32.840  38.321  1.00  0.00    -0.206 F 
ATOM     67  C   UNL A   1      38.904  34.976  39.167  1.00  0.00     0.059 A 
ATOM     68  C   UNL A   1      40.359  36.470  37.923  1.00  0.00     0.059 A 
ATOM     69  F   UNL A   1      41.253  35.779  35.867  1.00  0.00    -0.206 F 
ATOM     70  C   UNL A   1      39.550  36.205  39.027  1.00  0.00     0.060 A 
BRANCH  70  71
ATOM     71  S   UNL A   1      39.336  37.450  40.317  1.00  0.00     0.124 S 
ATOM     72  O   UNL A   1      40.716  37.860  40.559  1.00  0.00    -0.237 OA
ATOM     73  O   UNL A   1      38.487  38.440  39.662  1.00  0.00    -0.237 OA
ATOM     74  O   UNL A   1      38.701  36.708  41.401  1.00  0.00    -0.744 OA
ENDBRANCH  70  71
ENDBRANCH  38  63
ENDBRANCH  12  13
ENDBRANCH   5   7
ENDBRANCH   2   3
ENDBRANCH   1   2
BRANCH   1  75
ATOM     75  C   UNL A   1      42.976  23.146  29.435  1.00  0.00     0.002 C 
BRANCH  75  76
ATOM     76  C   UNL A   1      43.516  24.581  29.435  1.00  0.00     0.002 C 
BRANCH  76  77
ATOM     77  C   UNL A   1      45.043  24.718  29.411  1.00  0.00     0.021 C 
BRANCH  77  78
ATOM     78  C   UNL A   1      45.604  25.462  28.201  1.00  0.00     0.116 C 
BRANCH  78  79
ATOM     79  N   UNL A   1      44.741  25.314  27.046  1.00  0.00    -0.356 N 
ATOM     80  C   UNL A   1      44.875  24.553  25.929  1.00  0.00     0.223 C 
ATOM     81  H   UNL A   1      43.919  25.856  27.075  1.00  0.00     0.163 HD
ATOM     82  O   UNL A   1      43.999  24.638  25.066  1.00  0.00    -0.275 OA
BRANCH  80  83
ATOM     83  C   UNL A   1      46.079  23.631  25.772  1.00  0.00     0.079 C 
ATOM     84  C   UNL A   1      46.448  23.420  24.311  1.00  0.00     0.014 C 
ATOM     85  C   UNL A   1      45.755  22.227  26.291  1.00  0.00     0.026 C 
ATOM     86  C   UNL A   1      45.524  22.306  23.840  1.00  0.00     0.014 C 
ATOM     87  C   UNL A   1      45.316  21.392  25.059  1.00  0.00     0.026 C 
ATOM     88  C   UNL A   1      43.864  20.893  25.191  1.00  0.00     0.074 C 
ATOM     89  C   UNL A   1      46.119  20.087  24.968  1.00  0.00     0.267 C 
ATOM     90  C   UNL A   1      43.968  19.389  25.405  1.00  0.00     0.261 C 
ATOM     91  N   UNL A   1      45.358  19.144  25.799  1.00  0.00    -0.346 N 
ATOM     92  H   UNL A   1      45.630  18.181  25.601  1.00  0.00     0.346 HD
ATOM     93  H   UNL A   1      45.518  19.276  26.798  1.00  0.00     0.346 HD
ENDBRANCH  80  83
ENDBRANCH  78  79
ENDBRANCH  77  78
ENDBRANCH  76  77
ENDBRANCH  75  76
ENDBRANCH   1  75
TORSDOF 16
ENDMDL
MODEL 2
REMARK VINA RESULT:     -10.5      4.764     11.953
REMARK SMILES O=C(NCCCCCCNC(=O)[C@@H]1CC[C@]2(CC[NH2+]C2)C1)c1ccc(-c2c3nc(c(-c4c(F)cc(S(=O)(=O)[O-])cc4F)c4ccc([nH]4)c(-c4c(F)cc(S(=O)(=O)[O-])cc4F)c4nc(c(-c5c(F)cc(S(=O)(=O)[O-])cc5F)c5ccc2[nH]5)C=C4)C=C3)cc1
REMARK SMILES IDX 5 1 4 2 3 3 1 4 2 5 22 7 23 8 87 9 24 10 86 11 25 12 26 13
REMARK SMILES IDX 27 14 80 15 28 16 85 17 79 18 81 19 29 20 84 21 78 22 77 23
REMARK SMILES IDX 30 25 64 26 43 27 63 28 44 29 47 30 62 31 82 32 45 33 46 34
REMARK SMILES IDX 61 36 83 37 48 38 31 39 32 40 41 41 33 42 34 43 40 44 42 45
REMARK SMILES IDX 35 46 36 47 37 48 38 49 39 50 65 51 66 52 75 53 67 54 68 55
REMARK SMILES IDX 74 56 76 57 69 58 70 59 71 60 72 61 73 62 49 63 50 64 59 65
REMARK SMILES IDX 51 66 52 67 58 68 60 69 53 70 54 71 55 72 56 73 57 74 6 75
REMARK SMILES IDX 7 76 8 77 9 78 10 79 11 80 12 82 13 83 14 84 21 85 15 86
REMARK SMILES IDX 16 87 17 88 20 89 18 90 19 91
REMARK H PARENT 3 6 81 24 47 35 10 81 19 92 19 93
REMARK Flexibility Score: inf
ROOT
ATOM      1  C   UNL A   1      35.180  33.398  28.074  1.00  0.00     0.021 C 
ENDROOT
BRANCH   1   2
ATOM      2  C   UNL A   1      34.672  32.362  29.066  1.00  0.00     0.116 C 
BRANCH   2   3
ATOM      3  N   UNL A   1      34.041  31.226  28.417  1.00  0.00    -0.352 N 
ATOM      4  O   UNL A   1      33.971  29.262  27.305  1.00  0.00    -0.269 OA
ATOM      5  C   UNL A   1      34.622  30.061  27.971  1.00  0.00     0.251 C 
ATOM      6  H   UNL A   1      33.070  31.298  28.278  1.00  0.00     0.163 HD
BRANCH   5   7
ATOM      7  C   UNL A   1      36.046  29.795  28.276  1.00  0.00     0.039 A 
ATOM      8  C   UNL A   1      37.030  30.009  27.308  1.00  0.00     0.014 A 
ATOM      9  C   UNL A   1      36.399  29.317  29.542  1.00  0.00     0.014 A 
ATOM     10  C   UNL A   1      38.339  29.618  27.558  1.00  0.00     0.010 A 
ATOM     11  C   UNL A   1      37.734  29.005  29.820  1.00  0.00     0.010 A 
ATOM     12  C   UNL A   1      38.711  29.127  28.822  1.00  0.00    -0.014 A 
BRANCH  12  13
ATOM     13  C   UNL A   1      40.142  28.822  29.080  1.00  0.00     0.031 A 
ATOM     14  C   UNL A   1      40.745  27.497  28.700  1.00  0.00     0.074 A 
ATOM     15  C   UNL A   1      40.912  29.788  29.621  1.00  0.00     0.049 A 
ATOM     16  N   UNL A   1      41.987  27.098  28.814  1.00  0.00    -0.248 NA
ATOM     17  C   UNL A   1      39.843  26.487  28.127  1.00  0.00     0.031 C 
ATOM     18  C   UNL A   1      40.429  31.104  30.052  1.00  0.00     0.029 A 
ATOM     19  N   UNL A   1      42.258  29.829  29.877  1.00  0.00    -0.354 N 
ATOM     20  C   UNL A   1      42.017  25.794  28.334  1.00  0.00     0.074 A 
ATOM     21  C   UNL A   1      40.661  25.456  27.957  1.00  0.00     0.031 C 
ATOM     22  C   UNL A   1      41.467  31.838  30.473  1.00  0.00     0.029 A 
ATOM     23  C   UNL A   1      42.680  31.032  30.394  1.00  0.00     0.049 A 
ATOM     24  H   UNL A   1      42.863  29.072  29.708  1.00  0.00     0.167 HD
ATOM     25  C   UNL A   1      43.080  24.962  28.211  1.00  0.00     0.037 A 
ATOM     26  C   UNL A   1      43.905  31.440  30.774  1.00  0.00     0.037 A 
ATOM     27  C   UNL A   1      44.428  25.309  28.586  1.00  0.00     0.049 A 
ATOM     28  C   UNL A   1      45.064  30.499  30.621  1.00  0.00     0.074 A 
ATOM     29  C   UNL A   1      45.574  24.535  28.503  1.00  0.00     0.029 A 
ATOM     30  N   UNL A   1      44.816  26.533  29.114  1.00  0.00    -0.354 N 
ATOM     31  N   UNL A   1      45.071  29.274  30.154  1.00  0.00    -0.248 NA
ATOM     32  C   UNL A   1      46.379  30.994  31.046  1.00  0.00     0.031 C 
ATOM     33  C   UNL A   1      46.647  25.280  29.003  1.00  0.00     0.029 A 
ATOM     34  C   UNL A   1      46.179  26.533  29.364  1.00  0.00     0.049 A 
ATOM     35  H   UNL A   1      44.210  27.290  29.285  1.00  0.00     0.167 HD
ATOM     36  C   UNL A   1      46.393  28.851  30.225  1.00  0.00     0.074 A 
ATOM     37  C   UNL A   1      47.159  29.962  30.752  1.00  0.00     0.031 C 
ATOM     38  C   UNL A   1      46.923  27.648  29.894  1.00  0.00     0.037 A 
BRANCH  25  39
ATOM     39  C   UNL A   1      42.833  23.590  27.645  1.00  0.00     0.058 A 
ATOM     40  C   UNL A   1      42.971  23.329  26.272  1.00  0.00     0.135 A 
ATOM     41  C   UNL A   1      42.510  22.513  28.486  1.00  0.00     0.135 A 
ATOM     42  F   UNL A   1      43.264  24.324  25.421  1.00  0.00    -0.206 F 
ATOM     43  C   UNL A   1      42.781  22.052  25.752  1.00  0.00     0.059 A 
ATOM     44  C   UNL A   1      42.336  21.223  27.990  1.00  0.00     0.059 A 
ATOM     45  F   UNL A   1      42.367  22.707  29.807  1.00  0.00    -0.206 F 
ATOM     46  C   UNL A   1      42.463  21.005  26.619  1.00  0.00     0.060 A 
BRANCH  46  47
ATOM     47  S   UNL A   1      42.230  19.353  25.929  1.00  0.00     0.124 S 
ATOM     48  O   UNL A   1      42.752  18.514  27.003  1.00  0.00    -0.237 OA
ATOM     49  O   UNL A   1      40.787  19.297  25.727  1.00  0.00    -0.237 OA
ATOM     50  O   UNL A   1      43.031  19.378  24.708  1.00  0.00    -0.744 OA
ENDBRANCH  46  47
ENDBRANCH  25  39
BRANCH  26  51
ATOM     51  C   UNL A   1      44.085  32.799  31.345  1.00  0.00     0.058 A 
ATOM     52  C   UNL A   1      44.046  33.019  32.729  1.00  0.00     0.135 A 
ATOM     53  C   UNL A   1      44.324  33.903  30.512  1.00  0.00     0.135 A 
ATOM     54  F   UNL A   1      43.819  31.994  33.565  1.00  0.00    -0.206 F 
ATOM     55  C   UNL A   1      44.219  34.289  33.268  1.00  0.00     0.059 A 
ATOM     56  C   UNL A   1      44.528  35.177  31.028  1.00  0.00     0.059 A 
ATOM     57  F   UNL A   1      44.393  33.739  29.181  1.00  0.00    -0.206 F 
ATOM     58  C   UNL A   1      44.460  35.362  32.408  1.00  0.00     0.060 A 
BRANCH  58  59
ATOM     59  S   UNL A   1      44.729  37.003  33.113  1.00  0.00     0.124 S 
ATOM     60  O   UNL A   1      46.119  36.911  33.543  1.00  0.00    -0.237 OA
ATOM     61  O   UNL A   1      44.470  37.877  31.973  1.00  0.00    -0.237 OA
ATOM     62  O   UNL A   1      43.738  37.072  34.182  1.00  0.00    -0.744 OA
ENDBRANCH  58  59
ENDBRANCH  26  51
BRANCH  38  63
ATOM     63  C   UNL A   1      48.404  27.486  30.083  1.00  0.00     0.058 A 
ATOM     64  C   UNL A   1      49.311  27.789  29.056  1.00  0.00     0.135 A 
ATOM     65  C   UNL A   1      48.920  27.030  31.306  1.00  0.00     0.135 A 
ATOM     66  F   UNL A   1      48.865  28.222  27.866  1.00  0.00    -0.206 F 
ATOM     67  C   UNL A   1      50.680  27.616  29.225  1.00  0.00     0.059 A 
ATOM     68  C   UNL A   1      50.288  26.870  31.503  1.00  0.00     0.059 A 
ATOM     69  F   UNL A   1      48.093  26.733  32.321  1.00  0.00    -0.206 F 
ATOM     70  C   UNL A   1      51.158  27.150  30.450  1.00  0.00     0.060 A 
BRANCH  70  71
ATOM     71  S   UNL A   1      52.938  26.933  30.662  1.00  0.00     0.124 S 
ATOM     72  O   UNL A   1      52.989  25.754  31.522  1.00  0.00    -0.237 OA
ATOM     73  O   UNL A   1      53.397  26.737  29.290  1.00  0.00    -0.237 OA
ATOM     74  O   UNL A   1      53.360  28.184  31.284  1.00  0.00    -0.744 OA
ENDBRANCH  70  71
ENDBRANCH  38  63
ENDBRANCH  12  13
ENDBRANCH   5   7
ENDBRANCH   2   3
ENDBRANCH   1   2
BRANCH   1  75
ATOM     75  C   UNL A   1      34.355  34.683  28.002  1.00  0.00     0.002 C 
BRANCH  75  76
ATOM     76  C   UNL A   1      33.313  34.863  29.112  1.00  0.00     0.002 C 
BRANCH  76  77
ATOM     77  C   UNL A   1      33.429  36.153  29.932  1.00  0.00     0.021 C 
BRANCH  77  78
ATOM     78  C   UNL A   1      33.489  35.952  31.445  1.00  0.00     0.116 C 
BRANCH  78  79
ATOM     79  N   UNL A   1      33.432  34.545  31.791  1.00  0.00    -0.356 N 
ATOM     80  C   UNL A   1      34.372  33.725  32.330  1.00  0.00     0.223 C 
ATOM     81  H   UNL A   1      32.568  34.112  31.605  1.00  0.00     0.163 HD
ATOM     82  O   UNL A   1      34.073  32.541  32.496  1.00  0.00    -0.275 OA
BRANCH  80  83
ATOM     83  C   UNL A   1      35.742  34.276  32.708  1.00  0.00     0.079 C 
ATOM     84  C   UNL A   1      36.666  34.379  31.503  1.00  0.00     0.014 C 
ATOM     85  C   UNL A   1      36.463  33.321  33.662  1.00  0.00     0.026 C 
ATOM     86  C   UNL A   1      37.258  32.984  31.356  1.00  0.00     0.014 C 
ATOM     87  C   UNL A   1      37.381  32.429  32.785  1.00  0.00     0.026 C 
ATOM     88  C   UNL A   1      36.997  30.939  32.881  1.00  0.00     0.074 C 
ATOM     89  C   UNL A   1      38.823  32.445  33.309  1.00  0.00     0.267 C 
ATOM     90  C   UNL A   1      38.128  30.277  33.657  1.00  0.00     0.261 C 
ATOM     91  N   UNL A   1      38.848  31.373  34.312  1.00  0.00    -0.346 N 
ATOM     92  H   UNL A   1      39.806  31.101  34.532  1.00  0.00     0.346 HD
ATOM     93  H   UNL A   1      38.429  31.650  35.200  1.00  0.00     0.346 HD
ENDBRANCH  80  83
ENDBRANCH  78  79
ENDBRANCH  77  78
ENDBRANCH  76  77
ENDBRANCH  75  76
ENDBRANCH   1  75
TORSDOF 16
ENDMDL
MODEL 3
REMARK VINA RESULT:     -10.4      3.433      4.805
REMARK SMILES O=C(NCCCCCCNC(=O)[C@@H]1CC[C@]2(CC[NH2+]C2)C1)c1ccc(-c2c3nc(c(-c4c(F)cc(S(=O)(=O)[O-])cc4F)c4ccc([nH]4)c(-c4c(F)cc(S(=O)(=O)[O-])cc4F)c4nc(c(-c5c(F)cc(S(=O)(=O)[O-])cc5F)c5ccc2[nH]5)C=C4)C=C3)cc1
REMARK SMILES IDX 5 1 4 2 3 3 1 4 2 5 22 7 23 8 87 9 24 10 86 11 25 12 26 13
REMARK SMILES IDX 27 14 80 15 28 16 85 17 79 18 81 19 29 20 84 21 78 22 77 23
REMARK SMILES IDX 30 25 64 26 43 27 63 28 44 29 47 30 62 31 82 32 45 33 46 34
REMARK SMILES IDX 61 36 83 37 48 38 31 39 32 40 41 41 33 42 34 43 40 44 42 45
REMARK SMILES IDX 35 46 36 47 37 48 38 49 39 50 65 51 66 52 75 53 67 54 68 55
REMARK SMILES IDX 74 56 76 57 69 58 70 59 71 60 72 61 73 62 49 63 50 64 59 65
REMARK SMILES IDX 51 66 52 67 58 68 60 69 53 70 54 71 55 72 56 73 57 74 6 75
REMARK SMILES IDX 7 76 8 77 9 78 10 79 11 80 12 82 13 83 14 84 21 85 15 86
REMARK SMILES IDX 16 87 17 88 20 89 18 90 19 91
REMARK H PARENT 3 6 81 24 47 35 10 81 19 92 19 93
REMARK Flexibility Score: inf
ROOT
ATOM      1  C   UNL A   1      41.699  22.411  28.028  1.00  0.00     0.021 C 
ENDROOT
BRANCH   1   2
ATOM      2  C   UNL A   1      42.837  23.340  27.631  1.00  0.00     0.116 C 
BRANCH   2   3
ATOM      3  N   UNL A   1      42.598  24.007  26.361  1.00  0.00    -0.352 N 
ATOM      4  O   UNL A   1      41.780  25.603  24.992  1.00  0.00    -0.269 OA
ATOM      5  C   UNL A   1      42.052  25.249  26.135  1.00  0.00     0.251 C 
ATOM      6  H   UNL A   1      42.863  23.504  25.559  1.00  0.00     0.163 HD
BRANCH   5   7
ATOM      7  C   UNL A   1      41.770  26.141  27.282  1.00  0.00     0.039 A 
ATOM      8  C   UNL A   1      42.636  27.192  27.591  1.00  0.00     0.014 A 
ATOM      9  C   UNL A   1      40.631  25.918  28.061  1.00  0.00     0.014 A 
ATOM     10  C   UNL A   1      42.439  27.929  28.752  1.00  0.00     0.010 A 
ATOM     11  C   UNL A   1      40.389  26.717  29.183  1.00  0.00     0.010 A 
ATOM     12  C   UNL A   1      41.305  27.712  29.554  1.00  0.00    -0.014 A 
BRANCH  12  13
ATOM     13  C   UNL A   1      41.077  28.595  30.727  1.00  0.00     0.031 A 
ATOM     14  C   UNL A   1      41.961  28.531  31.942  1.00  0.00     0.074 A 
ATOM     15  C   UNL A   1      40.081  29.501  30.658  1.00  0.00     0.049 A 
ATOM     16  N   UNL A   1      41.922  29.267  33.024  1.00  0.00    -0.248 NA
ATOM     17  C   UNL A   1      43.018  27.509  31.952  1.00  0.00     0.031 C 
ATOM     18  C   UNL A   1      39.144  29.636  29.539  1.00  0.00     0.029 A 
ATOM     19  N   UNL A   1      39.704  30.492  31.527  1.00  0.00    -0.354 N 
ATOM     20  C   UNL A   1      42.941  28.798  33.845  1.00  0.00     0.074 A 
ATOM     21  C   UNL A   1      43.562  27.691  33.149  1.00  0.00     0.031 C 
ATOM     22  C   UNL A   1      38.334  30.679  29.766  1.00  0.00     0.029 A 
ATOM     23  C   UNL A   1      38.655  31.254  31.067  1.00  0.00     0.049 A 
ATOM     24  H   UNL A   1      40.142  30.644  32.396  1.00  0.00     0.167 HD
ATOM     25  C   UNL A   1      43.328  29.257  35.060  1.00  0.00     0.037 A 
ATOM     26  C   UNL A   1      38.013  32.292  31.634  1.00  0.00     0.037 A 
ATOM     27  C   UNL A   1      42.706  30.362  35.744  1.00  0.00     0.049 A 
ATOM     28  C   UNL A   1      38.466  32.781  32.978  1.00  0.00     0.074 A 
ATOM     29  C   UNL A   1      43.023  30.902  36.980  1.00  0.00     0.029 A 
ATOM     30  N   UNL A   1      41.641  31.104  35.252  1.00  0.00    -0.354 N 
ATOM     31  N   UNL A   1      39.440  32.330  33.731  1.00  0.00    -0.248 NA
ATOM     32  C   UNL A   1      37.735  33.920  33.549  1.00  0.00     0.031 C 
ATOM     33  C   UNL A   1      42.134  31.950  37.245  1.00  0.00     0.029 A 
ATOM     34  C   UNL A   1      41.287  32.090  36.159  1.00  0.00     0.049 A 
ATOM     35  H   UNL A   1      41.201  30.951  34.383  1.00  0.00     0.167 HD
ATOM     36  C   UNL A   1      39.443  33.131  34.865  1.00  0.00     0.074 A 
ATOM     37  C   UNL A   1      38.392  34.114  34.685  1.00  0.00     0.031 C 
ATOM     38  C   UNL A   1      40.235  33.055  35.962  1.00  0.00     0.037 A 
BRANCH  25  39
ATOM     39  C   UNL A   1      44.482  28.565  35.735  1.00  0.00     0.058 A 
ATOM     40  C   UNL A   1      44.276  27.502  36.629  1.00  0.00     0.135 A 
ATOM     41  C   UNL A   1      45.807  28.928  35.445  1.00  0.00     0.135 A 
ATOM     42  F   UNL A   1      43.029  27.124  36.953  1.00  0.00    -0.206 F 
ATOM     43  C   UNL A   1      45.342  26.836  37.226  1.00  0.00     0.059 A 
ATOM     44  C   UNL A   1      46.889  28.261  36.014  1.00  0.00     0.059 A 
ATOM     45  F   UNL A   1      46.061  29.936  34.596  1.00  0.00    -0.206 F 
ATOM     46  C   UNL A   1      46.646  27.223  36.912  1.00  0.00     0.060 A 
BRANCH  46  47
ATOM     47  S   UNL A   1      48.018  26.341  37.686  1.00  0.00     0.124 S 
ATOM     48  O   UNL A   1      47.454  26.020  38.995  1.00  0.00    -0.237 OA
ATOM     49  O   UNL A   1      48.211  25.208  36.787  1.00  0.00    -0.237 OA
ATOM     50  O   UNL A   1      49.096  27.324  37.692  1.00  0.00    -0.744 OA
ENDBRANCH  46  47
ENDBRANCH  25  39
BRANCH  26  51
ATOM     51  C   UNL A   1      36.868  32.922  30.929  1.00  0.00     0.058 A 
ATOM     52  C   UNL A   1      35.546  32.695  31.337  1.00  0.00     0.135 A 
ATOM     53  C   UNL A   1      37.079  33.789  29.844  1.00  0.00     0.135 A 
ATOM     54  F   UNL A   1      35.295  31.873  32.369  1.00  0.00    -0.206 F 
ATOM     55  C   UNL A   1      34.471  33.287  30.684  1.00  0.00     0.059 A 
ATOM     56  C   UNL A   1      36.023  34.414  29.193  1.00  0.00     0.059 A 
ATOM     57  F   UNL A   1      38.328  34.056  29.430  1.00  0.00    -0.206 F 
ATOM     58  C   UNL A   1      34.721  34.146  29.612  1.00  0.00     0.060 A 
BRANCH  58  59
ATOM     59  S   UNL A   1      33.326  34.950  28.793  1.00  0.00     0.124 S 
ATOM     60  O   UNL A   1      32.400  35.130  29.905  1.00  0.00    -0.237 OA
ATOM     61  O   UNL A   1      33.935  36.167  28.267  1.00  0.00    -0.237 OA
ATOM     62  O   UNL A   1      32.925  33.974  27.786  1.00  0.00    -0.744 OA
ENDBRANCH  58  59
ENDBRANCH  26  51
BRANCH  38  63
ATOM     63  C   UNL A   1      39.998  34.073  37.041  1.00  0.00     0.058 A 
ATOM     64  C   UNL A   1      39.202  33.783  38.159  1.00  0.00     0.135 A 
ATOM     65  C   UNL A   1      40.579  35.348  36.958  1.00  0.00     0.135 A 
ATOM     66  F   UNL A   1      38.618  32.580  38.280  1.00  0.00    -0.206 F 
ATOM     67  C   UNL A   1      38.964  34.734  39.145  1.00  0.00     0.059 A 
ATOM     68  C   UNL A   1      40.373  36.307  37.944  1.00  0.00     0.059 A 
ATOM     69  F   UNL A   1      41.355  35.671  35.911  1.00  0.00    -0.206 F 
ATOM     70  C   UNL A   1      39.549  35.996  39.025  1.00  0.00     0.060 A 
BRANCH  70  71
ATOM     71  S   UNL A   1      39.238  37.223  40.313  1.00  0.00     0.124 S 
ATOM     72  O   UNL A   1      38.392  36.472  41.235  1.00  0.00    -0.237 OA
ATOM     73  O   UNL A   1      40.584  37.526  40.791  1.00  0.00    -0.237 OA
ATOM     74  O   UNL A   1      38.577  38.307  39.593  1.00  0.00    -0.744 OA
ENDBRANCH  70  71
ENDBRANCH  38  63
ENDBRANCH  12  13
ENDBRANCH   5   7
ENDBRANCH   2   3
ENDBRANCH   1   2
BRANCH   1  75
ATOM     75  C   UNL A   1      40.833  21.916  26.870  1.00  0.00     0.002 C 
BRANCH  75  76
ATOM     76  C   UNL A   1      39.453  22.572  26.749  1.00  0.00     0.002 C 
BRANCH  76  77
ATOM     77  C   UNL A   1      38.472  21.888  25.790  1.00  0.00     0.021 C 
BRANCH  77  78
ATOM     78  C   UNL A   1      37.173  22.653  25.543  1.00  0.00     0.116 C 
BRANCH  78  79
ATOM     79  N   UNL A   1      36.113  22.184  26.413  1.00  0.00    -0.356 N 
ATOM     80  C   UNL A   1      34.963  21.517  26.131  1.00  0.00     0.223 C 
ATOM     81  H   UNL A   1      36.248  22.382  27.368  1.00  0.00     0.163 HD
ATOM     82  O   UNL A   1      34.202  21.263  27.067  1.00  0.00    -0.275 OA
BRANCH  80  83
ATOM     83  C   UNL A   1      34.648  21.107  24.697  1.00  0.00     0.079 C 
ATOM     84  C   UNL A   1      33.285  21.613  24.247  1.00  0.00     0.014 C 
ATOM     85  C   UNL A   1      34.549  19.585  24.580  1.00  0.00     0.026 C 
ATOM     86  C   UNL A   1      32.302  20.574  24.768  1.00  0.00     0.014 C 
ATOM     87  C   UNL A   1      33.044  19.229  24.709  1.00  0.00     0.026 C 
ATOM     88  C   UNL A   1      32.767  18.340  25.937  1.00  0.00     0.074 C 
ATOM     89  C   UNL A   1      32.588  18.347  23.538  1.00  0.00     0.267 C 
ATOM     90  C   UNL A   1      32.413  16.969  25.375  1.00  0.00     0.261 C 
ATOM     91  N   UNL A   1      32.884  16.981  23.987  1.00  0.00    -0.346 N 
ATOM     92  H   UNL A   1      32.380  16.294  23.425  1.00  0.00     0.346 HD
ATOM     93  H   UNL A   1      33.871  16.738  23.899  1.00  0.00     0.346 HD
ENDBRANCH  80  83
ENDBRANCH  78  79
ENDBRANCH  77  78
ENDBRANCH  76  77
ENDBRANCH  75  76
ENDBRANCH   1  75
TORSDOF 16
ENDMDL
