MODEL 1
REMARK VINA RESULT:     -10.5      0.000      0.000
REMARK SMILES C[NH2+][C@]1(C(=O)NCCCCCCNC(=O)c2ccc(-c3c4nc(c(-c5c(F)cc(S(=O)(=O)[O-])cc5F)c5ccc([nH]5)c(-c5c(F)cc(S(=O)(=O)[O-])cc5F)c5nc(c(-c6c(F)cc(S(=O)(=O)[O-])cc6F)c6ccc3[nH]6)C=C5)C=C4)cc2)CCC[C@@H]1CC[N@H+]1CCC[C@H]([NH+](C)C)C1
REMARK SMILES IDX 9 1 8 2 7 3 6 4 4 5 5 6 3 8 82 9 85 10 83 11 84 12 2 13 1 14
REMARK SMILES IDX 86 17 87 18 88 19 89 20 96 21 90 23 92 24 91 25 93 26 94 27
REMARK SMILES IDX 95 28 10 30 11 31 12 32 13 33 14 34 15 36 16 37 17 38 81 39
REMARK SMILES IDX 18 40 80 41 19 42 20 43 21 44 74 45 22 46 79 47 73 48 75 49
REMARK SMILES IDX 23 50 78 51 72 52 71 53 24 55 58 56 37 57 57 58 38 59 41 60
REMARK SMILES IDX 56 61 76 62 39 63 40 64 55 66 77 67 42 68 25 69 26 70 35 71
REMARK SMILES IDX 27 72 28 73 34 74 36 75 29 76 30 77 31 78 32 79 33 80 59 81
REMARK SMILES IDX 60 82 69 83 61 84 62 85 68 86 70 87 63 88 64 89 65 90 66 91
REMARK SMILES IDX 67 92 43 93 44 94 53 95 45 96 46 97 52 98 54 99 47 100
REMARK SMILES IDX 48 101 49 102 50 103 51 104
REMARK H PARENT 6 7 2 15 2 16 88 22 93 29 13 35 75 54 41 65
REMARK Flexibility Score: inf
ROOT
ATOM      1  C   UNL A   1      37.655  23.022  25.303  1.00  0.00     0.002 C 
ENDROOT
BRANCH   1   2
ATOM      2  C   UNL A   1      36.297  22.420  25.684  1.00  0.00     0.021 C 
BRANCH   2   3
ATOM      3  C   UNL A   1      35.526  21.858  24.488  1.00  0.00     0.116 C 
BRANCH   3   4
ATOM      4  N   UNL A   1      35.173  22.934  23.574  1.00  0.00    -0.351 N 
ATOM      5  C   UNL A   1      34.031  23.650  23.354  1.00  0.00     0.281 C 
ATOM      6  O   UNL A   1      34.112  24.451  22.415  1.00  0.00    -0.268 OA
ATOM      7  H   UNL A   1      35.917  23.203  22.988  1.00  0.00     0.163 HD
BRANCH   5   8
ATOM      8  C   UNL A   1      32.759  23.547  24.275  1.00  0.00     0.178 C 
ATOM      9  C   UNL A   1      32.133  22.132  24.208  1.00  0.00     0.079 C 
ATOM     10  C   UNL A   1      33.132  23.688  25.788  1.00  0.00     0.066 C 
ATOM     11  C   UNL A   1      31.430  21.921  25.545  1.00  0.00     0.008 C 
ATOM     12  C   UNL A   1      32.033  22.917  26.535  1.00  0.00     0.011 C 
BRANCH   8  13
ATOM     13  N   UNL A   1      31.642  24.405  23.776  1.00  0.00    -0.336 N 
ATOM     14  C   UNL A   1      30.505  23.791  23.121  1.00  0.00     0.331 C 
ATOM     15  H   UNL A   1      31.281  24.917  24.580  1.00  0.00     0.346 HD
ATOM     16  H   UNL A   1      32.078  24.954  23.034  1.00  0.00     0.346 HD
ENDBRANCH   8  13
BRANCH  10  17
ATOM     17  C   UNL A   1      33.321  25.127  26.311  1.00  0.00     0.072 C 
BRANCH  17  18
ATOM     18  C   UNL A   1      34.115  26.098  25.422  1.00  0.00     0.262 C 
BRANCH  18  19
ATOM     19  N   UNL A   1      33.705  27.509  25.414  1.00  0.00    -0.330 N 
ATOM     20  C   UNL A   1      32.554  27.853  24.580  1.00  0.00     0.262 C 
ATOM     21  C   UNL A   1      33.429  27.965  26.792  1.00  0.00     0.327 C 
ATOM     22  H   UNL A   1      34.503  27.986  24.992  1.00  0.00     0.348 HD
ATOM     23  C   UNL A   1      32.406  29.372  24.481  1.00  0.00     0.068 C 
ATOM     24  C   UNL A   1      33.302  29.510  26.903  1.00  0.00     0.239 C 
ATOM     25  C   UNL A   1      32.301  30.041  25.849  1.00  0.00     0.077 C 
BRANCH  24  26
ATOM     26  N   UNL A   1      34.574  30.273  26.966  1.00  0.00    -0.333 N 
ATOM     27  C   UNL A   1      34.426  31.507  27.745  1.00  0.00     0.332 C 
ATOM     28  C   UNL A   1      35.724  29.522  27.468  1.00  0.00     0.332 C 
ATOM     29  H   UNL A   1      34.776  30.490  25.990  1.00  0.00     0.348 HD
ENDBRANCH  24  26
ENDBRANCH  18  19
ENDBRANCH  17  18
ENDBRANCH  10  17
ENDBRANCH   5   8
ENDBRANCH   3   4
ENDBRANCH   2   3
ENDBRANCH   1   2
BRANCH   1  30
ATOM     30  C   UNL A   1      38.464  23.578  26.482  1.00  0.00     0.002 C 
BRANCH  30  31
ATOM     31  C   UNL A   1      39.703  22.760  26.858  1.00  0.00     0.021 C 
BRANCH  31  32
ATOM     32  C   UNL A   1      40.912  23.599  27.261  1.00  0.00     0.116 C 
BRANCH  32  33
ATOM     33  N   UNL A   1      41.428  24.376  26.144  1.00  0.00    -0.352 N 
ATOM     34  C   UNL A   1      41.493  25.739  25.993  1.00  0.00     0.251 C 
ATOM     35  H   UNL A   1      41.782  23.848  25.392  1.00  0.00     0.163 HD
ATOM     36  O   UNL A   1      41.754  26.223  24.897  1.00  0.00    -0.269 OA
BRANCH  34  37
ATOM     37  C   UNL A   1      41.230  26.616  27.154  1.00  0.00     0.039 A 
ATOM     38  C   UNL A   1      40.202  26.281  28.039  1.00  0.00     0.014 A 
ATOM     39  C   UNL A   1      41.994  27.767  27.366  1.00  0.00     0.014 A 
ATOM     40  C   UNL A   1      39.979  27.072  29.168  1.00  0.00     0.010 A 
ATOM     41  C   UNL A   1      41.820  28.510  28.530  1.00  0.00     0.010 A 
ATOM     42  C   UNL A   1      40.807  28.174  29.441  1.00  0.00    -0.014 A 
BRANCH  42  43
ATOM     43  C   UNL A   1      40.629  28.986  30.673  1.00  0.00     0.031 A 
ATOM     44  C   UNL A   1      39.574  30.058  30.727  1.00  0.00     0.074 A 
ATOM     45  C   UNL A   1      41.456  28.795  31.720  1.00  0.00     0.049 A 
ATOM     46  N   UNL A   1      39.309  30.908  31.686  1.00  0.00    -0.248 NA
ATOM     47  C   UNL A   1      38.722  30.214  29.537  1.00  0.00     0.031 C 
ATOM     48  C   UNL A   1      42.546  27.817  31.770  1.00  0.00     0.029 A 
ATOM     49  N   UNL A   1      41.518  29.420  32.941  1.00  0.00    -0.354 N 
ATOM     50  C   UNL A   1      38.271  31.702  31.214  1.00  0.00     0.074 A 
ATOM     51  C   UNL A   1      37.992  31.270  29.861  1.00  0.00     0.031 C 
ATOM     52  C   UNL A   1      43.149  27.891  32.967  1.00  0.00     0.029 A 
ATOM     53  C   UNL A   1      42.521  28.948  33.754  1.00  0.00     0.049 A 
ATOM     54  H   UNL A   1      40.901  30.140  33.208  1.00  0.00     0.167 HD
ATOM     55  C   UNL A   1      37.595  32.684  31.857  1.00  0.00     0.037 A 
ATOM     56  C   UNL A   1      42.899  29.328  34.990  1.00  0.00     0.037 A 
ATOM     57  C   UNL A   1      37.867  33.093  33.211  1.00  0.00     0.049 A 
ATOM     58  C   UNL A   1      42.142  30.432  35.679  1.00  0.00     0.074 A 
ATOM     59  C   UNL A   1      37.205  34.042  33.971  1.00  0.00     0.029 A 
ATOM     60  N   UNL A   1      38.884  32.583  34.006  1.00  0.00    -0.354 N 
ATOM     61  N   UNL A   1      41.122  31.131  35.240  1.00  0.00    -0.248 NA
ATOM     62  C   UNL A   1      42.583  30.797  37.032  1.00  0.00     0.031 C 
ATOM     63  C   UNL A   1      37.853  34.142  35.207  1.00  0.00     0.029 A 
ATOM     64  C   UNL A   1      38.883  33.214  35.240  1.00  0.00     0.049 A 
ATOM     65  H   UNL A   1      39.513  31.877  33.733  1.00  0.00     0.167 HD
ATOM     66  C   UNL A   1      40.779  31.995  36.274  1.00  0.00     0.074 A 
ATOM     67  C   UNL A   1      41.694  31.722  37.364  1.00  0.00     0.031 C 
ATOM     68  C   UNL A   1      39.795  32.927  36.319  1.00  0.00     0.037 A 
BRANCH  55  69
ATOM     69  C   UNL A   1      36.494  33.384  31.106  1.00  0.00     0.058 A 
ATOM     70  C   UNL A   1      36.765  34.232  30.019  1.00  0.00     0.135 A 
ATOM     71  C   UNL A   1      35.148  33.171  31.448  1.00  0.00     0.135 A 
ATOM     72  F   UNL A   1      38.033  34.482  29.656  1.00  0.00    -0.206 F 
ATOM     73  C   UNL A   1      35.744  34.867  29.319  1.00  0.00     0.059 A 
ATOM     74  C   UNL A   1      34.109  33.772  30.742  1.00  0.00     0.059 A 
ATOM     75  F   UNL A   1      34.830  32.371  32.477  1.00  0.00    -0.206 F 
ATOM     76  C   UNL A   1      34.419  34.630  29.688  1.00  0.00     0.060 A 
BRANCH  76  77
ATOM     77  S   UNL A   1      33.108  35.456  28.762  1.00  0.00     0.124 S 
ATOM     78  O   UNL A   1      33.875  36.383  27.935  1.00  0.00    -0.237 OA
ATOM     79  O   UNL A   1      32.480  34.346  28.053  1.00  0.00    -0.237 OA
ATOM     80  O   UNL A   1      32.293  36.073  29.803  1.00  0.00    -0.744 OA
ENDBRANCH  76  77
ENDBRANCH  55  69
BRANCH  56  81
ATOM     81  C   UNL A   1      44.037  28.646  35.664  1.00  0.00     0.058 A 
ATOM     82  C   UNL A   1      45.342  29.152  35.566  1.00  0.00     0.135 A 
ATOM     83  C   UNL A   1      43.844  27.483  36.426  1.00  0.00     0.135 A 
ATOM     84  F   UNL A   1      45.580  30.257  34.843  1.00  0.00    -0.206 F 
ATOM     85  C   UNL A   1      46.418  28.521  36.181  1.00  0.00     0.059 A 
ATOM     86  C   UNL A   1      44.899  26.850  37.076  1.00  0.00     0.059 A 
ATOM     87  F   UNL A   1      42.613  26.968  36.568  1.00  0.00    -0.206 F 
ATOM     88  C   UNL A   1      46.186  27.371  36.937  1.00  0.00     0.060 A 
BRANCH  88  89
ATOM     89  S   UNL A   1      47.582  26.583  37.767  1.00  0.00     0.124 S 
ATOM     90  O   UNL A   1      46.942  26.018  38.949  1.00  0.00    -0.237 OA
ATOM     91  O   UNL A   1      48.031  25.623  36.763  1.00  0.00    -0.237 OA
ATOM     92  O   UNL A   1      48.497  27.694  38.014  1.00  0.00    -0.744 OA
ENDBRANCH  88  89
ENDBRANCH  56  81
BRANCH  68  93
ATOM     93  C   UNL A   1      39.627  33.699  37.599  1.00  0.00     0.058 A 
ATOM     94  C   UNL A   1      38.810  33.236  38.642  1.00  0.00     0.135 A 
ATOM     95  C   UNL A   1      40.337  34.893  37.805  1.00  0.00     0.135 A 
ATOM     96  F   UNL A   1      38.103  32.104  38.496  1.00  0.00    -0.206 F 
ATOM     97  C   UNL A   1      38.682  33.942  39.834  1.00  0.00     0.059 A 
ATOM     98  C   UNL A   1      40.251  35.599  39.001  1.00  0.00     0.059 A 
ATOM     99  F   UNL A   1      41.142  35.376  36.845  1.00  0.00    -0.206 F 
ATOM    100  C   UNL A   1      39.411  35.122  40.006  1.00  0.00     0.060 A 
BRANCH 100 101
ATOM    101  S   UNL A   1      39.264  36.008  41.572  1.00  0.00     0.124 S 
ATOM    102  O   UNL A   1      39.353  37.397  41.132  1.00  0.00    -0.237 OA
ATOM    103  O   UNL A   1      37.955  35.578  42.052  1.00  0.00    -0.237 OA
ATOM    104  O   UNL A   1      40.402  35.521  42.346  1.00  0.00    -0.744 OA
ENDBRANCH 100 101
ENDBRANCH  68  93
ENDBRANCH  42  43
ENDBRANCH  34  37
ENDBRANCH  32  33
ENDBRANCH  31  32
ENDBRANCH  30  31
ENDBRANCH   1  30
TORSDOF 21
ENDMDL
MODEL 2
REMARK VINA RESULT:     -10.4      2.373      9.294
REMARK SMILES C[NH2+][C@]1(C(=O)NCCCCCCNC(=O)c2ccc(-c3c4nc(c(-c5c(F)cc(S(=O)(=O)[O-])cc5F)c5ccc([nH]5)c(-c5c(F)cc(S(=O)(=O)[O-])cc5F)c5nc(c(-c6c(F)cc(S(=O)(=O)[O-])cc6F)c6ccc3[nH]6)C=C5)C=C4)cc2)CCC[C@@H]1CC[N@H+]1CCC[C@H]([NH+](C)C)C1
REMARK SMILES IDX 9 1 8 2 7 3 6 4 4 5 5 6 3 8 82 9 85 10 83 11 84 12 2 13 1 14
REMARK SMILES IDX 86 17 87 18 88 19 89 20 96 21 90 23 92 24 91 25 93 26 94 27
REMARK SMILES IDX 95 28 10 30 11 31 12 32 13 33 14 34 15 36 16 37 17 38 81 39
REMARK SMILES IDX 18 40 80 41 19 42 20 43 21 44 74 45 22 46 79 47 73 48 75 49
REMARK SMILES IDX 23 50 78 51 72 52 71 53 24 55 58 56 37 57 57 58 38 59 41 60
REMARK SMILES IDX 56 61 76 62 39 63 40 64 55 66 77 67 42 68 25 69 26 70 35 71
REMARK SMILES IDX 27 72 28 73 34 74 36 75 29 76 30 77 31 78 32 79 33 80 59 81
REMARK SMILES IDX 60 82 69 83 61 84 62 85 68 86 70 87 63 88 64 89 65 90 66 91
REMARK SMILES IDX 67 92 43 93 44 94 53 95 45 96 46 97 52 98 54 99 47 100
REMARK SMILES IDX 48 101 49 102 50 103 51 104
REMARK H PARENT 6 7 2 15 2 16 88 22 93 29 13 35 75 54 41 65
REMARK Flexibility Score: inf
ROOT
ATOM      1  C   UNL A   1      35.374  31.944  28.167  1.00  0.00     0.002 C 
ENDROOT
BRANCH   1   2
ATOM      2  C   UNL A   1      34.097  31.316  27.592  1.00  0.00     0.021 C 
BRANCH   2   3
ATOM      3  C   UNL A   1      34.248  29.830  27.264  1.00  0.00     0.116 C 
BRANCH   3   4
ATOM      4  N   UNL A   1      33.081  29.096  27.729  1.00  0.00    -0.351 N 
ATOM      5  C   UNL A   1      32.163  28.295  27.113  1.00  0.00     0.281 C 
ATOM      6  O   UNL A   1      31.254  27.905  27.859  1.00  0.00    -0.268 OA
ATOM      7  H   UNL A   1      32.920  29.199  28.694  1.00  0.00     0.163 HD
BRANCH   5   8
ATOM      8  C   UNL A   1      32.297  27.819  25.620  1.00  0.00     0.178 C 
ATOM      9  C   UNL A   1      33.284  28.717  24.833  1.00  0.00     0.079 C 
ATOM     10  C   UNL A   1      32.967  26.407  25.525  1.00  0.00     0.066 C 
ATOM     11  C   UNL A   1      33.861  27.840  23.728  1.00  0.00     0.008 C 
ATOM     12  C   UNL A   1      33.639  26.386  24.143  1.00  0.00     0.011 C 
BRANCH   8  13
ATOM     13  N   UNL A   1      31.026  28.012  24.859  1.00  0.00    -0.336 N 
ATOM     14  C   UNL A   1      30.752  29.290  24.235  1.00  0.00     0.331 C 
ATOM     15  H   UNL A   1      31.016  27.311  24.118  1.00  0.00     0.346 HD
ATOM     16  H   UNL A   1      30.305  27.937  25.578  1.00  0.00     0.346 HD
ENDBRANCH   8  13
BRANCH  10  17
ATOM     17  C   UNL A   1      32.040  25.198  25.764  1.00  0.00     0.072 C 
BRANCH  17  18
ATOM     18  C   UNL A   1      32.104  24.052  24.742  1.00  0.00     0.262 C 
BRANCH  18  19
ATOM     19  N   UNL A   1      32.956  22.898  25.059  1.00  0.00    -0.330 N 
ATOM     20  C   UNL A   1      32.273  21.668  25.460  1.00  0.00     0.262 C 
ATOM     21  C   UNL A   1      33.833  22.585  23.912  1.00  0.00     0.327 C 
ATOM     22  H   UNL A   1      33.476  23.205  25.882  1.00  0.00     0.348 HD
ATOM     23  C   UNL A   1      33.284  20.650  25.990  1.00  0.00     0.068 C 
ATOM     24  C   UNL A   1      34.974  21.595  24.276  1.00  0.00     0.239 C 
ATOM     25  C   UNL A   1      34.393  20.349  24.986  1.00  0.00     0.077 C 
BRANCH  24  26
ATOM     26  N   UNL A   1      36.161  22.177  24.953  1.00  0.00    -0.333 N 
ATOM     27  C   UNL A   1      37.214  21.176  25.153  1.00  0.00     0.332 C 
ATOM     28  C   UNL A   1      36.734  23.352  24.298  1.00  0.00     0.332 C 
ATOM     29  H   UNL A   1      35.797  22.496  25.850  1.00  0.00     0.348 HD
ENDBRANCH  24  26
ENDBRANCH  18  19
ENDBRANCH  17  18
ENDBRANCH  10  17
ENDBRANCH   5   8
ENDBRANCH   3   4
ENDBRANCH   2   3
ENDBRANCH   1   2
BRANCH   1  30
ATOM     30  C   UNL A   1      35.141  33.171  29.057  1.00  0.00     0.002 C 
BRANCH  30  31
ATOM     31  C   UNL A   1      33.800  33.880  28.843  1.00  0.00     0.021 C 
BRANCH  31  32
ATOM     32  C   UNL A   1      33.827  35.378  29.132  1.00  0.00     0.116 C 
BRANCH  32  33
ATOM     33  N   UNL A   1      32.904  35.739  30.197  1.00  0.00    -0.352 N 
ATOM     34  C   UNL A   1      32.917  35.365  31.518  1.00  0.00     0.251 C 
ATOM     35  H   UNL A   1      32.168  36.337  29.933  1.00  0.00     0.163 HD
ATOM     36  O   UNL A   1      31.940  35.583  32.227  1.00  0.00    -0.269 OA
BRANCH  34  37
ATOM     37  C   UNL A   1      34.108  34.687  32.074  1.00  0.00     0.039 A 
ATOM     38  C   UNL A   1      33.970  33.401  32.603  1.00  0.00     0.014 A 
ATOM     39  C   UNL A   1      35.353  35.320  32.078  1.00  0.00     0.014 A 
ATOM     40  C   UNL A   1      35.096  32.729  33.082  1.00  0.00     0.010 A 
ATOM     41  C   UNL A   1      36.485  34.620  32.486  1.00  0.00     0.010 A 
ATOM     42  C   UNL A   1      36.368  33.319  32.998  1.00  0.00    -0.014 A 
BRANCH  42  43
ATOM     43  C   UNL A   1      37.587  32.591  33.439  1.00  0.00     0.031 A 
ATOM     44  C   UNL A   1      38.293  32.995  34.706  1.00  0.00     0.074 A 
ATOM     45  C   UNL A   1      38.089  31.606  32.668  1.00  0.00     0.049 A 
ATOM     46  N   UNL A   1      39.399  32.524  35.220  1.00  0.00    -0.248 NA
ATOM     47  C   UNL A   1      37.690  34.090  35.484  1.00  0.00     0.031 C 
ATOM     48  C   UNL A   1      37.519  31.155  31.396  1.00  0.00     0.029 A 
ATOM     49  N   UNL A   1      39.196  30.812  32.834  1.00  0.00    -0.354 N 
ATOM     50  C   UNL A   1      39.630  33.268  36.371  1.00  0.00     0.074 A 
ATOM     51  C   UNL A   1      38.580  34.260  36.449  1.00  0.00     0.031 C 
ATOM     52  C   UNL A   1      38.266  30.150  30.912  1.00  0.00     0.029 A 
ATOM     53  C   UNL A   1      39.390  29.912  31.812  1.00  0.00     0.049 A 
ATOM     54  H   UNL A   1      39.796  30.882  33.612  1.00  0.00     0.167 HD
ATOM     55  C   UNL A   1      40.613  33.122  37.292  1.00  0.00     0.037 A 
ATOM     56  C   UNL A   1      40.366  29.004  31.618  1.00  0.00     0.037 A 
ATOM     57  C   UNL A   1      41.644  32.119  37.215  1.00  0.00     0.049 A 
ATOM     58  C   UNL A   1      41.456  28.871  32.647  1.00  0.00     0.074 A 
ATOM     59  C   UNL A   1      42.655  31.854  38.123  1.00  0.00     0.029 A 
ATOM     60  N   UNL A   1      41.800  31.218  36.171  1.00  0.00    -0.354 N 
ATOM     61  N   UNL A   1      41.624  29.542  33.762  1.00  0.00    -0.248 NA
ATOM     62  C   UNL A   1      42.486  27.855  32.396  1.00  0.00     0.031 C 
ATOM     63  C   UNL A   1      43.452  30.829  37.603  1.00  0.00     0.029 A 
ATOM     64  C   UNL A   1      42.904  30.413  36.399  1.00  0.00     0.049 A 
ATOM     65  H   UNL A   1      41.212  31.160  35.383  1.00  0.00     0.167 HD
ATOM     66  C   UNL A   1      42.760  29.008  34.360  1.00  0.00     0.074 A 
ATOM     67  C   UNL A   1      43.231  27.950  33.489  1.00  0.00     0.031 C 
ATOM     68  C   UNL A   1      43.357  29.358  35.526  1.00  0.00     0.037 A 
BRANCH  55  69
ATOM     69  C   UNL A   1      40.621  34.068  38.463  1.00  0.00     0.058 A 
ATOM     70  C   UNL A   1      41.324  35.283  38.425  1.00  0.00     0.135 A 
ATOM     71  C   UNL A   1      39.883  33.777  39.621  1.00  0.00     0.135 A 
ATOM     72  F   UNL A   1      42.059  35.608  37.349  1.00  0.00    -0.206 F 
ATOM     73  C   UNL A   1      41.319  36.161  39.504  1.00  0.00     0.059 A 
ATOM     74  C   UNL A   1      39.839  34.654  40.702  1.00  0.00     0.059 A 
ATOM     75  F   UNL A   1      39.192  32.629  39.714  1.00  0.00    -0.206 F 
ATOM     76  C   UNL A   1      40.573  35.838  40.638  1.00  0.00     0.060 A 
BRANCH  76  77
ATOM     77  S   UNL A   1      40.571  36.993  42.025  1.00  0.00     0.124 S 
ATOM     78  O   UNL A   1      41.715  36.520  42.799  1.00  0.00    -0.237 OA
ATOM     79  O   UNL A   1      40.746  38.280  41.359  1.00  0.00    -0.237 OA
ATOM     80  O   UNL A   1      39.267  36.783  42.643  1.00  0.00    -0.744 OA
ENDBRANCH  76  77
ENDBRANCH  55  69
BRANCH  56  81
ATOM     81  C   UNL A   1      40.346  28.137  30.409  1.00  0.00     0.058 A 
ATOM     82  C   UNL A   1      39.445  27.067  30.302  1.00  0.00     0.135 A 
ATOM     83  C   UNL A   1      41.219  28.365  29.333  1.00  0.00     0.135 A 
ATOM     84  F   UNL A   1      38.594  26.804  31.305  1.00  0.00    -0.206 F 
ATOM     85  C   UNL A   1      39.421  26.242  29.183  1.00  0.00     0.059 A 
ATOM     86  C   UNL A   1      41.195  27.571  28.190  1.00  0.00     0.059 A 
ATOM     87  F   UNL A   1      42.089  29.386  29.376  1.00  0.00    -0.206 F 
ATOM     88  C   UNL A   1      40.300  26.504  28.129  1.00  0.00     0.060 A 
BRANCH  88  89
ATOM     89  S   UNL A   1      40.232  25.453  26.663  1.00  0.00     0.124 S 
ATOM     90  O   UNL A   1      38.810  25.141  26.589  1.00  0.00    -0.237 OA
ATOM     91  O   UNL A   1      40.746  26.342  25.626  1.00  0.00    -0.237 OA
ATOM     92  O   UNL A   1      41.106  24.335  27.009  1.00  0.00    -0.744 OA
ENDBRANCH  88  89
ENDBRANCH  56  81
BRANCH  68  93
ATOM     93  C   UNL A   1      44.565  28.570  35.953  1.00  0.00     0.058 A 
ATOM     94  C   UNL A   1      45.862  28.924  35.549  1.00  0.00     0.135 A 
ATOM     95  C   UNL A   1      44.427  27.475  36.822  1.00  0.00     0.135 A 
ATOM     96  F   UNL A   1      46.052  29.958  34.713  1.00  0.00    -0.206 F 
ATOM     97  C   UNL A   1      46.977  28.207  35.972  1.00  0.00     0.059 A 
ATOM     98  C   UNL A   1      45.530  26.763  37.283  1.00  0.00     0.059 A 
ATOM     99  F   UNL A   1      43.210  27.099  37.248  1.00  0.00    -0.206 F 
ATOM    100  C   UNL A   1      46.800  27.129  36.842  1.00  0.00     0.060 A 
BRANCH 100 101
ATOM    101  S   UNL A   1      48.258  26.230  37.412  1.00  0.00     0.124 S 
ATOM    102  O   UNL A   1      47.656  25.184  38.232  1.00  0.00    -0.237 OA
ATOM    103  O   UNL A   1      48.859  25.784  36.159  1.00  0.00    -0.237 OA
ATOM    104  O   UNL A   1      49.018  27.240  38.141  1.00  0.00    -0.744 OA
ENDBRANCH 100 101
ENDBRANCH  68  93
ENDBRANCH  42  43
ENDBRANCH  34  37
ENDBRANCH  32  33
ENDBRANCH  31  32
ENDBRANCH  30  31
ENDBRANCH   1  30
TORSDOF 21
ENDMDL
MODEL 3
REMARK VINA RESULT:     -10.4      6.623     12.017
REMARK SMILES C[NH2+][C@]1(C(=O)NCCCCCCNC(=O)c2ccc(-c3c4nc(c(-c5c(F)cc(S(=O)(=O)[O-])cc5F)c5ccc([nH]5)c(-c5c(F)cc(S(=O)(=O)[O-])cc5F)c5nc(c(-c6c(F)cc(S(=O)(=O)[O-])cc6F)c6ccc3[nH]6)C=C5)C=C4)cc2)CCC[C@@H]1CC[N@H+]1CCC[C@H]([NH+](C)C)C1
REMARK SMILES IDX 9 1 8 2 7 3 6 4 4 5 5 6 3 8 82 9 85 10 83 11 84 12 2 13 1 14
REMARK SMILES IDX 86 17 87 18 88 19 89 20 96 21 90 23 92 24 91 25 93 26 94 27
REMARK SMILES IDX 95 28 10 30 11 31 12 32 13 33 14 34 15 36 16 37 17 38 81 39
REMARK SMILES IDX 18 40 80 41 19 42 20 43 21 44 74 45 22 46 79 47 73 48 75 49
REMARK SMILES IDX 23 50 78 51 72 52 71 53 24 55 58 56 37 57 57 58 38 59 41 60
REMARK SMILES IDX 56 61 76 62 39 63 40 64 55 66 77 67 42 68 25 69 26 70 35 71
REMARK SMILES IDX 27 72 28 73 34 74 36 75 29 76 30 77 31 78 32 79 33 80 59 81
REMARK SMILES IDX 60 82 69 83 61 84 62 85 68 86 70 87 63 88 64 89 65 90 66 91
REMARK SMILES IDX 67 92 43 93 44 94 53 95 45 96 46 97 52 98 54 99 47 100
REMARK SMILES IDX 48 101 49 102 50 103 51 104
REMARK H PARENT 6 7 2 15 2 16 88 22 93 29 13 35 75 54 41 65
REMARK Flexibility Score: inf
ROOT
ATOM      1  C   UNL A   1      32.023  29.988  25.815  1.00  0.00     0.002 C 
ENDROOT
BRANCH   1   2
ATOM      2  C   UNL A   1      32.756  29.356  24.624  1.00  0.00     0.021 C 
BRANCH   2   3
ATOM      3  C   UNL A   1      31.815  28.895  23.509  1.00  0.00     0.116 C 
BRANCH   3   4
ATOM      4  N   UNL A   1      32.565  28.181  22.488  1.00  0.00    -0.351 N 
ATOM      5  C   UNL A   1      32.946  26.878  22.334  1.00  0.00     0.281 C 
ATOM      6  O   UNL A   1      33.654  26.675  21.339  1.00  0.00    -0.268 OA
ATOM      7  H   UNL A   1      32.862  28.760  21.750  1.00  0.00     0.163 HD
BRANCH   5   8
ATOM      8  C   UNL A   1      32.446  25.717  23.270  1.00  0.00     0.178 C 
ATOM      9  C   UNL A   1      30.947  25.889  23.622  1.00  0.00     0.079 C 
ATOM     10  C   UNL A   1      32.471  24.335  22.536  1.00  0.00     0.066 C 
ATOM     11  C   UNL A   1      30.415  24.485  23.890  1.00  0.00     0.008 C 
ATOM     12  C   UNL A   1      31.385  23.502  23.234  1.00  0.00     0.011 C 
BRANCH   8  13
ATOM     13  N   UNL A   1      33.090  25.774  24.617  1.00  0.00    -0.336 N 
ATOM     14  C   UNL A   1      32.276  26.014  25.791  1.00  0.00     0.331 C 
ATOM     15  H   UNL A   1      33.559  24.880  24.758  1.00  0.00     0.346 HD
ATOM     16  H   UNL A   1      33.681  26.605  24.563  1.00  0.00     0.346 HD
ENDBRANCH   8  13
BRANCH  10  17
ATOM     17  C   UNL A   1      33.837  23.621  22.480  1.00  0.00     0.072 C 
BRANCH  17  18
ATOM     18  C   UNL A   1      34.870  23.996  23.554  1.00  0.00     0.262 C 
BRANCH  18  19
ATOM     19  N   UNL A   1      35.456  22.909  24.350  1.00  0.00    -0.330 N 
ATOM     20  C   UNL A   1      34.771  21.617  24.301  1.00  0.00     0.262 C 
ATOM     21  C   UNL A   1      36.866  22.698  23.960  1.00  0.00     0.327 C 
ATOM     22  H   UNL A   1      35.357  23.238  25.311  1.00  0.00     0.348 HD
ATOM     23  C   UNL A   1      35.346  20.673  25.358  1.00  0.00     0.068 C 
ATOM     24  C   UNL A   1      37.641  21.796  24.960  1.00  0.00     0.239 C 
ATOM     25  C   UNL A   1      36.855  20.490  25.221  1.00  0.00     0.077 C 
BRANCH  24  26
ATOM     26  N   UNL A   1      38.140  22.458  26.193  1.00  0.00    -0.333 N 
ATOM     27  C   UNL A   1      39.564  22.184  26.413  1.00  0.00     0.332 C 
ATOM     28  C   UNL A   1      37.910  23.899  26.260  1.00  0.00     0.332 C 
ATOM     29  H   UNL A   1      37.578  22.041  26.936  1.00  0.00     0.348 HD
ENDBRANCH  24  26
ENDBRANCH  18  19
ENDBRANCH  17  18
ENDBRANCH  10  17
ENDBRANCH   5   8
ENDBRANCH   3   4
ENDBRANCH   2   3
ENDBRANCH   1   2
BRANCH   1  30
ATOM     30  C   UNL A   1      32.810  29.978  27.131  1.00  0.00     0.002 C 
BRANCH  30  31
ATOM     31  C   UNL A   1      34.007  29.023  27.161  1.00  0.00     0.021 C 
BRANCH  31  32
ATOM     32  C   UNL A   1      35.316  29.668  27.609  1.00  0.00     0.116 C 
BRANCH  32  33
ATOM     33  N   UNL A   1      35.293  30.011  29.023  1.00  0.00    -0.352 N 
ATOM     34  C   UNL A   1      36.270  29.838  29.972  1.00  0.00     0.251 C 
ATOM     35  H   UNL A   1      34.460  30.426  29.343  1.00  0.00     0.163 HD
ATOM     36  O   UNL A   1      36.003  29.981  31.161  1.00  0.00    -0.269 OA
BRANCH  34  37
ATOM     37  C   UNL A   1      37.639  29.466  29.553  1.00  0.00     0.039 A 
ATOM     38  C   UNL A   1      38.033  29.705  28.234  1.00  0.00     0.014 A 
ATOM     39  C   UNL A   1      38.527  28.879  30.458  1.00  0.00     0.014 A 
ATOM     40  C   UNL A   1      39.339  29.407  27.841  1.00  0.00     0.010 A 
ATOM     41  C   UNL A   1      39.849  28.654  30.085  1.00  0.00     0.010 A 
ATOM     42  C   UNL A   1      40.268  28.910  28.771  1.00  0.00    -0.014 A 
BRANCH  42  43
ATOM     43  C   UNL A   1      41.681  28.653  28.387  1.00  0.00     0.031 A 
ATOM     44  C   UNL A   1      42.117  27.269  27.987  1.00  0.00     0.074 A 
ATOM     45  C   UNL A   1      42.581  29.654  28.456  1.00  0.00     0.049 A 
ATOM     46  N   UNL A   1      43.313  26.837  27.681  1.00  0.00    -0.248 NA
ATOM     47  C   UNL A   1      41.077  26.228  27.952  1.00  0.00     0.031 C 
ATOM     48  C   UNL A   1      42.288  31.028  28.872  1.00  0.00     0.029 A 
ATOM     49  N   UNL A   1      43.927  29.671  28.186  1.00  0.00    -0.354 N 
ATOM     50  C   UNL A   1      43.172  25.478  27.428  1.00  0.00     0.074 A 
ATOM     51  C   UNL A   1      41.785  25.145  27.672  1.00  0.00     0.031 C 
ATOM     52  C   UNL A   1      43.413  31.757  28.806  1.00  0.00     0.029 A 
ATOM     53  C   UNL A   1      44.516  30.898  28.385  1.00  0.00     0.049 A 
ATOM     54  H   UNL A   1      44.424  28.878  27.880  1.00  0.00     0.167 HD
ATOM     55  C   UNL A   1      44.107  24.593  27.007  1.00  0.00     0.037 A 
ATOM     56  C   UNL A   1      45.799  31.286  28.252  1.00  0.00     0.037 A 
ATOM     57  C   UNL A   1      45.482  24.937  26.748  1.00  0.00     0.049 A 
ATOM     58  C   UNL A   1      46.823  30.280  27.797  1.00  0.00     0.074 A 
ATOM     59  C   UNL A   1      46.496  24.126  26.269  1.00  0.00     0.029 A 
ATOM     60  N   UNL A   1      46.038  26.193  26.950  1.00  0.00    -0.354 N 
ATOM     61  N   UNL A   1      46.659  29.012  27.503  1.00  0.00    -0.248 NA
ATOM     62  C   UNL A   1      48.204  30.758  27.652  1.00  0.00     0.031 C 
ATOM     63  C   UNL A   1      47.675  24.877  26.230  1.00  0.00     0.029 A 
ATOM     64  C   UNL A   1      47.385  26.173  26.629  1.00  0.00     0.049 A 
ATOM     65  H   UNL A   1      45.546  26.983  27.275  1.00  0.00     0.167 HD
ATOM     66  C   UNL A   1      47.910  28.549  27.107  1.00  0.00     0.074 A 
ATOM     67  C   UNL A   1      48.816  29.677  27.189  1.00  0.00     0.031 C 
ATOM     68  C   UNL A   1      48.274  27.305  26.709  1.00  0.00     0.037 A 
BRANCH  55  69
ATOM     69  C   UNL A   1      43.676  23.165  26.798  1.00  0.00     0.058 A 
ATOM     70  C   UNL A   1      43.355  22.325  27.877  1.00  0.00     0.135 A 
ATOM     71  C   UNL A   1      43.541  22.643  25.501  1.00  0.00     0.135 A 
ATOM     72  F   UNL A   1      43.479  22.767  29.139  1.00  0.00    -0.206 F 
ATOM     73  C   UNL A   1      42.945  21.011  27.679  1.00  0.00     0.059 A 
ATOM     74  C   UNL A   1      43.103  21.339  25.278  1.00  0.00     0.059 A 
ATOM     75  F   UNL A   1      43.835  23.400  24.432  1.00  0.00    -0.206 F 
ATOM     76  C   UNL A   1      42.821  20.527  26.376  1.00  0.00     0.060 A 
BRANCH  76  77
ATOM     77  S   UNL A   1      42.279  18.822  26.139  1.00  0.00     0.124 S 
ATOM     78  O   UNL A   1      42.476  18.266  27.473  1.00  0.00    -0.237 OA
ATOM     79  O   UNL A   1      40.891  18.991  25.722  1.00  0.00    -0.237 OA
ATOM     80  O   UNL A   1      43.183  18.317  25.110  1.00  0.00    -0.744 OA
ENDBRANCH  76  77
ENDBRANCH  55  69
BRANCH  56  81
ATOM     81  C   UNL A   1      46.184  32.695  28.535  1.00  0.00     0.058 A 
ATOM     82  C   UNL A   1      46.589  33.089  29.818  1.00  0.00     0.135 A 
ATOM     83  C   UNL A   1      46.166  33.673  27.527  1.00  0.00     0.135 A 
ATOM     84  F   UNL A   1      46.618  32.193  30.817  1.00  0.00    -0.206 F 
ATOM     85  C   UNL A   1      46.943  34.404  30.101  1.00  0.00     0.059 A 
ATOM     86  C   UNL A   1      46.543  34.989  27.778  1.00  0.00     0.059 A 
ATOM     87  F   UNL A   1      45.804  33.346  26.277  1.00  0.00    -0.206 F 
ATOM     88  C   UNL A   1      46.919  35.348  29.072  1.00  0.00     0.060 A 
BRANCH  88  89
ATOM     89  S   UNL A   1      47.421  37.043  29.439  1.00  0.00     0.124 S 
ATOM     90  O   UNL A   1      47.404  37.045  30.897  1.00  0.00    -0.237 OA
ATOM     91  O   UNL A   1      48.739  37.113  28.815  1.00  0.00    -0.237 OA
ATOM     92  O   UNL A   1      46.387  37.847  28.794  1.00  0.00    -0.744 OA
ENDBRANCH  88  89
ENDBRANCH  56  81
BRANCH  68  93
ATOM     93  C   UNL A   1      49.705  27.100  26.293  1.00  0.00     0.058 A 
ATOM     94  C   UNL A   1      50.125  27.278  24.966  1.00  0.00     0.135 A 
ATOM     95  C   UNL A   1      50.680  26.772  27.250  1.00  0.00     0.135 A 
ATOM     96  F   UNL A   1      49.234  27.585  24.010  1.00  0.00    -0.206 F 
ATOM     97  C   UNL A   1      51.456  27.114  24.596  1.00  0.00     0.059 A 
ATOM     98  C   UNL A   1      52.022  26.634  26.909  1.00  0.00     0.059 A 
ATOM     99  F   UNL A   1      50.336  26.600  28.536  1.00  0.00    -0.206 F 
ATOM    100  C   UNL A   1      52.399  26.795  25.577  1.00  0.00     0.060 A 
BRANCH 100 101
ATOM    101  S   UNL A   1      54.128  26.622  25.089  1.00  0.00     0.124 S 
ATOM    102  O   UNL A   1      54.648  25.767  26.151  1.00  0.00    -0.237 OA
ATOM    103  O   UNL A   1      54.021  26.002  23.773  1.00  0.00    -0.237 OA
ATOM    104  O   UNL A   1      54.622  27.995  25.091  1.00  0.00    -0.744 OA
ENDBRANCH 100 101
ENDBRANCH  68  93
ENDBRANCH  42  43
ENDBRANCH  34  37
ENDBRANCH  32  33
ENDBRANCH  31  32
ENDBRANCH  30  31
ENDBRANCH   1  30
TORSDOF 21
ENDMDL
