MODEL 1
REMARK VINA RESULT:     -11.1      0.000      0.000
REMARK SMILES CC[C@](C)(NC(=O)N(C)[C@@H](C)c1ccccc1F)C(=O)NCCCCCCNC(=O)c1ccc(-c2c3nc(c(-c4c(F)cc(S(=O)(=O)[O-])cc4F)c4ccc([nH]4)c(-c4c(F)cc(S(=O)(=O)[O-])cc4F)c4nc(c(-c5c(F)cc(S(=O)(=O)[O-])cc5F)c5ccc2[nH]5)C=C4)C=C3)cc1
REMARK SMILES IDX 24 1 23 2 22 3 21 4 19 5 20 6 3 8 4 9 2 10 1 11 5 12 6 13
REMARK SMILES IDX 7 15 8 16 9 17 10 18 11 19 12 20 13 21 17 22 14 23 16 24
REMARK SMILES IDX 18 25 15 26 25 27 26 28 27 29 28 30 29 31 30 33 31 34 32 35
REMARK SMILES IDX 96 36 33 37 95 38 34 39 35 40 36 41 89 42 37 43 94 44 88 45
REMARK SMILES IDX 90 46 38 47 93 48 87 49 86 50 39 52 73 53 52 54 72 55 53 56
REMARK SMILES IDX 56 57 71 58 91 59 54 60 55 61 70 63 92 64 57 65 40 66 41 67
REMARK SMILES IDX 50 68 42 69 43 70 49 71 51 72 44 73 45 74 46 75 47 76 48 77
REMARK SMILES IDX 74 78 75 79 84 80 76 81 77 82 83 83 85 84 78 85 79 86 80 87
REMARK SMILES IDX 81 88 82 89 58 90 59 91 68 92 60 93 61 94 67 95 69 96 62 97
REMARK SMILES IDX 63 98 64 99 65 100 66 101
REMARK H PARENT 21 7 5 14 28 32 90 51 56 62
REMARK Flexibility Score: inf
ROOT
ATOM      1  C   UNL A   1      37.100  22.431  24.893  1.00  0.00     0.002 C 
ENDROOT
BRANCH   1   2
ATOM      2  C   UNL A   1      36.249  23.172  23.859  1.00  0.00     0.021 C 
BRANCH   2   3
ATOM      3  C   UNL A   1      35.435  24.333  24.399  1.00  0.00     0.116 C 
BRANCH   3   4
ATOM      4  N   UNL A   1      34.323  23.885  25.214  1.00  0.00    -0.354 N 
ATOM      5  C   UNL A   1      33.030  23.585  24.907  1.00  0.00     0.245 C 
ATOM      6  O   UNL A   1      32.335  23.187  25.851  1.00  0.00    -0.272 OA
ATOM      7  H   UNL A   1      34.544  23.779  26.167  1.00  0.00     0.163 HD
BRANCH   5   8
ATOM      8  C   UNL A   1      32.473  23.597  23.448  1.00  0.00     0.117 C 
ATOM      9  C   UNL A   1      30.927  23.601  23.433  1.00  0.00     0.045 C 
BRANCH   8  10
ATOM     10  C   UNL A   1      32.903  22.244  22.765  1.00  0.00     0.035 C 
ATOM     11  C   UNL A   1      32.711  20.978  23.601  1.00  0.00     0.007 C 
ENDBRANCH   8  10
BRANCH   8  12
ATOM     12  N   UNL A   1      32.959  24.714  22.584  1.00  0.00    -0.324 N 
ATOM     13  C   UNL A   1      32.911  26.061  22.494  1.00  0.00     0.318 C 
ATOM     14  H   UNL A   1      33.485  24.349  21.836  1.00  0.00     0.166 HD
ATOM     15  O   UNL A   1      33.222  26.494  21.379  1.00  0.00    -0.249 OA
BRANCH  13  16
ATOM     16  N   UNL A   1      32.693  26.900  23.551  1.00  0.00    -0.321 N 
ATOM     17  C   UNL A   1      33.680  27.745  24.202  1.00  0.00     0.149 C 
BRANCH  16  18
ATOM     18  C   UNL A   1      31.322  27.008  24.131  1.00  0.00     0.117 C 
ATOM     19  C   UNL A   1      31.319  27.262  25.656  1.00  0.00     0.036 C 
BRANCH  18  20
ATOM     20  C   UNL A   1      30.338  27.904  23.373  1.00  0.00     0.010 A 
ATOM     21  C   UNL A   1      30.799  29.058  22.700  1.00  0.00     0.009 A 
ATOM     22  C   UNL A   1      28.952  27.709  23.401  1.00  0.00     0.128 A 
ATOM     23  C   UNL A   1      29.923  29.944  22.067  1.00  0.00     0.001 A 
ATOM     24  C   UNL A   1      28.072  28.594  22.773  1.00  0.00     0.039 A 
ATOM     25  F   UNL A   1      28.405  26.679  24.062  1.00  0.00    -0.207 F 
ATOM     26  C   UNL A   1      28.556  29.712  22.102  1.00  0.00     0.003 A 
ENDBRANCH  18  20
ENDBRANCH  16  18
ENDBRANCH  13  16
ENDBRANCH   8  12
ENDBRANCH   5   8
ENDBRANCH   3   4
ENDBRANCH   2   3
ENDBRANCH   1   2
BRANCH   1  27
ATOM     27  C   UNL A   1      36.759  20.950  25.049  1.00  0.00     0.002 C 
BRANCH  27  28
ATOM     28  C   UNL A   1      37.961  20.008  24.987  1.00  0.00     0.021 C 
BRANCH  28  29
ATOM     29  C   UNL A   1      39.158  20.444  25.828  1.00  0.00     0.116 C 
BRANCH  29  30
ATOM     30  N   UNL A   1      40.116  19.365  26.003  1.00  0.00    -0.352 N 
ATOM     31  C   UNL A   1      41.477  19.448  26.153  1.00  0.00     0.251 C 
ATOM     32  H   UNL A   1      39.740  18.456  26.015  1.00  0.00     0.163 HD
ATOM     33  O   UNL A   1      42.173  18.438  26.054  1.00  0.00    -0.269 OA
BRANCH  31  34
ATOM     34  C   UNL A   1      42.103  20.760  26.418  1.00  0.00     0.039 A 
ATOM     35  C   UNL A   1      42.581  21.517  25.346  1.00  0.00     0.014 A 
ATOM     36  C   UNL A   1      42.220  21.239  27.727  1.00  0.00     0.014 A 
ATOM     37  C   UNL A   1      43.137  22.777  25.585  1.00  0.00     0.010 A 
ATOM     38  C   UNL A   1      42.716  22.521  27.956  1.00  0.00     0.010 A 
ATOM     39  C   UNL A   1      43.189  23.298  26.888  1.00  0.00    -0.014 A 
BRANCH  39  40
ATOM     40  C   UNL A   1      43.766  24.642  27.158  1.00  0.00     0.031 A 
ATOM     41  C   UNL A   1      42.869  25.757  27.629  1.00  0.00     0.074 A 
ATOM     42  C   UNL A   1      45.078  24.870  26.949  1.00  0.00     0.049 A 
ATOM     43  N   UNL A   1      43.161  27.014  27.844  1.00  0.00    -0.248 NA
ATOM     44  C   UNL A   1      41.456  25.422  27.872  1.00  0.00     0.031 C 
ATOM     45  C   UNL A   1      46.044  23.877  26.473  1.00  0.00     0.029 A 
ATOM     46  N   UNL A   1      45.827  26.009  27.108  1.00  0.00    -0.354 N 
ATOM     47  C   UNL A   1      41.972  27.618  28.237  1.00  0.00     0.074 A 
ATOM     48  C   UNL A   1      40.943  26.603  28.185  1.00  0.00     0.031 C 
ATOM     49  C   UNL A   1      47.261  24.444  26.406  1.00  0.00     0.029 A 
ATOM     50  C   UNL A   1      47.157  25.847  26.796  1.00  0.00     0.049 A 
ATOM     51  H   UNL A   1      45.447  26.863  27.418  1.00  0.00     0.167 HD
ATOM     52  C   UNL A   1      41.764  28.894  28.637  1.00  0.00     0.037 A 
ATOM     53  C   UNL A   1      48.176  26.730  26.818  1.00  0.00     0.037 A 
ATOM     54  C   UNL A   1      42.798  29.892  28.725  1.00  0.00     0.049 A 
ATOM     55  C   UNL A   1      47.910  28.147  27.252  1.00  0.00     0.074 A 
ATOM     56  C   UNL A   1      42.686  31.207  29.142  1.00  0.00     0.029 A 
ATOM     57  N   UNL A   1      44.131  29.683  28.410  1.00  0.00    -0.354 N 
ATOM     58  N   UNL A   1      46.783  28.693  27.639  1.00  0.00    -0.248 NA
ATOM     59  C   UNL A   1      49.056  29.070  27.256  1.00  0.00     0.031 C 
ATOM     60  C   UNL A   1      43.947  31.802  29.053  1.00  0.00     0.029 A 
ATOM     61  C   UNL A   1      44.852  30.846  28.622  1.00  0.00     0.049 A 
ATOM     62  H   UNL A   1      44.510  28.835  28.085  1.00  0.00     0.167 HD
ATOM     63  C   UNL A   1      47.090  30.010  27.968  1.00  0.00     0.074 A 
ATOM     64  C   UNL A   1      48.510  30.178  27.738  1.00  0.00     0.031 C 
ATOM     65  C   UNL A   1      46.271  30.989  28.419  1.00  0.00     0.037 A 
BRANCH  52  66
ATOM     66  C   UNL A   1      40.375  29.292  29.045  1.00  0.00     0.058 A 
ATOM     67  C   UNL A   1      39.406  29.609  28.081  1.00  0.00     0.135 A 
ATOM     68  C   UNL A   1      40.035  29.460  30.397  1.00  0.00     0.135 A 
ATOM     69  F   UNL A   1      39.676  29.457  26.774  1.00  0.00    -0.206 F 
ATOM     70  C   UNL A   1      38.160  30.112  28.441  1.00  0.00     0.059 A 
ATOM     71  C   UNL A   1      38.787  29.939  30.781  1.00  0.00     0.059 A 
ATOM     72  F   UNL A   1      40.917  29.147  31.359  1.00  0.00    -0.206 F 
ATOM     73  C   UNL A   1      37.863  30.283  29.794  1.00  0.00     0.060 A 
BRANCH  73  74
ATOM     74  S   UNL A   1      36.248  30.952  30.245  1.00  0.00     0.124 S 
ATOM     75  O   UNL A   1      36.560  32.358  30.473  1.00  0.00    -0.237 OA
ATOM     76  O   UNL A   1      35.454  30.659  29.056  1.00  0.00    -0.237 OA
ATOM     77  O   UNL A   1      35.884  30.186  31.434  1.00  0.00    -0.744 OA
ENDBRANCH  73  74
ENDBRANCH  52  66
BRANCH  53  78
ATOM     78  C   UNL A   1      49.550  26.300  26.445  1.00  0.00     0.058 A 
ATOM     79  C   UNL A   1      50.413  25.712  27.382  1.00  0.00     0.135 A 
ATOM     80  C   UNL A   1      50.020  26.456  25.131  1.00  0.00     0.135 A 
ATOM     81  F   UNL A   1      50.018  25.549  28.653  1.00  0.00    -0.206 F 
ATOM     82  C   UNL A   1      51.694  25.298  27.032  1.00  0.00     0.059 A 
ATOM     83  C   UNL A   1      51.288  26.026  24.751  1.00  0.00     0.059 A 
ATOM     84  F   UNL A   1      49.227  27.004  24.198  1.00  0.00    -0.206 F 
ATOM     85  C   UNL A   1      52.122  25.457  25.712  1.00  0.00     0.060 A 
BRANCH  85  86
ATOM     86  S   UNL A   1      53.775  24.879  25.269  1.00  0.00     0.124 S 
ATOM     87  O   UNL A   1      53.536  23.456  25.049  1.00  0.00    -0.237 OA
ATOM     88  O   UNL A   1      54.065  25.666  24.075  1.00  0.00    -0.237 OA
ATOM     89  O   UNL A   1      54.573  25.210  26.445  1.00  0.00    -0.744 OA
ENDBRANCH  85  86
ENDBRANCH  53  78
BRANCH  65  90
ATOM     90  C   UNL A   1      46.882  32.322  28.749  1.00  0.00     0.058 A 
ATOM     91  C   UNL A   1      47.027  33.298  27.751  1.00  0.00     0.135 A 
ATOM     92  C   UNL A   1      47.401  32.599  30.022  1.00  0.00     0.135 A 
ATOM     93  F   UNL A   1      46.551  33.079  26.514  1.00  0.00    -0.206 F 
ATOM     94  C   UNL A   1      47.684  34.497  27.997  1.00  0.00     0.059 A 
ATOM     95  C   UNL A   1      48.042  33.804  30.298  1.00  0.00     0.059 A 
ATOM     96  F   UNL A   1      47.278  31.701  31.012  1.00  0.00    -0.206 F 
ATOM     97  C   UNL A   1      48.194  34.739  29.274  1.00  0.00     0.060 A 
BRANCH  97  98
ATOM     98  S   UNL A   1      49.043  36.303  29.580  1.00  0.00     0.124 S 
ATOM     99  O   UNL A   1      50.356  36.049  28.996  1.00  0.00    -0.237 OA
ATOM    100  O   UNL A   1      48.203  37.257  28.862  1.00  0.00    -0.237 OA
ATOM    101  O   UNL A   1      49.014  36.425  31.034  1.00  0.00    -0.744 OA
ENDBRANCH  97  98
ENDBRANCH  65  90
ENDBRANCH  39  40
ENDBRANCH  31  34
ENDBRANCH  29  30
ENDBRANCH  28  29
ENDBRANCH  27  28
ENDBRANCH   1  27
TORSDOF 21
ENDMDL
MODEL 2
REMARK VINA RESULT:     -11.0      6.136      8.647
REMARK SMILES CC[C@](C)(NC(=O)N(C)[C@@H](C)c1ccccc1F)C(=O)NCCCCCCNC(=O)c1ccc(-c2c3nc(c(-c4c(F)cc(S(=O)(=O)[O-])cc4F)c4ccc([nH]4)c(-c4c(F)cc(S(=O)(=O)[O-])cc4F)c4nc(c(-c5c(F)cc(S(=O)(=O)[O-])cc5F)c5ccc2[nH]5)C=C4)C=C3)cc1
REMARK SMILES IDX 24 1 23 2 22 3 21 4 19 5 20 6 3 8 4 9 2 10 1 11 5 12 6 13
REMARK SMILES IDX 7 15 8 16 9 17 10 18 11 19 12 20 13 21 17 22 14 23 16 24
REMARK SMILES IDX 18 25 15 26 25 27 26 28 27 29 28 30 29 31 30 33 31 34 32 35
REMARK SMILES IDX 96 36 33 37 95 38 34 39 35 40 36 41 89 42 37 43 94 44 88 45
REMARK SMILES IDX 90 46 38 47 93 48 87 49 86 50 39 52 73 53 52 54 72 55 53 56
REMARK SMILES IDX 56 57 71 58 91 59 54 60 55 61 70 63 92 64 57 65 40 66 41 67
REMARK SMILES IDX 50 68 42 69 43 70 49 71 51 72 44 73 45 74 46 75 47 76 48 77
REMARK SMILES IDX 74 78 75 79 84 80 76 81 77 82 83 83 85 84 78 85 79 86 80 87
REMARK SMILES IDX 81 88 82 89 58 90 59 91 68 92 60 93 61 94 67 95 69 96 62 97
REMARK SMILES IDX 63 98 64 99 65 100 66 101
REMARK H PARENT 21 7 5 14 28 32 90 51 56 62
REMARK Flexibility Score: inf
ROOT
ATOM      1  C   UNL A   1      36.588  22.310  24.135  1.00  0.00     0.002 C 
ENDROOT
BRANCH   1   2
ATOM      2  C   UNL A   1      35.374  21.433  24.449  1.00  0.00     0.021 C 
BRANCH   2   3
ATOM      3  C   UNL A   1      34.025  22.112  24.302  1.00  0.00     0.116 C 
BRANCH   3   4
ATOM      4  N   UNL A   1      34.030  23.111  23.252  1.00  0.00    -0.354 N 
ATOM      5  C   UNL A   1      33.382  24.302  23.124  1.00  0.00     0.245 C 
ATOM      6  O   UNL A   1      33.642  24.944  22.097  1.00  0.00    -0.272 OA
ATOM      7  H   UNL A   1      34.611  22.886  22.490  1.00  0.00     0.163 HD
BRANCH   5   8
ATOM      8  C   UNL A   1      32.476  24.907  24.242  1.00  0.00     0.117 C 
ATOM      9  C   UNL A   1      33.316  25.430  25.431  1.00  0.00     0.045 C 
BRANCH   8  10
ATOM     10  C   UNL A   1      31.596  23.736  24.825  1.00  0.00     0.035 C 
ATOM     11  C   UNL A   1      31.409  23.728  26.342  1.00  0.00     0.007 C 
ENDBRANCH   8  10
BRANCH   8  12
ATOM     12  N   UNL A   1      31.549  25.992  23.803  1.00  0.00    -0.324 N 
ATOM     13  C   UNL A   1      31.253  27.283  24.069  1.00  0.00     0.318 C 
ATOM     14  H   UNL A   1      30.964  25.658  23.085  1.00  0.00     0.166 HD
ATOM     15  O   UNL A   1      30.154  27.640  23.629  1.00  0.00    -0.249 OA
BRANCH  13  16
ATOM     16  N   UNL A   1      32.121  28.176  24.633  1.00  0.00    -0.321 N 
ATOM     17  C   UNL A   1      33.294  28.756  24.004  1.00  0.00     0.149 C 
BRANCH  16  18
ATOM     18  C   UNL A   1      31.883  28.647  26.030  1.00  0.00     0.117 C 
ATOM     19  C   UNL A   1      31.306  27.551  26.956  1.00  0.00     0.036 C 
BRANCH  18  20
ATOM     20  C   UNL A   1      33.023  29.438  26.678  1.00  0.00     0.010 A 
ATOM     21  C   UNL A   1      34.230  28.793  27.027  1.00  0.00     0.009 A 
ATOM     22  C   UNL A   1      32.897  30.779  27.061  1.00  0.00     0.128 A 
ATOM     23  C   UNL A   1      35.261  29.462  27.693  1.00  0.00     0.001 A 
ATOM     24  C   UNL A   1      33.923  31.452  27.731  1.00  0.00     0.039 A 
ATOM     25  F   UNL A   1      31.771  31.469  26.832  1.00  0.00    -0.207 F 
ATOM     26  C   UNL A   1      35.109  30.795  28.044  1.00  0.00     0.003 A 
ENDBRANCH  18  20
ENDBRANCH  16  18
ENDBRANCH  13  16
ENDBRANCH   8  12
ENDBRANCH   5   8
ENDBRANCH   3   4
ENDBRANCH   2   3
ENDBRANCH   1   2
BRANCH   1  27
ATOM     27  C   UNL A   1      37.638  22.359  25.242  1.00  0.00     0.002 C 
BRANCH  27  28
ATOM     28  C   UNL A   1      37.833  23.737  25.877  1.00  0.00     0.021 C 
BRANCH  28  29
ATOM     29  C   UNL A   1      39.023  23.840  26.826  1.00  0.00     0.116 C 
BRANCH  29  30
ATOM     30  N   UNL A   1      40.262  24.100  26.111  1.00  0.00    -0.352 N 
ATOM     31  C   UNL A   1      41.106  25.175  26.229  1.00  0.00     0.251 C 
ATOM     32  H   UNL A   1      40.530  23.416  25.456  1.00  0.00     0.163 HD
ATOM     33  O   UNL A   1      41.987  25.364  25.391  1.00  0.00    -0.269 OA
BRANCH  31  34
ATOM     34  C   UNL A   1      40.942  26.111  27.360  1.00  0.00     0.039 A 
ATOM     35  C   UNL A   1      39.984  25.838  28.339  1.00  0.00     0.014 A 
ATOM     36  C   UNL A   1      41.734  27.261  27.450  1.00  0.00     0.014 A 
ATOM     37  C   UNL A   1      39.851  26.696  29.434  1.00  0.00     0.010 A 
ATOM     38  C   UNL A   1      41.644  28.080  28.574  1.00  0.00     0.010 A 
ATOM     39  C   UNL A   1      40.694  27.812  29.572  1.00  0.00    -0.014 A 
BRANCH  39  40
ATOM     40  C   UNL A   1      40.575  28.728  30.737  1.00  0.00     0.031 A 
ATOM     41  C   UNL A   1      39.541  29.824  30.722  1.00  0.00     0.074 A 
ATOM     42  C   UNL A   1      41.412  28.600  31.786  1.00  0.00     0.049 A 
ATOM     43  N   UNL A   1      39.331  30.770  31.600  1.00  0.00    -0.248 NA
ATOM     44  C   UNL A   1      38.639  29.875  29.559  1.00  0.00     0.031 C 
ATOM     45  C   UNL A   1      42.469  27.594  31.908  1.00  0.00     0.029 A 
ATOM     46  N   UNL A   1      41.508  29.322  32.950  1.00  0.00    -0.354 N 
ATOM     47  C   UNL A   1      38.283  31.530  31.095  1.00  0.00     0.074 A 
ATOM     48  C   UNL A   1      37.930  30.967  29.810  1.00  0.00     0.031 C 
ATOM     49  C   UNL A   1      43.087  27.746  33.092  1.00  0.00     0.029 A 
ATOM     50  C   UNL A   1      42.499  28.881  33.796  1.00  0.00     0.049 A 
ATOM     51  H   UNL A   1      40.922  30.085  33.159  1.00  0.00     0.167 HD
ATOM     52  C   UNL A   1      37.650  32.582  31.664  1.00  0.00     0.037 A 
ATOM     53  C   UNL A   1      42.890  29.342  35.002  1.00  0.00     0.037 A 
ATOM     54  C   UNL A   1      37.977  33.116  32.960  1.00  0.00     0.049 A 
ATOM     55  C   UNL A   1      42.178  30.523  35.603  1.00  0.00     0.074 A 
ATOM     56  C   UNL A   1      37.375  34.167  33.632  1.00  0.00     0.029 A 
ATOM     57  N   UNL A   1      38.978  32.633  33.788  1.00  0.00    -0.354 N 
ATOM     58  N   UNL A   1      41.175  31.215  35.118  1.00  0.00    -0.248 NA
ATOM     59  C   UNL A   1      42.646  30.987  36.919  1.00  0.00     0.031 C 
ATOM     60  C   UNL A   1      38.030  34.337  34.853  1.00  0.00     0.029 A 
ATOM     61  C   UNL A   1      39.011  33.366  34.962  1.00  0.00     0.049 A 
ATOM     62  H   UNL A   1      39.576  31.881  33.574  1.00  0.00     0.167 HD
ATOM     63  C   UNL A   1      40.869  32.170  36.083  1.00  0.00     0.074 A 
ATOM     64  C   UNL A   1      41.789  31.965  37.182  1.00  0.00     0.031 C 
ATOM     65  C   UNL A   1      39.913  33.128  36.060  1.00  0.00     0.037 A 
BRANCH  52  66
ATOM     66  C   UNL A   1      36.513  33.216  30.916  1.00  0.00     0.058 A 
ATOM     67  C   UNL A   1      36.756  34.066  29.825  1.00  0.00     0.135 A 
ATOM     68  C   UNL A   1      35.185  33.064  31.346  1.00  0.00     0.135 A 
ATOM     69  F   UNL A   1      38.006  34.238  29.368  1.00  0.00    -0.206 F 
ATOM     70  C   UNL A   1      35.726  34.770  29.209  1.00  0.00     0.059 A 
ATOM     71  C   UNL A   1      34.136  33.740  30.730  1.00  0.00     0.059 A 
ATOM     72  F   UNL A   1      34.896  32.244  32.369  1.00  0.00    -0.206 F 
ATOM     73  C   UNL A   1      34.421  34.607  29.676  1.00  0.00     0.060 A 
BRANCH  73  74
ATOM     74  S   UNL A   1      33.098  35.540  28.876  1.00  0.00     0.124 S 
ATOM     75  O   UNL A   1      32.363  36.061  30.023  1.00  0.00    -0.237 OA
ATOM     76  O   UNL A   1      33.845  36.523  28.098  1.00  0.00    -0.237 OA
ATOM     77  O   UNL A   1      32.400  34.529  28.087  1.00  0.00    -0.744 OA
ENDBRANCH  73  74
ENDBRANCH  52  66
BRANCH  53  78
ATOM     78  C   UNL A   1      43.994  28.671  35.739  1.00  0.00     0.058 A 
ATOM     79  C   UNL A   1      45.335  29.039  35.544  1.00  0.00     0.135 A 
ATOM     80  C   UNL A   1      43.725  27.654  36.669  1.00  0.00     0.135 A 
ATOM     81  F   UNL A   1      45.649  29.996  34.659  1.00  0.00    -0.206 F 
ATOM     82  C   UNL A   1      46.368  28.421  36.240  1.00  0.00     0.059 A 
ATOM     83  C   UNL A   1      44.740  27.040  37.397  1.00  0.00     0.059 A 
ATOM     84  F   UNL A   1      42.459  27.276  36.897  1.00  0.00    -0.206 F 
ATOM     85  C   UNL A   1      46.060  27.424  37.168  1.00  0.00     0.060 A 
BRANCH  85  86
ATOM     86  S   UNL A   1      47.412  26.660  38.089  1.00  0.00     0.124 S 
ATOM     87  O   UNL A   1      48.293  27.803  38.313  1.00  0.00    -0.237 OA
ATOM     88  O   UNL A   1      46.727  26.146  39.270  1.00  0.00    -0.237 OA
ATOM     89  O   UNL A   1      47.917  25.647  37.168  1.00  0.00    -0.744 OA
ENDBRANCH  85  86
ENDBRANCH  53  78
BRANCH  65  90
ATOM     90  C   UNL A   1      39.764  34.003  37.273  1.00  0.00     0.058 A 
ATOM     91  C   UNL A   1      39.025  33.556  38.380  1.00  0.00     0.135 A 
ATOM     92  C   UNL A   1      40.274  35.309  37.307  1.00  0.00     0.135 A 
ATOM     93  F   UNL A   1      38.512  32.315  38.395  1.00  0.00    -0.206 F 
ATOM     94  C   UNL A   1      38.779  34.381  39.471  1.00  0.00     0.059 A 
ATOM     95  C   UNL A   1      40.060  36.145  38.400  1.00  0.00     0.059 A 
ATOM     96  F   UNL A   1      40.995  35.780  36.277  1.00  0.00    -0.206 F 
ATOM     97  C   UNL A   1      39.296  35.678  39.470  1.00  0.00     0.060 A 
BRANCH  97  98
ATOM     98  S   UNL A   1      38.971  36.736  40.895  1.00  0.00     0.124 S 
ATOM     99  O   UNL A   1      38.037  35.922  41.665  1.00  0.00    -0.237 OA
ATOM    100  O   UNL A   1      40.302  36.895  41.473  1.00  0.00    -0.237 OA
ATOM    101  O   UNL A   1      38.408  37.943  40.298  1.00  0.00    -0.744 OA
ENDBRANCH  97  98
ENDBRANCH  65  90
ENDBRANCH  39  40
ENDBRANCH  31  34
ENDBRANCH  29  30
ENDBRANCH  28  29
ENDBRANCH  27  28
ENDBRANCH   1  27
TORSDOF 21
ENDMDL
MODEL 3
REMARK VINA RESULT:     -11.0      5.830     10.814
REMARK SMILES CC[C@](C)(NC(=O)N(C)[C@@H](C)c1ccccc1F)C(=O)NCCCCCCNC(=O)c1ccc(-c2c3nc(c(-c4c(F)cc(S(=O)(=O)[O-])cc4F)c4ccc([nH]4)c(-c4c(F)cc(S(=O)(=O)[O-])cc4F)c4nc(c(-c5c(F)cc(S(=O)(=O)[O-])cc5F)c5ccc2[nH]5)C=C4)C=C3)cc1
REMARK SMILES IDX 24 1 23 2 22 3 21 4 19 5 20 6 3 8 4 9 2 10 1 11 5 12 6 13
REMARK SMILES IDX 7 15 8 16 9 17 10 18 11 19 12 20 13 21 17 22 14 23 16 24
REMARK SMILES IDX 18 25 15 26 25 27 26 28 27 29 28 30 29 31 30 33 31 34 32 35
REMARK SMILES IDX 96 36 33 37 95 38 34 39 35 40 36 41 89 42 37 43 94 44 88 45
REMARK SMILES IDX 90 46 38 47 93 48 87 49 86 50 39 52 73 53 52 54 72 55 53 56
REMARK SMILES IDX 56 57 71 58 91 59 54 60 55 61 70 63 92 64 57 65 40 66 41 67
REMARK SMILES IDX 50 68 42 69 43 70 49 71 51 72 44 73 45 74 46 75 47 76 48 77
REMARK SMILES IDX 74 78 75 79 84 80 76 81 77 82 83 83 85 84 78 85 79 86 80 87
REMARK SMILES IDX 81 88 82 89 58 90 59 91 68 92 60 93 61 94 67 95 69 96 62 97
REMARK SMILES IDX 63 98 64 99 65 100 66 101
REMARK H PARENT 21 7 5 14 28 32 90 51 56 62
REMARK Flexibility Score: inf
ROOT
ATOM      1  C   UNL A   1      39.569  22.538  26.461  1.00  0.00     0.002 C 
ENDROOT
BRANCH   1   2
ATOM      2  C   UNL A   1      38.755  23.834  26.497  1.00  0.00     0.021 C 
BRANCH   2   3
ATOM      3  C   UNL A   1      37.323  23.717  26.008  1.00  0.00     0.116 C 
BRANCH   3   4
ATOM      4  N   UNL A   1      37.254  23.405  24.594  1.00  0.00    -0.354 N 
ATOM      5  C   UNL A   1      36.201  23.268  23.741  1.00  0.00     0.245 C 
ATOM      6  O   UNL A   1      36.496  23.030  22.562  1.00  0.00    -0.272 OA
ATOM      7  H   UNL A   1      38.133  23.267  24.172  1.00  0.00     0.163 HD
BRANCH   5   8
ATOM      8  C   UNL A   1      34.720  23.524  24.164  1.00  0.00     0.117 C 
ATOM      9  C   UNL A   1      33.728  22.908  23.151  1.00  0.00     0.045 C 
BRANCH   8  10
ATOM     10  C   UNL A   1      34.474  25.080  24.109  1.00  0.00     0.035 C 
ATOM     11  C   UNL A   1      33.914  25.625  22.796  1.00  0.00     0.007 C 
ENDBRANCH   8  10
BRANCH   8  12
ATOM     12  N   UNL A   1      34.352  23.057  25.534  1.00  0.00    -0.324 N 
ATOM     13  C   UNL A   1      33.283  22.623  26.236  1.00  0.00     0.318 C 
ATOM     14  H   UNL A   1      35.148  23.069  26.113  1.00  0.00     0.166 HD
ATOM     15  O   UNL A   1      33.446  22.663  27.461  1.00  0.00    -0.249 OA
BRANCH  13  16
ATOM     16  N   UNL A   1      32.173  22.049  25.681  1.00  0.00    -0.321 N 
ATOM     17  C   UNL A   1      32.096  20.736  25.064  1.00  0.00     0.149 C 
BRANCH  16  18
ATOM     18  C   UNL A   1      30.879  22.795  25.690  1.00  0.00     0.117 C 
ATOM     19  C   UNL A   1      30.052  22.571  26.978  1.00  0.00     0.036 C 
BRANCH  18  20
ATOM     20  C   UNL A   1      30.946  24.266  25.270  1.00  0.00     0.010 A 
ATOM     21  C   UNL A   1      31.328  25.256  26.203  1.00  0.00     0.009 A 
ATOM     22  C   UNL A   1      30.531  24.719  24.012  1.00  0.00     0.128 A 
ATOM     23  C   UNL A   1      31.322  26.616  25.881  1.00  0.00     0.001 A 
ATOM     24  C   UNL A   1      30.520  26.078  23.686  1.00  0.00     0.039 A 
ATOM     25  F   UNL A   1      30.093  23.869  23.073  1.00  0.00    -0.207 F 
ATOM     26  C   UNL A   1      30.919  27.029  24.619  1.00  0.00     0.003 A 
ENDBRANCH  18  20
ENDBRANCH  16  18
ENDBRANCH  13  16
ENDBRANCH   8  12
ENDBRANCH   5   8
ENDBRANCH   3   4
ENDBRANCH   2   3
ENDBRANCH   1   2
BRANCH   1  27
ATOM     27  C   UNL A   1      40.431  22.297  27.698  1.00  0.00     0.002 C 
BRANCH  27  28
ATOM     28  C   UNL A   1      41.927  22.155  27.416  1.00  0.00     0.021 C 
BRANCH  28  29
ATOM     29  C   UNL A   1      42.727  23.447  27.551  1.00  0.00     0.116 C 
BRANCH  29  30
ATOM     30  N   UNL A   1      42.785  24.178  26.296  1.00  0.00    -0.352 N 
ATOM     31  C   UNL A   1      42.380  25.463  26.037  1.00  0.00     0.251 C 
ATOM     32  H   UNL A   1      43.164  23.688  25.531  1.00  0.00     0.163 HD
ATOM     33  O   UNL A   1      42.277  25.858  24.876  1.00  0.00    -0.269 OA
BRANCH  31  34
ATOM     34  C   UNL A   1      42.053  26.366  27.161  1.00  0.00     0.039 A 
ATOM     35  C   UNL A   1      41.019  26.022  28.034  1.00  0.00     0.014 A 
ATOM     36  C   UNL A   1      42.769  27.553  27.348  1.00  0.00     0.014 A 
ATOM     37  C   UNL A   1      40.731  26.849  29.122  1.00  0.00     0.010 A 
ATOM     38  C   UNL A   1      42.523  28.342  28.470  1.00  0.00     0.010 A 
ATOM     39  C   UNL A   1      41.494  28.004  29.363  1.00  0.00    -0.014 A 
BRANCH  39  40
ATOM     40  C   UNL A   1      41.211  28.888  30.523  1.00  0.00     0.031 A 
ATOM     41  C   UNL A   1      42.061  28.788  31.763  1.00  0.00     0.074 A 
ATOM     42  C   UNL A   1      40.176  29.751  30.479  1.00  0.00     0.049 A 
ATOM     43  N   UNL A   1      41.928  29.411  32.906  1.00  0.00    -0.248 NA
ATOM     44  C   UNL A   1      43.196  27.850  31.721  1.00  0.00     0.031 C 
ATOM     45  C   UNL A   1      39.267  29.925  29.344  1.00  0.00     0.029 A 
ATOM     46  N   UNL A   1      39.713  30.644  31.414  1.00  0.00    -0.354 N 
ATOM     47  C   UNL A   1      42.953  28.938  33.717  1.00  0.00     0.074 A 
ATOM     48  C   UNL A   1      43.671  27.939  32.956  1.00  0.00     0.031 C 
ATOM     49  C   UNL A   1      38.373  30.886  29.640  1.00  0.00     0.029 A 
ATOM     50  C   UNL A   1      38.620  31.368  30.995  1.00  0.00     0.049 A 
ATOM     51  H   UNL A   1      40.124  30.756  32.301  1.00  0.00     0.167 HD
ATOM     52  C   UNL A   1      43.286  29.324  34.971  1.00  0.00     0.037 A 
ATOM     53  C   UNL A   1      37.898  32.312  31.633  1.00  0.00     0.037 A 
ATOM     54  C   UNL A   1      42.594  30.346  35.711  1.00  0.00     0.049 A 
ATOM     55  C   UNL A   1      38.282  32.709  33.033  1.00  0.00     0.074 A 
ATOM     56  C   UNL A   1      42.873  30.822  36.981  1.00  0.00     0.029 A 
ATOM     57  N   UNL A   1      41.502  31.061  35.247  1.00  0.00    -0.354 N 
ATOM     58  N   UNL A   1      39.267  32.264  33.775  1.00  0.00    -0.248 NA
ATOM     59  C   UNL A   1      37.460  33.741  33.684  1.00  0.00     0.031 C 
ATOM     60  C   UNL A   1      41.933  31.806  37.295  1.00  0.00     0.029 A 
ATOM     61  C   UNL A   1      41.095  31.973  36.206  1.00  0.00     0.049 A 
ATOM     62  H   UNL A   1      41.079  30.939  34.366  1.00  0.00     0.167 HD
ATOM     63  C   UNL A   1      39.205  32.986  34.963  1.00  0.00     0.074 A 
ATOM     64  C   UNL A   1      38.090  33.900  34.840  1.00  0.00     0.031 C 
ATOM     65  C   UNL A   1      40.001  32.899  36.055  1.00  0.00     0.037 A 
BRANCH  52  66
ATOM     66  C   UNL A   1      44.470  28.670  35.623  1.00  0.00     0.058 A 
ATOM     67  C   UNL A   1      45.768  29.163  35.416  1.00  0.00     0.135 A 
ATOM     68  C   UNL A   1      44.328  27.490  36.372  1.00  0.00     0.135 A 
ATOM     69  F   UNL A   1      45.958  30.292  34.716  1.00  0.00    -0.206 F 
ATOM     70  C   UNL A   1      46.886  28.490  35.897  1.00  0.00     0.059 A 
ATOM     71  C   UNL A   1      45.430  26.814  36.883  1.00  0.00     0.059 A 
ATOM     72  F   UNL A   1      43.106  26.991  36.620  1.00  0.00    -0.206 F 
ATOM     73  C   UNL A   1      46.707  27.310  36.622  1.00  0.00     0.060 A 
BRANCH  73  74
ATOM     74  S   UNL A   1      48.169  26.440  37.226  1.00  0.00     0.124 S 
ATOM     75  O   UNL A   1      49.206  26.942  36.333  1.00  0.00    -0.237 OA
ATOM     76  O   UNL A   1      48.245  26.895  38.611  1.00  0.00    -0.237 OA
ATOM     77  O   UNL A   1      47.818  25.032  37.058  1.00  0.00    -0.744 OA
ENDBRANCH  73  74
ENDBRANCH  52  66
BRANCH  53  78
ATOM     78  C   UNL A   1      36.753  32.970  30.949  1.00  0.00     0.058 A 
ATOM     79  C   UNL A   1      35.425  32.672  31.292  1.00  0.00     0.135 A 
ATOM     80  C   UNL A   1      36.969  33.927  29.944  1.00  0.00     0.135 A 
ATOM     81  F   UNL A   1      35.162  31.758  32.237  1.00  0.00    -0.206 F 
ATOM     82  C   UNL A   1      34.353  33.295  30.661  1.00  0.00     0.059 A 
ATOM     83  C   UNL A   1      35.913  34.583  29.318  1.00  0.00     0.059 A 
ATOM     84  F   UNL A   1      38.221  34.253  29.590  1.00  0.00    -0.206 F 
ATOM     85  C   UNL A   1      34.608  34.252  29.676  1.00  0.00     0.060 A 
BRANCH  85  86
ATOM     86  S   UNL A   1      33.203  35.077  28.896  1.00  0.00     0.124 S 
ATOM     87  O   UNL A   1      32.748  34.052  27.961  1.00  0.00    -0.237 OA
ATOM     88  O   UNL A   1      32.327  35.331  30.034  1.00  0.00    -0.237 OA
ATOM     89  O   UNL A   1      33.802  36.261  28.290  1.00  0.00    -0.744 OA
ENDBRANCH  85  86
ENDBRANCH  53  78
BRANCH  65  90
ATOM     90  C   UNL A   1      39.741  33.845  37.193  1.00  0.00     0.058 A 
ATOM     91  C   UNL A   1      40.462  35.046  37.292  1.00  0.00     0.135 A 
ATOM     92  C   UNL A   1      38.848  33.527  38.227  1.00  0.00     0.135 A 
ATOM     93  F   UNL A   1      41.332  35.395  36.330  1.00  0.00    -0.206 F 
ATOM     94  C   UNL A   1      40.322  35.890  38.387  1.00  0.00     0.059 A 
ATOM     95  C   UNL A   1      38.674  34.369  39.321  1.00  0.00     0.059 A 
ATOM     96  F   UNL A   1      38.129  32.395  38.173  1.00  0.00    -0.206 F 
ATOM     97  C   UNL A   1      39.428  35.540  39.401  1.00  0.00     0.060 A 
BRANCH  97  98
ATOM     98  S   UNL A   1      39.256  36.648  40.816  1.00  0.00     0.124 S 
ATOM     99  O   UNL A   1      38.512  35.818  41.757  1.00  0.00    -0.237 OA
ATOM    100  O   UNL A   1      40.647  36.918  41.169  1.00  0.00    -0.237 OA
ATOM    101  O   UNL A   1      38.525  37.786  40.266  1.00  0.00    -0.744 OA
ENDBRANCH  97  98
ENDBRANCH  65  90
ENDBRANCH  39  40
ENDBRANCH  31  34
ENDBRANCH  29  30
ENDBRANCH  28  29
ENDBRANCH  27  28
ENDBRANCH   1  27
TORSDOF 21
ENDMDL
