MODEL 1
REMARK VINA RESULT:     -12.3      0.000      0.000
REMARK SMILES O=C(NCCCCCCNC(=O)c1sccc1S(=O)(=O)Nc1ccc(Cn2cncn2)cc1)c1ccc(-c2c3nc(c(-c4c(F)cc(S(=O)(=O)[O-])cc4F)c4ccc([nH]4)c(-c4c(F)cc(S(=O)(=O)[O-])cc4F)c4nc(c(-c5c(F)cc(S(=O)(=O)[O-])cc5F)c5ccc2[nH]5)C=C4)C=C3)cc1
REMARK SMILES IDX 7 1 6 2 5 3 4 4 3 5 1 6 2 7 34 9 35 10 99 11 36 12 98 13
REMARK SMILES IDX 37 14 38 15 39 16 92 17 40 18 97 19 91 20 93 21 41 22 96 23
REMARK SMILES IDX 90 24 89 25 42 27 76 28 55 29 75 30 56 31 59 32 74 33 94 34
REMARK SMILES IDX 57 35 58 36 73 38 95 39 60 40 43 41 44 42 53 43 45 44 46 45
REMARK SMILES IDX 52 46 54 47 47 48 48 49 49 50 50 51 51 52 77 53 78 54 87 55
REMARK SMILES IDX 79 56 80 57 86 58 88 59 81 60 82 61 83 62 84 63 85 64 61 65
REMARK SMILES IDX 62 66 71 67 63 68 64 69 70 70 72 71 65 72 66 73 67 74 68 75
REMARK SMILES IDX 69 76 8 77 9 78 10 79 11 80 12 82 13 83 14 84 17 85 15 86
REMARK SMILES IDX 16 87 18 88 19 89 20 90 21 91 22 93 23 94 33 95 24 96 32 97
REMARK SMILES IDX 25 98 26 99 27 100 28 101 31 102 29 103 30 104
REMARK H PARENT 3 8 93 26 59 37 10 81 21 92
REMARK Flexibility Score: inf
ROOT
ATOM      1  C   UNL A   1      38.244  23.938  26.327  1.00  0.00     0.002 C 
ENDROOT
BRANCH   1   2
ATOM      2  C   UNL A   1      39.471  23.245  26.933  1.00  0.00     0.002 C 
BRANCH   2   3
ATOM      3  C   UNL A   1      39.856  21.895  26.317  1.00  0.00     0.021 C 
BRANCH   3   4
ATOM      4  C   UNL A   1      41.330  21.520  26.459  1.00  0.00     0.116 C 
BRANCH   4   5
ATOM      5  N   UNL A   1      42.167  22.090  25.427  1.00  0.00    -0.352 N 
ATOM      6  O   UNL A   1      43.523  23.362  24.256  1.00  0.00    -0.269 OA
ATOM      7  C   UNL A   1      42.777  23.297  25.238  1.00  0.00     0.251 C 
ATOM      8  H   UNL A   1      42.337  21.462  24.689  1.00  0.00     0.163 HD
BRANCH   7   9
ATOM      9  C   UNL A   1      42.585  24.511  26.081  1.00  0.00     0.039 A 
ATOM     10  C   UNL A   1      43.037  24.688  27.389  1.00  0.00     0.014 A 
ATOM     11  C   UNL A   1      41.852  25.554  25.482  1.00  0.00     0.014 A 
ATOM     12  C   UNL A   1      42.723  25.851  28.094  1.00  0.00     0.010 A 
ATOM     13  C   UNL A   1      41.540  26.718  26.178  1.00  0.00     0.010 A 
ATOM     14  C   UNL A   1      41.953  26.856  27.498  1.00  0.00    -0.014 A 
BRANCH  14  15
ATOM     15  C   UNL A   1      41.727  28.090  28.250  1.00  0.00     0.031 A 
ATOM     16  C   UNL A   1      42.816  29.109  28.129  1.00  0.00     0.074 A 
ATOM     17  C   UNL A   1      40.579  28.390  28.893  1.00  0.00     0.049 A 
ATOM     18  N   UNL A   1      43.575  29.593  29.057  1.00  0.00    -0.248 NA
ATOM     19  C   UNL A   1      43.163  29.570  26.775  1.00  0.00     0.031 C 
ATOM     20  C   UNL A   1      39.304  27.670  28.865  1.00  0.00     0.029 A 
ATOM     21  N   UNL A   1      40.293  29.486  29.652  1.00  0.00    -0.354 N 
ATOM     22  C   UNL A   1      44.373  30.558  28.443  1.00  0.00     0.074 A 
ATOM     23  C   UNL A   1      44.171  30.407  27.024  1.00  0.00     0.031 C 
ATOM     24  C   UNL A   1      38.335  28.455  29.390  1.00  0.00     0.029 A 
ATOM     25  C   UNL A   1      38.941  29.665  29.921  1.00  0.00     0.049 A 
ATOM     26  H   UNL A   1      40.986  30.100  29.983  1.00  0.00     0.167 HD
ATOM     27  C   UNL A   1      45.013  31.535  29.147  1.00  0.00     0.037 A 
ATOM     28  C   UNL A   1      38.361  30.754  30.490  1.00  0.00     0.037 A 
ATOM     29  C   UNL A   1      45.115  31.202  30.542  1.00  0.00     0.049 A 
ATOM     30  C   UNL A   1      39.423  31.487  31.225  1.00  0.00     0.074 A 
ATOM     31  C   UNL A   1      45.709  30.177  31.252  1.00  0.00     0.029 A 
ATOM     32  N   UNL A   1      44.240  31.796  31.419  1.00  0.00    -0.354 N 
ATOM     33  N   UNL A   1      40.036  31.027  32.281  1.00  0.00    -0.248 NA
ATOM     34  C   UNL A   1      40.112  32.559  30.522  1.00  0.00     0.031 C 
ATOM     35  C   UNL A   1      44.803  29.891  32.314  1.00  0.00     0.029 A 
ATOM     36  C   UNL A   1      43.745  30.797  32.220  1.00  0.00     0.049 A 
ATOM     37  H   UNL A   1      44.013  32.752  31.464  1.00  0.00     0.167 HD
ATOM     38  C   UNL A   1      41.351  31.441  32.139  1.00  0.00     0.074 A 
ATOM     39  C   UNL A   1      41.319  32.449  31.081  1.00  0.00     0.031 C 
ATOM     40  C   UNL A   1      42.383  30.745  32.700  1.00  0.00     0.037 A 
BRANCH  27  41
ATOM     41  C   UNL A   1      45.282  32.926  28.625  1.00  0.00     0.058 A 
ATOM     42  C   UNL A   1      46.604  33.416  28.567  1.00  0.00     0.135 A 
ATOM     43  C   UNL A   1      44.269  33.891  28.436  1.00  0.00     0.135 A 
ATOM     44  F   UNL A   1      47.649  32.591  28.751  1.00  0.00    -0.206 F 
ATOM     45  C   UNL A   1      46.894  34.771  28.390  1.00  0.00     0.059 A 
ATOM     46  C   UNL A   1      44.536  35.237  28.206  1.00  0.00     0.059 A 
ATOM     47  F   UNL A   1      42.970  33.589  28.560  1.00  0.00    -0.206 F 
ATOM     48  C   UNL A   1      45.850  35.676  28.224  1.00  0.00     0.060 A 
BRANCH  48  49
ATOM     49  S   UNL A   1      46.213  37.436  28.098  1.00  0.00     0.124 S 
ATOM     50  O   UNL A   1      45.503  37.963  29.257  1.00  0.00    -0.237 OA
ATOM     51  O   UNL A   1      47.670  37.451  28.179  1.00  0.00    -0.237 OA
ATOM     52  O   UNL A   1      45.660  37.801  26.797  1.00  0.00    -0.744 OA
ENDBRANCH  48  49
ENDBRANCH  27  41
BRANCH  28  53
ATOM     53  C   UNL A   1      37.057  31.385  30.152  1.00  0.00     0.058 A 
ATOM     54  C   UNL A   1      36.312  32.093  31.114  1.00  0.00     0.135 A 
ATOM     55  C   UNL A   1      36.659  31.558  28.811  1.00  0.00     0.135 A 
ATOM     56  F   UNL A   1      36.636  32.008  32.414  1.00  0.00    -0.206 F 
ATOM     57  C   UNL A   1      35.269  32.960  30.764  1.00  0.00     0.059 A 
ATOM     58  C   UNL A   1      35.618  32.409  28.438  1.00  0.00     0.059 A 
ATOM     59  F   UNL A   1      37.337  30.978  27.810  1.00  0.00    -0.206 F 
ATOM     60  C   UNL A   1      34.943  33.127  29.418  1.00  0.00     0.060 A 
BRANCH  60  61
ATOM     61  S   UNL A   1      33.720  34.374  28.945  1.00  0.00     0.124 S 
ATOM     62  O   UNL A   1      32.943  33.666  27.934  1.00  0.00    -0.237 OA
ATOM     63  O   UNL A   1      33.037  34.633  30.209  1.00  0.00    -0.237 OA
ATOM     64  O   UNL A   1      34.536  35.478  28.446  1.00  0.00    -0.744 OA
ENDBRANCH  60  61
ENDBRANCH  28  53
BRANCH  40  65
ATOM     65  C   UNL A   1      42.066  29.678  33.716  1.00  0.00     0.058 A 
ATOM     66  C   UNL A   1      41.719  28.352  33.396  1.00  0.00     0.135 A 
ATOM     67  C   UNL A   1      42.293  29.969  35.069  1.00  0.00     0.135 A 
ATOM     68  F   UNL A   1      41.581  27.963  32.121  1.00  0.00    -0.206 F 
ATOM     69  C   UNL A   1      41.576  27.372  34.381  1.00  0.00     0.059 A 
ATOM     70  C   UNL A   1      42.187  29.001  36.064  1.00  0.00     0.059 A 
ATOM     71  F   UNL A   1      42.684  31.202  35.435  1.00  0.00    -0.206 F 
ATOM     72  C   UNL A   1      41.819  27.704  35.713  1.00  0.00     0.060 A 
BRANCH  72  73
ATOM     73  S   UNL A   1      41.738  26.412  36.973  1.00  0.00     0.124 S 
ATOM     74  O   UNL A   1      42.903  26.714  37.798  1.00  0.00    -0.237 OA
ATOM     75  O   UNL A   1      40.440  26.658  37.595  1.00  0.00    -0.237 OA
ATOM     76  O   UNL A   1      41.823  25.175  36.200  1.00  0.00    -0.744 OA
ENDBRANCH  72  73
ENDBRANCH  40  65
ENDBRANCH  14  15
ENDBRANCH   7   9
ENDBRANCH   4   5
ENDBRANCH   3   4
ENDBRANCH   2   3
ENDBRANCH   1   2
BRANCH   1  77
ATOM     77  C   UNL A   1      37.280  23.025  25.556  1.00  0.00     0.021 C 
BRANCH  77  78
ATOM     78  C   UNL A   1      36.341  23.765  24.611  1.00  0.00     0.116 C 
BRANCH  78  79
ATOM     79  N   UNL A   1      35.332  24.479  25.363  1.00  0.00    -0.351 N 
ATOM     80  C   UNL A   1      34.047  24.127  25.658  1.00  0.00     0.262 C 
ATOM     81  H   UNL A   1      35.617  25.353  25.716  1.00  0.00     0.163 HD
ATOM     82  O   UNL A   1      33.325  25.018  26.115  1.00  0.00    -0.268 OA
BRANCH  80  83
ATOM     83  C   UNL A   1      33.571  22.798  25.354  1.00  0.00     0.112 A 
ATOM     84  S   UNL A   1      33.772  21.658  26.643  1.00  0.00    -0.137 S 
ATOM     85  C   UNL A   1      33.021  22.189  24.239  1.00  0.00     0.111 A 
ATOM     86  C   UNL A   1      33.016  20.410  25.774  1.00  0.00     0.067 A 
ATOM     87  C   UNL A   1      32.655  20.821  24.516  1.00  0.00     0.035 A 
BRANCH  85  88
ATOM     88  S   UNL A   1      32.725  22.787  22.633  1.00  0.00     0.263 S 
ATOM     89  O   UNL A   1      34.016  23.286  22.238  1.00  0.00    -0.201 OA
ATOM     90  O   UNL A   1      32.147  21.615  21.989  1.00  0.00    -0.201 OA
BRANCH  88  91
ATOM     91  N   UNL A   1      31.615  23.988  22.403  1.00  0.00    -0.280 N 
ATOM     92  H   UNL A   1      30.967  23.850  21.673  1.00  0.00     0.180 HD
BRANCH  91  93
ATOM     93  C   UNL A   1      31.492  25.186  23.132  1.00  0.00     0.049 A 
ATOM     94  C   UNL A   1      32.441  26.161  22.823  1.00  0.00     0.027 A 
ATOM     95  C   UNL A   1      30.433  25.488  23.977  1.00  0.00     0.027 A 
ATOM     96  C   UNL A   1      32.210  27.490  23.155  1.00  0.00     0.008 A 
ATOM     97  C   UNL A   1      30.219  26.821  24.346  1.00  0.00     0.008 A 
ATOM     98  C   UNL A   1      31.058  27.841  23.867  1.00  0.00    -0.026 A 
BRANCH  98  99
ATOM     99  C   UNL A   1      30.671  29.291  24.020  1.00  0.00     0.181 C 
BRANCH  99 100
ATOM    100  N   UNL A   1      29.648  29.683  23.074  1.00  0.00    -0.249 N 
ATOM    101  C   UNL A   1      28.365  30.057  23.342  1.00  0.00     0.220 A 
ATOM    102  N   UNL A   1      29.915  29.789  21.757  1.00  0.00    -0.160 NA
ATOM    103  N   UNL A   1      27.756  30.366  22.222  1.00  0.00    -0.224 NA
ATOM    104  C   UNL A   1      28.728  30.175  21.283  1.00  0.00     0.246 A 
ENDBRANCH  99 100
ENDBRANCH  98  99
ENDBRANCH  91  93
ENDBRANCH  88  91
ENDBRANCH  85  88
ENDBRANCH  80  83
ENDBRANCH  78  79
ENDBRANCH  77  78
ENDBRANCH   1  77
TORSDOF 21
ENDMDL
MODEL 2
REMARK VINA RESULT:     -12.0      2.179      4.028
REMARK SMILES O=C(NCCCCCCNC(=O)c1sccc1S(=O)(=O)Nc1ccc(Cn2cncn2)cc1)c1ccc(-c2c3nc(c(-c4c(F)cc(S(=O)(=O)[O-])cc4F)c4ccc([nH]4)c(-c4c(F)cc(S(=O)(=O)[O-])cc4F)c4nc(c(-c5c(F)cc(S(=O)(=O)[O-])cc5F)c5ccc2[nH]5)C=C4)C=C3)cc1
REMARK SMILES IDX 7 1 6 2 5 3 4 4 3 5 1 6 2 7 34 9 35 10 99 11 36 12 98 13
REMARK SMILES IDX 37 14 38 15 39 16 92 17 40 18 97 19 91 20 93 21 41 22 96 23
REMARK SMILES IDX 90 24 89 25 42 27 76 28 55 29 75 30 56 31 59 32 74 33 94 34
REMARK SMILES IDX 57 35 58 36 73 38 95 39 60 40 43 41 44 42 53 43 45 44 46 45
REMARK SMILES IDX 52 46 54 47 47 48 48 49 49 50 50 51 51 52 77 53 78 54 87 55
REMARK SMILES IDX 79 56 80 57 86 58 88 59 81 60 82 61 83 62 84 63 85 64 61 65
REMARK SMILES IDX 62 66 71 67 63 68 64 69 70 70 72 71 65 72 66 73 67 74 68 75
REMARK SMILES IDX 69 76 8 77 9 78 10 79 11 80 12 82 13 83 14 84 17 85 15 86
REMARK SMILES IDX 16 87 18 88 19 89 20 90 21 91 22 93 23 94 33 95 24 96 32 97
REMARK SMILES IDX 25 98 26 99 27 100 28 101 31 102 29 103 30 104
REMARK H PARENT 3 8 93 26 59 37 10 81 21 92
REMARK Flexibility Score: inf
ROOT
ATOM      1  C   UNL A   1      35.610  24.134  24.940  1.00  0.00     0.002 C 
ENDROOT
BRANCH   1   2
ATOM      2  C   UNL A   1      36.142  23.029  24.020  1.00  0.00     0.002 C 
BRANCH   2   3
ATOM      3  C   UNL A   1      37.022  21.964  24.685  1.00  0.00     0.021 C 
BRANCH   3   4
ATOM      4  C   UNL A   1      37.935  22.486  25.793  1.00  0.00     0.116 C 
BRANCH   4   5
ATOM      5  N   UNL A   1      39.314  22.078  25.638  1.00  0.00    -0.352 N 
ATOM      6  O   UNL A   1      41.487  21.820  25.840  1.00  0.00    -0.269 OA
ATOM      7  C   UNL A   1      40.511  22.525  26.118  1.00  0.00     0.251 C 
ATOM      8  H   UNL A   1      39.412  21.296  25.049  1.00  0.00     0.163 HD
BRANCH   7   9
ATOM      9  C   UNL A   1      40.724  23.779  26.895  1.00  0.00     0.039 A 
ATOM     10  C   UNL A   1      41.625  23.956  27.946  1.00  0.00     0.014 A 
ATOM     11  C   UNL A   1      39.907  24.866  26.528  1.00  0.00     0.014 A 
ATOM     12  C   UNL A   1      41.672  25.165  28.640  1.00  0.00     0.010 A 
ATOM     13  C   UNL A   1      39.954  26.076  27.214  1.00  0.00     0.010 A 
ATOM     14  C   UNL A   1      40.820  26.218  28.291  1.00  0.00    -0.014 A 
BRANCH  14  15
ATOM     15  C   UNL A   1      40.971  27.492  28.994  1.00  0.00     0.031 A 
ATOM     16  C   UNL A   1      42.077  28.362  28.487  1.00  0.00     0.074 A 
ATOM     17  C   UNL A   1      40.114  27.951  29.929  1.00  0.00     0.049 A 
ATOM     18  N   UNL A   1      43.131  28.774  29.113  1.00  0.00    -0.248 NA
ATOM     19  C   UNL A   1      42.044  28.737  27.064  1.00  0.00     0.031 C 
ATOM     20  C   UNL A   1      38.819  27.395  30.331  1.00  0.00     0.029 A 
ATOM     21  N   UNL A   1      40.195  29.096  30.666  1.00  0.00    -0.354 N 
ATOM     22  C   UNL A   1      43.806  29.614  28.226  1.00  0.00     0.074 A 
ATOM     23  C   UNL A   1      43.166  29.449  26.946  1.00  0.00     0.031 C 
ATOM     24  C   UNL A   1      38.149  28.311  31.069  1.00  0.00     0.029 A 
ATOM     25  C   UNL A   1      39.017  29.450  31.314  1.00  0.00     0.049 A 
ATOM     26  H   UNL A   1      41.019  29.628  30.734  1.00  0.00     0.167 HD
ATOM     27  C   UNL A   1      44.734  30.522  28.642  1.00  0.00     0.037 A 
ATOM     28  C   UNL A   1      38.763  30.619  31.958  1.00  0.00     0.037 A 
ATOM     29  C   UNL A   1      45.217  30.220  29.962  1.00  0.00     0.049 A 
ATOM     30  C   UNL A   1      40.072  31.234  32.293  1.00  0.00     0.074 A 
ATOM     31  C   UNL A   1      45.883  29.149  30.527  1.00  0.00     0.029 A 
ATOM     32  N   UNL A   1      44.723  30.943  31.019  1.00  0.00    -0.354 N 
ATOM     33  N   UNL A   1      40.922  30.732  33.146  1.00  0.00    -0.248 NA
ATOM     34  C   UNL A   1      40.628  32.190  31.348  1.00  0.00     0.031 C 
ATOM     35  C   UNL A   1      45.316  29.010  31.827  1.00  0.00     0.029 A 
ATOM     36  C   UNL A   1      44.388  30.038  31.995  1.00  0.00     0.049 A 
ATOM     37  H   UNL A   1      44.627  31.922  31.067  1.00  0.00     0.167 HD
ATOM     38  C   UNL A   1      42.169  30.974  32.591  1.00  0.00     0.074 A 
ATOM     39  C   UNL A   1      41.928  31.947  31.527  1.00  0.00     0.031 C 
ATOM     40  C   UNL A   1      43.239  30.171  32.862  1.00  0.00     0.037 A 
BRANCH  27  41
ATOM     41  C   UNL A   1      44.983  31.853  27.974  1.00  0.00     0.058 A 
ATOM     42  C   UNL A   1      46.237  32.126  27.387  1.00  0.00     0.135 A 
ATOM     43  C   UNL A   1      44.130  32.968  28.127  1.00  0.00     0.135 A 
ATOM     44  F   UNL A   1      47.137  31.144  27.208  1.00  0.00    -0.206 F 
ATOM     45  C   UNL A   1      46.633  33.417  27.031  1.00  0.00     0.059 A 
ATOM     46  C   UNL A   1      44.484  34.254  27.732  1.00  0.00     0.059 A 
ATOM     47  F   UNL A   1      42.951  32.877  28.754  1.00  0.00    -0.206 F 
ATOM     48  C   UNL A   1      45.752  34.478  27.221  1.00  0.00     0.060 A 
BRANCH  48  49
ATOM     49  S   UNL A   1      46.295  36.158  26.861  1.00  0.00     0.124 S 
ATOM     50  O   UNL A   1      45.022  36.861  26.766  1.00  0.00    -0.237 OA
ATOM     51  O   UNL A   1      47.113  36.469  28.028  1.00  0.00    -0.237 OA
ATOM     52  O   UNL A   1      47.032  36.010  25.609  1.00  0.00    -0.744 OA
ENDBRANCH  48  49
ENDBRANCH  27  41
BRANCH  28  53
ATOM     53  C   UNL A   1      37.495  31.398  31.985  1.00  0.00     0.058 A 
ATOM     54  C   UNL A   1      36.915  31.817  33.198  1.00  0.00     0.135 A 
ATOM     55  C   UNL A   1      36.987  32.000  30.816  1.00  0.00     0.135 A 
ATOM     56  F   UNL A   1      37.354  31.317  34.363  1.00  0.00    -0.206 F 
ATOM     57  C   UNL A   1      35.928  32.809  33.252  1.00  0.00     0.059 A 
ATOM     58  C   UNL A   1      35.998  32.983  30.844  1.00  0.00     0.059 A 
ATOM     59  F   UNL A   1      37.509  31.718  29.613  1.00  0.00    -0.206 F 
ATOM     60  C   UNL A   1      35.490  33.401  32.068  1.00  0.00     0.060 A 
BRANCH  60  61
ATOM     61  S   UNL A   1      34.347  34.802  32.142  1.00  0.00     0.124 S 
ATOM     62  O   UNL A   1      33.196  34.217  32.821  1.00  0.00    -0.237 OA
ATOM     63  O   UNL A   1      35.108  35.784  32.907  1.00  0.00    -0.237 OA
ATOM     64  O   UNL A   1      34.135  35.142  30.737  1.00  0.00    -0.744 OA
ENDBRANCH  60  61
ENDBRANCH  28  53
BRANCH  40  65
ATOM     65  C   UNL A   1      43.130  29.181  33.994  1.00  0.00     0.058 A 
ATOM     66  C   UNL A   1      43.360  29.491  35.347  1.00  0.00     0.135 A 
ATOM     67  C   UNL A   1      42.604  27.912  33.710  1.00  0.00     0.135 A 
ATOM     68  F   UNL A   1      43.767  30.714  35.716  1.00  0.00    -0.206 F 
ATOM     69  C   UNL A   1      43.105  28.570  36.366  1.00  0.00     0.059 A 
ATOM     70  C   UNL A   1      42.312  26.989  34.711  1.00  0.00     0.059 A 
ATOM     71  F   UNL A   1      42.307  27.574  32.444  1.00  0.00    -0.206 F 
ATOM     72  C   UNL A   1      42.574  27.323  36.039  1.00  0.00     0.060 A 
BRANCH  72  73
ATOM     73  S   UNL A   1      42.146  26.172  37.364  1.00  0.00     0.124 S 
ATOM     74  O   UNL A   1      43.134  26.501  38.387  1.00  0.00    -0.237 OA
ATOM     75  O   UNL A   1      40.768  26.542  37.672  1.00  0.00    -0.237 OA
ATOM     76  O   UNL A   1      42.304  24.860  36.742  1.00  0.00    -0.744 OA
ENDBRANCH  72  73
ENDBRANCH  40  65
ENDBRANCH  14  15
ENDBRANCH   7   9
ENDBRANCH   4   5
ENDBRANCH   3   4
ENDBRANCH   2   3
ENDBRANCH   1   2
BRANCH   1  77
ATOM     77  C   UNL A   1      34.125  24.028  25.315  1.00  0.00     0.021 C 
BRANCH  77  78
ATOM     78  C   UNL A   1      33.607  25.192  26.152  1.00  0.00     0.116 C 
BRANCH  78  79
ATOM     79  N   UNL A   1      32.172  25.097  26.311  1.00  0.00    -0.351 N 
ATOM     80  C   UNL A   1      31.217  26.070  26.241  1.00  0.00     0.262 C 
ATOM     81  H   UNL A   1      31.832  24.192  26.497  1.00  0.00     0.163 HD
ATOM     82  O   UNL A   1      30.092  25.765  26.645  1.00  0.00    -0.268 OA
BRANCH  80  83
ATOM     83  C   UNL A   1      31.567  27.399  25.796  1.00  0.00     0.112 A 
ATOM     84  S   UNL A   1      32.296  28.388  27.017  1.00  0.00    -0.137 S 
ATOM     85  C   UNL A   1      31.415  28.105  24.615  1.00  0.00     0.111 A 
ATOM     86  C   UNL A   1      32.526  29.689  25.950  1.00  0.00     0.067 A 
ATOM     87  C   UNL A   1      32.025  29.410  24.703  1.00  0.00     0.035 A 
BRANCH  85  88
ATOM     88  S   UNL A   1      30.634  27.686  23.119  1.00  0.00     0.263 S 
ATOM     89  O   UNL A   1      29.372  27.153  23.559  1.00  0.00    -0.201 OA
ATOM     90  O   UNL A   1      30.702  28.948  22.392  1.00  0.00    -0.201 OA
BRANCH  88  91
ATOM     91  N   UNL A   1      31.340  26.580  22.114  1.00  0.00    -0.280 N 
ATOM     92  H   UNL A   1      31.456  26.855  21.175  1.00  0.00     0.180 HD
BRANCH  91  93
ATOM     93  C   UNL A   1      31.793  25.291  22.451  1.00  0.00     0.049 A 
ATOM     94  C   UNL A   1      30.882  24.519  23.174  1.00  0.00     0.027 A 
ATOM     95  C   UNL A   1      32.969  24.722  21.982  1.00  0.00     0.027 A 
ATOM     96  C   UNL A   1      31.024  23.138  23.226  1.00  0.00     0.008 A 
ATOM     97  C   UNL A   1      33.133  23.335  22.067  1.00  0.00     0.008 A 
ATOM     98  C   UNL A   1      32.123  22.526  22.614  1.00  0.00    -0.026 A 
BRANCH  98  99
ATOM     99  C   UNL A   1      32.164  21.027  22.448  1.00  0.00     0.181 C 
BRANCH  99 100
ATOM    100  N   UNL A   1      32.454  20.350  23.694  1.00  0.00    -0.249 N 
ATOM    101  C   UNL A   1      32.123  19.076  24.045  1.00  0.00     0.220 A 
ATOM    102  N   UNL A   1      33.192  20.938  24.656  1.00  0.00    -0.160 NA
ATOM    103  N   UNL A   1      32.586  18.817  25.245  1.00  0.00    -0.224 NA
ATOM    104  C   UNL A   1      33.216  19.980  25.585  1.00  0.00     0.246 A 
ENDBRANCH  99 100
ENDBRANCH  98  99
ENDBRANCH  91  93
ENDBRANCH  88  91
ENDBRANCH  85  88
ENDBRANCH  80  83
ENDBRANCH  78  79
ENDBRANCH  77  78
ENDBRANCH   1  77
TORSDOF 21
ENDMDL
MODEL 3
REMARK VINA RESULT:     -11.8      2.939      9.508
REMARK SMILES O=C(NCCCCCCNC(=O)c1sccc1S(=O)(=O)Nc1ccc(Cn2cncn2)cc1)c1ccc(-c2c3nc(c(-c4c(F)cc(S(=O)(=O)[O-])cc4F)c4ccc([nH]4)c(-c4c(F)cc(S(=O)(=O)[O-])cc4F)c4nc(c(-c5c(F)cc(S(=O)(=O)[O-])cc5F)c5ccc2[nH]5)C=C4)C=C3)cc1
REMARK SMILES IDX 7 1 6 2 5 3 4 4 3 5 1 6 2 7 34 9 35 10 99 11 36 12 98 13
REMARK SMILES IDX 37 14 38 15 39 16 92 17 40 18 97 19 91 20 93 21 41 22 96 23
REMARK SMILES IDX 90 24 89 25 42 27 76 28 55 29 75 30 56 31 59 32 74 33 94 34
REMARK SMILES IDX 57 35 58 36 73 38 95 39 60 40 43 41 44 42 53 43 45 44 46 45
REMARK SMILES IDX 52 46 54 47 47 48 48 49 49 50 50 51 51 52 77 53 78 54 87 55
REMARK SMILES IDX 79 56 80 57 86 58 88 59 81 60 82 61 83 62 84 63 85 64 61 65
REMARK SMILES IDX 62 66 71 67 63 68 64 69 70 70 72 71 65 72 66 73 67 74 68 75
REMARK SMILES IDX 69 76 8 77 9 78 10 79 11 80 12 82 13 83 14 84 17 85 15 86
REMARK SMILES IDX 16 87 18 88 19 89 20 90 21 91 22 93 23 94 33 95 24 96 32 97
REMARK SMILES IDX 25 98 26 99 27 100 28 101 31 102 29 103 30 104
REMARK H PARENT 3 8 93 26 59 37 10 81 21 92
REMARK Flexibility Score: inf
ROOT
ATOM      1  C   UNL A   1      31.450  27.906  26.801  1.00  0.00     0.002 C 
ENDROOT
BRANCH   1   2
ATOM      2  C   UNL A   1      32.639  28.683  26.223  1.00  0.00     0.002 C 
BRANCH   2   3
ATOM      3  C   UNL A   1      33.578  29.337  27.244  1.00  0.00     0.021 C 
BRANCH   3   4
ATOM      4  C   UNL A   1      33.757  30.845  27.078  1.00  0.00     0.116 C 
BRANCH   4   5
ATOM      5  N   UNL A   1      33.793  31.559  28.335  1.00  0.00    -0.352 N 
ATOM      6  O   UNL A   1      34.409  32.538  30.203  1.00  0.00    -0.269 OA
ATOM      7  C   UNL A   1      34.729  31.746  29.310  1.00  0.00     0.251 C 
ATOM      8  H   UNL A   1      32.944  32.017  28.533  1.00  0.00     0.163 HD
BRANCH   7   9
ATOM      9  C   UNL A   1      36.049  31.058  29.395  1.00  0.00     0.039 A 
ATOM     10  C   UNL A   1      36.257  29.684  29.524  1.00  0.00     0.014 A 
ATOM     11  C   UNL A   1      37.176  31.903  29.365  1.00  0.00     0.014 A 
ATOM     12  C   UNL A   1      37.548  29.176  29.668  1.00  0.00     0.010 A 
ATOM     13  C   UNL A   1      38.466  31.400  29.503  1.00  0.00     0.010 A 
ATOM     14  C   UNL A   1      38.651  30.034  29.683  1.00  0.00    -0.014 A 
BRANCH  14  15
ATOM     15  C   UNL A   1      39.987  29.442  29.750  1.00  0.00     0.031 A 
ATOM     16  C   UNL A   1      40.496  29.192  31.134  1.00  0.00     0.074 A 
ATOM     17  C   UNL A   1      40.679  29.002  28.678  1.00  0.00     0.049 A 
ATOM     18  N   UNL A   1      41.534  29.699  31.715  1.00  0.00    -0.248 NA
ATOM     19  C   UNL A   1      39.679  28.339  32.011  1.00  0.00     0.031 C 
ATOM     20  C   UNL A   1      40.225  28.874  27.291  1.00  0.00     0.029 A 
ATOM     21  N   UNL A   1      41.938  28.480  28.635  1.00  0.00    -0.354 N 
ATOM     22  C   UNL A   1      41.613  29.092  32.969  1.00  0.00     0.074 A 
ATOM     23  C   UNL A   1      40.380  28.368  33.146  1.00  0.00     0.031 C 
ATOM     24  C   UNL A   1      41.110  28.118  26.599  1.00  0.00     0.029 A 
ATOM     25  C   UNL A   1      42.256  27.834  27.447  1.00  0.00     0.049 A 
ATOM     26  H   UNL A   1      42.571  28.557  29.384  1.00  0.00     0.167 HD
ATOM     27  C   UNL A   1      42.761  29.079  33.705  1.00  0.00     0.037 A 
ATOM     28  C   UNL A   1      43.357  27.078  27.201  1.00  0.00     0.037 A 
ATOM     29  C   UNL A   1      43.689  30.081  33.257  1.00  0.00     0.049 A 
ATOM     30  C   UNL A   1      44.387  27.457  28.201  1.00  0.00     0.074 A 
ATOM     31  C   UNL A   1      43.656  31.460  33.169  1.00  0.00     0.029 A 
ATOM     32  N   UNL A   1      44.744  29.689  32.470  1.00  0.00    -0.354 N 
ATOM     33  N   UNL A   1      44.968  28.624  28.248  1.00  0.00    -0.248 NA
ATOM     34  C   UNL A   1      44.457  26.676  29.426  1.00  0.00     0.031 C 
ATOM     35  C   UNL A   1      44.339  31.766  31.956  1.00  0.00     0.029 A 
ATOM     36  C   UNL A   1      44.796  30.564  31.415  1.00  0.00     0.049 A 
ATOM     37  H   UNL A   1      45.345  28.927  32.633  1.00  0.00     0.167 HD
ATOM     38  C   UNL A   1      45.104  28.901  29.599  1.00  0.00     0.074 A 
ATOM     39  C   UNL A   1      44.847  27.630  30.274  1.00  0.00     0.031 C 
ATOM     40  C   UNL A   1      45.147  30.183  30.065  1.00  0.00     0.037 A 
BRANCH  27  41
ATOM     41  C   UNL A   1      43.165  27.960  34.636  1.00  0.00     0.058 A 
ATOM     42  C   UNL A   1      43.439  28.234  35.993  1.00  0.00     0.135 A 
ATOM     43  C   UNL A   1      43.554  26.680  34.185  1.00  0.00     0.135 A 
ATOM     44  F   UNL A   1      43.128  29.427  36.526  1.00  0.00    -0.206 F 
ATOM     45  C   UNL A   1      44.101  27.325  36.822  1.00  0.00     0.059 A 
ATOM     46  C   UNL A   1      44.167  25.740  35.006  1.00  0.00     0.059 A 
ATOM     47  F   UNL A   1      43.443  26.317  32.900  1.00  0.00    -0.206 F 
ATOM     48  C   UNL A   1      44.473  26.084  36.313  1.00  0.00     0.060 A 
BRANCH  48  49
ATOM     49  S   UNL A   1      45.416  24.949  37.346  1.00  0.00     0.124 S 
ATOM     50  O   UNL A   1      44.543  24.817  38.506  1.00  0.00    -0.237 OA
ATOM     51  O   UNL A   1      45.523  23.774  36.487  1.00  0.00    -0.237 OA
ATOM     52  O   UNL A   1      46.668  25.665  37.574  1.00  0.00    -0.744 OA
ENDBRANCH  48  49
ENDBRANCH  27  41
BRANCH  28  53
ATOM     53  C   UNL A   1      43.453  25.823  26.407  1.00  0.00     0.058 A 
ATOM     54  C   UNL A   1      44.407  25.673  25.382  1.00  0.00     0.135 A 
ATOM     55  C   UNL A   1      42.813  24.642  26.834  1.00  0.00     0.135 A 
ATOM     56  F   UNL A   1      45.084  26.740  24.931  1.00  0.00    -0.206 F 
ATOM     57  C   UNL A   1      44.742  24.423  24.848  1.00  0.00     0.059 A 
ATOM     58  C   UNL A   1      43.124  23.386  26.311  1.00  0.00     0.059 A 
ATOM     59  F   UNL A   1      41.932  24.662  27.845  1.00  0.00    -0.206 F 
ATOM     60  C   UNL A   1      44.107  23.280  25.335  1.00  0.00     0.060 A 
BRANCH  60  61
ATOM     61  S   UNL A   1      44.657  21.649  24.778  1.00  0.00     0.124 S 
ATOM     62  O   UNL A   1      44.710  21.826  23.331  1.00  0.00    -0.237 OA
ATOM     63  O   UNL A   1      45.945  21.509  25.451  1.00  0.00    -0.237 OA
ATOM     64  O   UNL A   1      43.607  20.754  25.260  1.00  0.00    -0.744 OA
ENDBRANCH  60  61
ENDBRANCH  28  53
BRANCH  40  65
ATOM     65  C   UNL A   1      45.334  31.304  29.075  1.00  0.00     0.058 A 
ATOM     66  C   UNL A   1      46.580  31.726  28.575  1.00  0.00     0.135 A 
ATOM     67  C   UNL A   1      44.188  31.856  28.481  1.00  0.00     0.135 A 
ATOM     68  F   UNL A   1      47.721  31.179  29.015  1.00  0.00    -0.206 F 
ATOM     69  C   UNL A   1      46.679  32.674  27.553  1.00  0.00     0.059 A 
ATOM     70  C   UNL A   1      44.263  32.777  27.440  1.00  0.00     0.059 A 
ATOM     71  F   UNL A   1      42.967  31.452  28.873  1.00  0.00    -0.206 F 
ATOM     72  C   UNL A   1      45.514  33.189  26.986  1.00  0.00     0.060 A 
BRANCH  72  73
ATOM     73  S   UNL A   1      45.642  34.333  25.594  1.00  0.00     0.124 S 
ATOM     74  O   UNL A   1      45.083  35.560  26.154  1.00  0.00    -0.237 OA
ATOM     75  O   UNL A   1      47.079  34.354  25.333  1.00  0.00    -0.237 OA
ATOM     76  O   UNL A   1      44.839  33.697  24.554  1.00  0.00    -0.744 OA
ENDBRANCH  72  73
ENDBRANCH  40  65
ENDBRANCH  14  15
ENDBRANCH   7   9
ENDBRANCH   4   5
ENDBRANCH   3   4
ENDBRANCH   2   3
ENDBRANCH   1   2
BRANCH   1  77
ATOM     77  C   UNL A   1      31.501  26.382  26.618  1.00  0.00     0.021 C 
BRANCH  77  78
ATOM     78  C   UNL A   1      30.177  25.761  26.189  1.00  0.00     0.116 C 
BRANCH  78  79
ATOM     79  N   UNL A   1      30.372  24.908  25.037  1.00  0.00    -0.351 N 
ATOM     80  C   UNL A   1      30.474  25.232  23.714  1.00  0.00     0.262 C 
ATOM     81  H   UNL A   1      30.443  23.946  25.238  1.00  0.00     0.163 HD
ATOM     82  O   UNL A   1      30.403  24.295  22.914  1.00  0.00    -0.268 OA
BRANCH  80  83
ATOM     83  C   UNL A   1      30.567  26.615  23.312  1.00  0.00     0.112 A 
ATOM     84  S   UNL A   1      29.047  27.447  23.268  1.00  0.00    -0.137 S 
ATOM     85  C   UNL A   1      31.595  27.445  22.898  1.00  0.00     0.111 A 
ATOM     86  C   UNL A   1      29.768  28.922  22.835  1.00  0.00     0.067 A 
ATOM     87  C   UNL A   1      31.125  28.792  22.679  1.00  0.00     0.035 A 
BRANCH  85  88
ATOM     88  S   UNL A   1      33.281  27.128  22.610  1.00  0.00     0.263 S 
ATOM     89  O   UNL A   1      33.249  26.289  21.441  1.00  0.00    -0.201 OA
ATOM     90  O   UNL A   1      33.823  28.479  22.547  1.00  0.00    -0.201 OA
BRANCH  88  91
ATOM     91  N   UNL A   1      34.176  26.366  23.770  1.00  0.00    -0.280 N 
ATOM     92  H   UNL A   1      34.858  26.913  24.225  1.00  0.00     0.180 HD
BRANCH  91  93
ATOM     93  C   UNL A   1      34.074  25.023  24.179  1.00  0.00     0.049 A 
ATOM     94  C   UNL A   1      34.018  24.095  23.139  1.00  0.00     0.027 A 
ATOM     95  C   UNL A   1      34.187  24.590  25.494  1.00  0.00     0.027 A 
ATOM     96  C   UNL A   1      34.312  22.759  23.379  1.00  0.00     0.008 A 
ATOM     97  C   UNL A   1      34.445  23.237  25.742  1.00  0.00     0.008 A 
ATOM     98  C   UNL A   1      34.593  22.329  24.680  1.00  0.00    -0.026 A 
BRANCH  98  99
ATOM     99  C   UNL A   1      35.151  20.949  24.922  1.00  0.00     0.181 C 
BRANCH  99 100
ATOM    100  N   UNL A   1      34.116  19.937  24.928  1.00  0.00    -0.249 N 
ATOM    101  C   UNL A   1      32.808  20.087  25.276  1.00  0.00     0.220 A 
ATOM    102  N   UNL A   1      34.358  18.685  24.491  1.00  0.00    -0.160 NA
ATOM    103  N   UNL A   1      32.180  18.945  25.124  1.00  0.00    -0.224 NA
ATOM    104  C   UNL A   1      33.162  18.117  24.660  1.00  0.00     0.246 A 
ENDBRANCH  99 100
ENDBRANCH  98  99
ENDBRANCH  91  93
ENDBRANCH  88  91
ENDBRANCH  85  88
ENDBRANCH  80  83
ENDBRANCH  78  79
ENDBRANCH  77  78
ENDBRANCH   1  77
TORSDOF 21
ENDMDL
