MODEL 1
REMARK VINA RESULT:     -10.8      0.000      0.000
REMARK SMILES C[C@@H](Oc1ccc(F)cc1)C(=O)N[C@@H](CO)C(=O)NCCCCCCNC(=O)c1ccc(-c2c3nc(c(-c4c(F)cc(S(=O)(=O)[O-])cc4F)c4ccc([nH]4)c(-c4c(F)cc(S(=O)(=O)[O-])cc4F)c4nc(c(-c5c(F)cc(S(=O)(=O)[O-])cc5F)c5ccc2[nH]5)C=C4)C=C3)cc1
REMARK SMILES IDX 22 1 21 2 20 3 19 4 17 5 18 6 14 8 13 9 11 10 12 11 2 13
REMARK SMILES IDX 1 14 3 15 4 16 5 17 10 18 6 19 9 20 7 21 8 22 15 23 16 24
REMARK SMILES IDX 23 26 24 27 25 28 26 29 27 30 28 32 29 33 30 34 94 35 31 36
REMARK SMILES IDX 93 37 32 38 33 39 34 40 87 41 35 42 92 43 86 44 88 45 36 46
REMARK SMILES IDX 91 47 85 48 84 49 37 51 71 52 50 53 70 54 51 55 54 56 69 57
REMARK SMILES IDX 89 58 52 59 53 60 68 62 90 63 55 64 38 65 39 66 48 67 40 68
REMARK SMILES IDX 41 69 47 70 49 71 42 72 43 73 44 74 45 75 46 76 72 77 73 78
REMARK SMILES IDX 82 79 74 80 75 81 81 82 83 83 76 84 77 85 78 86 79 87 80 88
REMARK SMILES IDX 56 89 57 90 66 91 58 92 59 93 65 94 67 95 60 96 61 97 62 98
REMARK SMILES IDX 63 99 64 100
REMARK H PARENT 19 7 13 12 16 25 26 31 88 50 54 61
REMARK Flexibility Score: inf
ROOT
ATOM      1  C   UNL A   1      37.046  21.495  25.588  1.00  0.00     0.002 C 
ENDROOT
BRANCH   1   2
ATOM      2  C   UNL A   1      36.240  21.834  24.330  1.00  0.00     0.021 C 
BRANCH   2   3
ATOM      3  C   UNL A   1      36.295  23.299  23.911  1.00  0.00     0.116 C 
BRANCH   3   4
ATOM      4  N   UNL A   1      35.470  24.137  24.758  1.00  0.00    -0.354 N 
ATOM      5  C   UNL A   1      34.118  24.264  24.840  1.00  0.00     0.244 C 
ATOM      6  O   UNL A   1      33.672  24.861  25.827  1.00  0.00    -0.273 OA
ATOM      7  H   UNL A   1      35.973  24.714  25.377  1.00  0.00     0.163 HD
BRANCH   5   8
ATOM      8  C   UNL A   1      33.154  23.614  23.826  1.00  0.00     0.197 C 
BRANCH   8   9
ATOM      9  N   UNL A   1      31.918  23.111  24.442  1.00  0.00    -0.339 N 
ATOM     10  C   UNL A   1      31.720  22.022  25.243  1.00  0.00     0.261 C 
ATOM     11  O   UNL A   1      30.626  21.921  25.803  1.00  0.00    -0.271 OA
ATOM     12  H   UNL A   1      31.109  23.638  24.247  1.00  0.00     0.164 HD
BRANCH  10  13
ATOM     13  C   UNL A   1      32.770  20.907  25.352  1.00  0.00     0.258 C 
ATOM     14  C   UNL A   1      33.505  21.087  26.679  1.00  0.00     0.064 C 
BRANCH  13  15
ATOM     15  O   UNL A   1      32.095  19.655  25.216  1.00  0.00    -0.481 OA
BRANCH  15  16
ATOM     16  C   UNL A   1      32.901  18.570  25.047  1.00  0.00     0.120 A 
ATOM     17  C   UNL A   1      34.166  18.708  24.475  1.00  0.00     0.049 A 
ATOM     18  C   UNL A   1      32.518  17.364  25.635  1.00  0.00     0.049 A 
ATOM     19  C   UNL A   1      35.034  17.618  24.441  1.00  0.00     0.043 A 
ATOM     20  C   UNL A   1      33.393  16.277  25.613  1.00  0.00     0.043 A 
ATOM     21  C   UNL A   1      34.641  16.414  25.011  1.00  0.00     0.123 A 
ATOM     22  F   UNL A   1      35.488  15.376  25.003  1.00  0.00    -0.207 F 
ENDBRANCH  15  16
ENDBRANCH  13  15
ENDBRANCH  10  13
ENDBRANCH   8   9
BRANCH   8  23
ATOM     23  C   UNL A   1      32.918  24.509  22.601  1.00  0.00     0.191 C 
BRANCH  23  24
ATOM     24  O   UNL A   1      34.079  25.211  22.173  1.00  0.00    -0.394 OA
ATOM     25  H   UNL A   1      34.318  25.877  22.837  1.00  0.00     0.210 HD
ENDBRANCH  23  24
ENDBRANCH   8  23
ENDBRANCH   5   8
ENDBRANCH   3   4
ENDBRANCH   2   3
ENDBRANCH   1   2
BRANCH   1  26
ATOM     26  C   UNL A   1      38.556  21.729  25.484  1.00  0.00     0.002 C 
BRANCH  26  27
ATOM     27  C   UNL A   1      39.218  22.361  26.714  1.00  0.00     0.021 C 
BRANCH  27  28
ATOM     28  C   UNL A   1      39.339  23.882  26.688  1.00  0.00     0.116 C 
BRANCH  28  29
ATOM     29  N   UNL A   1      40.450  24.338  25.872  1.00  0.00    -0.352 N 
ATOM     30  C   UNL A   1      41.254  25.436  26.023  1.00  0.00     0.251 C 
ATOM     31  H   UNL A   1      40.656  23.774  25.092  1.00  0.00     0.163 HD
ATOM     32  O   UNL A   1      42.050  25.730  25.129  1.00  0.00    -0.269 OA
BRANCH  30  33
ATOM     33  C   UNL A   1      41.160  26.285  27.232  1.00  0.00     0.039 A 
ATOM     34  C   UNL A   1      41.886  27.478  27.265  1.00  0.00     0.014 A 
ATOM     35  C   UNL A   1      40.395  25.904  28.339  1.00  0.00     0.014 A 
ATOM     36  C   UNL A   1      41.803  28.312  28.381  1.00  0.00     0.010 A 
ATOM     37  C   UNL A   1      40.267  26.764  29.430  1.00  0.00     0.010 A 
ATOM     38  C   UNL A   1      40.971  27.977  29.463  1.00  0.00    -0.014 A 
BRANCH  38  39
ATOM     39  C   UNL A   1      40.828  28.901  30.618  1.00  0.00     0.031 A 
ATOM     40  C   UNL A   1      39.767  29.969  30.618  1.00  0.00     0.074 A 
ATOM     41  C   UNL A   1      41.666  28.780  31.667  1.00  0.00     0.049 A 
ATOM     42  N   UNL A   1      39.501  30.863  31.536  1.00  0.00    -0.248 NA
ATOM     43  C   UNL A   1      38.899  30.052  29.432  1.00  0.00     0.031 C 
ATOM     44  C   UNL A   1      42.757  27.807  31.771  1.00  0.00     0.029 A 
ATOM     45  N   UNL A   1      41.730  29.473  32.851  1.00  0.00    -0.354 N 
ATOM     46  C   UNL A   1      38.438  31.610  31.042  1.00  0.00     0.074 A 
ATOM     47  C   UNL A   1      38.138  31.099  29.722  1.00  0.00     0.031 C 
ATOM     48  C   UNL A   1      43.353  27.938  32.967  1.00  0.00     0.029 A 
ATOM     49  C   UNL A   1      42.714  29.024  33.703  1.00  0.00     0.049 A 
ATOM     50  H   UNL A   1      41.129  30.221  33.071  1.00  0.00     0.167 HD
ATOM     51  C   UNL A   1      37.754  32.611  31.648  1.00  0.00     0.037 A 
ATOM     52  C   UNL A   1      43.058  29.436  34.937  1.00  0.00     0.037 A 
ATOM     53  C   UNL A   1      38.036  33.100  32.972  1.00  0.00     0.049 A 
ATOM     54  C   UNL A   1      42.292  30.563  35.576  1.00  0.00     0.074 A 
ATOM     55  C   UNL A   1      37.378  34.092  33.679  1.00  0.00     0.029 A 
ATOM     56  N   UNL A   1      39.049  32.630  33.794  1.00  0.00    -0.354 N 
ATOM     57  N   UNL A   1      41.271  31.235  35.103  1.00  0.00    -0.248 NA
ATOM     58  C   UNL A   1      42.725  30.987  36.916  1.00  0.00     0.031 C 
ATOM     59  C   UNL A   1      38.011  34.242  34.917  1.00  0.00     0.029 A 
ATOM     60  C   UNL A   1      39.040  33.319  34.995  1.00  0.00     0.049 A 
ATOM     61  H   UNL A   1      39.681  31.914  33.559  1.00  0.00     0.167 HD
ATOM     62  C   UNL A   1      40.926  32.147  36.095  1.00  0.00     0.074 A 
ATOM     63  C   UNL A   1      41.835  31.928  37.200  1.00  0.00     0.031 C 
ATOM     64  C   UNL A   1      39.948  33.085  36.089  1.00  0.00     0.037 A 
BRANCH  51  65
ATOM     65  C   UNL A   1      36.602  33.231  30.907  1.00  0.00     0.058 A 
ATOM     66  C   UNL A   1      36.826  34.152  29.871  1.00  0.00     0.135 A 
ATOM     67  C   UNL A   1      35.276  32.995  31.302  1.00  0.00     0.135 A 
ATOM     68  F   UNL A   1      38.075  34.408  29.451  1.00  0.00    -0.206 F 
ATOM     69  C   UNL A   1      35.776  34.842  29.275  1.00  0.00     0.059 A 
ATOM     70  C   UNL A   1      34.209  33.657  30.704  1.00  0.00     0.059 A 
ATOM     71  F   UNL A   1      35.009  32.106  32.272  1.00  0.00    -0.206 F 
ATOM     72  C   UNL A   1      34.471  34.595  29.706  1.00  0.00     0.060 A 
BRANCH  72  73
ATOM     73  S   UNL A   1      33.120  35.513  28.935  1.00  0.00     0.124 S 
ATOM     74  O   UNL A   1      33.843  36.504  28.146  1.00  0.00    -0.237 OA
ATOM     75  O   UNL A   1      32.438  34.470  28.175  1.00  0.00    -0.237 OA
ATOM     76  O   UNL A   1      32.373  36.038  30.074  1.00  0.00    -0.744 OA
ENDBRANCH  72  73
ENDBRANCH  51  65
BRANCH  52  77
ATOM     77  C   UNL A   1      44.165  28.767  35.671  1.00  0.00     0.058 A 
ATOM     78  C   UNL A   1      45.493  29.198  35.540  1.00  0.00     0.135 A 
ATOM     79  C   UNL A   1      43.909  27.688  36.530  1.00  0.00     0.135 A 
ATOM     80  F   UNL A   1      45.793  30.219  34.722  1.00  0.00    -0.206 F 
ATOM     81  C   UNL A   1      46.530  28.581  36.230  1.00  0.00     0.059 A 
ATOM     82  C   UNL A   1      44.927  27.070  37.252  1.00  0.00     0.059 A 
ATOM     83  F   UNL A   1      42.653  27.248  36.696  1.00  0.00    -0.206 F 
ATOM     84  C   UNL A   1      46.236  27.519  37.087  1.00  0.00     0.060 A 
BRANCH  84  85
ATOM     85  S   UNL A   1      47.590  26.754  38.006  1.00  0.00     0.124 S 
ATOM     86  O   UNL A   1      48.638  26.707  36.991  1.00  0.00    -0.237 OA
ATOM     87  O   UNL A   1      47.800  27.706  39.092  1.00  0.00    -0.237 OA
ATOM     88  O   UNL A   1      47.039  25.463  38.405  1.00  0.00    -0.744 OA
ENDBRANCH  84  85
ENDBRANCH  52  77
BRANCH  64  89
ATOM     89  C   UNL A   1      39.797  33.935  37.318  1.00  0.00     0.058 A 
ATOM     90  C   UNL A   1      38.851  33.607  38.301  1.00  0.00     0.135 A 
ATOM     91  C   UNL A   1      40.555  35.103  37.497  1.00  0.00     0.135 A 
ATOM     92  F   UNL A   1      38.097  32.504  38.174  1.00  0.00    -0.206 F 
ATOM     93  C   UNL A   1      38.654  34.413  39.417  1.00  0.00     0.059 A 
ATOM     94  C   UNL A   1      40.392  35.911  38.617  1.00  0.00     0.059 A 
ATOM     95  F   UNL A   1      41.481  35.453  36.590  1.00  0.00    -0.206 F 
ATOM     96  C   UNL A   1      39.429  35.565  39.565  1.00  0.00     0.060 A 
BRANCH  96  97
ATOM     97  S   UNL A   1      39.186  36.584  41.036  1.00  0.00     0.124 S 
ATOM     98  O   UNL A   1      40.551  36.723  41.531  1.00  0.00    -0.237 OA
ATOM     99  O   UNL A   1      38.586  37.793  40.480  1.00  0.00    -0.237 OA
ATOM    100  O   UNL A   1      38.295  35.776  41.864  1.00  0.00    -0.744 OA
ENDBRANCH  96  97
ENDBRANCH  64  89
ENDBRANCH  38  39
ENDBRANCH  30  33
ENDBRANCH  28  29
ENDBRANCH  27  28
ENDBRANCH  26  27
ENDBRANCH   1  26
TORSDOF 22
ENDMDL
MODEL 2
REMARK VINA RESULT:     -10.6      6.166     10.799
REMARK SMILES C[C@@H](Oc1ccc(F)cc1)C(=O)N[C@@H](CO)C(=O)NCCCCCCNC(=O)c1ccc(-c2c3nc(c(-c4c(F)cc(S(=O)(=O)[O-])cc4F)c4ccc([nH]4)c(-c4c(F)cc(S(=O)(=O)[O-])cc4F)c4nc(c(-c5c(F)cc(S(=O)(=O)[O-])cc5F)c5ccc2[nH]5)C=C4)C=C3)cc1
REMARK SMILES IDX 22 1 21 2 20 3 19 4 17 5 18 6 14 8 13 9 11 10 12 11 2 13
REMARK SMILES IDX 1 14 3 15 4 16 5 17 10 18 6 19 9 20 7 21 8 22 15 23 16 24
REMARK SMILES IDX 23 26 24 27 25 28 26 29 27 30 28 32 29 33 30 34 94 35 31 36
REMARK SMILES IDX 93 37 32 38 33 39 34 40 87 41 35 42 92 43 86 44 88 45 36 46
REMARK SMILES IDX 91 47 85 48 84 49 37 51 71 52 50 53 70 54 51 55 54 56 69 57
REMARK SMILES IDX 89 58 52 59 53 60 68 62 90 63 55 64 38 65 39 66 48 67 40 68
REMARK SMILES IDX 41 69 47 70 49 71 42 72 43 73 44 74 45 75 46 76 72 77 73 78
REMARK SMILES IDX 82 79 74 80 75 81 81 82 83 83 76 84 77 85 78 86 79 87 80 88
REMARK SMILES IDX 56 89 57 90 66 91 58 92 59 93 65 94 67 95 60 96 61 97 62 98
REMARK SMILES IDX 63 99 64 100
REMARK H PARENT 19 7 13 12 16 25 26 31 88 50 54 61
REMARK Flexibility Score: inf
ROOT
ATOM      1  C   UNL A   1      37.638  21.629  25.188  1.00  0.00     0.002 C 
ENDROOT
BRANCH   1   2
ATOM      2  C   UNL A   1      36.320  22.401  25.296  1.00  0.00     0.021 C 
BRANCH   2   3
ATOM      3  C   UNL A   1      35.959  23.226  24.065  1.00  0.00     0.116 C 
BRANCH   3   4
ATOM      4  N   UNL A   1      35.270  24.451  24.416  1.00  0.00    -0.354 N 
ATOM      5  C   UNL A   1      33.964  24.809  24.283  1.00  0.00     0.244 C 
ATOM      6  O   UNL A   1      33.595  25.815  24.900  1.00  0.00    -0.273 OA
ATOM      7  H   UNL A   1      35.845  25.143  24.816  1.00  0.00     0.163 HD
BRANCH   5   8
ATOM      8  C   UNL A   1      32.942  23.963  23.496  1.00  0.00     0.197 C 
BRANCH   8   9
ATOM      9  N   UNL A   1      31.753  23.609  24.284  1.00  0.00    -0.339 N 
ATOM     10  C   UNL A   1      31.589  22.639  25.232  1.00  0.00     0.261 C 
ATOM     11  O   UNL A   1      30.553  22.668  25.901  1.00  0.00    -0.271 OA
ATOM     12  H   UNL A   1      30.953  24.154  24.101  1.00  0.00     0.164 HD
BRANCH  10  13
ATOM     13  C   UNL A   1      32.593  21.487  25.381  1.00  0.00     0.258 C 
ATOM     14  C   UNL A   1      33.176  21.557  26.792  1.00  0.00     0.064 C 
BRANCH  13  15
ATOM     15  O   UNL A   1      31.910  20.268  25.085  1.00  0.00    -0.481 OA
BRANCH  15  16
ATOM     16  C   UNL A   1      32.637  19.338  24.405  1.00  0.00     0.120 A 
ATOM     17  C   UNL A   1      33.842  18.862  24.924  1.00  0.00     0.049 A 
ATOM     18  C   UNL A   1      32.060  18.732  23.289  1.00  0.00     0.049 A 
ATOM     19  C   UNL A   1      34.501  17.809  24.293  1.00  0.00     0.043 A 
ATOM     20  C   UNL A   1      32.713  17.669  22.665  1.00  0.00     0.043 A 
ATOM     21  C   UNL A   1      33.930  17.221  23.170  1.00  0.00     0.123 A 
ATOM     22  F   UNL A   1      34.551  16.190  22.582  1.00  0.00    -0.207 F 
ENDBRANCH  15  16
ENDBRANCH  13  15
ENDBRANCH  10  13
ENDBRANCH   8   9
BRANCH   8  23
ATOM     23  C   UNL A   1      32.619  24.577  22.126  1.00  0.00     0.191 C 
BRANCH  23  24
ATOM     24  O   UNL A   1      31.976  25.844  22.205  1.00  0.00    -0.394 OA
ATOM     25  H   UNL A   1      31.724  26.135  21.315  1.00  0.00     0.210 HD
ENDBRANCH  23  24
ENDBRANCH   8  23
ENDBRANCH   5   8
ENDBRANCH   3   4
ENDBRANCH   2   3
ENDBRANCH   1   2
BRANCH   1  26
ATOM     26  C   UNL A   1      37.512  20.172  24.732  1.00  0.00     0.002 C 
BRANCH  26  27
ATOM     27  C   UNL A   1      38.514  19.191  25.352  1.00  0.00     0.021 C 
BRANCH  27  28
ATOM     28  C   UNL A   1      39.679  19.828  26.105  1.00  0.00     0.116 C 
BRANCH  28  29
ATOM     29  N   UNL A   1      40.858  18.983  26.123  1.00  0.00    -0.352 N 
ATOM     30  C   UNL A   1      42.182  19.329  26.192  1.00  0.00     0.251 C 
ATOM     31  H   UNL A   1      40.682  18.015  26.079  1.00  0.00     0.163 HD
ATOM     32  O   UNL A   1      43.043  18.459  26.041  1.00  0.00    -0.269 OA
BRANCH  30  33
ATOM     33  C   UNL A   1      42.588  20.733  26.419  1.00  0.00     0.039 A 
ATOM     34  C   UNL A   1      42.657  21.202  27.733  1.00  0.00     0.014 A 
ATOM     35  C   UNL A   1      42.868  21.598  25.355  1.00  0.00     0.014 A 
ATOM     36  C   UNL A   1      43.057  22.516  27.983  1.00  0.00     0.010 A 
ATOM     37  C   UNL A   1      43.322  22.893  25.608  1.00  0.00     0.010 A 
ATOM     38  C   UNL A   1      43.421  23.366  26.925  1.00  0.00    -0.014 A 
BRANCH  38  39
ATOM     39  C   UNL A   1      43.916  24.740  27.197  1.00  0.00     0.031 A 
ATOM     40  C   UNL A   1      45.356  25.100  26.946  1.00  0.00     0.074 A 
ATOM     41  C   UNL A   1      43.063  25.665  27.683  1.00  0.00     0.049 A 
ATOM     42  N   UNL A   1      45.961  26.245  27.131  1.00  0.00    -0.248 NA
ATOM     43  C   UNL A   1      46.233  24.035  26.432  1.00  0.00     0.031 C 
ATOM     44  C   UNL A   1      41.652  25.430  28.000  1.00  0.00     0.029 A 
ATOM     45  N   UNL A   1      43.251  26.990  27.988  1.00  0.00    -0.354 N 
ATOM     46  C   UNL A   1      47.283  26.041  26.753  1.00  0.00     0.074 A 
ATOM     47  C   UNL A   1      47.407  24.650  26.377  1.00  0.00     0.031 C 
ATOM     48  C   UNL A   1      41.095  26.579  28.415  1.00  0.00     0.029 A 
ATOM     49  C   UNL A   1      42.112  27.625  28.427  1.00  0.00     0.049 A 
ATOM     50  H   UNL A   1      44.121  27.445  27.900  1.00  0.00     0.167 HD
ATOM     51  C   UNL A   1      48.295  26.941  26.697  1.00  0.00     0.037 A 
ATOM     52  C   UNL A   1      41.909  28.904  28.794  1.00  0.00     0.037 A 
ATOM     53  C   UNL A   1      48.164  28.332  27.046  1.00  0.00     0.049 A 
ATOM     54  C   UNL A   1      43.057  29.875  28.738  1.00  0.00     0.074 A 
ATOM     55  C   UNL A   1      49.127  29.325  26.993  1.00  0.00     0.029 A 
ATOM     56  N   UNL A   1      46.999  28.931  27.501  1.00  0.00    -0.354 N 
ATOM     57  N   UNL A   1      44.292  29.669  28.350  1.00  0.00    -0.248 NA
ATOM     58  C   UNL A   1      42.784  31.254  29.171  1.00  0.00     0.031 C 
ATOM     59  C   UNL A   1      48.553  30.517  27.444  1.00  0.00     0.029 A 
ATOM     60  C   UNL A   1      47.223  30.276  27.743  1.00  0.00     0.049 A 
ATOM     61  H   UNL A   1      46.141  28.468  27.633  1.00  0.00     0.167 HD
ATOM     62  C   UNL A   1      44.937  30.894  28.472  1.00  0.00     0.074 A 
ATOM     63  C   UNL A   1      43.953  31.841  28.952  1.00  0.00     0.031 C 
ATOM     64  C   UNL A   1      46.231  31.207  28.215  1.00  0.00     0.037 A 
BRANCH  51  65
ATOM     65  C   UNL A   1      49.635  26.470  26.205  1.00  0.00     0.058 A 
ATOM     66  C   UNL A   1      50.523  25.804  27.065  1.00  0.00     0.135 A 
ATOM     67  C   UNL A   1      50.082  26.780  24.911  1.00  0.00     0.135 A 
ATOM     68  F   UNL A   1      50.142  25.477  28.310  1.00  0.00    -0.206 F 
ATOM     69  C   UNL A   1      51.819  25.490  26.669  1.00  0.00     0.059 A 
ATOM     70  C   UNL A   1      51.367  26.456  24.486  1.00  0.00     0.059 A 
ATOM     71  F   UNL A   1      49.263  27.396  24.044  1.00  0.00    -0.206 F 
ATOM     72  C   UNL A   1      52.235  25.831  25.381  1.00  0.00     0.060 A 
BRANCH  72  73
ATOM     73  S   UNL A   1      53.926  25.434  24.887  1.00  0.00     0.124 S 
ATOM     74  O   UNL A   1      54.707  26.205  25.849  1.00  0.00    -0.237 OA
ATOM     75  O   UNL A   1      53.961  23.985  25.055  1.00  0.00    -0.237 OA
ATOM     76  O   UNL A   1      53.994  25.900  23.505  1.00  0.00    -0.744 OA
ENDBRANCH  72  73
ENDBRANCH  51  65
BRANCH  52  77
ATOM     77  C   UNL A   1      40.559  29.357  29.222  1.00  0.00     0.058 A 
ATOM     78  C   UNL A   1      40.258  29.578  30.574  1.00  0.00     0.135 A 
ATOM     79  C   UNL A   1      39.547  29.591  28.279  1.00  0.00     0.135 A 
ATOM     80  F   UNL A   1      41.187  29.358  31.516  1.00  0.00    -0.206 F 
ATOM     81  C   UNL A   1      38.999  30.009  30.978  1.00  0.00     0.059 A 
ATOM     82  C   UNL A   1      38.286  30.048  28.656  1.00  0.00     0.059 A 
ATOM     83  F   UNL A   1      39.792  29.404  26.973  1.00  0.00    -0.206 F 
ATOM     84  C   UNL A   1      38.021  30.245  30.010  1.00  0.00     0.060 A 
BRANCH  84  85
ATOM     85  S   UNL A   1      36.404  30.843  30.549  1.00  0.00     0.124 S 
ATOM     86  O   UNL A   1      36.724  32.205  30.966  1.00  0.00    -0.237 OA
ATOM     87  O   UNL A   1      35.609  30.722  29.331  1.00  0.00    -0.237 OA
ATOM     88  O   UNL A   1      36.045  29.922  31.623  1.00  0.00    -0.744 OA
ENDBRANCH  84  85
ENDBRANCH  52  77
BRANCH  64  89
ATOM     89  C   UNL A   1      46.654  32.632  28.430  1.00  0.00     0.058 A 
ATOM     90  C   UNL A   1      46.547  33.572  27.395  1.00  0.00     0.135 A 
ATOM     91  C   UNL A   1      47.215  33.052  29.646  1.00  0.00     0.135 A 
ATOM     92  F   UNL A   1      46.023  33.219  26.210  1.00  0.00    -0.206 F 
ATOM     93  C   UNL A   1      46.988  34.882  27.554  1.00  0.00     0.059 A 
ATOM     94  C   UNL A   1      47.640  34.363  29.836  1.00  0.00     0.059 A 
ATOM     95  F   UNL A   1      47.328  32.192  30.671  1.00  0.00    -0.206 F 
ATOM     96  C   UNL A   1      47.535  35.267  28.778  1.00  0.00     0.060 A 
BRANCH  96  97
ATOM     97  S   UNL A   1      48.074  36.978  28.983  1.00  0.00     0.124 S 
ATOM     98  O   UNL A   1      49.428  36.806  29.496  1.00  0.00    -0.237 OA
ATOM     99  O   UNL A   1      47.971  37.501  27.624  1.00  0.00    -0.237 OA
ATOM    100  O   UNL A   1      47.107  37.525  29.932  1.00  0.00    -0.744 OA
ENDBRANCH  96  97
ENDBRANCH  64  89
ENDBRANCH  38  39
ENDBRANCH  30  33
ENDBRANCH  28  29
ENDBRANCH  27  28
ENDBRANCH  26  27
ENDBRANCH   1  26
TORSDOF 22
ENDMDL
MODEL 3
REMARK VINA RESULT:     -10.3      6.179      8.584
REMARK SMILES C[C@@H](Oc1ccc(F)cc1)C(=O)N[C@@H](CO)C(=O)NCCCCCCNC(=O)c1ccc(-c2c3nc(c(-c4c(F)cc(S(=O)(=O)[O-])cc4F)c4ccc([nH]4)c(-c4c(F)cc(S(=O)(=O)[O-])cc4F)c4nc(c(-c5c(F)cc(S(=O)(=O)[O-])cc5F)c5ccc2[nH]5)C=C4)C=C3)cc1
REMARK SMILES IDX 22 1 21 2 20 3 19 4 17 5 18 6 14 8 13 9 11 10 12 11 2 13
REMARK SMILES IDX 1 14 3 15 4 16 5 17 10 18 6 19 9 20 7 21 8 22 15 23 16 24
REMARK SMILES IDX 23 26 24 27 25 28 26 29 27 30 28 32 29 33 30 34 94 35 31 36
REMARK SMILES IDX 93 37 32 38 33 39 34 40 87 41 35 42 92 43 86 44 88 45 36 46
REMARK SMILES IDX 91 47 85 48 84 49 37 51 71 52 50 53 70 54 51 55 54 56 69 57
REMARK SMILES IDX 89 58 52 59 53 60 68 62 90 63 55 64 38 65 39 66 48 67 40 68
REMARK SMILES IDX 41 69 47 70 49 71 42 72 43 73 44 74 45 75 46 76 72 77 73 78
REMARK SMILES IDX 82 79 74 80 75 81 81 82 83 83 76 84 77 85 78 86 79 87 80 88
REMARK SMILES IDX 56 89 57 90 66 91 58 92 59 93 65 94 67 95 60 96 61 97 62 98
REMARK SMILES IDX 63 99 64 100
REMARK H PARENT 19 7 13 12 16 25 26 31 88 50 54 61
REMARK Flexibility Score: inf
ROOT
ATOM      1  C   UNL A   1      37.534  21.464  25.166  1.00  0.00     0.002 C 
ENDROOT
BRANCH   1   2
ATOM      2  C   UNL A   1      36.262  22.243  24.817  1.00  0.00     0.021 C 
BRANCH   2   3
ATOM      3  C   UNL A   1      36.337  23.042  23.520  1.00  0.00     0.116 C 
BRANCH   3   4
ATOM      4  N   UNL A   1      35.430  24.172  23.526  1.00  0.00    -0.354 N 
ATOM      5  C   UNL A   1      34.071  24.224  23.511  1.00  0.00     0.244 C 
ATOM      6  O   UNL A   1      33.550  25.312  23.782  1.00  0.00    -0.273 OA
ATOM      7  H   UNL A   1      35.872  25.051  23.543  1.00  0.00     0.163 HD
BRANCH   5   8
ATOM      8  C   UNL A   1      33.190  22.980  23.275  1.00  0.00     0.197 C 
BRANCH   8   9
ATOM      9  N   UNL A   1      32.041  22.901  24.190  1.00  0.00    -0.339 N 
ATOM     10  C   UNL A   1      31.879  22.161  25.327  1.00  0.00     0.261 C 
ATOM     11  O   UNL A   1      30.903  22.418  26.037  1.00  0.00    -0.271 OA
ATOM     12  H   UNL A   1      31.273  23.466  23.946  1.00  0.00     0.164 HD
BRANCH  10  13
ATOM     13  C   UNL A   1      32.802  20.978  25.652  1.00  0.00     0.258 C 
ATOM     14  C   UNL A   1      33.459  21.257  27.003  1.00  0.00     0.064 C 
BRANCH  13  15
ATOM     15  O   UNL A   1      32.017  19.785  25.612  1.00  0.00    -0.481 OA
BRANCH  15  16
ATOM     16  C   UNL A   1      32.520  18.777  24.847  1.00  0.00     0.120 A 
ATOM     17  C   UNL A   1      32.533  18.881  23.456  1.00  0.00     0.049 A 
ATOM     18  C   UNL A   1      33.198  17.737  25.485  1.00  0.00     0.049 A 
ATOM     19  C   UNL A   1      33.180  17.910  22.694  1.00  0.00     0.043 A 
ATOM     20  C   UNL A   1      33.857  16.773  24.722  1.00  0.00     0.043 A 
ATOM     21  C   UNL A   1      33.837  16.866  23.333  1.00  0.00     0.123 A 
ATOM     22  F   UNL A   1      34.483  15.949  22.600  1.00  0.00    -0.207 F 
ENDBRANCH  15  16
ENDBRANCH  13  15
ENDBRANCH  10  13
ENDBRANCH   8   9
BRANCH   8  23
ATOM     23  C   UNL A   1      32.817  22.809  21.796  1.00  0.00     0.191 C 
BRANCH  23  24
ATOM     24  O   UNL A   1      32.006  21.669  21.538  1.00  0.00    -0.394 OA
ATOM     25  H   UNL A   1      31.299  21.907  20.918  1.00  0.00     0.210 HD
ENDBRANCH  23  24
ENDBRANCH   8  23
ENDBRANCH   5   8
ENDBRANCH   3   4
ENDBRANCH   2   3
ENDBRANCH   1   2
BRANCH   1  26
ATOM     26  C   UNL A   1      37.586  20.023  24.650  1.00  0.00     0.002 C 
BRANCH  26  27
ATOM     27  C   UNL A   1      38.553  19.087  25.384  1.00  0.00     0.021 C 
BRANCH  27  28
ATOM     28  C   UNL A   1      39.738  19.767  26.065  1.00  0.00     0.116 C 
BRANCH  28  29
ATOM     29  N   UNL A   1      40.913  18.917  26.116  1.00  0.00    -0.352 N 
ATOM     30  C   UNL A   1      42.238  19.259  26.168  1.00  0.00     0.251 C 
ATOM     31  H   UNL A   1      40.731  17.950  26.111  1.00  0.00     0.163 HD
ATOM     32  O   UNL A   1      43.094  18.379  26.052  1.00  0.00    -0.269 OA
BRANCH  30  33
ATOM     33  C   UNL A   1      42.652  20.669  26.338  1.00  0.00     0.039 A 
ATOM     34  C   UNL A   1      42.706  21.197  27.630  1.00  0.00     0.014 A 
ATOM     35  C   UNL A   1      42.954  21.483  25.240  1.00  0.00     0.014 A 
ATOM     36  C   UNL A   1      43.112  22.518  27.827  1.00  0.00     0.010 A 
ATOM     37  C   UNL A   1      43.415  22.785  25.441  1.00  0.00     0.010 A 
ATOM     38  C   UNL A   1      43.498  23.316  26.737  1.00  0.00    -0.014 A 
BRANCH  38  39
ATOM     39  C   UNL A   1      43.999  24.698  26.954  1.00  0.00     0.031 A 
ATOM     40  C   UNL A   1      43.076  25.778  27.451  1.00  0.00     0.074 A 
ATOM     41  C   UNL A   1      45.291  24.980  26.692  1.00  0.00     0.049 A 
ATOM     42  N   UNL A   1      43.339  27.037  27.692  1.00  0.00    -0.248 NA
ATOM     43  C   UNL A   1      41.675  25.401  27.699  1.00  0.00     0.031 C 
ATOM     44  C   UNL A   1      46.277  24.027  26.175  1.00  0.00     0.029 A 
ATOM     45  N   UNL A   1      46.003  26.145  26.832  1.00  0.00    -0.354 N 
ATOM     46  C   UNL A   1      42.143  27.600  28.122  1.00  0.00     0.074 A 
ATOM     47  C   UNL A   1      41.140  26.560  28.061  1.00  0.00     0.031 C 
ATOM     48  C   UNL A   1      47.471  24.634  26.080  1.00  0.00     0.029 A 
ATOM     49  C   UNL A   1      47.333  26.026  26.496  1.00  0.00     0.049 A 
ATOM     50  H   UNL A   1      45.601  26.988  27.145  1.00  0.00     0.167 HD
ATOM     51  C   UNL A   1      41.910  28.862  28.557  1.00  0.00     0.037 A 
ATOM     52  C   UNL A   1      48.327  26.934  26.523  1.00  0.00     0.037 A 
ATOM     53  C   UNL A   1      42.916  29.889  28.642  1.00  0.00     0.049 A 
ATOM     54  C   UNL A   1      48.033  28.332  26.993  1.00  0.00     0.074 A 
ATOM     55  C   UNL A   1      42.779  31.189  29.098  1.00  0.00     0.029 A 
ATOM     56  N   UNL A   1      44.245  29.732  28.278  1.00  0.00    -0.354 N 
ATOM     57  N   UNL A   1      46.902  28.835  27.424  1.00  0.00    -0.248 NA
ATOM     58  C   UNL A   1      49.151  29.287  26.982  1.00  0.00     0.031 C 
ATOM     59  C   UNL A   1      44.017  31.828  28.981  1.00  0.00     0.029 A 
ATOM     60  C   UNL A   1      44.934  30.915  28.487  1.00  0.00     0.049 A 
ATOM     61  H   UNL A   1      44.639  28.904  27.921  1.00  0.00     0.167 HD
ATOM     62  C   UNL A   1      47.176  30.158  27.753  1.00  0.00     0.074 A 
ATOM     63  C   UNL A   1      48.583  30.372  27.490  1.00  0.00     0.031 C 
ATOM     64  C   UNL A   1      46.337  31.111  28.226  1.00  0.00     0.037 A 
BRANCH  51  65
ATOM     65  C   UNL A   1      40.521  29.209  29.014  1.00  0.00     0.058 A 
ATOM     66  C   UNL A   1      39.519  29.536  28.086  1.00  0.00     0.135 A 
ATOM     67  C   UNL A   1      40.216  29.324  30.379  1.00  0.00     0.135 A 
ATOM     68  F   UNL A   1      39.757  29.435  26.770  1.00  0.00    -0.206 F 
ATOM     69  C   UNL A   1      38.273  29.998  28.497  1.00  0.00     0.059 A 
ATOM     70  C   UNL A   1      38.969  29.763  30.813  1.00  0.00     0.059 A 
ATOM     71  F   UNL A   1      41.132  29.001  31.306  1.00  0.00    -0.206 F 
ATOM     72  C   UNL A   1      38.011  30.118  29.863  1.00  0.00     0.060 A 
BRANCH  72  73
ATOM     73  S   UNL A   1      36.395  30.737  30.380  1.00  0.00     0.124 S 
ATOM     74  O   UNL A   1      36.712  32.103  30.783  1.00  0.00    -0.237 OA
ATOM     75  O   UNL A   1      35.610  30.599  29.158  1.00  0.00    -0.237 OA
ATOM     76  O   UNL A   1      36.017  29.833  31.463  1.00  0.00    -0.744 OA
ENDBRANCH  72  73
ENDBRANCH  51  65
BRANCH  52  77
ATOM     77  C   UNL A   1      49.706  26.548  26.119  1.00  0.00     0.058 A 
ATOM     78  C   UNL A   1      50.198  26.836  24.838  1.00  0.00     0.135 A 
ATOM     79  C   UNL A   1      50.562  25.895  27.018  1.00  0.00     0.135 A 
ATOM     80  F   UNL A   1      49.415  27.449  23.936  1.00  0.00    -0.206 F 
ATOM     81  C   UNL A   1      51.489  26.485  24.458  1.00  0.00     0.059 A 
ATOM     82  C   UNL A   1      51.867  25.556  26.671  1.00  0.00     0.059 A 
ATOM     83  F   UNL A   1      50.139  25.610  28.258  1.00  0.00    -0.206 F 
ATOM     84  C   UNL A   1      52.317  25.848  25.384  1.00  0.00     0.060 A 
BRANCH  84  85
ATOM     85  S   UNL A   1      54.004  25.436  24.888  1.00  0.00     0.124 S 
ATOM     86  O   UNL A   1      54.779  26.029  25.974  1.00  0.00    -0.237 OA
ATOM     87  O   UNL A   1      53.968  23.977  24.856  1.00  0.00    -0.237 OA
ATOM     88  O   UNL A   1      54.141  26.085  23.588  1.00  0.00    -0.744 OA
ENDBRANCH  84  85
ENDBRANCH  52  77
BRANCH  64  89
ATOM     89  C   UNL A   1      46.918  32.468  28.506  1.00  0.00     0.058 A 
ATOM     90  C   UNL A   1      46.968  33.444  27.500  1.00  0.00     0.135 A 
ATOM     91  C   UNL A   1      47.473  32.781  29.756  1.00  0.00     0.135 A 
ATOM     92  F   UNL A   1      46.456  33.192  26.284  1.00  0.00    -0.206 F 
ATOM     93  C   UNL A   1      47.556  34.685  27.721  1.00  0.00     0.059 A 
ATOM     94  C   UNL A   1      48.044  34.025  30.007  1.00  0.00     0.059 A 
ATOM     95  F   UNL A   1      47.438  31.884  30.754  1.00  0.00    -0.206 F 
ATOM     96  C   UNL A   1      48.092  34.965  28.978  1.00  0.00     0.060 A 
BRANCH  96  97
ATOM     97  S   UNL A   1      48.823  36.592  29.262  1.00  0.00     0.124 S 
ATOM     98  O   UNL A   1      50.150  36.429  28.679  1.00  0.00    -0.237 OA
ATOM     99  O   UNL A   1      47.913  37.473  28.536  1.00  0.00    -0.237 OA
ATOM    100  O   UNL A   1      48.788  36.729  30.716  1.00  0.00    -0.744 OA
ENDBRANCH  96  97
ENDBRANCH  64  89
ENDBRANCH  38  39
ENDBRANCH  30  33
ENDBRANCH  28  29
ENDBRANCH  27  28
ENDBRANCH  26  27
ENDBRANCH   1  26
TORSDOF 22
ENDMDL
