MODEL 1
REMARK VINA RESULT:     -10.3      0.000      0.000
REMARK SMILES Cc1nc(Nc2ccc(F)cc2)nc(OCC(=O)NCCCCCCNC(=O)c2ccc(-c3c4nc(c(-c5c(F)cc(S(=O)(=O)[O-])cc5F)c5ccc([nH]5)c(-c5c(F)cc(S(=O)(=O)[O-])cc5F)c5nc(c(-c6c(F)cc(S(=O)(=O)[O-])cc6F)c6ccc3[nH]6)C=C5)C=C4)cc2)c1CCO
REMARK SMILES IDX 21 1 20 2 19 3 17 4 18 5 16 7 15 8 14 9 1 10 2 11 3 12 95 13
REMARK SMILES IDX 4 14 13 15 96 16 97 17 98 18 5 20 6 22 7 23 12 24 8 25 11 26
REMARK SMILES IDX 9 27 10 28 22 29 23 30 24 31 25 32 26 33 27 34 28 36 29 37
REMARK SMILES IDX 30 38 94 39 31 40 93 41 32 42 33 43 34 44 87 45 35 46 92 47
REMARK SMILES IDX 86 48 88 49 36 50 91 51 85 52 84 53 37 55 71 56 50 57 70 58
REMARK SMILES IDX 51 59 54 60 69 61 89 62 52 63 53 64 68 66 90 67 55 68 38 69
REMARK SMILES IDX 39 70 48 71 40 72 41 73 47 74 49 75 42 76 43 77 44 78 45 79
REMARK SMILES IDX 46 80 72 81 73 82 82 83 74 84 75 85 81 86 83 87 76 88 77 89
REMARK SMILES IDX 78 90 79 91 80 92 56 93 57 94 66 95 58 96 59 97 65 98 67 99
REMARK SMILES IDX 60 100 61 101 62 102 63 103 64 104
REMARK H PARENT 19 6 98 19 5 21 26 35 88 54 54 65
REMARK Flexibility Score: inf
ROOT
ATOM      1  C   UNL A   1      33.001  20.216  25.278  1.00  0.00     0.021 C 
ENDROOT
BRANCH   1   2
ATOM      2  C   UNL A   1      32.094  21.375  24.883  1.00  0.00     0.116 C 
BRANCH   2   3
ATOM      3  N   UNL A   1      31.238  21.766  25.979  1.00  0.00    -0.353 N 
ATOM      4  C   UNL A   1      31.239  22.932  26.670  1.00  0.00     0.258 C 
ATOM      5  O   UNL A   1      30.365  23.096  27.524  1.00  0.00    -0.271 OA
ATOM      6  H   UNL A   1      30.571  21.100  26.261  1.00  0.00     0.163 HD
BRANCH   4   7
ATOM      7  C   UNL A   1      32.259  24.023  26.315  1.00  0.00     0.331 C 
BRANCH   7   8
ATOM      8  O   UNL A   1      32.225  24.736  25.098  1.00  0.00    -0.467 OA
BRANCH   8   9
ATOM      9  C   UNL A   1      32.749  25.978  24.919  1.00  0.00     0.222 A 
ATOM     10  C   UNL A   1      34.249  28.688  22.771  1.00  0.00     0.067 C 
ATOM     11  C   UNL A   1      33.688  27.850  23.883  1.00  0.00     0.050 A 
ATOM     12  N   UNL A   1      33.689  28.499  25.060  1.00  0.00    -0.218 NA
ATOM     13  C   UNL A   1      33.298  26.517  23.760  1.00  0.00     0.038 A 
ATOM     14  C   UNL A   1      33.317  27.847  26.158  1.00  0.00     0.230 A 
ATOM     15  N   UNL A   1      32.808  26.614  26.114  1.00  0.00    -0.177 NA
BRANCH  13  16
ATOM     16  C   UNL A   1      33.576  25.751  22.496  1.00  0.00     0.071 C 
BRANCH  16  17
ATOM     17  C   UNL A   1      32.354  25.473  21.612  1.00  0.00     0.161 C 
BRANCH  17  18
ATOM     18  O   UNL A   1      31.389  24.615  22.202  1.00  0.00    -0.396 OA
ATOM     19  H   UNL A   1      30.883  24.170  21.504  1.00  0.00     0.210 HD
ENDBRANCH  17  18
ENDBRANCH  16  17
ENDBRANCH  13  16
BRANCH  14  20
ATOM     20  N   UNL A   1      33.599  28.413  27.405  1.00  0.00    -0.324 N 
ATOM     21  H   UNL A   1      33.302  27.905  28.194  1.00  0.00     0.170 HD
BRANCH  20  22
ATOM     22  C   UNL A   1      34.259  29.626  27.654  1.00  0.00     0.041 A 
ATOM     23  C   UNL A   1      33.575  30.850  27.579  1.00  0.00     0.029 A 
ATOM     24  C   UNL A   1      35.650  29.653  27.838  1.00  0.00     0.029 A 
ATOM     25  C   UNL A   1      34.252  32.067  27.685  1.00  0.00     0.041 A 
ATOM     26  C   UNL A   1      36.335  30.872  27.924  1.00  0.00     0.041 A 
ATOM     27  C   UNL A   1      35.629  32.066  27.844  1.00  0.00     0.123 A 
ATOM     28  F   UNL A   1      36.287  33.231  27.904  1.00  0.00    -0.207 F 
ENDBRANCH  20  22
ENDBRANCH  14  20
ENDBRANCH   8   9
ENDBRANCH   7   8
ENDBRANCH   4   7
ENDBRANCH   2   3
ENDBRANCH   1   2
BRANCH   1  29
ATOM     29  C   UNL A   1      34.496  20.459  25.032  1.00  0.00     0.002 C 
BRANCH  29  30
ATOM     30  C   UNL A   1      35.183  21.417  26.013  1.00  0.00     0.002 C 
BRANCH  30  31
ATOM     31  C   UNL A   1      35.510  22.800  25.452  1.00  0.00     0.021 C 
BRANCH  31  32
ATOM     32  C   UNL A   1      36.904  23.302  25.793  1.00  0.00     0.116 C 
BRANCH  32  33
ATOM     33  N   UNL A   1      37.869  22.218  25.861  1.00  0.00    -0.352 N 
ATOM     34  C   UNL A   1      39.192  22.275  26.215  1.00  0.00     0.251 C 
ATOM     35  H   UNL A   1      37.529  21.326  25.622  1.00  0.00     0.163 HD
ATOM     36  O   UNL A   1      39.927  21.310  26.018  1.00  0.00    -0.269 OA
BRANCH  34  37
ATOM     37  C   UNL A   1      39.728  23.515  26.813  1.00  0.00     0.039 A 
ATOM     38  C   UNL A   1      40.375  23.450  28.047  1.00  0.00     0.014 A 
ATOM     39  C   UNL A   1      39.610  24.736  26.139  1.00  0.00     0.014 A 
ATOM     40  C   UNL A   1      40.953  24.603  28.582  1.00  0.00     0.010 A 
ATOM     41  C   UNL A   1      40.258  25.862  26.631  1.00  0.00     0.010 A 
ATOM     42  C   UNL A   1      40.928  25.811  27.862  1.00  0.00    -0.014 A 
BRANCH  42  43
ATOM     43  C   UNL A   1      41.591  27.031  28.385  1.00  0.00     0.031 A 
ATOM     44  C   UNL A   1      43.075  27.211  28.220  1.00  0.00     0.074 A 
ATOM     45  C   UNL A   1      40.865  27.954  29.045  1.00  0.00     0.049 A 
ATOM     46  N   UNL A   1      43.841  28.180  28.650  1.00  0.00    -0.248 NA
ATOM     47  C   UNL A   1      43.800  26.151  27.499  1.00  0.00     0.031 C 
ATOM     48  C   UNL A   1      39.425  27.871  29.296  1.00  0.00     0.029 A 
ATOM     49  N   UNL A   1      41.235  29.142  29.625  1.00  0.00    -0.354 N 
ATOM     50  C   UNL A   1      45.130  27.850  28.250  1.00  0.00     0.074 A 
ATOM     51  C   UNL A   1      45.056  26.555  27.610  1.00  0.00     0.031 C 
ATOM     52  C   UNL A   1      39.027  28.979  29.942  1.00  0.00     0.029 A 
ATOM     53  C   UNL A   1      40.188  29.828  30.192  1.00  0.00     0.049 A 
ATOM     54  H   UNL A   1      42.163  29.470  29.633  1.00  0.00     0.167 HD
ATOM     55  C   UNL A   1      46.268  28.573  28.376  1.00  0.00     0.037 A 
ATOM     56  C   UNL A   1      40.164  31.009  30.842  1.00  0.00     0.037 A 
ATOM     57  C   UNL A   1      46.330  29.866  29.008  1.00  0.00     0.049 A 
ATOM     58  C   UNL A   1      41.447  31.778  31.010  1.00  0.00     0.074 A 
ATOM     59  C   UNL A   1      47.427  30.694  29.163  1.00  0.00     0.029 A 
ATOM     60  N   UNL A   1      45.252  30.519  29.589  1.00  0.00    -0.354 N 
ATOM     61  N   UNL A   1      42.652  31.467  30.593  1.00  0.00    -0.248 NA
ATOM     62  C   UNL A   1      41.370  33.053  31.733  1.00  0.00     0.031 C 
ATOM     63  C   UNL A   1      47.025  31.823  29.882  1.00  0.00     0.029 A 
ATOM     64  C   UNL A   1      45.663  31.728  30.124  1.00  0.00     0.049 A 
ATOM     65  H   UNL A   1      44.330  30.173  29.616  1.00  0.00     0.167 HD
ATOM     66  C   UNL A   1      43.472  32.520  30.983  1.00  0.00     0.074 A 
ATOM     67  C   UNL A   1      42.623  33.481  31.660  1.00  0.00     0.031 C 
ATOM     68  C   UNL A   1      44.807  32.676  30.796  1.00  0.00     0.037 A 
BRANCH  55  69
ATOM     69  C   UNL A   1      47.533  27.989  27.809  1.00  0.00     0.058 A 
ATOM     70  C   UNL A   1      48.395  27.224  28.610  1.00  0.00     0.135 A 
ATOM     71  C   UNL A   1      47.914  28.219  26.475  1.00  0.00     0.135 A 
ATOM     72  F   UNL A   1      48.082  26.968  29.890  1.00  0.00    -0.206 F 
ATOM     73  C   UNL A   1      49.590  26.714  28.112  1.00  0.00     0.059 A 
ATOM     74  C   UNL A   1      49.089  27.692  25.948  1.00  0.00     0.059 A 
ATOM     75  F   UNL A   1      47.118  28.927  25.658  1.00  0.00    -0.206 F 
ATOM     76  C   UNL A   1      49.927  26.949  26.779  1.00  0.00     0.060 A 
BRANCH  76  77
ATOM     77  S   UNL A   1      51.454  26.234  26.135  1.00  0.00     0.124 S 
ATOM     78  O   UNL A   1      51.268  26.374  24.695  1.00  0.00    -0.237 OA
ATOM     79  O   UNL A   1      52.470  27.096  26.734  1.00  0.00    -0.237 OA
ATOM     80  O   UNL A   1      51.428  24.865  26.643  1.00  0.00    -0.744 OA
ENDBRANCH  76  77
ENDBRANCH  55  69
BRANCH  56  81
ATOM     81  C   UNL A   1      38.869  31.545  31.337  1.00  0.00     0.058 A 
ATOM     82  C   UNL A   1      38.159  32.523  30.622  1.00  0.00     0.135 A 
ATOM     83  C   UNL A   1      38.348  31.133  32.573  1.00  0.00     0.135 A 
ATOM     84  F   UNL A   1      38.618  32.959  29.439  1.00  0.00    -0.206 F 
ATOM     85  C   UNL A   1      37.002  33.101  31.133  1.00  0.00     0.059 A 
ATOM     86  C   UNL A   1      37.178  31.678  33.093  1.00  0.00     0.059 A 
ATOM     87  F   UNL A   1      38.984  30.192  33.287  1.00  0.00    -0.206 F 
ATOM     88  C   UNL A   1      36.524  32.677  32.374  1.00  0.00     0.060 A 
BRANCH  88  89
ATOM     89  S   UNL A   1      35.046  33.474  33.038  1.00  0.00     0.124 S 
ATOM     90  O   UNL A   1      35.251  33.319  34.474  1.00  0.00    -0.237 OA
ATOM     91  O   UNL A   1      35.175  34.832  32.521  1.00  0.00    -0.237 OA
ATOM     92  O   UNL A   1      33.954  32.689  32.470  1.00  0.00    -0.744 OA
ENDBRANCH  88  89
ENDBRANCH  56  81
BRANCH  68  93
ATOM     93  C   UNL A   1      45.444  33.938  31.312  1.00  0.00     0.058 A 
ATOM     94  C   UNL A   1      45.970  33.989  32.612  1.00  0.00     0.135 A 
ATOM     95  C   UNL A   1      45.451  35.121  30.556  1.00  0.00     0.135 A 
ATOM     96  F   UNL A   1      45.983  32.887  33.381  1.00  0.00    -0.206 F 
ATOM     97  C   UNL A   1      46.457  35.172  33.155  1.00  0.00     0.059 A 
ATOM     98  C   UNL A   1      45.961  36.310  31.068  1.00  0.00     0.059 A 
ATOM     99  F   UNL A   1      44.970  35.123  29.303  1.00  0.00    -0.206 F 
ATOM    100  C   UNL A   1      46.444  36.329  32.377  1.00  0.00     0.060 A 
BRANCH 100 101
ATOM    101  S   UNL A   1      47.080  37.857  33.099  1.00  0.00     0.124 S 
ATOM    102  O   UNL A   1      48.350  37.416  33.664  1.00  0.00    -0.237 OA
ATOM    103  O   UNL A   1      47.173  38.733  31.934  1.00  0.00    -0.237 OA
ATOM    104  O   UNL A   1      46.055  38.225  34.071  1.00  0.00    -0.744 OA
ENDBRANCH 100 101
ENDBRANCH  68  93
ENDBRANCH  42  43
ENDBRANCH  34  37
ENDBRANCH  32  33
ENDBRANCH  31  32
ENDBRANCH  30  31
ENDBRANCH  29  30
ENDBRANCH   1  29
TORSDOF 23
ENDMDL
MODEL 2
REMARK VINA RESULT:     -10.1      4.964      6.925
REMARK SMILES Cc1nc(Nc2ccc(F)cc2)nc(OCC(=O)NCCCCCCNC(=O)c2ccc(-c3c4nc(c(-c5c(F)cc(S(=O)(=O)[O-])cc5F)c5ccc([nH]5)c(-c5c(F)cc(S(=O)(=O)[O-])cc5F)c5nc(c(-c6c(F)cc(S(=O)(=O)[O-])cc6F)c6ccc3[nH]6)C=C5)C=C4)cc2)c1CCO
REMARK SMILES IDX 21 1 20 2 19 3 17 4 18 5 16 7 15 8 14 9 1 10 2 11 3 12 95 13
REMARK SMILES IDX 4 14 13 15 96 16 97 17 98 18 5 20 6 22 7 23 12 24 8 25 11 26
REMARK SMILES IDX 9 27 10 28 22 29 23 30 24 31 25 32 26 33 27 34 28 36 29 37
REMARK SMILES IDX 30 38 94 39 31 40 93 41 32 42 33 43 34 44 87 45 35 46 92 47
REMARK SMILES IDX 86 48 88 49 36 50 91 51 85 52 84 53 37 55 71 56 50 57 70 58
REMARK SMILES IDX 51 59 54 60 69 61 89 62 52 63 53 64 68 66 90 67 55 68 38 69
REMARK SMILES IDX 39 70 48 71 40 72 41 73 47 74 49 75 42 76 43 77 44 78 45 79
REMARK SMILES IDX 46 80 72 81 73 82 82 83 74 84 75 85 81 86 83 87 76 88 77 89
REMARK SMILES IDX 78 90 79 91 80 92 56 93 57 94 66 95 58 96 59 97 65 98 67 99
REMARK SMILES IDX 60 100 61 101 62 102 63 103 64 104
REMARK H PARENT 19 6 98 19 5 21 26 35 88 54 54 65
REMARK Flexibility Score: inf
ROOT
ATOM      1  C   UNL A   1      35.741  23.894  24.365  1.00  0.00     0.021 C 
ENDROOT
BRANCH   1   2
ATOM      2  C   UNL A   1      34.485  24.756  24.318  1.00  0.00     0.116 C 
BRANCH   2   3
ATOM      3  N   UNL A   1      34.030  24.943  22.960  1.00  0.00    -0.353 N 
ATOM      4  C   UNL A   1      33.557  26.073  22.381  1.00  0.00     0.258 C 
ATOM      5  O   UNL A   1      33.296  26.037  21.177  1.00  0.00    -0.271 OA
ATOM      6  H   UNL A   1      34.066  24.147  22.382  1.00  0.00     0.163 HD
BRANCH   4   7
ATOM      7  C   UNL A   1      33.443  27.360  23.211  1.00  0.00     0.331 C 
BRANCH   7   8
ATOM      8  O   UNL A   1      32.313  28.204  23.163  1.00  0.00    -0.467 OA
BRANCH   8   9
ATOM      9  C   UNL A   1      31.041  27.801  23.422  1.00  0.00     0.222 A 
ATOM     10  C   UNL A   1      27.302  28.164  23.124  1.00  0.00     0.067 C 
ATOM     11  C   UNL A   1      28.705  27.732  23.431  1.00  0.00     0.050 A 
ATOM     12  N   UNL A   1      28.742  26.618  24.180  1.00  0.00    -0.218 NA
ATOM     13  C   UNL A   1      29.854  28.441  23.081  1.00  0.00     0.038 A 
ATOM     14  C   UNL A   1      29.917  26.172  24.620  1.00  0.00     0.230 A 
ATOM     15  N   UNL A   1      31.072  26.712  24.228  1.00  0.00    -0.177 NA
BRANCH  13  16
ATOM     16  C   UNL A   1      29.753  29.821  22.490  1.00  0.00     0.071 C 
BRANCH  16  17
ATOM     17  C   UNL A   1      29.213  30.903  23.434  1.00  0.00     0.161 C 
BRANCH  17  18
ATOM     18  O   UNL A   1      30.128  31.313  24.438  1.00  0.00    -0.396 OA
ATOM     19  H   UNL A   1      29.833  32.154  24.821  1.00  0.00     0.210 HD
ENDBRANCH  17  18
ENDBRANCH  16  17
ENDBRANCH  13  16
BRANCH  14  20
ATOM     20  N   UNL A   1      29.935  25.206  25.629  1.00  0.00    -0.324 N 
ATOM     21  H   UNL A   1      29.279  25.316  26.355  1.00  0.00     0.170 HD
BRANCH  20  22
ATOM     22  C   UNL A   1      30.788  24.095  25.722  1.00  0.00     0.041 A 
ATOM     23  C   UNL A   1      31.581  23.885  26.862  1.00  0.00     0.029 A 
ATOM     24  C   UNL A   1      30.977  23.251  24.617  1.00  0.00     0.029 A 
ATOM     25  C   UNL A   1      32.533  22.864  26.905  1.00  0.00     0.041 A 
ATOM     26  C   UNL A   1      31.945  22.240  24.649  1.00  0.00     0.041 A 
ATOM     27  C   UNL A   1      32.716  22.059  25.792  1.00  0.00     0.123 A 
ATOM     28  F   UNL A   1      33.657  21.106  25.813  1.00  0.00    -0.207 F 
ENDBRANCH  20  22
ENDBRANCH  14  20
ENDBRANCH   8   9
ENDBRANCH   7   8
ENDBRANCH   4   7
ENDBRANCH   2   3
ENDBRANCH   1   2
BRANCH   1  29
ATOM     29  C   UNL A   1      36.187  23.485  25.775  1.00  0.00     0.002 C 
BRANCH  29  30
ATOM     30  C   UNL A   1      37.543  24.037  26.228  1.00  0.00     0.002 C 
BRANCH  30  31
ATOM     31  C   UNL A   1      38.696  23.035  26.203  1.00  0.00     0.021 C 
BRANCH  31  32
ATOM     32  C   UNL A   1      39.933  23.481  26.966  1.00  0.00     0.116 C 
BRANCH  32  33
ATOM     33  N   UNL A   1      40.994  23.916  26.075  1.00  0.00    -0.352 N 
ATOM     34  C   UNL A   1      41.711  25.083  26.107  1.00  0.00     0.251 C 
ATOM     35  H   UNL A   1      41.227  23.291  25.351  1.00  0.00     0.163 HD
ATOM     36  O   UNL A   1      42.427  25.397  25.158  1.00  0.00    -0.269 OA
BRANCH  34  37
ATOM     37  C   UNL A   1      41.598  25.969  27.284  1.00  0.00     0.039 A 
ATOM     38  C   UNL A   1      42.201  27.227  27.248  1.00  0.00     0.014 A 
ATOM     39  C   UNL A   1      40.876  25.562  28.411  1.00  0.00     0.014 A 
ATOM     40  C   UNL A   1      42.033  28.100  28.324  1.00  0.00     0.010 A 
ATOM     41  C   UNL A   1      40.640  26.463  29.442  1.00  0.00     0.010 A 
ATOM     42  C   UNL A   1      41.224  27.738  29.415  1.00  0.00    -0.014 A 
BRANCH  42  43
ATOM     43  C   UNL A   1      40.982  28.676  30.538  1.00  0.00     0.031 A 
ATOM     44  C   UNL A   1      41.833  28.605  31.776  1.00  0.00     0.074 A 
ATOM     45  C   UNL A   1      39.969  29.561  30.462  1.00  0.00     0.049 A 
ATOM     46  N   UNL A   1      41.745  29.303  32.879  1.00  0.00    -0.248 NA
ATOM     47  C   UNL A   1      42.911  27.601  31.787  1.00  0.00     0.031 C 
ATOM     48  C   UNL A   1      39.054  29.699  29.327  1.00  0.00     0.029 A 
ATOM     49  N   UNL A   1      39.537  30.511  31.353  1.00  0.00    -0.354 N 
ATOM     50  C   UNL A   1      42.753  28.826  33.709  1.00  0.00     0.074 A 
ATOM     51  C   UNL A   1      43.391  27.731  33.014  1.00  0.00     0.031 C 
ATOM     52  C   UNL A   1      38.198  30.703  29.573  1.00  0.00     0.029 A 
ATOM     53  C   UNL A   1      38.469  31.248  30.900  1.00  0.00     0.049 A 
ATOM     54  H   UNL A   1      39.953  30.650  32.235  1.00  0.00     0.167 HD
ATOM     55  C   UNL A   1      43.132  29.281  34.927  1.00  0.00     0.037 A 
ATOM     56  C   UNL A   1      37.785  32.251  31.485  1.00  0.00     0.037 A 
ATOM     57  C   UNL A   1      42.495  30.379  35.607  1.00  0.00     0.049 A 
ATOM     58  C   UNL A   1      38.195  32.713  32.857  1.00  0.00     0.074 A 
ATOM     59  C   UNL A   1      42.821  30.935  36.831  1.00  0.00     0.029 A 
ATOM     60  N   UNL A   1      41.404  31.087  35.124  1.00  0.00    -0.354 N 
ATOM     61  N   UNL A   1      39.175  32.276  33.613  1.00  0.00    -0.248 NA
ATOM     62  C   UNL A   1      37.411  33.802  33.456  1.00  0.00     0.031 C 
ATOM     63  C   UNL A   1      41.895  31.945  37.112  1.00  0.00     0.029 A 
ATOM     64  C   UNL A   1      41.029  32.059  36.036  1.00  0.00     0.049 A 
ATOM     65  H   UNL A   1      40.962  30.923  34.260  1.00  0.00     0.167 HD
ATOM     66  C   UNL A   1      39.139  33.052  34.767  1.00  0.00     0.074 A 
ATOM     67  C   UNL A   1      38.048  33.992  34.604  1.00  0.00     0.031 C 
ATOM     68  C   UNL A   1      39.939  32.990  35.861  1.00  0.00     0.037 A 
BRANCH  55  69
ATOM     69  C   UNL A   1      44.297  28.601  35.594  1.00  0.00     0.058 A 
ATOM     70  C   UNL A   1      44.094  27.548  36.499  1.00  0.00     0.135 A 
ATOM     71  C   UNL A   1      45.620  29.019  35.366  1.00  0.00     0.135 A 
ATOM     72  F   UNL A   1      42.853  27.103  36.754  1.00  0.00    -0.206 F 
ATOM     73  C   UNL A   1      45.157  26.938  37.158  1.00  0.00     0.059 A 
ATOM     74  C   UNL A   1      46.700  28.402  35.989  1.00  0.00     0.059 A 
ATOM     75  F   UNL A   1      45.875  30.009  34.494  1.00  0.00    -0.206 F 
ATOM     76  C   UNL A   1      46.457  27.369  36.893  1.00  0.00     0.060 A 
BRANCH  76  77
ATOM     77  S   UNL A   1      47.829  26.530  37.714  1.00  0.00     0.124 S 
ATOM     78  O   UNL A   1      48.521  27.643  38.355  1.00  0.00    -0.237 OA
ATOM     79  O   UNL A   1      47.132  25.612  38.610  1.00  0.00    -0.237 OA
ATOM     80  O   UNL A   1      48.545  25.894  36.613  1.00  0.00    -0.744 OA
ENDBRANCH  76  77
ENDBRANCH  55  69
BRANCH  56  81
ATOM     81  C   UNL A   1      36.672  32.906  30.747  1.00  0.00     0.058 A 
ATOM     82  C   UNL A   1      36.918  33.864  29.751  1.00  0.00     0.135 A 
ATOM     83  C   UNL A   1      35.336  32.629  31.073  1.00  0.00     0.135 A 
ATOM     84  F   UNL A   1      38.178  34.172  29.408  1.00  0.00    -0.206 F 
ATOM     85  C   UNL A   1      35.880  34.553  29.133  1.00  0.00     0.059 A 
ATOM     86  C   UNL A   1      34.279  33.287  30.449  1.00  0.00     0.059 A 
ATOM     87  F   UNL A   1      35.051  31.712  32.009  1.00  0.00    -0.206 F 
ATOM     88  C   UNL A   1      34.563  34.263  29.496  1.00  0.00     0.060 A 
BRANCH  88  89
ATOM     89  S   UNL A   1      33.235  35.202  28.713  1.00  0.00     0.124 S 
ATOM     90  O   UNL A   1      32.496  35.685  29.875  1.00  0.00    -0.237 OA
ATOM     91  O   UNL A   1      33.976  36.212  27.966  1.00  0.00    -0.237 OA
ATOM     92  O   UNL A   1      32.547  34.203  27.901  1.00  0.00    -0.744 OA
ENDBRANCH  88  89
ENDBRANCH  56  81
BRANCH  68  93
ATOM     93  C   UNL A   1      39.687  33.974  36.971  1.00  0.00     0.058 A 
ATOM     94  C   UNL A   1      40.277  35.248  36.939  1.00  0.00     0.135 A 
ATOM     95  C   UNL A   1      38.941  33.626  38.107  1.00  0.00     0.135 A 
ATOM     96  F   UNL A   1      41.006  35.630  35.878  1.00  0.00    -0.206 F 
ATOM     97  C   UNL A   1      40.157  36.132  38.005  1.00  0.00     0.059 A 
ATOM     98  C   UNL A   1      38.782  34.506  39.173  1.00  0.00     0.059 A 
ATOM     99  F   UNL A   1      38.347  32.424  38.183  1.00  0.00    -0.206 F 
ATOM    100  C   UNL A   1      39.411  35.751  39.120  1.00  0.00     0.060 A 
BRANCH 100 101
ATOM    101  S   UNL A   1      39.268  36.912  40.495  1.00  0.00     0.124 S 
ATOM    102  O   UNL A   1      38.503  36.136  41.465  1.00  0.00    -0.237 OA
ATOM    103  O   UNL A   1      40.667  37.156  40.838  1.00  0.00    -0.237 OA
ATOM    104  O   UNL A   1      38.566  38.049  39.908  1.00  0.00    -0.744 OA
ENDBRANCH 100 101
ENDBRANCH  68  93
ENDBRANCH  42  43
ENDBRANCH  34  37
ENDBRANCH  32  33
ENDBRANCH  31  32
ENDBRANCH  30  31
ENDBRANCH  29  30
ENDBRANCH   1  29
TORSDOF 23
ENDMDL
MODEL 3
REMARK VINA RESULT:     -10.1      4.958      8.971
REMARK SMILES Cc1nc(Nc2ccc(F)cc2)nc(OCC(=O)NCCCCCCNC(=O)c2ccc(-c3c4nc(c(-c5c(F)cc(S(=O)(=O)[O-])cc5F)c5ccc([nH]5)c(-c5c(F)cc(S(=O)(=O)[O-])cc5F)c5nc(c(-c6c(F)cc(S(=O)(=O)[O-])cc6F)c6ccc3[nH]6)C=C5)C=C4)cc2)c1CCO
REMARK SMILES IDX 21 1 20 2 19 3 17 4 18 5 16 7 15 8 14 9 1 10 2 11 3 12 95 13
REMARK SMILES IDX 4 14 13 15 96 16 97 17 98 18 5 20 6 22 7 23 12 24 8 25 11 26
REMARK SMILES IDX 9 27 10 28 22 29 23 30 24 31 25 32 26 33 27 34 28 36 29 37
REMARK SMILES IDX 30 38 94 39 31 40 93 41 32 42 33 43 34 44 87 45 35 46 92 47
REMARK SMILES IDX 86 48 88 49 36 50 91 51 85 52 84 53 37 55 71 56 50 57 70 58
REMARK SMILES IDX 51 59 54 60 69 61 89 62 52 63 53 64 68 66 90 67 55 68 38 69
REMARK SMILES IDX 39 70 48 71 40 72 41 73 47 74 49 75 42 76 43 77 44 78 45 79
REMARK SMILES IDX 46 80 72 81 73 82 82 83 74 84 75 85 81 86 83 87 76 88 77 89
REMARK SMILES IDX 78 90 79 91 80 92 56 93 57 94 66 95 58 96 59 97 65 98 67 99
REMARK SMILES IDX 60 100 61 101 62 102 63 103 64 104
REMARK H PARENT 19 6 98 19 5 21 26 35 88 54 54 65
REMARK Flexibility Score: inf
ROOT
ATOM      1  C   UNL A   1      36.069  20.655  25.003  1.00  0.00     0.021 C 
ENDROOT
BRANCH   1   2
ATOM      2  C   UNL A   1      34.570  20.927  25.019  1.00  0.00     0.116 C 
BRANCH   2   3
ATOM      3  N   UNL A   1      34.083  21.084  26.370  1.00  0.00    -0.353 N 
ATOM      4  C   UNL A   1      33.419  22.136  26.906  1.00  0.00     0.258 C 
ATOM      5  O   UNL A   1      33.018  22.033  28.067  1.00  0.00    -0.271 OA
ATOM      6  H   UNL A   1      34.257  20.330  26.979  1.00  0.00     0.163 HD
BRANCH   4   7
ATOM      7  C   UNL A   1      33.121  23.368  26.038  1.00  0.00     0.331 C 
BRANCH   7   8
ATOM      8  O   UNL A   1      31.816  23.872  25.847  1.00  0.00    -0.467 OA
BRANCH   8   9
ATOM      9  C   UNL A   1      31.533  25.121  25.394  1.00  0.00     0.222 A 
ATOM     10  C   UNL A   1      30.661  27.560  22.656  1.00  0.00     0.067 C 
ATOM     11  C   UNL A   1      30.991  26.878  23.951  1.00  0.00     0.050 A 
ATOM     12  N   UNL A   1      31.017  27.734  24.986  1.00  0.00    -0.218 NA
ATOM     13  C   UNL A   1      31.335  25.533  24.080  1.00  0.00     0.038 A 
ATOM     14  C   UNL A   1      31.397  27.293  26.182  1.00  0.00     0.230 A 
ATOM     15  N   UNL A   1      31.618  26.000  26.424  1.00  0.00    -0.177 NA
BRANCH  13  16
ATOM     16  C   UNL A   1      31.566  24.680  22.862  1.00  0.00     0.071 C 
BRANCH  16  17
ATOM     17  C   UNL A   1      33.034  24.473  22.473  1.00  0.00     0.161 C 
BRANCH  17  18
ATOM     18  O   UNL A   1      33.667  25.627  21.942  1.00  0.00    -0.396 OA
ATOM     19  H   UNL A   1      33.354  26.414  22.415  1.00  0.00     0.210 HD
ENDBRANCH  17  18
ENDBRANCH  16  17
ENDBRANCH  13  16
BRANCH  14  20
ATOM     20  N   UNL A   1      31.710  28.224  27.175  1.00  0.00    -0.324 N 
ATOM     21  H   UNL A   1      31.120  28.242  27.963  1.00  0.00     0.170 HD
BRANCH  20  22
ATOM     22  C   UNL A   1      32.776  29.138  27.173  1.00  0.00     0.041 A 
ATOM     23  C   UNL A   1      34.107  28.696  27.247  1.00  0.00     0.029 A 
ATOM     24  C   UNL A   1      32.529  30.517  27.249  1.00  0.00     0.029 A 
ATOM     25  C   UNL A   1      35.164  29.598  27.388  1.00  0.00     0.041 A 
ATOM     26  C   UNL A   1      33.585  31.423  27.412  1.00  0.00     0.041 A 
ATOM     27  C   UNL A   1      34.891  30.954  27.483  1.00  0.00     0.123 A 
ATOM     28  F   UNL A   1      35.898  31.819  27.661  1.00  0.00    -0.207 F 
ENDBRANCH  20  22
ENDBRANCH  14  20
ENDBRANCH   8   9
ENDBRANCH   7   8
ENDBRANCH   4   7
ENDBRANCH   2   3
ENDBRANCH   1   2
BRANCH   1  29
ATOM     29  C   UNL A   1      36.945  21.899  24.803  1.00  0.00     0.002 C 
BRANCH  29  30
ATOM     30  C   UNL A   1      36.957  22.896  25.968  1.00  0.00     0.002 C 
BRANCH  30  31
ATOM     31  C   UNL A   1      37.988  24.018  25.854  1.00  0.00     0.021 C 
BRANCH  31  32
ATOM     32  C   UNL A   1      39.174  23.879  26.794  1.00  0.00     0.116 C 
BRANCH  32  33
ATOM     33  N   UNL A   1      40.432  24.170  26.128  1.00  0.00    -0.352 N 
ATOM     34  C   UNL A   1      41.239  25.269  26.271  1.00  0.00     0.251 C 
ATOM     35  H   UNL A   1      40.746  23.490  25.489  1.00  0.00     0.163 HD
ATOM     36  O   UNL A   1      42.160  25.468  25.481  1.00  0.00    -0.269 OA
BRANCH  34  37
ATOM     37  C   UNL A   1      40.976  26.222  27.369  1.00  0.00     0.039 A 
ATOM     38  C   UNL A   1      40.037  25.890  28.346  1.00  0.00     0.014 A 
ATOM     39  C   UNL A   1      41.676  27.432  27.441  1.00  0.00     0.014 A 
ATOM     40  C   UNL A   1      39.839  26.749  29.429  1.00  0.00     0.010 A 
ATOM     41  C   UNL A   1      41.540  28.242  28.562  1.00  0.00     0.010 A 
ATOM     42  C   UNL A   1      40.613  27.915  29.562  1.00  0.00    -0.014 A 
BRANCH  42  43
ATOM     43  C   UNL A   1      40.462  28.808  30.738  1.00  0.00     0.031 A 
ATOM     44  C   UNL A   1      39.448  29.919  30.715  1.00  0.00     0.074 A 
ATOM     45  C   UNL A   1      41.268  28.647  31.805  1.00  0.00     0.049 A 
ATOM     46  N   UNL A   1      39.202  30.830  31.620  1.00  0.00    -0.248 NA
ATOM     47  C   UNL A   1      38.616  30.037  29.505  1.00  0.00     0.031 C 
ATOM     48  C   UNL A   1      42.311  27.628  31.927  1.00  0.00     0.029 A 
ATOM     49  N   UNL A   1      41.337  29.336  32.991  1.00  0.00    -0.354 N 
ATOM     50  C   UNL A   1      38.191  31.623  31.094  1.00  0.00     0.074 A 
ATOM     51  C   UNL A   1      37.919  31.134  29.761  1.00  0.00     0.031 C 
ATOM     52  C   UNL A   1      42.887  27.731  33.135  1.00  0.00     0.029 A 
ATOM     53  C   UNL A   1      42.289  28.852  33.855  1.00  0.00     0.049 A 
ATOM     54  H   UNL A   1      40.758  30.105  33.200  1.00  0.00     0.167 HD
ATOM     55  C   UNL A   1      37.525  32.647  31.679  1.00  0.00     0.037 A 
ATOM     56  C   UNL A   1      42.642  29.263  35.089  1.00  0.00     0.037 A 
ATOM     57  C   UNL A   1      37.797  33.122  33.012  1.00  0.00     0.049 A 
ATOM     58  C   UNL A   1      41.920  30.430  35.706  1.00  0.00     0.074 A 
ATOM     59  C   UNL A   1      37.162  34.134  33.709  1.00  0.00     0.029 A 
ATOM     60  N   UNL A   1      38.783  32.619  33.849  1.00  0.00    -0.354 N 
ATOM     61  N   UNL A   1      40.939  31.146  35.209  1.00  0.00    -0.248 NA
ATOM     62  C   UNL A   1      42.348  30.845  37.048  1.00  0.00     0.031 C 
ATOM     63  C   UNL A   1      37.797  34.278  34.946  1.00  0.00     0.029 A 
ATOM     64  C   UNL A   1      38.789  33.316  35.046  1.00  0.00     0.049 A 
ATOM     65  H   UNL A   1      39.389  31.876  33.625  1.00  0.00     0.167 HD
ATOM     66  C   UNL A   1      40.618  32.081  36.186  1.00  0.00     0.074 A 
ATOM     67  C   UNL A   1      41.502  31.833  37.307  1.00  0.00     0.031 C 
ATOM     68  C   UNL A   1      39.675  33.057  36.156  1.00  0.00     0.037 A 
BRANCH  55  69
ATOM     69  C   UNL A   1      36.431  33.313  30.889  1.00  0.00     0.058 A 
ATOM     70  C   UNL A   1      36.735  34.207  29.851  1.00  0.00     0.135 A 
ATOM     71  C   UNL A   1      35.075  33.094  31.185  1.00  0.00     0.135 A 
ATOM     72  F   UNL A   1      38.013  34.452  29.521  1.00  0.00    -0.206 F 
ATOM     73  C   UNL A   1      35.736  34.864  29.139  1.00  0.00     0.059 A 
ATOM     74  C   UNL A   1      34.059  33.715  30.465  1.00  0.00     0.059 A 
ATOM     75  F   UNL A   1      34.725  32.233  32.155  1.00  0.00    -0.206 F 
ATOM     76  C   UNL A   1      34.400  34.608  29.450  1.00  0.00     0.060 A 
BRANCH  76  77
ATOM     77  S   UNL A   1      33.116  35.427  28.482  1.00  0.00     0.124 S 
ATOM     78  O   UNL A   1      32.324  36.076  29.520  1.00  0.00    -0.237 OA
ATOM     79  O   UNL A   1      33.899  36.315  27.627  1.00  0.00    -0.237 OA
ATOM     80  O   UNL A   1      32.460  34.323  27.787  1.00  0.00    -0.744 OA
ENDBRANCH  76  77
ENDBRANCH  55  69
BRANCH  56  81
ATOM     81  C   UNL A   1      43.703  28.528  35.829  1.00  0.00     0.058 A 
ATOM     82  C   UNL A   1      45.052  28.902  35.738  1.00  0.00     0.135 A 
ATOM     83  C   UNL A   1      43.389  27.394  36.593  1.00  0.00     0.135 A 
ATOM     84  F   UNL A   1      45.407  29.974  35.012  1.00  0.00    -0.206 F 
ATOM     85  C   UNL A   1      46.057  28.156  36.344  1.00  0.00     0.059 A 
ATOM     86  C   UNL A   1      44.374  26.646  37.232  1.00  0.00     0.059 A 
ATOM     87  F   UNL A   1      42.112  27.005  36.721  1.00  0.00    -0.206 F 
ATOM     88  C   UNL A   1      45.708  27.023  37.082  1.00  0.00     0.060 A 
BRANCH  88  89
ATOM     89  S   UNL A   1      47.032  26.044  37.822  1.00  0.00     0.124 S 
ATOM     90  O   UNL A   1      46.348  24.783  38.087  1.00  0.00    -0.237 OA
ATOM     91  O   UNL A   1      48.023  26.017  36.752  1.00  0.00    -0.237 OA
ATOM     92  O   UNL A   1      47.405  26.817  39.003  1.00  0.00    -0.744 OA
ENDBRANCH  88  89
ENDBRANCH  56  81
BRANCH  68  93
ATOM     93  C   UNL A   1      39.528  33.927  37.374  1.00  0.00     0.058 A 
ATOM     94  C   UNL A   1      40.225  35.142  37.469  1.00  0.00     0.135 A 
ATOM     95  C   UNL A   1      38.773  33.517  38.484  1.00  0.00     0.135 A 
ATOM     96  F   UNL A   1      40.967  35.579  36.438  1.00  0.00    -0.206 F 
ATOM     97  C   UNL A   1      40.200  35.907  38.629  1.00  0.00     0.059 A 
ATOM     98  C   UNL A   1      38.709  34.281  39.645  1.00  0.00     0.059 A 
ATOM     99  F   UNL A   1      38.079  32.368  38.441  1.00  0.00    -0.206 F 
ATOM    100  C   UNL A   1      39.442  35.466  39.715  1.00  0.00     0.060 A 
BRANCH 100 101
ATOM    101  S   UNL A   1      39.423  36.473  41.214  1.00  0.00     0.124 S 
ATOM    102  O   UNL A   1      38.523  35.712  42.073  1.00  0.00    -0.237 OA
ATOM    103  O   UNL A   1      40.830  36.467  41.605  1.00  0.00    -0.237 OA
ATOM    104  O   UNL A   1      38.913  37.760  40.752  1.00  0.00    -0.744 OA
ENDBRANCH 100 101
ENDBRANCH  68  93
ENDBRANCH  42  43
ENDBRANCH  34  37
ENDBRANCH  32  33
ENDBRANCH  31  32
ENDBRANCH  30  31
ENDBRANCH  29  30
ENDBRANCH   1  29
TORSDOF 23
ENDMDL
