MODEL 1
REMARK VINA RESULT:     -11.5      0.000      0.000
REMARK SMILES CSc1ccc(/C=C2\C(C)=C(CC(=O)NCCCCCCNC(=O)c3ccc(-c4c5nc(c(-c6c(F)cc(S(=O)(=O)[O-])cc6F)c6ccc([nH]6)c(-c6c(F)cc(S(=O)(=O)[O-])cc6F)c6nc(c(-c7c(F)cc(S(=O)(=O)[O-])cc7F)c7ccc4[nH]7)C=C6)C=C5)cc3)c3cc(F)ccc32)cc1
REMARK SMILES IDX 18 1 17 2 16 3 15 4 13 5 14 6 12 8 11 9 7 10 8 11 9 12 97 13
REMARK SMILES IDX 10 14 91 15 96 16 92 17 95 18 93 19 94 20 6 21 3 22 4 23
REMARK SMILES IDX 99 24 5 25 98 26 2 27 1 28 19 29 20 30 21 31 22 32 23 33
REMARK SMILES IDX 24 35 25 36 26 37 90 38 27 39 89 40 28 41 29 42 30 43 83 44
REMARK SMILES IDX 31 45 88 46 82 47 84 48 32 49 87 50 81 51 80 52 33 54 67 55
REMARK SMILES IDX 46 56 66 57 47 58 50 59 65 60 85 61 48 62 49 63 64 65 86 66
REMARK SMILES IDX 51 67 34 68 35 69 44 70 36 71 37 72 43 73 45 74 38 75 39 76
REMARK SMILES IDX 40 77 41 78 42 79 68 80 69 81 78 82 70 83 71 84 77 85 79 86
REMARK SMILES IDX 72 87 73 88 74 89 75 90 76 91 52 92 53 93 62 94 54 95 55 96
REMARK SMILES IDX 61 97 63 98 56 99 57 100 58 101 59 102 60 103
REMARK H PARENT 15 7 22 34 84 53 50 64
REMARK Flexibility Score: inf
ROOT
ATOM      1  C   UNL A   1      33.107  27.824  23.753  1.00  0.00     0.002 C 
ENDROOT
BRANCH   1   2
ATOM      2  C   UNL A   1      32.496  27.311  22.449  1.00  0.00     0.021 C 
BRANCH   2   3
ATOM      3  C   UNL A   1      31.633  26.059  22.593  1.00  0.00     0.116 C 
BRANCH   3   4
ATOM      4  N   UNL A   1      32.005  25.053  21.620  1.00  0.00    -0.356 N 
ATOM      5  C   UNL A   1      33.141  24.298  21.601  1.00  0.00     0.224 C 
ATOM      6  O   UNL A   1      33.365  23.574  20.629  1.00  0.00    -0.275 OA
ATOM      7  H   UNL A   1      31.364  24.896  20.890  1.00  0.00     0.163 HD
BRANCH   5   8
ATOM      8  C   UNL A   1      34.088  24.365  22.783  1.00  0.00     0.136 C 
BRANCH   8   9
ATOM      9  C   UNL A   1      33.936  23.129  23.648  1.00  0.00    -0.027 C 
ATOM     10  C   UNL A   1      36.258  23.726  26.153  1.00  0.00     0.017 C 
ATOM     11  C   UNL A   1      35.131  23.338  25.533  1.00  0.00    -0.014 C 
ATOM     12  C   UNL A   1      34.997  22.555  24.284  1.00  0.00    -0.039 C 
ATOM     13  C   UNL A   1      33.732  23.579  25.947  1.00  0.00    -0.010 A 
ATOM     14  C   UNL A   1      34.899  21.057  24.637  1.00  0.00     0.045 C 
ATOM     15  C   UNL A   1      32.991  23.335  24.770  1.00  0.00    -0.011 A 
ATOM     16  C   UNL A   1      33.146  23.434  27.192  1.00  0.00     0.012 A 
ATOM     17  C   UNL A   1      31.672  22.921  24.797  1.00  0.00     0.048 A 
ATOM     18  C   UNL A   1      31.816  22.992  27.231  1.00  0.00     0.040 A 
ATOM     19  C   UNL A   1      31.104  22.731  26.047  1.00  0.00     0.123 A 
ATOM     20  F   UNL A   1      29.886  22.177  26.130  1.00  0.00    -0.207 F 
BRANCH  10  21
ATOM     21  C   UNL A   1      37.650  23.236  25.963  1.00  0.00    -0.025 A 
ATOM     22  C   UNL A   1      39.988  21.837  26.688  1.00  0.00     0.007 A 
ATOM     23  C   UNL A   1      39.067  21.261  25.822  1.00  0.00     0.015 A 
ATOM     24  C   UNL A   1      39.850  23.191  26.995  1.00  0.00     0.015 A 
ATOM     25  C   UNL A   1      37.937  21.978  25.426  1.00  0.00     0.009 A 
ATOM     26  C   UNL A   1      38.682  23.885  26.647  1.00  0.00     0.009 A 
BRANCH  22  27
ATOM     27  S   UNL A   1      41.223  20.769  27.401  1.00  0.00    -0.130 SA
ATOM     28  C   UNL A   1      41.330  19.451  26.160  1.00  0.00     0.091 C 
ENDBRANCH  22  27
ENDBRANCH  10  21
ENDBRANCH   8   9
ENDBRANCH   5   8
ENDBRANCH   3   4
ENDBRANCH   2   3
ENDBRANCH   1   2
BRANCH   1  29
ATOM     29  C   UNL A   1      32.807  26.965  24.981  1.00  0.00     0.002 C 
BRANCH  29  30
ATOM     30  C   UNL A   1      33.230  27.583  26.315  1.00  0.00     0.021 C 
BRANCH  30  31
ATOM     31  C   UNL A   1      34.395  28.557  26.213  1.00  0.00     0.116 C 
BRANCH  31  32
ATOM     32  N   UNL A   1      33.996  29.902  26.597  1.00  0.00    -0.352 N 
ATOM     33  C   UNL A   1      34.513  30.688  27.588  1.00  0.00     0.251 C 
ATOM     34  H   UNL A   1      33.259  30.296  26.075  1.00  0.00     0.163 HD
ATOM     35  O   UNL A   1      33.896  31.691  27.968  1.00  0.00    -0.269 OA
BRANCH  33  36
ATOM     36  C   UNL A   1      35.803  30.329  28.203  1.00  0.00     0.039 A 
ATOM     37  C   UNL A   1      36.988  30.813  27.645  1.00  0.00     0.014 A 
ATOM     38  C   UNL A   1      35.836  29.510  29.338  1.00  0.00     0.014 A 
ATOM     39  C   UNL A   1      38.209  30.504  28.249  1.00  0.00     0.010 A 
ATOM     40  C   UNL A   1      37.044  29.265  29.977  1.00  0.00     0.010 A 
ATOM     41  C   UNL A   1      38.244  29.744  29.429  1.00  0.00    -0.014 A 
BRANCH  41  42
ATOM     42  C   UNL A   1      39.527  29.401  30.089  1.00  0.00     0.031 A 
ATOM     43  C   UNL A   1      39.930  30.118  31.349  1.00  0.00     0.074 A 
ATOM     44  C   UNL A   1      40.351  28.498  29.526  1.00  0.00     0.049 A 
ATOM     45  N   UNL A   1      41.040  30.027  32.034  1.00  0.00    -0.248 NA
ATOM     46  C   UNL A   1      38.964  31.085  31.895  1.00  0.00     0.031 C 
ATOM     47  C   UNL A   1      40.084  27.764  28.287  1.00  0.00     0.029 A 
ATOM     48  N   UNL A   1      41.586  28.048  29.918  1.00  0.00    -0.354 N 
ATOM     49  C   UNL A   1      40.914  30.936  33.078  1.00  0.00     0.074 A 
ATOM     50  C   UNL A   1      39.645  31.607  32.904  1.00  0.00     0.031 C 
ATOM     51  C   UNL A   1      41.113  26.939  28.035  1.00  0.00     0.029 A 
ATOM     52  C   UNL A   1      42.127  27.111  29.071  1.00  0.00     0.049 A 
ATOM     53  H   UNL A   1      42.042  28.367  30.731  1.00  0.00     0.167 HD
ATOM     54  C   UNL A   1      41.767  31.172  34.103  1.00  0.00     0.037 A 
ATOM     55  C   UNL A   1      43.309  26.467  29.123  1.00  0.00     0.037 A 
ATOM     56  C   UNL A   1      43.018  30.483  34.280  1.00  0.00     0.049 A 
ATOM     57  C   UNL A   1      44.247  26.751  30.265  1.00  0.00     0.074 A 
ATOM     58  C   UNL A   1      43.939  30.615  35.305  1.00  0.00     0.029 A 
ATOM     59  N   UNL A   1      43.526  29.531  33.407  1.00  0.00    -0.354 N 
ATOM     60  N   UNL A   1      44.095  27.581  31.270  1.00  0.00    -0.248 NA
ATOM     61  C   UNL A   1      45.514  26.009  30.282  1.00  0.00     0.031 C 
ATOM     62  C   UNL A   1      45.019  29.768  35.032  1.00  0.00     0.029 A 
ATOM     63  C   UNL A   1      44.752  29.076  33.862  1.00  0.00     0.049 A 
ATOM     64  H   UNL A   1      43.080  29.224  32.584  1.00  0.00     0.167 HD
ATOM     65  C   UNL A   1      45.232  27.438  32.057  1.00  0.00     0.074 A 
ATOM     66  C   UNL A   1      46.061  26.440  31.412  1.00  0.00     0.031 C 
ATOM     67  C   UNL A   1      45.558  28.072  33.210  1.00  0.00     0.037 A 
BRANCH  54  68
ATOM     68  C   UNL A   1      41.365  32.219  35.107  1.00  0.00     0.058 A 
ATOM     69  C   UNL A   1      40.434  31.946  36.122  1.00  0.00     0.135 A 
ATOM     70  C   UNL A   1      41.908  33.511  35.049  1.00  0.00     0.135 A 
ATOM     71  F   UNL A   1      39.871  30.731  36.215  1.00  0.00    -0.206 F 
ATOM     72  C   UNL A   1      40.019  32.930  37.013  1.00  0.00     0.059 A 
ATOM     73  C   UNL A   1      41.531  34.504  35.950  1.00  0.00     0.059 A 
ATOM     74  F   UNL A   1      42.806  33.828  34.102  1.00  0.00    -0.206 F 
ATOM     75  C   UNL A   1      40.568  34.209  36.915  1.00  0.00     0.060 A 
BRANCH  75  76
ATOM     76  S   UNL A   1      39.999  35.484  38.059  1.00  0.00     0.124 S 
ATOM     77  O   UNL A   1      38.778  34.879  38.583  1.00  0.00    -0.237 OA
ATOM     78  O   UNL A   1      41.111  35.581  39.000  1.00  0.00    -0.237 OA
ATOM     79  O   UNL A   1      39.805  36.648  37.201  1.00  0.00    -0.744 OA
ENDBRANCH  75  76
ENDBRANCH  54  68
BRANCH  55  80
ATOM     80  C   UNL A   1      43.649  25.462  28.082  1.00  0.00     0.058 A 
ATOM     81  C   UNL A   1      44.313  25.844  26.908  1.00  0.00     0.135 A 
ATOM     82  C   UNL A   1      43.350  24.101  28.252  1.00  0.00     0.135 A 
ATOM     83  F   UNL A   1      44.614  27.135  26.699  1.00  0.00    -0.206 F 
ATOM     84  C   UNL A   1      44.663  24.917  25.933  1.00  0.00     0.059 A 
ATOM     85  C   UNL A   1      43.709  23.151  27.301  1.00  0.00     0.059 A 
ATOM     86  F   UNL A   1      42.730  23.682  29.366  1.00  0.00    -0.206 F 
ATOM     87  C   UNL A   1      44.361  23.570  26.142  1.00  0.00     0.060 A 
BRANCH  87  88
ATOM     88  S   UNL A   1      44.878  22.366  24.899  1.00  0.00     0.124 S 
ATOM     89  O   UNL A   1      46.014  21.732  25.558  1.00  0.00    -0.237 OA
ATOM     90  O   UNL A   1      43.682  21.542  24.754  1.00  0.00    -0.237 OA
ATOM     91  O   UNL A   1      45.202  23.196  23.742  1.00  0.00    -0.744 OA
ENDBRANCH  87  88
ENDBRANCH  55  80
BRANCH  67  92
ATOM     92  C   UNL A   1      46.847  27.679  33.875  1.00  0.00     0.058 A 
ATOM     93  C   UNL A   1      46.906  26.635  34.810  1.00  0.00     0.135 A 
ATOM     94  C   UNL A   1      48.048  28.318  33.526  1.00  0.00     0.135 A 
ATOM     95  F   UNL A   1      45.785  25.997  35.184  1.00  0.00    -0.206 F 
ATOM     96  C   UNL A   1      48.110  26.249  35.391  1.00  0.00     0.059 A 
ATOM     97  C   UNL A   1      49.265  27.932  34.075  1.00  0.00     0.059 A 
ATOM     98  F   UNL A   1      48.046  29.317  32.629  1.00  0.00    -0.206 F 
ATOM     99  C   UNL A   1      49.285  26.903  35.015  1.00  0.00     0.060 A 
BRANCH  99 100
ATOM    100  S   UNL A   1      50.847  26.364  35.744  1.00  0.00     0.124 S 
ATOM    101  O   UNL A   1      50.869  24.952  35.380  1.00  0.00    -0.237 OA
ATOM    102  O   UNL A   1      51.820  27.211  35.060  1.00  0.00    -0.237 OA
ATOM    103  O   UNL A   1      50.672  26.644  37.166  1.00  0.00    -0.744 OA
ENDBRANCH  99 100
ENDBRANCH  67  92
ENDBRANCH  41  42
ENDBRANCH  33  36
ENDBRANCH  31  32
ENDBRANCH  30  31
ENDBRANCH  29  30
ENDBRANCH   1  29
TORSDOF 19
ENDMDL
MODEL 2
REMARK VINA RESULT:     -11.1      3.442      9.482
REMARK SMILES CSc1ccc(/C=C2\C(C)=C(CC(=O)NCCCCCCNC(=O)c3ccc(-c4c5nc(c(-c6c(F)cc(S(=O)(=O)[O-])cc6F)c6ccc([nH]6)c(-c6c(F)cc(S(=O)(=O)[O-])cc6F)c6nc(c(-c7c(F)cc(S(=O)(=O)[O-])cc7F)c7ccc4[nH]7)C=C6)C=C5)cc3)c3cc(F)ccc32)cc1
REMARK SMILES IDX 18 1 17 2 16 3 15 4 13 5 14 6 12 8 11 9 7 10 8 11 9 12 97 13
REMARK SMILES IDX 10 14 91 15 96 16 92 17 95 18 93 19 94 20 6 21 3 22 4 23
REMARK SMILES IDX 99 24 5 25 98 26 2 27 1 28 19 29 20 30 21 31 22 32 23 33
REMARK SMILES IDX 24 35 25 36 26 37 90 38 27 39 89 40 28 41 29 42 30 43 83 44
REMARK SMILES IDX 31 45 88 46 82 47 84 48 32 49 87 50 81 51 80 52 33 54 67 55
REMARK SMILES IDX 46 56 66 57 47 58 50 59 65 60 85 61 48 62 49 63 64 65 86 66
REMARK SMILES IDX 51 67 34 68 35 69 44 70 36 71 37 72 43 73 45 74 38 75 39 76
REMARK SMILES IDX 40 77 41 78 42 79 68 80 69 81 78 82 70 83 71 84 77 85 79 86
REMARK SMILES IDX 72 87 73 88 74 89 75 90 76 91 52 92 53 93 62 94 54 95 55 96
REMARK SMILES IDX 61 97 63 98 56 99 57 100 58 101 59 102 60 103
REMARK H PARENT 15 7 22 34 84 53 50 64
REMARK Flexibility Score: inf
ROOT
ATOM      1  C   UNL A   1      40.375  21.548  26.335  1.00  0.00     0.002 C 
ENDROOT
BRANCH   1   2
ATOM      2  C   UNL A   1      38.872  21.450  26.078  1.00  0.00     0.021 C 
BRANCH   2   3
ATOM      3  C   UNL A   1      38.213  22.751  25.622  1.00  0.00     0.116 C 
BRANCH   3   4
ATOM      4  N   UNL A   1      37.110  23.111  26.489  1.00  0.00    -0.356 N 
ATOM      5  C   UNL A   1      35.793  22.796  26.332  1.00  0.00     0.224 C 
ATOM      6  O   UNL A   1      34.960  23.290  27.094  1.00  0.00    -0.275 OA
ATOM      7  H   UNL A   1      37.339  23.645  27.284  1.00  0.00     0.163 HD
BRANCH   5   8
ATOM      8  C   UNL A   1      35.394  21.836  25.227  1.00  0.00     0.136 C 
BRANCH   8   9
ATOM      9  C   UNL A   1      33.916  21.510  25.324  1.00  0.00    -0.027 C 
ATOM     10  C   UNL A   1      32.659  23.066  22.492  1.00  0.00     0.017 C 
ATOM     11  C   UNL A   1      32.846  22.158  23.464  1.00  0.00    -0.014 C 
ATOM     12  C   UNL A   1      32.953  22.388  24.922  1.00  0.00    -0.039 C 
ATOM     13  C   UNL A   1      32.975  20.691  23.330  1.00  0.00    -0.010 A 
ATOM     14  C   UNL A   1      31.553  22.258  25.557  1.00  0.00     0.045 C 
ATOM     15  C   UNL A   1      33.553  20.295  24.557  1.00  0.00    -0.011 A 
ATOM     16  C   UNL A   1      32.213  19.804  22.592  1.00  0.00     0.012 A 
ATOM     17  C   UNL A   1      33.368  19.033  25.091  1.00  0.00     0.048 A 
ATOM     18  C   UNL A   1      32.000  18.529  23.134  1.00  0.00     0.040 A 
ATOM     19  C   UNL A   1      32.563  18.164  24.370  1.00  0.00     0.123 A 
ATOM     20  F   UNL A   1      32.222  16.989  24.918  1.00  0.00    -0.207 F 
BRANCH  10  21
ATOM     21  C   UNL A   1      32.200  24.477  22.602  1.00  0.00    -0.025 A 
ATOM     22  C   UNL A   1      31.589  26.866  23.967  1.00  0.00     0.007 A 
ATOM     23  C   UNL A   1      32.808  26.722  23.318  1.00  0.00     0.015 A 
ATOM     24  C   UNL A   1      30.597  25.914  23.729  1.00  0.00     0.015 A 
ATOM     25  C   UNL A   1      33.085  25.558  22.601  1.00  0.00     0.009 A 
ATOM     26  C   UNL A   1      30.902  24.720  23.062  1.00  0.00     0.009 A 
BRANCH  22  27
ATOM     27  S   UNL A   1      31.425  28.217  25.118  1.00  0.00    -0.130 SA
ATOM     28  C   UNL A   1      32.936  29.166  24.787  1.00  0.00     0.091 C 
ENDBRANCH  22  27
ENDBRANCH  10  21
ENDBRANCH   8   9
ENDBRANCH   5   8
ENDBRANCH   3   4
ENDBRANCH   2   3
ENDBRANCH   1   2
BRANCH   1  29
ATOM     29  C   UNL A   1      40.757  22.235  27.646  1.00  0.00     0.002 C 
BRANCH  29  30
ATOM     30  C   UNL A   1      42.247  22.182  27.988  1.00  0.00     0.021 C 
BRANCH  30  31
ATOM     31  C   UNL A   1      42.989  23.493  27.769  1.00  0.00     0.116 C 
BRANCH  31  32
ATOM     32  N   UNL A   1      42.649  24.085  26.486  1.00  0.00    -0.352 N 
ATOM     33  C   UNL A   1      41.927  25.219  26.242  1.00  0.00     0.251 C 
ATOM     34  H   UNL A   1      42.982  23.608  25.691  1.00  0.00     0.163 HD
ATOM     35  O   UNL A   1      41.494  25.447  25.105  1.00  0.00    -0.269 OA
BRANCH  33  36
ATOM     36  C   UNL A   1      41.661  26.164  27.341  1.00  0.00     0.039 A 
ATOM     37  C   UNL A   1      40.588  25.930  28.204  1.00  0.00     0.014 A 
ATOM     38  C   UNL A   1      42.479  27.286  27.516  1.00  0.00     0.014 A 
ATOM     39  C   UNL A   1      40.357  26.804  29.268  1.00  0.00     0.010 A 
ATOM     40  C   UNL A   1      42.292  28.113  28.617  1.00  0.00     0.010 A 
ATOM     41  C   UNL A   1      41.218  27.891  29.492  1.00  0.00    -0.014 A 
BRANCH  41  42
ATOM     42  C   UNL A   1      40.994  28.835  30.613  1.00  0.00     0.031 A 
ATOM     43  C   UNL A   1      41.841  28.732  31.853  1.00  0.00     0.074 A 
ATOM     44  C   UNL A   1      39.997  29.736  30.544  1.00  0.00     0.049 A 
ATOM     45  N   UNL A   1      41.755  29.402  32.973  1.00  0.00    -0.248 NA
ATOM     46  C   UNL A   1      42.911  27.721  31.838  1.00  0.00     0.031 C 
ATOM     47  C   UNL A   1      39.088  29.907  29.408  1.00  0.00     0.029 A 
ATOM     48  N   UNL A   1      39.574  30.674  31.451  1.00  0.00    -0.354 N 
ATOM     49  C   UNL A   1      42.744  28.883  33.800  1.00  0.00     0.074 A 
ATOM     50  C   UNL A   1      43.380  27.805  33.074  1.00  0.00     0.031 C 
ATOM     51  C   UNL A   1      38.232  30.906  29.677  1.00  0.00     0.029 A 
ATOM     52  C   UNL A   1      38.506  31.420  31.016  1.00  0.00     0.049 A 
ATOM     53  H   UNL A   1      39.997  30.801  32.331  1.00  0.00     0.167 HD
ATOM     54  C   UNL A   1      43.106  29.283  35.042  1.00  0.00     0.037 A 
ATOM     55  C   UNL A   1      37.823  32.406  31.630  1.00  0.00     0.037 A 
ATOM     56  C   UNL A   1      42.482  30.371  35.747  1.00  0.00     0.049 A 
ATOM     57  C   UNL A   1      38.235  32.830  33.013  1.00  0.00     0.074 A 
ATOM     58  C   UNL A   1      42.798  30.887  36.992  1.00  0.00     0.029 A 
ATOM     59  N   UNL A   1      41.410  31.111  35.268  1.00  0.00    -0.354 N 
ATOM     60  N   UNL A   1      39.201  32.360  33.766  1.00  0.00    -0.248 NA
ATOM     61  C   UNL A   1      37.467  33.920  33.629  1.00  0.00     0.031 C 
ATOM     62  C   UNL A   1      41.894  31.916  37.279  1.00  0.00     0.029 A 
ATOM     63  C   UNL A   1      41.044  32.072  36.196  1.00  0.00     0.049 A 
ATOM     64  H   UNL A   1      40.974  30.975  34.396  1.00  0.00     0.167 HD
ATOM     65  C   UNL A   1      39.179  33.117  34.931  1.00  0.00     0.074 A 
ATOM     66  C   UNL A   1      38.105  34.078  34.782  1.00  0.00     0.031 C 
ATOM     67  C   UNL A   1      39.977  33.028  36.024  1.00  0.00     0.037 A 
BRANCH  54  68
ATOM     68  C   UNL A   1      44.231  28.535  35.706  1.00  0.00     0.058 A 
ATOM     69  C   UNL A   1      43.988  27.447  36.560  1.00  0.00     0.135 A 
ATOM     70  C   UNL A   1      45.565  28.914  35.495  1.00  0.00     0.135 A 
ATOM     71  F   UNL A   1      42.729  27.051  36.810  1.00  0.00    -0.206 F 
ATOM     72  C   UNL A   1      45.024  26.793  37.219  1.00  0.00     0.059 A 
ATOM     73  C   UNL A   1      46.620  28.255  36.119  1.00  0.00     0.059 A 
ATOM     74  F   UNL A   1      45.857  29.946  34.686  1.00  0.00    -0.206 F 
ATOM     75  C   UNL A   1      46.337  27.209  36.998  1.00  0.00     0.060 A 
BRANCH  75  76
ATOM     76  S   UNL A   1      47.669  26.370  37.881  1.00  0.00     0.124 S 
ATOM     77  O   UNL A   1      48.657  27.438  37.997  1.00  0.00    -0.237 OA
ATOM     78  O   UNL A   1      47.019  25.972  39.126  1.00  0.00    -0.237 OA
ATOM     79  O   UNL A   1      48.031  25.274  36.989  1.00  0.00    -0.744 OA
ENDBRANCH  75  76
ENDBRANCH  54  68
BRANCH  55  80
ATOM     80  C   UNL A   1      36.707  33.085  30.919  1.00  0.00     0.058 A 
ATOM     81  C   UNL A   1      35.375  32.854  31.294  1.00  0.00     0.135 A 
ATOM     82  C   UNL A   1      36.946  33.997  29.881  1.00  0.00     0.135 A 
ATOM     83  F   UNL A   1      35.097  31.985  32.278  1.00  0.00    -0.206 F 
ATOM     84  C   UNL A   1      34.317  33.497  30.661  1.00  0.00     0.059 A 
ATOM     85  C   UNL A   1      35.906  34.670  29.246  1.00  0.00     0.059 A 
ATOM     86  F   UNL A   1      38.203  34.265  29.496  1.00  0.00    -0.206 F 
ATOM     87  C   UNL A   1      34.594  34.409  29.640  1.00  0.00     0.060 A 
BRANCH  87  88
ATOM     88  S   UNL A   1      33.217  35.286  28.868  1.00  0.00     0.124 S 
ATOM     89  O   UNL A   1      32.493  35.780  30.034  1.00  0.00    -0.237 OA
ATOM     90  O   UNL A   1      33.905  36.294  28.069  1.00  0.00    -0.237 OA
ATOM     91  O   UNL A   1      32.541  34.242  28.102  1.00  0.00    -0.744 OA
ENDBRANCH  87  88
ENDBRANCH  55  80
BRANCH  67  92
ATOM     92  C   UNL A   1      39.750  34.020  37.129  1.00  0.00     0.058 A 
ATOM     93  C   UNL A   1      38.834  33.777  38.164  1.00  0.00     0.135 A 
ATOM     94  C   UNL A   1      40.504  35.204  37.183  1.00  0.00     0.135 A 
ATOM     95  F   UNL A   1      38.082  32.664  38.154  1.00  0.00    -0.206 F 
ATOM     96  C   UNL A   1      38.660  34.682  39.205  1.00  0.00     0.059 A 
ATOM     97  C   UNL A   1      40.365  36.109  38.229  1.00  0.00     0.059 A 
ATOM     98  F   UNL A   1      41.402  35.478  36.223  1.00  0.00    -0.206 F 
ATOM     99  C   UNL A   1      39.433  35.845  39.231  1.00  0.00     0.060 A 
BRANCH  99 100
ATOM    100  S   UNL A   1      39.229  36.991  40.611  1.00  0.00     0.124 S 
ATOM    101  O   UNL A   1      38.696  36.112  41.646  1.00  0.00    -0.237 OA
ATOM    102  O   UNL A   1      40.591  37.470  40.824  1.00  0.00    -0.237 OA
ATOM    103  O   UNL A   1      38.296  37.987  40.090  1.00  0.00    -0.744 OA
ENDBRANCH  99 100
ENDBRANCH  67  92
ENDBRANCH  41  42
ENDBRANCH  33  36
ENDBRANCH  31  32
ENDBRANCH  30  31
ENDBRANCH  29  30
ENDBRANCH   1  29
TORSDOF 19
ENDMDL
MODEL 3
REMARK VINA RESULT:     -10.9      3.407      8.446
REMARK SMILES CSc1ccc(/C=C2\C(C)=C(CC(=O)NCCCCCCNC(=O)c3ccc(-c4c5nc(c(-c6c(F)cc(S(=O)(=O)[O-])cc6F)c6ccc([nH]6)c(-c6c(F)cc(S(=O)(=O)[O-])cc6F)c6nc(c(-c7c(F)cc(S(=O)(=O)[O-])cc7F)c7ccc4[nH]7)C=C6)C=C5)cc3)c3cc(F)ccc32)cc1
REMARK SMILES IDX 18 1 17 2 16 3 15 4 13 5 14 6 12 8 11 9 7 10 8 11 9 12 97 13
REMARK SMILES IDX 10 14 91 15 96 16 92 17 95 18 93 19 94 20 6 21 3 22 4 23
REMARK SMILES IDX 99 24 5 25 98 26 2 27 1 28 19 29 20 30 21 31 22 32 23 33
REMARK SMILES IDX 24 35 25 36 26 37 90 38 27 39 89 40 28 41 29 42 30 43 83 44
REMARK SMILES IDX 31 45 88 46 82 47 84 48 32 49 87 50 81 51 80 52 33 54 67 55
REMARK SMILES IDX 46 56 66 57 47 58 50 59 65 60 85 61 48 62 49 63 64 65 86 66
REMARK SMILES IDX 51 67 34 68 35 69 44 70 36 71 37 72 43 73 45 74 38 75 39 76
REMARK SMILES IDX 40 77 41 78 42 79 68 80 69 81 78 82 70 83 71 84 77 85 79 86
REMARK SMILES IDX 72 87 73 88 74 89 75 90 76 91 52 92 53 93 62 94 54 95 55 96
REMARK SMILES IDX 61 97 63 98 56 99 57 100 58 101 59 102 60 103
REMARK H PARENT 15 7 22 34 84 53 50 64
REMARK Flexibility Score: inf
ROOT
ATOM      1  C   UNL A   1      36.820  22.052  24.302  1.00  0.00     0.002 C 
ENDROOT
BRANCH   1   2
ATOM      2  C   UNL A   1      36.511  23.370  23.592  1.00  0.00     0.021 C 
BRANCH   2   3
ATOM      3  C   UNL A   1      35.103  23.914  23.831  1.00  0.00     0.116 C 
BRANCH   3   4
ATOM      4  N   UNL A   1      34.348  23.972  22.597  1.00  0.00    -0.356 N 
ATOM      5  C   UNL A   1      33.602  25.013  22.129  1.00  0.00     0.224 C 
ATOM      6  O   UNL A   1      32.915  24.855  21.119  1.00  0.00    -0.275 OA
ATOM      7  H   UNL A   1      34.377  23.167  22.032  1.00  0.00     0.163 HD
BRANCH   5   8
ATOM      8  C   UNL A   1      33.651  26.340  22.863  1.00  0.00     0.136 C 
BRANCH   8   9
ATOM      9  C   UNL A   1      32.391  26.530  23.686  1.00  0.00    -0.027 C 
ATOM     10  C   UNL A   1      33.155  24.765  26.571  1.00  0.00     0.017 C 
ATOM     11  C   UNL A   1      32.676  25.719  25.757  1.00  0.00    -0.014 C 
ATOM     12  C   UNL A   1      31.906  25.552  24.504  1.00  0.00    -0.039 C 
ATOM     13  C   UNL A   1      32.780  27.187  25.910  1.00  0.00    -0.010 A 
ATOM     14  C   UNL A   1      30.399  25.572  24.833  1.00  0.00     0.045 C 
ATOM     15  C   UNL A   1      32.490  27.677  24.618  1.00  0.00    -0.011 A 
ATOM     16  C   UNL A   1      32.561  27.972  27.028  1.00  0.00     0.012 A 
ATOM     17  C   UNL A   1      31.956  28.935  24.405  1.00  0.00     0.048 A 
ATOM     18  C   UNL A   1      31.998  29.240  26.825  1.00  0.00     0.040 A 
ATOM     19  C   UNL A   1      31.693  29.699  25.532  1.00  0.00     0.123 A 
ATOM     20  F   UNL A   1      31.029  30.855  25.392  1.00  0.00    -0.207 F 
BRANCH  10  21
ATOM     21  C   UNL A   1      32.798  23.322  26.636  1.00  0.00    -0.025 A 
ATOM     22  C   UNL A   1      32.521  20.709  25.613  1.00  0.00     0.007 A 
ATOM     23  C   UNL A   1      33.629  21.048  26.379  1.00  0.00     0.015 A 
ATOM     24  C   UNL A   1      31.452  21.605  25.565  1.00  0.00     0.015 A 
ATOM     25  C   UNL A   1      33.737  22.327  26.925  1.00  0.00     0.009 A 
ATOM     26  C   UNL A   1      31.592  22.908  26.062  1.00  0.00     0.009 A 
BRANCH  22  27
ATOM     27  S   UNL A   1      32.596  19.188  24.688  1.00  0.00    -0.130 SA
ATOM     28  C   UNL A   1      34.383  18.884  24.625  1.00  0.00     0.091 C 
ENDBRANCH  22  27
ENDBRANCH  10  21
ENDBRANCH   8   9
ENDBRANCH   5   8
ENDBRANCH   3   4
ENDBRANCH   2   3
ENDBRANCH   1   2
BRANCH   1  29
ATOM     29  C   UNL A   1      37.893  22.146  25.385  1.00  0.00     0.002 C 
BRANCH  29  30
ATOM     30  C   UNL A   1      37.916  23.469  26.153  1.00  0.00     0.021 C 
BRANCH  30  31
ATOM     31  C   UNL A   1      39.206  23.728  26.919  1.00  0.00     0.116 C 
BRANCH  31  32
ATOM     32  N   UNL A   1      40.246  24.245  26.044  1.00  0.00    -0.352 N 
ATOM     33  C   UNL A   1      40.842  25.474  26.073  1.00  0.00     0.251 C 
ATOM     34  H   UNL A   1      40.560  23.631  25.340  1.00  0.00     0.163 HD
ATOM     35  O   UNL A   1      41.510  25.862  25.106  1.00  0.00    -0.269 OA
BRANCH  33  36
ATOM     36  C   UNL A   1      40.680  26.334  27.258  1.00  0.00     0.039 A 
ATOM     37  C   UNL A   1      39.699  26.024  28.203  1.00  0.00     0.014 A 
ATOM     38  C   UNL A   1      41.503  27.453  27.432  1.00  0.00     0.014 A 
ATOM     39  C   UNL A   1      39.567  26.818  29.344  1.00  0.00     0.010 A 
ATOM     40  C   UNL A   1      41.419  28.197  28.602  1.00  0.00     0.010 A 
ATOM     41  C   UNL A   1      40.438  27.898  29.561  1.00  0.00    -0.014 A 
BRANCH  41  42
ATOM     42  C   UNL A   1      40.319  28.757  30.763  1.00  0.00     0.031 A 
ATOM     43  C   UNL A   1      39.310  29.873  30.784  1.00  0.00     0.074 A 
ATOM     44  C   UNL A   1      41.154  28.576  31.803  1.00  0.00     0.049 A 
ATOM     45  N   UNL A   1      39.102  30.785  31.697  1.00  0.00    -0.248 NA
ATOM     46  C   UNL A   1      38.436  29.993  29.605  1.00  0.00     0.031 C 
ATOM     47  C   UNL A   1      42.196  27.549  31.884  1.00  0.00     0.029 A 
ATOM     48  N   UNL A   1      41.265  29.254  32.990  1.00  0.00    -0.354 N 
ATOM     49  C   UNL A   1      38.089  31.596  31.198  1.00  0.00     0.074 A 
ATOM     50  C   UNL A   1      37.765  31.102  29.878  1.00  0.00     0.031 C 
ATOM     51  C   UNL A   1      42.822  27.652  33.067  1.00  0.00     0.029 A 
ATOM     52  C   UNL A   1      42.254  28.771  33.812  1.00  0.00     0.049 A 
ATOM     53  H   UNL A   1      40.689  30.016  33.230  1.00  0.00     0.167 HD
ATOM     54  C   UNL A   1      37.470  32.642  31.795  1.00  0.00     0.037 A 
ATOM     55  C   UNL A   1      42.658  29.187  35.028  1.00  0.00     0.037 A 
ATOM     56  C   UNL A   1      37.785  33.112  33.117  1.00  0.00     0.049 A 
ATOM     57  C   UNL A   1      41.962  30.357  35.669  1.00  0.00     0.074 A 
ATOM     58  C   UNL A   1      37.190  34.137  33.833  1.00  0.00     0.029 A 
ATOM     59  N   UNL A   1      38.785  32.588  33.924  1.00  0.00    -0.354 N 
ATOM     60  N   UNL A   1      40.976  31.086  35.204  1.00  0.00    -0.248 NA
ATOM     61  C   UNL A   1      42.431  30.758  37.003  1.00  0.00     0.031 C 
ATOM     62  C   UNL A   1      37.856  34.254  35.060  1.00  0.00     0.029 A 
ATOM     63  C   UNL A   1      38.834  33.275  35.126  1.00  0.00     0.049 A 
ATOM     64  H   UNL A   1      39.374  31.838  33.679  1.00  0.00     0.167 HD
ATOM     65  C   UNL A   1      40.685  32.012  36.199  1.00  0.00     0.074 A 
ATOM     66  C   UNL A   1      41.597  31.748  37.293  1.00  0.00     0.031 C 
ATOM     67  C   UNL A   1      39.745  32.989  36.208  1.00  0.00     0.037 A 
BRANCH  54  68
ATOM     68  C   UNL A   1      36.389  33.339  31.013  1.00  0.00     0.058 A 
ATOM     69  C   UNL A   1      36.692  34.210  29.953  1.00  0.00     0.135 A 
ATOM     70  C   UNL A   1      35.036  33.142  31.329  1.00  0.00     0.135 A 
ATOM     71  F   UNL A   1      37.970  34.447  29.617  1.00  0.00    -0.206 F 
ATOM     72  C   UNL A   1      35.696  34.898  29.269  1.00  0.00     0.059 A 
ATOM     73  C   UNL A   1      34.021  33.797  30.637  1.00  0.00     0.059 A 
ATOM     74  F   UNL A   1      34.687  32.318  32.330  1.00  0.00    -0.206 F 
ATOM     75  C   UNL A   1      34.363  34.691  29.623  1.00  0.00     0.060 A 
BRANCH  75  76
ATOM     76  S   UNL A   1      33.083  35.613  28.746  1.00  0.00     0.124 S 
ATOM     77  O   UNL A   1      32.415  34.548  28.004  1.00  0.00    -0.237 OA
ATOM     78  O   UNL A   1      32.313  36.200  29.838  1.00  0.00    -0.237 OA
ATOM     79  O   UNL A   1      33.841  36.562  27.937  1.00  0.00    -0.744 OA
ENDBRANCH  75  76
ENDBRANCH  54  68
BRANCH  55  80
ATOM     80  C   UNL A   1      43.749  28.462  35.732  1.00  0.00     0.058 A 
ATOM     81  C   UNL A   1      45.089  28.831  35.545  1.00  0.00     0.135 A 
ATOM     82  C   UNL A   1      43.477  27.416  36.626  1.00  0.00     0.135 A 
ATOM     83  F   UNL A   1      45.398  29.823  34.695  1.00  0.00    -0.206 F 
ATOM     84  C   UNL A   1      46.123  28.184  36.212  1.00  0.00     0.059 A 
ATOM     85  C   UNL A   1      44.492  26.767  37.322  1.00  0.00     0.059 A 
ATOM     86  F   UNL A   1      42.209  27.036  36.852  1.00  0.00    -0.206 F 
ATOM     87  C   UNL A   1      45.813  27.156  37.104  1.00  0.00     0.060 A 
BRANCH  87  88
ATOM     88  S   UNL A   1      47.159  26.366  38.013  1.00  0.00     0.124 S 
ATOM     89  O   UNL A   1      46.447  25.782  39.144  1.00  0.00    -0.237 OA
ATOM     90  O   UNL A   1      47.681  25.422  37.030  1.00  0.00    -0.237 OA
ATOM     91  O   UNL A   1      48.047  27.480  38.334  1.00  0.00    -0.744 OA
ENDBRANCH  87  88
ENDBRANCH  55  80
BRANCH  67  92
ATOM     92  C   UNL A   1      39.623  33.821  37.453  1.00  0.00     0.058 A 
ATOM     93  C   UNL A   1      38.786  33.444  38.514  1.00  0.00     0.135 A 
ATOM     94  C   UNL A   1      40.401  34.980  37.610  1.00  0.00     0.135 A 
ATOM     95  F   UNL A   1      38.015  32.349  38.412  1.00  0.00    -0.206 F 
ATOM     96  C   UNL A   1      38.710  34.198  39.681  1.00  0.00     0.059 A 
ATOM     97  C   UNL A   1      40.360  35.734  38.778  1.00  0.00     0.059 A 
ATOM     98  F   UNL A   1      41.226  35.377  36.628  1.00  0.00    -0.206 F 
ATOM     99  C   UNL A   1      39.504  35.340  39.804  1.00  0.00     0.060 A 
BRANCH  99 100
ATOM    100  S   UNL A   1      39.428  36.286  41.341  1.00  0.00     0.124 S 
ATOM    101  O   UNL A   1      40.817  36.234  41.785  1.00  0.00    -0.237 OA
ATOM    102  O   UNL A   1      38.956  37.589  40.884  1.00  0.00    -0.237 OA
ATOM    103  O   UNL A   1      38.478  35.533  42.156  1.00  0.00    -0.744 OA
ENDBRANCH  99 100
ENDBRANCH  67  92
ENDBRANCH  41  42
ENDBRANCH  33  36
ENDBRANCH  31  32
ENDBRANCH  30  31
ENDBRANCH  29  30
ENDBRANCH   1  29
TORSDOF 19
ENDMDL
