MODEL 1
REMARK VINA RESULT:     -14.5      0.000      0.000
REMARK SMILES Cc1cccc(N2C(=O)/C(=C/c3ccc(C(=O)NCCCCCCNC(=O)c4ccc(-c5c6nc(c(-c7c(F)cc(S(=O)(=O)[O-])cc7F)c7ccc([nH]7)c(-c7c(F)cc(S(=O)(=O)[O-])cc7F)c7nc(c(-c8c(F)cc(S(=O)(=O)[O-])cc8F)c8ccc5[nH]8)C=C7)C=C6)cc4)cc3)c3ccccc3C2=O)c1
REMARK SMILES IDX 22 1 21 2 20 3 19 4 18 5 16 6 17 7 15 9 12 10 13 11 95 12
REMARK SMILES IDX 14 13 94 14 11 15 7 16 8 17 102 18 9 19 10 20 101 21 103 22
REMARK SMILES IDX 96 23 100 24 97 25 99 26 98 27 6 28 1 29 2 30 3 31 104 32
REMARK SMILES IDX 4 33 5 34 23 35 24 36 25 37 26 38 27 40 28 41 29 42 93 43
REMARK SMILES IDX 30 44 92 45 31 46 32 47 33 48 86 49 34 50 91 51 85 52 87 53
REMARK SMILES IDX 35 54 90 55 84 56 83 57 36 59 70 60 49 61 69 62 50 63 53 64
REMARK SMILES IDX 68 65 88 66 51 67 52 68 67 70 89 71 54 72 37 73 38 74 47 75
REMARK SMILES IDX 39 76 40 77 46 78 48 79 41 80 42 81 43 82 44 83 45 84 71 85
REMARK SMILES IDX 72 86 81 87 73 88 74 89 80 90 82 91 75 92 76 93 77 94 78 95
REMARK SMILES IDX 79 96 55 97 56 98 65 99 57 100 58 101 64 102 66 103 59 104
REMARK SMILES IDX 60 105 61 106 62 107 63 108
REMARK H PARENT 18 8 25 39 87 58 53 69
REMARK Flexibility Score: inf
ROOT
ATOM      1  C   UNL A   1      36.513  23.983  25.137  1.00  0.00     0.002 C 
ENDROOT
BRANCH   1   2
ATOM      2  C   UNL A   1      35.331  23.068  24.786  1.00  0.00     0.002 C 
BRANCH   2   3
ATOM      3  C   UNL A   1      35.611  21.568  24.642  1.00  0.00     0.021 C 
BRANCH   3   4
ATOM      4  C   UNL A   1      34.742  20.612  25.459  1.00  0.00     0.116 C 
BRANCH   4   5
ATOM      5  N   UNL A   1      33.911  19.731  24.656  1.00  0.00    -0.352 N 
ATOM      6  C   UNL A   1      32.756  20.013  23.966  1.00  0.00     0.251 C 
ATOM      7  O   UNL A   1      32.167  19.128  23.350  1.00  0.00    -0.269 OA
ATOM      8  H   UNL A   1      34.220  18.798  24.599  1.00  0.00     0.163 HD
BRANCH   6   9
ATOM      9  C   UNL A   1      32.176  21.375  23.998  1.00  0.00     0.039 A 
ATOM     10  C   UNL A   1      30.940  23.885  23.881  1.00  0.00    -0.025 A 
ATOM     11  C   UNL A   1      31.755  23.453  22.828  1.00  0.00     0.009 A 
ATOM     12  C   UNL A   1      30.841  23.101  25.039  1.00  0.00     0.009 A 
ATOM     13  C   UNL A   1      32.374  22.201  22.887  1.00  0.00     0.014 A 
ATOM     14  C   UNL A   1      31.456  21.848  25.099  1.00  0.00     0.014 A 
BRANCH  10  15
ATOM     15  C   UNL A   1      30.198  25.146  23.736  1.00  0.00     0.022 C 
ATOM     16  N   UNL A   1      30.313  28.743  23.393  1.00  0.00    -0.242 N 
ATOM     17  C   UNL A   1      29.687  27.512  23.677  1.00  0.00     0.265 C 
ATOM     18  C   UNL A   1      31.718  28.846  23.347  1.00  0.00     0.265 C 
ATOM     19  O   UNL A   1      28.489  27.256  23.538  1.00  0.00    -0.268 OA
ATOM     20  C   UNL A   1      30.615  26.389  24.071  1.00  0.00     0.049 C 
ATOM     21  C   UNL A   1      32.484  27.936  24.230  1.00  0.00     0.048 A 
ATOM     22  O   UNL A   1      32.391  29.611  22.660  1.00  0.00    -0.268 OA
ATOM     23  C   UNL A   1      31.910  26.743  24.658  1.00  0.00    -0.000 A 
ATOM     24  C   UNL A   1      33.772  28.302  24.653  1.00  0.00     0.014 A 
ATOM     25  C   UNL A   1      32.596  25.970  25.607  1.00  0.00     0.010 A 
ATOM     26  C   UNL A   1      34.471  27.493  25.546  1.00  0.00     0.001 A 
ATOM     27  C   UNL A   1      33.875  26.335  26.038  1.00  0.00     0.001 A 
BRANCH  16  28
ATOM     28  C   UNL A   1      29.484  29.883  23.000  1.00  0.00     0.053 A 
ATOM     29  C   UNL A   1      27.867  31.304  19.815  1.00  0.00     0.044 C 
ATOM     30  C   UNL A   1      28.275  31.145  21.250  1.00  0.00    -0.049 A 
ATOM     31  C   UNL A   1      27.847  32.074  22.198  1.00  0.00     0.003 A 
ATOM     32  C   UNL A   1      29.069  30.058  21.663  1.00  0.00     0.030 A 
ATOM     33  C   UNL A   1      28.214  31.916  23.528  1.00  0.00     0.002 A 
ATOM     34  C   UNL A   1      29.018  30.838  23.919  1.00  0.00     0.027 A 
ENDBRANCH  16  28
ENDBRANCH  10  15
ENDBRANCH   6   9
ENDBRANCH   4   5
ENDBRANCH   3   4
ENDBRANCH   2   3
ENDBRANCH   1   2
BRANCH   1  35
ATOM     35  C   UNL A   1      37.887  23.324  25.257  1.00  0.00     0.021 C 
BRANCH  35  36
ATOM     36  C   UNL A   1      38.347  23.052  26.686  1.00  0.00     0.116 C 
BRANCH  36  37
ATOM     37  N   UNL A   1      39.789  22.978  26.834  1.00  0.00    -0.352 N 
ATOM     38  C   UNL A   1      40.699  24.027  26.785  1.00  0.00     0.251 C 
ATOM     39  H   UNL A   1      40.166  22.082  26.987  1.00  0.00     0.163 HD
ATOM     40  O   UNL A   1      41.875  23.855  26.563  1.00  0.00    -0.269 OA
BRANCH  38  41
ATOM     41  C   UNL A   1      40.183  25.366  27.164  1.00  0.00     0.039 A 
ATOM     42  C   UNL A   1      40.577  26.448  26.367  1.00  0.00     0.014 A 
ATOM     43  C   UNL A   1      39.562  25.572  28.390  1.00  0.00     0.014 A 
ATOM     44  C   UNL A   1      40.498  27.744  26.877  1.00  0.00     0.010 A 
ATOM     45  C   UNL A   1      39.563  26.849  28.925  1.00  0.00     0.010 A 
ATOM     46  C   UNL A   1      40.068  27.934  28.190  1.00  0.00    -0.014 A 
BRANCH  46  47
ATOM     47  C   UNL A   1      40.212  29.189  28.930  1.00  0.00     0.031 A 
ATOM     48  C   UNL A   1      39.118  30.195  28.972  1.00  0.00     0.074 A 
ATOM     49  C   UNL A   1      41.300  29.404  29.703  1.00  0.00     0.049 A 
ATOM     50  N   UNL A   1      39.276  31.420  29.357  1.00  0.00    -0.248 NA
ATOM     51  C   UNL A   1      37.751  29.903  28.557  1.00  0.00     0.031 C 
ATOM     52  C   UNL A   1      41.414  30.358  30.803  1.00  0.00     0.029 A 
ATOM     53  N   UNL A   1      42.594  28.926  29.542  1.00  0.00    -0.354 N 
ATOM     54  C   UNL A   1      38.031  31.984  29.502  1.00  0.00     0.074 A 
ATOM     55  C   UNL A   1      37.115  31.011  28.951  1.00  0.00     0.031 C 
ATOM     56  C   UNL A   1      42.710  30.572  31.069  1.00  0.00     0.029 A 
ATOM     57  C   UNL A   1      43.486  29.882  30.057  1.00  0.00     0.049 A 
ATOM     58  H   UNL A   1      42.845  28.064  29.135  1.00  0.00     0.167 HD
ATOM     59  C   UNL A   1      37.890  33.165  30.174  1.00  0.00     0.037 A 
ATOM     60  C   UNL A   1      44.432  30.473  29.265  1.00  0.00     0.037 A 
ATOM     61  C   UNL A   1      39.170  33.708  30.619  1.00  0.00     0.049 A 
ATOM     62  C   UNL A   1      44.262  31.968  29.072  1.00  0.00     0.074 A 
ATOM     63  C   UNL A   1      39.855  33.721  31.824  1.00  0.00     0.029 A 
ATOM     64  N   UNL A   1      40.067  34.160  29.670  1.00  0.00    -0.354 N 
ATOM     65  N   UNL A   1      43.333  32.686  29.639  1.00  0.00    -0.248 NA
ATOM     66  C   UNL A   1      45.082  32.760  28.150  1.00  0.00     0.031 C 
ATOM     67  C   UNL A   1      41.176  34.193  31.584  1.00  0.00     0.029 A 
ATOM     68  C   UNL A   1      41.294  34.451  30.232  1.00  0.00     0.049 A 
ATOM     69  H   UNL A   1      39.857  34.262  28.714  1.00  0.00     0.167 HD
ATOM     70  C   UNL A   1      43.343  33.945  29.100  1.00  0.00     0.074 A 
ATOM     71  C   UNL A   1      44.483  33.963  28.208  1.00  0.00     0.031 C 
ATOM     72  C   UNL A   1      42.377  34.869  29.364  1.00  0.00     0.037 A 
BRANCH  59  73
ATOM     73  C   UNL A   1      36.555  33.715  30.619  1.00  0.00     0.058 A 
ATOM     74  C   UNL A   1      35.614  34.184  29.678  1.00  0.00     0.135 A 
ATOM     75  C   UNL A   1      36.159  33.839  31.965  1.00  0.00     0.135 A 
ATOM     76  F   UNL A   1      35.805  34.044  28.360  1.00  0.00    -0.206 F 
ATOM     77  C   UNL A   1      34.440  34.842  30.042  1.00  0.00     0.059 A 
ATOM     78  C   UNL A   1      35.018  34.546  32.357  1.00  0.00     0.059 A 
ATOM     79  F   UNL A   1      36.854  33.250  32.948  1.00  0.00    -0.206 F 
ATOM     80  C   UNL A   1      34.171  35.060  31.386  1.00  0.00     0.060 A 
BRANCH  80  81
ATOM     81  S   UNL A   1      32.730  36.046  31.828  1.00  0.00     0.124 S 
ATOM     82  O   UNL A   1      32.349  36.630  30.544  1.00  0.00    -0.237 OA
ATOM     83  O   UNL A   1      31.822  35.036  32.359  1.00  0.00    -0.237 OA
ATOM     84  O   UNL A   1      33.256  36.995  32.804  1.00  0.00    -0.744 OA
ENDBRANCH  80  81
ENDBRANCH  59  73
BRANCH  60  85
ATOM     85  C   UNL A   1      44.992  29.533  28.258  1.00  0.00     0.058 A 
ATOM     86  C   UNL A   1      46.055  28.709  28.672  1.00  0.00     0.135 A 
ATOM     87  C   UNL A   1      44.231  29.122  27.155  1.00  0.00     0.135 A 
ATOM     88  F   UNL A   1      46.824  29.074  29.711  1.00  0.00    -0.206 F 
ATOM     89  C   UNL A   1      46.231  27.437  28.145  1.00  0.00     0.059 A 
ATOM     90  C   UNL A   1      44.400  27.854  26.602  1.00  0.00     0.059 A 
ATOM     91  F   UNL A   1      43.214  29.876  26.715  1.00  0.00    -0.206 F 
ATOM     92  C   UNL A   1      45.346  26.994  27.163  1.00  0.00     0.060 A 
BRANCH  92  93
ATOM     93  S   UNL A   1      45.324  25.226  26.790  1.00  0.00     0.124 S 
ATOM     94  O   UNL A   1      44.506  24.693  27.873  1.00  0.00    -0.237 OA
ATOM     95  O   UNL A   1      44.704  25.219  25.466  1.00  0.00    -0.237 OA
ATOM     96  O   UNL A   1      46.736  24.862  26.823  1.00  0.00    -0.744 OA
ENDBRANCH  92  93
ENDBRANCH  60  85
BRANCH  72  97
ATOM     97  C   UNL A   1      42.383  36.254  28.795  1.00  0.00     0.058 A 
ATOM     98  C   UNL A   1      41.837  36.535  27.535  1.00  0.00     0.135 A 
ATOM     99  C   UNL A   1      43.073  37.304  29.435  1.00  0.00     0.135 A 
ATOM    100  F   UNL A   1      41.183  35.585  26.847  1.00  0.00    -0.206 F 
ATOM    101  C   UNL A   1      41.963  37.791  26.939  1.00  0.00     0.059 A 
ATOM    102  C   UNL A   1      43.246  38.552  28.844  1.00  0.00     0.059 A 
ATOM    103  F   UNL A   1      43.584  37.145  30.666  1.00  0.00    -0.206 F 
ATOM    104  C   UNL A   1      42.677  38.791  27.600  1.00  0.00     0.060 A 
BRANCH 104 105
ATOM    105  S   UNL A   1      42.899  40.398  26.810  1.00  0.00     0.124 S 
ATOM    106  O   UNL A   1      43.467  41.210  27.883  1.00  0.00    -0.237 OA
ATOM    107  O   UNL A   1      43.814  40.062  25.723  1.00  0.00    -0.237 OA
ATOM    108  O   UNL A   1      41.546  40.763  26.406  1.00  0.00    -0.744 OA
ENDBRANCH 104 105
ENDBRANCH  72  97
ENDBRANCH  46  47
ENDBRANCH  38  41
ENDBRANCH  36  37
ENDBRANCH  35  36
ENDBRANCH   1  35
TORSDOF 18
ENDMDL
MODEL 2
REMARK VINA RESULT:     -14.0      2.119      3.929
REMARK SMILES Cc1cccc(N2C(=O)/C(=C/c3ccc(C(=O)NCCCCCCNC(=O)c4ccc(-c5c6nc(c(-c7c(F)cc(S(=O)(=O)[O-])cc7F)c7ccc([nH]7)c(-c7c(F)cc(S(=O)(=O)[O-])cc7F)c7nc(c(-c8c(F)cc(S(=O)(=O)[O-])cc8F)c8ccc5[nH]8)C=C7)C=C6)cc4)cc3)c3ccccc3C2=O)c1
REMARK SMILES IDX 22 1 21 2 20 3 19 4 18 5 16 6 17 7 15 9 12 10 13 11 95 12
REMARK SMILES IDX 14 13 94 14 11 15 7 16 8 17 102 18 9 19 10 20 101 21 103 22
REMARK SMILES IDX 96 23 100 24 97 25 99 26 98 27 6 28 1 29 2 30 3 31 104 32
REMARK SMILES IDX 4 33 5 34 23 35 24 36 25 37 26 38 27 40 28 41 29 42 93 43
REMARK SMILES IDX 30 44 92 45 31 46 32 47 33 48 86 49 34 50 91 51 85 52 87 53
REMARK SMILES IDX 35 54 90 55 84 56 83 57 36 59 70 60 49 61 69 62 50 63 53 64
REMARK SMILES IDX 68 65 88 66 51 67 52 68 67 70 89 71 54 72 37 73 38 74 47 75
REMARK SMILES IDX 39 76 40 77 46 78 48 79 41 80 42 81 43 82 44 83 45 84 71 85
REMARK SMILES IDX 72 86 81 87 73 88 74 89 80 90 82 91 75 92 76 93 77 94 78 95
REMARK SMILES IDX 79 96 55 97 56 98 65 99 57 100 58 101 64 102 66 103 59 104
REMARK SMILES IDX 60 105 61 106 62 107 63 108
REMARK H PARENT 18 8 25 39 87 58 53 69
REMARK Flexibility Score: inf
ROOT
ATOM      1  C   UNL A   1      35.500  21.601  24.673  1.00  0.00     0.002 C 
ENDROOT
BRANCH   1   2
ATOM      2  C   UNL A   1      35.135  20.134  24.938  1.00  0.00     0.002 C 
BRANCH   2   3
ATOM      3  C   UNL A   1      33.648  19.776  25.028  1.00  0.00     0.021 C 
BRANCH   3   4
ATOM      4  C   UNL A   1      32.685  20.883  25.454  1.00  0.00     0.116 C 
BRANCH   4   5
ATOM      5  N   UNL A   1      31.843  21.384  24.380  1.00  0.00    -0.352 N 
ATOM      6  C   UNL A   1      31.640  22.678  23.963  1.00  0.00     0.251 C 
ATOM      7  O   UNL A   1      30.867  22.920  23.039  1.00  0.00    -0.269 OA
ATOM      8  H   UNL A   1      31.347  20.696  23.879  1.00  0.00     0.163 HD
BRANCH   6   9
ATOM      9  C   UNL A   1      32.309  23.803  24.656  1.00  0.00     0.039 A 
ATOM     10  C   UNL A   1      33.534  26.060  25.773  1.00  0.00    -0.025 A 
ATOM     11  C   UNL A   1      34.121  25.408  24.682  1.00  0.00     0.009 A 
ATOM     12  C   UNL A   1      32.391  25.507  26.369  1.00  0.00     0.009 A 
ATOM     13  C   UNL A   1      33.512  24.281  24.126  1.00  0.00     0.014 A 
ATOM     14  C   UNL A   1      31.778  24.381  25.812  1.00  0.00     0.014 A 
BRANCH  10  15
ATOM     15  C   UNL A   1      34.124  27.317  26.255  1.00  0.00     0.022 C 
ATOM     16  N   UNL A   1      33.676  30.833  26.964  1.00  0.00    -0.242 N 
ATOM     17  C   UNL A   1      34.438  29.672  26.721  1.00  0.00     0.265 C 
ATOM     18  C   UNL A   1      32.305  30.880  26.641  1.00  0.00     0.265 C 
ATOM     19  O   UNL A   1      35.572  29.443  27.147  1.00  0.00    -0.268 OA
ATOM     20  C   UNL A   1      33.725  28.577  25.966  1.00  0.00     0.049 C 
ATOM     21  C   UNL A   1      31.862  30.065  25.486  1.00  0.00     0.048 A 
ATOM     22  O   UNL A   1      31.425  31.526  27.205  1.00  0.00    -0.268 OA
ATOM     23  C   UNL A   1      32.609  28.957  25.096  1.00  0.00    -0.000 A 
ATOM     24  C   UNL A   1      30.710  30.435  24.777  1.00  0.00     0.014 A 
ATOM     25  C   UNL A   1      32.251  28.289  23.915  1.00  0.00     0.010 A 
ATOM     26  C   UNL A   1      30.327  29.723  23.642  1.00  0.00     0.001 A 
ATOM     27  C   UNL A   1      31.109  28.661  23.200  1.00  0.00     0.001 A 
BRANCH  16  28
ATOM     28  C   UNL A   1      34.293  31.942  27.694  1.00  0.00     0.053 A 
ATOM     29  C   UNL A   1      33.236  35.274  29.294  1.00  0.00     0.044 C 
ATOM     30  C   UNL A   1      34.085  34.121  28.845  1.00  0.00    -0.049 A 
ATOM     31  C   UNL A   1      35.447  34.109  29.141  1.00  0.00     0.003 A 
ATOM     32  C   UNL A   1      33.524  33.036  28.144  1.00  0.00     0.030 A 
ATOM     33  C   UNL A   1      36.228  33.034  28.737  1.00  0.00     0.002 A 
ATOM     34  C   UNL A   1      35.657  31.970  28.027  1.00  0.00     0.027 A 
ENDBRANCH  16  28
ENDBRANCH  10  15
ENDBRANCH   6   9
ENDBRANCH   4   5
ENDBRANCH   3   4
ENDBRANCH   2   3
ENDBRANCH   1   2
BRANCH   1  35
ATOM     35  C   UNL A   1      36.163  22.367  25.818  1.00  0.00     0.021 C 
BRANCH  35  36
ATOM     36  C   UNL A   1      37.509  22.998  25.474  1.00  0.00     0.116 C 
BRANCH  36  37
ATOM     37  N   UNL A   1      38.644  22.327  26.080  1.00  0.00    -0.352 N 
ATOM     38  C   UNL A   1      39.818  22.906  26.545  1.00  0.00     0.251 C 
ATOM     39  H   UNL A   1      38.575  21.350  26.173  1.00  0.00     0.163 HD
ATOM     40  O   UNL A   1      40.837  22.272  26.702  1.00  0.00    -0.269 OA
BRANCH  38  41
ATOM     41  C   UNL A   1      39.729  24.321  26.982  1.00  0.00     0.039 A 
ATOM     42  C   UNL A   1      40.328  25.282  26.157  1.00  0.00     0.014 A 
ATOM     43  C   UNL A   1      39.306  24.648  28.265  1.00  0.00     0.014 A 
ATOM     44  C   UNL A   1      40.657  26.532  26.683  1.00  0.00     0.010 A 
ATOM     45  C   UNL A   1      39.708  25.857  28.807  1.00  0.00     0.010 A 
ATOM     46  C   UNL A   1      40.420  26.788  28.033  1.00  0.00    -0.014 A 
BRANCH  46  47
ATOM     47  C   UNL A   1      40.972  27.930  28.763  1.00  0.00     0.031 A 
ATOM     48  C   UNL A   1      40.111  29.058  29.206  1.00  0.00     0.074 A 
ATOM     49  C   UNL A   1      42.263  27.922  29.167  1.00  0.00     0.049 A 
ATOM     50  N   UNL A   1      40.565  30.205  29.594  1.00  0.00    -0.248 NA
ATOM     51  C   UNL A   1      38.655  28.988  29.224  1.00  0.00     0.031 C 
ATOM     52  C   UNL A   1      42.849  28.733  30.232  1.00  0.00     0.029 A 
ATOM     53  N   UNL A   1      43.358  27.301  28.581  1.00  0.00    -0.354 N 
ATOM     54  C   UNL A   1      39.524  30.906  30.156  1.00  0.00     0.074 A 
ATOM     55  C   UNL A   1      38.345  30.121  29.862  1.00  0.00     0.031 C 
ATOM     56  C   UNL A   1      44.181  28.750  30.090  1.00  0.00     0.029 A 
ATOM     57  C   UNL A   1      44.500  28.076  28.846  1.00  0.00     0.049 A 
ATOM     58  H   UNL A   1      43.338  26.461  28.066  1.00  0.00     0.167 HD
ATOM     59  C   UNL A   1      39.776  32.019  30.907  1.00  0.00     0.037 A 
ATOM     60  C   UNL A   1      45.242  28.620  27.834  1.00  0.00     0.037 A 
ATOM     61  C   UNL A   1      41.199  32.344  30.960  1.00  0.00     0.049 A 
ATOM     62  C   UNL A   1      45.254  30.137  27.793  1.00  0.00     0.074 A 
ATOM     63  C   UNL A   1      42.208  32.143  31.887  1.00  0.00     0.029 A 
ATOM     64  N   UNL A   1      41.826  32.773  29.806  1.00  0.00    -0.354 N 
ATOM     65  N   UNL A   1      44.662  30.904  28.665  1.00  0.00    -0.248 NA
ATOM     66  C   UNL A   1      45.870  30.909  26.710  1.00  0.00     0.031 C 
ATOM     67  C   UNL A   1      43.451  32.465  31.274  1.00  0.00     0.029 A 
ATOM     68  C   UNL A   1      43.194  32.845  29.971  1.00  0.00     0.049 A 
ATOM     69  H   UNL A   1      41.356  33.001  28.972  1.00  0.00     0.167 HD
ATOM     70  C   UNL A   1      44.703  32.201  28.226  1.00  0.00     0.074 A 
ATOM     71  C   UNL A   1      45.509  32.166  27.024  1.00  0.00     0.031 C 
ATOM     72  C   UNL A   1      44.016  33.209  28.834  1.00  0.00     0.037 A 
BRANCH  59  73
ATOM     73  C   UNL A   1      38.739  32.686  31.780  1.00  0.00     0.058 A 
ATOM     74  C   UNL A   1      38.103  31.977  32.821  1.00  0.00     0.135 A 
ATOM     75  C   UNL A   1      38.301  34.015  31.615  1.00  0.00     0.135 A 
ATOM     76  F   UNL A   1      38.480  30.738  33.163  1.00  0.00    -0.206 F 
ATOM     77  C   UNL A   1      37.033  32.495  33.548  1.00  0.00     0.059 A 
ATOM     78  C   UNL A   1      37.193  34.537  32.289  1.00  0.00     0.059 A 
ATOM     79  F   UNL A   1      38.957  34.864  30.811  1.00  0.00    -0.206 F 
ATOM     80  C   UNL A   1      36.553  33.762  33.245  1.00  0.00     0.060 A 
BRANCH  80  81
ATOM     81  S   UNL A   1      35.075  34.349  34.090  1.00  0.00     0.124 S 
ATOM     82  O   UNL A   1      35.025  35.752  33.685  1.00  0.00    -0.237 OA
ATOM     83  O   UNL A   1      34.041  33.489  33.526  1.00  0.00    -0.237 OA
ATOM     84  O   UNL A   1      35.380  34.126  35.500  1.00  0.00    -0.744 OA
ENDBRANCH  80  81
ENDBRANCH  59  73
BRANCH  60  85
ATOM     85  C   UNL A   1      45.320  27.727  26.649  1.00  0.00     0.058 A 
ATOM     86  C   UNL A   1      46.338  26.755  26.645  1.00  0.00     0.135 A 
ATOM     87  C   UNL A   1      44.200  27.510  25.835  1.00  0.00     0.135 A 
ATOM     88  F   UNL A   1      47.440  26.931  27.393  1.00  0.00    -0.206 F 
ATOM     89  C   UNL A   1      46.164  25.528  26.019  1.00  0.00     0.059 A 
ATOM     90  C   UNL A   1      44.012  26.290  25.187  1.00  0.00     0.059 A 
ATOM     91  F   UNL A   1      43.207  28.410  25.795  1.00  0.00    -0.206 F 
ATOM     92  C   UNL A   1      44.962  25.281  25.358  1.00  0.00     0.060 A 
BRANCH  92  93
ATOM     93  S   UNL A   1      44.583  23.571  24.914  1.00  0.00     0.124 S 
ATOM     94  O   UNL A   1      45.431  23.363  23.746  1.00  0.00    -0.237 OA
ATOM     95  O   UNL A   1      44.989  22.862  26.126  1.00  0.00    -0.237 OA
ATOM     96  O   UNL A   1      43.148  23.604  24.657  1.00  0.00    -0.744 OA
ENDBRANCH  92  93
ENDBRANCH  60  85
BRANCH  72  97
ATOM     97  C   UNL A   1      44.063  34.633  28.375  1.00  0.00     0.058 A 
ATOM     98  C   UNL A   1      44.571  35.654  29.192  1.00  0.00     0.135 A 
ATOM     99  C   UNL A   1      43.459  35.032  27.165  1.00  0.00     0.135 A 
ATOM    100  F   UNL A   1      45.142  35.363  30.373  1.00  0.00    -0.206 F 
ATOM    101  C   UNL A   1      44.489  36.999  28.829  1.00  0.00     0.059 A 
ATOM    102  C   UNL A   1      43.332  36.369  26.800  1.00  0.00     0.059 A 
ATOM    103  F   UNL A   1      42.993  34.123  26.295  1.00  0.00    -0.206 F 
ATOM    104  C   UNL A   1      43.861  37.347  27.633  1.00  0.00     0.060 A 
BRANCH 104 105
ATOM    105  S   UNL A   1      43.694  39.086  27.186  1.00  0.00     0.124 S 
ATOM    106  O   UNL A   1      42.369  39.138  26.574  1.00  0.00    -0.237 OA
ATOM    107  O   UNL A   1      43.812  39.733  28.489  1.00  0.00    -0.237 OA
ATOM    108  O   UNL A   1      44.808  39.304  26.269  1.00  0.00    -0.744 OA
ENDBRANCH 104 105
ENDBRANCH  72  97
ENDBRANCH  46  47
ENDBRANCH  38  41
ENDBRANCH  36  37
ENDBRANCH  35  36
ENDBRANCH   1  35
TORSDOF 18
ENDMDL
MODEL 3
REMARK VINA RESULT:     -12.9      1.748      2.531
REMARK SMILES Cc1cccc(N2C(=O)/C(=C/c3ccc(C(=O)NCCCCCCNC(=O)c4ccc(-c5c6nc(c(-c7c(F)cc(S(=O)(=O)[O-])cc7F)c7ccc([nH]7)c(-c7c(F)cc(S(=O)(=O)[O-])cc7F)c7nc(c(-c8c(F)cc(S(=O)(=O)[O-])cc8F)c8ccc5[nH]8)C=C7)C=C6)cc4)cc3)c3ccccc3C2=O)c1
REMARK SMILES IDX 22 1 21 2 20 3 19 4 18 5 16 6 17 7 15 9 12 10 13 11 95 12
REMARK SMILES IDX 14 13 94 14 11 15 7 16 8 17 102 18 9 19 10 20 101 21 103 22
REMARK SMILES IDX 96 23 100 24 97 25 99 26 98 27 6 28 1 29 2 30 3 31 104 32
REMARK SMILES IDX 4 33 5 34 23 35 24 36 25 37 26 38 27 40 28 41 29 42 93 43
REMARK SMILES IDX 30 44 92 45 31 46 32 47 33 48 86 49 34 50 91 51 85 52 87 53
REMARK SMILES IDX 35 54 90 55 84 56 83 57 36 59 70 60 49 61 69 62 50 63 53 64
REMARK SMILES IDX 68 65 88 66 51 67 52 68 67 70 89 71 54 72 37 73 38 74 47 75
REMARK SMILES IDX 39 76 40 77 46 78 48 79 41 80 42 81 43 82 44 83 45 84 71 85
REMARK SMILES IDX 72 86 81 87 73 88 74 89 80 90 82 91 75 92 76 93 77 94 78 95
REMARK SMILES IDX 79 96 55 97 56 98 65 99 57 100 58 101 64 102 66 103 59 104
REMARK SMILES IDX 60 105 61 106 62 107 63 108
REMARK H PARENT 18 8 25 39 87 58 53 69
REMARK Flexibility Score: inf
ROOT
ATOM      1  C   UNL A   1      37.831  23.925  25.710  1.00  0.00     0.002 C 
ENDROOT
BRANCH   1   2
ATOM      2  C   UNL A   1      36.335  23.606  25.830  1.00  0.00     0.002 C 
BRANCH   2   3
ATOM      3  C   UNL A   1      35.869  22.208  25.407  1.00  0.00     0.021 C 
BRANCH   3   4
ATOM      4  C   UNL A   1      34.712  21.589  26.191  1.00  0.00     0.116 C 
BRANCH   4   5
ATOM      5  N   UNL A   1      34.153  20.394  25.581  1.00  0.00    -0.352 N 
ATOM      6  C   UNL A   1      33.038  20.260  24.788  1.00  0.00     0.251 C 
ATOM      7  O   UNL A   1      32.699  19.155  24.373  1.00  0.00    -0.269 OA
ATOM      8  H   UNL A   1      34.645  19.560  25.763  1.00  0.00     0.163 HD
BRANCH   6   9
ATOM      9  C   UNL A   1      32.200  21.438  24.468  1.00  0.00     0.039 A 
ATOM     10  C   UNL A   1      30.739  23.785  24.024  1.00  0.00    -0.025 A 
ATOM     11  C   UNL A   1      30.628  23.108  25.244  1.00  0.00     0.009 A 
ATOM     12  C   UNL A   1      31.497  23.217  22.990  1.00  0.00     0.009 A 
ATOM     13  C   UNL A   1      31.356  21.936  25.465  1.00  0.00     0.014 A 
ATOM     14  C   UNL A   1      32.228  22.047  23.210  1.00  0.00     0.014 A 
BRANCH  10  15
ATOM     15  C   UNL A   1      30.067  25.083  23.865  1.00  0.00     0.022 C 
ATOM     16  N   UNL A   1      30.381  28.657  23.422  1.00  0.00    -0.242 N 
ATOM     17  C   UNL A   1      29.693  27.473  23.755  1.00  0.00     0.265 C 
ATOM     18  C   UNL A   1      31.789  28.677  23.338  1.00  0.00     0.265 C 
ATOM     19  O   UNL A   1      28.479  27.285  23.654  1.00  0.00    -0.268 OA
ATOM     20  C   UNL A   1      30.565  26.308  24.155  1.00  0.00     0.049 C 
ATOM     21  C   UNL A   1      32.524  27.746  24.225  1.00  0.00     0.048 A 
ATOM     22  O   UNL A   1      32.485  29.383  22.613  1.00  0.00    -0.268 OA
ATOM     23  C   UNL A   1      31.893  26.600  24.699  1.00  0.00    -0.000 A 
ATOM     24  C   UNL A   1      33.841  28.046  24.605  1.00  0.00     0.014 A 
ATOM     25  C   UNL A   1      32.559  25.812  25.651  1.00  0.00     0.010 A 
ATOM     26  C   UNL A   1      34.516  27.220  25.501  1.00  0.00     0.001 A 
ATOM     27  C   UNL A   1      33.868  26.112  26.039  1.00  0.00     0.001 A 
BRANCH  16  28
ATOM     28  C   UNL A   1      29.610  29.834  23.021  1.00  0.00     0.053 A 
ATOM     29  C   UNL A   1      27.896  31.213  19.868  1.00  0.00     0.044 C 
ATOM     30  C   UNL A   1      28.382  31.095  21.282  1.00  0.00    -0.049 A 
ATOM     31  C   UNL A   1      28.080  32.096  22.204  1.00  0.00     0.003 A 
ATOM     32  C   UNL A   1      29.124  29.974  21.703  1.00  0.00     0.030 A 
ATOM     33  C   UNL A   1      28.518  31.976  23.516  1.00  0.00     0.002 A 
ATOM     34  C   UNL A   1      29.269  30.863  23.914  1.00  0.00     0.027 A 
ENDBRANCH  16  28
ENDBRANCH  10  15
ENDBRANCH   6   9
ENDBRANCH   4   5
ENDBRANCH   3   4
ENDBRANCH   2   3
ENDBRANCH   1   2
BRANCH   1  35
ATOM     35  C   UNL A   1      38.529  24.456  26.962  1.00  0.00     0.021 C 
BRANCH  35  36
ATOM     36  C   UNL A   1      39.952  24.957  26.742  1.00  0.00     0.116 C 
BRANCH  36  37
ATOM     37  N   UNL A   1      40.881  23.924  26.325  1.00  0.00    -0.352 N 
ATOM     38  C   UNL A   1      42.240  24.062  26.068  1.00  0.00     0.251 C 
ATOM     39  H   UNL A   1      40.507  23.021  26.209  1.00  0.00     0.163 HD
ATOM     40  O   UNL A   1      42.858  23.266  25.399  1.00  0.00    -0.269 OA
BRANCH  38  41
ATOM     41  C   UNL A   1      42.937  25.162  26.779  1.00  0.00     0.039 A 
ATOM     42  C   UNL A   1      43.015  25.070  28.174  1.00  0.00     0.014 A 
ATOM     43  C   UNL A   1      43.261  26.344  26.124  1.00  0.00     0.014 A 
ATOM     44  C   UNL A   1      43.259  26.219  28.928  1.00  0.00     0.010 A 
ATOM     45  C   UNL A   1      43.419  27.495  26.875  1.00  0.00     0.010 A 
ATOM     46  C   UNL A   1      43.378  27.447  28.279  1.00  0.00    -0.014 A 
BRANCH  46  47
ATOM     47  C   UNL A   1      43.345  28.743  28.958  1.00  0.00     0.031 A 
ATOM     48  C   UNL A   1      42.067  29.467  29.187  1.00  0.00     0.074 A 
ATOM     49  C   UNL A   1      44.469  29.253  29.510  1.00  0.00     0.049 A 
ATOM     50  N   UNL A   1      41.991  30.715  29.516  1.00  0.00    -0.248 NA
ATOM     51  C   UNL A   1      40.759  28.838  29.040  1.00  0.00     0.031 C 
ATOM     52  C   UNL A   1      44.544  30.271  30.555  1.00  0.00     0.029 A 
ATOM     53  N   UNL A   1      45.791  29.081  29.118  1.00  0.00    -0.354 N 
ATOM     54  C   UNL A   1      40.693  30.981  29.883  1.00  0.00     0.074 A 
ATOM     55  C   UNL A   1      39.955  29.788  29.528  1.00  0.00     0.031 C 
ATOM     56  C   UNL A   1      45.775  30.798  30.570  1.00  0.00     0.029 A 
ATOM     57  C   UNL A   1      46.503  30.249  29.442  1.00  0.00     0.049 A 
ATOM     58  H   UNL A   1      46.165  28.279  28.686  1.00  0.00     0.167 HD
ATOM     59  C   UNL A   1      40.393  32.134  30.550  1.00  0.00     0.037 A 
ATOM     60  C   UNL A   1      47.122  30.996  28.478  1.00  0.00     0.037 A 
ATOM     61  C   UNL A   1      41.563  32.987  30.739  1.00  0.00     0.049 A 
ATOM     62  C   UNL A   1      46.565  32.395  28.296  1.00  0.00     0.074 A 
ATOM     63  C   UNL A   1      42.427  33.232  31.794  1.00  0.00     0.029 A 
ATOM     64  N   UNL A   1      42.141  33.578  29.632  1.00  0.00    -0.354 N 
ATOM     65  N   UNL A   1      45.607  32.908  29.015  1.00  0.00    -0.248 NA
ATOM     66  C   UNL A   1      46.994  33.300  27.225  1.00  0.00     0.031 C 
ATOM     67  C   UNL A   1      43.531  33.985  31.304  1.00  0.00     0.029 A 
ATOM     68  C   UNL A   1      43.342  34.181  29.950  1.00  0.00     0.049 A 
ATOM     69  H   UNL A   1      41.747  33.570  28.730  1.00  0.00     0.167 HD
ATOM     70  C   UNL A   1      45.218  34.100  28.464  1.00  0.00     0.074 A 
ATOM     71  C   UNL A   1      46.143  34.330  27.374  1.00  0.00     0.031 C 
ATOM     72  C   UNL A   1      44.121  34.787  28.888  1.00  0.00     0.037 A 
BRANCH  59  73
ATOM     73  C   UNL A   1      39.066  32.383  31.227  1.00  0.00     0.058 A 
ATOM     74  C   UNL A   1      37.947  32.822  30.489  1.00  0.00     0.135 A 
ATOM     75  C   UNL A   1      38.844  32.239  32.611  1.00  0.00     0.135 A 
ATOM     76  F   UNL A   1      37.973  32.911  29.153  1.00  0.00    -0.206 F 
ATOM     77  C   UNL A   1      36.750  33.215  31.088  1.00  0.00     0.059 A 
ATOM     78  C   UNL A   1      37.677  32.681  33.242  1.00  0.00     0.059 A 
ATOM     79  F   UNL A   1      39.747  31.635  33.397  1.00  0.00    -0.206 F 
ATOM     80  C   UNL A   1      36.638  33.184  32.471  1.00  0.00     0.060 A 
BRANCH  80  81
ATOM     81  S   UNL A   1      35.143  33.841  33.230  1.00  0.00     0.124 S 
ATOM     82  O   UNL A   1      34.108  33.417  32.291  1.00  0.00    -0.237 OA
ATOM     83  O   UNL A   1      35.139  33.168  34.524  1.00  0.00    -0.237 OA
ATOM     84  O   UNL A   1      35.387  35.279  33.270  1.00  0.00    -0.744 OA
ENDBRANCH  80  81
ENDBRANCH  59  73
BRANCH  60  85
ATOM     85  C   UNL A   1      47.704  30.154  27.400  1.00  0.00     0.058 A 
ATOM     86  C   UNL A   1      48.933  29.524  27.671  1.00  0.00     0.135 A 
ATOM     87  C   UNL A   1      46.894  29.609  26.394  1.00  0.00     0.135 A 
ATOM     88  F   UNL A   1      49.752  30.024  28.611  1.00  0.00    -0.206 F 
ATOM     89  C   UNL A   1      49.255  28.295  27.112  1.00  0.00     0.059 A 
ATOM     90  C   UNL A   1      47.205  28.382  25.811  1.00  0.00     0.059 A 
ATOM     91  F   UNL A   1      45.717  30.177  26.091  1.00  0.00    -0.206 F 
ATOM     92  C   UNL A   1      48.344  27.699  26.242  1.00  0.00     0.060 A 
BRANCH  92  93
ATOM     93  S   UNL A   1      48.574  25.949  25.854  1.00  0.00     0.124 S 
ATOM     94  O   UNL A   1      47.502  25.704  24.895  1.00  0.00    -0.237 OA
ATOM     95  O   UNL A   1      49.928  25.951  25.304  1.00  0.00    -0.237 OA
ATOM     96  O   UNL A   1      48.424  25.299  27.151  1.00  0.00    -0.744 OA
ENDBRANCH  92  93
ENDBRANCH  60  85
BRANCH  72  97
ATOM     97  C   UNL A   1      43.691  36.098  28.306  1.00  0.00     0.058 A 
ATOM     98  C   UNL A   1      43.841  37.302  29.010  1.00  0.00     0.135 A 
ATOM     99  C   UNL A   1      42.979  36.160  27.091  1.00  0.00     0.135 A 
ATOM    100  F   UNL A   1      44.486  37.328  30.188  1.00  0.00    -0.206 F 
ATOM    101  C   UNL A   1      43.317  38.505  28.535  1.00  0.00     0.059 A 
ATOM    102  C   UNL A   1      42.415  37.340  26.616  1.00  0.00     0.059 A 
ATOM    103  F   UNL A   1      42.831  35.070  26.322  1.00  0.00    -0.206 F 
ATOM    104  C   UNL A   1      42.599  38.512  27.339  1.00  0.00     0.060 A 
BRANCH 104 105
ATOM    105  S   UNL A   1      41.864  40.050  26.749  1.00  0.00     0.124 S 
ATOM    106  O   UNL A   1      41.443  40.704  27.986  1.00  0.00    -0.237 OA
ATOM    107  O   UNL A   1      42.996  40.667  26.064  1.00  0.00    -0.237 OA
ATOM    108  O   UNL A   1      40.778  39.594  25.889  1.00  0.00    -0.744 OA
ENDBRANCH 104 105
ENDBRANCH  72  97
ENDBRANCH  46  47
ENDBRANCH  38  41
ENDBRANCH  36  37
ENDBRANCH  35  36
ENDBRANCH   1  35
TORSDOF 18
ENDMDL
