MODEL 1
REMARK VINA RESULT:     -11.1      0.000      0.000
REMARK SMILES COC(=O)c1ccccc1-c1ccc(/C=C(\C#N)C(=O)NCCCCCCNC(=O)c2ccc(-c3c4nc(c(-c5c(F)cc(S(=O)(=O)[O-])cc5F)c5ccc([nH]5)c(-c5c(F)cc(S(=O)(=O)[O-])cc5F)c5nc(c(-c6c(F)cc(S(=O)(=O)[O-])cc6F)c6ccc3[nH]6)C=C5)C=C4)cc2)o1
REMARK SMILES IDX 24 1 23 2 22 3 21 4 19 5 20 6 16 8 15 9 14 10 11 11 12 12
REMARK SMILES IDX 97 13 13 14 10 15 5 16 6 17 7 18 9 19 8 20 3 21 4 22 2 23
REMARK SMILES IDX 1 24 17 25 18 26 25 27 26 28 27 29 28 30 29 31 30 33 31 34
REMARK SMILES IDX 32 35 96 36 33 37 95 38 34 39 35 40 36 41 89 42 37 43 94 44
REMARK SMILES IDX 88 45 90 46 38 47 93 48 87 49 86 50 39 52 73 53 52 54 72 55
REMARK SMILES IDX 53 56 56 57 71 58 91 59 54 60 55 61 70 63 92 64 57 65 40 66
REMARK SMILES IDX 41 67 50 68 42 69 43 70 49 71 51 72 44 73 45 74 46 75 47 76
REMARK SMILES IDX 48 77 74 78 75 79 84 80 76 81 77 82 83 83 85 84 78 85 79 86
REMARK SMILES IDX 80 87 81 88 82 89 58 90 59 91 68 92 60 93 61 94 67 95 69 96
REMARK SMILES IDX 62 97 63 98 64 99 65 100 66 101
REMARK H PARENT 21 7 28 32 90 51 56 62
REMARK Flexibility Score: inf
ROOT
ATOM      1  C   UNL A   1      32.129  29.085  25.286  1.00  0.00     0.002 C 
ENDROOT
BRANCH   1   2
ATOM      2  C   UNL A   1      31.964  29.600  23.850  1.00  0.00     0.021 C 
BRANCH   2   3
ATOM      3  C   UNL A   1      31.457  28.524  22.893  1.00  0.00     0.116 C 
BRANCH   3   4
ATOM      4  N   UNL A   1      30.087  28.162  23.207  1.00  0.00    -0.351 N 
ATOM      5  C   UNL A   1      29.506  27.026  23.667  1.00  0.00     0.262 C 
ATOM      6  O   UNL A   1      28.276  27.056  23.788  1.00  0.00    -0.268 OA
ATOM      7  H   UNL A   1      29.446  28.893  23.055  1.00  0.00     0.163 HD
BRANCH   5   8
ATOM      8  C   UNL A   1      30.268  25.799  24.047  1.00  0.00     0.120 C 
ATOM      9  C   UNL A   1      30.853  25.124  23.033  1.00  0.00     0.072 C 
BRANCH   9  10
ATOM     10  C   UNL A   1      31.574  23.901  23.166  1.00  0.00     0.129 A 
ATOM     11  C   UNL A   1      33.254  22.483  23.544  1.00  0.00     0.135 A 
ATOM     12  C   UNL A   1      32.178  21.709  23.177  1.00  0.00     0.051 A 
ATOM     13  O   UNL A   1      32.886  23.793  23.564  1.00  0.00    -0.457 OA
ATOM     14  C   UNL A   1      31.112  22.609  22.937  1.00  0.00     0.051 A 
BRANCH  11  15
ATOM     15  C   UNL A   1      34.644  22.200  23.871  1.00  0.00     0.032 A 
ATOM     16  C   UNL A   1      35.017  21.249  24.840  1.00  0.00     0.071 A 
ATOM     17  C   UNL A   1      36.362  21.086  25.204  1.00  0.00     0.016 A 
ATOM     18  C   UNL A   1      37.353  21.846  24.584  1.00  0.00     0.001 A 
ATOM     19  C   UNL A   1      35.660  22.941  23.243  1.00  0.00     0.013 A 
ATOM     20  C   UNL A   1      37.002  22.766  23.599  1.00  0.00     0.001 A 
BRANCH  16  21
ATOM     21  C   UNL A   1      34.032  20.388  25.528  1.00  0.00     0.338 C 
ATOM     22  O   UNL A   1      33.392  20.742  26.509  1.00  0.00    -0.246 OA
BRANCH  21  23
ATOM     23  O   UNL A   1      34.001  19.170  24.941  1.00  0.00    -0.465 OA
ATOM     24  C   UNL A   1      32.734  18.520  24.999  1.00  0.00     0.282 C 
ENDBRANCH  21  23
ENDBRANCH  16  21
ENDBRANCH  11  15
ENDBRANCH   9  10
BRANCH   8  25
ATOM     25  C   UNL A   1      30.333  25.279  25.474  1.00  0.00     0.105 C 
ATOM     26  N   UNL A   1      30.387  24.848  26.658  1.00  0.00    -0.192 NA
ENDBRANCH   8  25
ENDBRANCH   5   8
ENDBRANCH   3   4
ENDBRANCH   2   3
ENDBRANCH   1   2
BRANCH   1  27
ATOM     27  C   UNL A   1      33.569  28.716  25.670  1.00  0.00     0.002 C 
BRANCH  27  28
ATOM     28  C   UNL A   1      33.859  28.740  27.175  1.00  0.00     0.021 C 
BRANCH  28  29
ATOM     29  C   UNL A   1      35.263  29.218  27.527  1.00  0.00     0.116 C 
BRANCH  29  30
ATOM     30  N   UNL A   1      35.249  30.063  28.710  1.00  0.00    -0.352 N 
ATOM     31  C   UNL A   1      36.243  30.283  29.629  1.00  0.00     0.251 C 
ATOM     32  H   UNL A   1      34.407  30.547  28.875  1.00  0.00     0.163 HD
ATOM     33  O   UNL A   1      35.976  30.815  30.702  1.00  0.00    -0.269 OA
BRANCH  31  34
ATOM     34  C   UNL A   1      37.630  29.877  29.320  1.00  0.00     0.039 A 
ATOM     35  C   UNL A   1      38.469  29.483  30.364  1.00  0.00     0.014 A 
ATOM     36  C   UNL A   1      38.110  29.924  28.007  1.00  0.00     0.014 A 
ATOM     37  C   UNL A   1      39.784  29.104  30.085  1.00  0.00     0.010 A 
ATOM     38  C   UNL A   1      39.396  29.481  27.724  1.00  0.00     0.010 A 
ATOM     39  C   UNL A   1      40.251  29.084  28.762  1.00  0.00    -0.014 A 
BRANCH  39  40
ATOM     40  C   UNL A   1      41.647  28.693  28.445  1.00  0.00     0.031 A 
ATOM     41  C   UNL A   1      42.733  29.735  28.442  1.00  0.00     0.074 A 
ATOM     42  C   UNL A   1      41.926  27.416  28.114  1.00  0.00     0.049 A 
ATOM     43  N   UNL A   1      43.994  29.616  28.117  1.00  0.00    -0.248 NA
ATOM     44  C   UNL A   1      42.341  31.102  28.829  1.00  0.00     0.031 C 
ATOM     45  C   UNL A   1      40.950  26.326  28.048  1.00  0.00     0.029 A 
ATOM     46  N   UNL A   1      43.111  26.822  27.764  1.00  0.00    -0.354 N 
ATOM     47  C   UNL A   1      44.542  30.886  28.250  1.00  0.00     0.074 A 
ATOM     48  C   UNL A   1      43.466  31.774  28.629  1.00  0.00     0.031 C 
ATOM     49  C   UNL A   1      41.580  25.193  27.699  1.00  0.00     0.029 A 
ATOM     50  C   UNL A   1      42.994  25.480  27.484  1.00  0.00     0.049 A 
ATOM     51  H   UNL A   1      43.965  27.309  27.718  1.00  0.00     0.167 HD
ATOM     52  C   UNL A   1      45.831  31.273  28.095  1.00  0.00     0.037 A 
ATOM     53  C   UNL A   1      43.925  24.588  27.093  1.00  0.00     0.037 A 
ATOM     54  C   UNL A   1      46.902  30.376  27.745  1.00  0.00     0.049 A 
ATOM     55  C   UNL A   1      45.350  25.043  26.926  1.00  0.00     0.074 A 
ATOM     56  C   UNL A   1      48.247  30.659  27.597  1.00  0.00     0.029 A 
ATOM     57  N   UNL A   1      46.748  29.021  27.496  1.00  0.00    -0.354 N 
ATOM     58  N   UNL A   1      45.858  26.241  27.096  1.00  0.00    -0.248 NA
ATOM     59  C   UNL A   1      46.330  24.026  26.525  1.00  0.00     0.031 C 
ATOM     60  C   UNL A   1      48.904  29.480  27.229  1.00  0.00     0.029 A 
ATOM     61  C   UNL A   1      47.973  28.454  27.191  1.00  0.00     0.049 A 
ATOM     62  H   UNL A   1      45.893  28.533  27.533  1.00  0.00     0.167 HD
ATOM     63  C   UNL A   1      47.222  26.112  26.857  1.00  0.00     0.074 A 
ATOM     64  C   UNL A   1      47.460  24.719  26.538  1.00  0.00     0.031 C 
ATOM     65  C   UNL A   1      48.191  27.059  26.899  1.00  0.00     0.037 A 
BRANCH  52  66
ATOM     66  C   UNL A   1      46.156  32.724  28.319  1.00  0.00     0.058 A 
ATOM     67  C   UNL A   1      46.091  33.660  27.275  1.00  0.00     0.135 A 
ATOM     68  C   UNL A   1      46.499  33.193  29.598  1.00  0.00     0.135 A 
ATOM     69  F   UNL A   1      45.786  33.263  26.029  1.00  0.00    -0.206 F 
ATOM     70  C   UNL A   1      46.377  35.005  27.483  1.00  0.00     0.059 A 
ATOM     71  C   UNL A   1      46.763  34.539  29.835  1.00  0.00     0.059 A 
ATOM     72  F   UNL A   1      46.578  32.342  30.632  1.00  0.00    -0.206 F 
ATOM     73  C   UNL A   1      46.712  35.436  28.768  1.00  0.00     0.060 A 
BRANCH  73  74
ATOM     74  S   UNL A   1      47.066  37.188  29.023  1.00  0.00     0.124 S 
ATOM     75  O   UNL A   1      46.831  37.326  30.457  1.00  0.00    -0.237 OA
ATOM     76  O   UNL A   1      48.458  37.290  28.597  1.00  0.00    -0.237 OA
ATOM     77  O   UNL A   1      46.099  37.859  28.162  1.00  0.00    -0.744 OA
ENDBRANCH  73  74
ENDBRANCH  52  66
BRANCH  53  78
ATOM     78  C   UNL A   1      43.548  23.169  26.856  1.00  0.00     0.058 A 
ATOM     79  C   UNL A   1      43.543  22.633  25.559  1.00  0.00     0.135 A 
ATOM     80  C   UNL A   1      43.178  22.324  27.913  1.00  0.00     0.135 A 
ATOM     81  F   UNL A   1      43.887  23.402  24.515  1.00  0.00    -0.206 F 
ATOM     82  C   UNL A   1      43.155  21.320  25.314  1.00  0.00     0.059 A 
ATOM     83  C   UNL A   1      42.811  21.000  27.696  1.00  0.00     0.059 A 
ATOM     84  F   UNL A   1      43.186  22.782  29.174  1.00  0.00    -0.206 F 
ATOM     85  C   UNL A   1      42.788  20.511  26.390  1.00  0.00     0.060 A 
BRANCH  85  86
ATOM     86  S   UNL A   1      42.306  18.801  26.065  1.00  0.00     0.124 S 
ATOM     87  O   UNL A   1      43.203  18.446  24.972  1.00  0.00    -0.237 OA
ATOM     88  O   UNL A   1      42.573  18.157  27.346  1.00  0.00    -0.237 OA
ATOM     89  O   UNL A   1      40.893  18.914  25.712  1.00  0.00    -0.744 OA
ENDBRANCH  85  86
ENDBRANCH  53  78
BRANCH  65  90
ATOM     90  C   UNL A   1      49.605  26.614  26.647  1.00  0.00     0.058 A 
ATOM     91  C   UNL A   1      50.425  26.139  27.680  1.00  0.00     0.135 A 
ATOM     92  C   UNL A   1      50.125  26.618  25.342  1.00  0.00     0.135 A 
ATOM     93  F   UNL A   1      49.977  26.120  28.946  1.00  0.00    -0.206 F 
ATOM     94  C   UNL A   1      51.723  25.703  27.433  1.00  0.00     0.059 A 
ATOM     95  C   UNL A   1      51.410  26.163  25.069  1.00  0.00     0.059 A 
ATOM     96  F   UNL A   1      49.376  27.054  24.317  1.00  0.00    -0.206 F 
ATOM     97  C   UNL A   1      52.206  25.718  26.123  1.00  0.00     0.060 A 
BRANCH  97  98
ATOM     98  S   UNL A   1      53.880  25.117  25.809  1.00  0.00     0.124 S 
ATOM     99  O   UNL A   1      54.403  26.156  24.928  1.00  0.00    -0.237 OA
ATOM    100  O   UNL A   1      54.453  25.074  27.150  1.00  0.00    -0.237 OA
ATOM    101  O   UNL A   1      53.662  23.816  25.186  1.00  0.00    -0.744 OA
ENDBRANCH  97  98
ENDBRANCH  65  90
ENDBRANCH  39  40
ENDBRANCH  31  34
ENDBRANCH  29  30
ENDBRANCH  28  29
ENDBRANCH  27  28
ENDBRANCH   1  27
TORSDOF 21
ENDMDL
MODEL 2
REMARK VINA RESULT:     -11.1      0.808      8.235
REMARK SMILES COC(=O)c1ccccc1-c1ccc(/C=C(\C#N)C(=O)NCCCCCCNC(=O)c2ccc(-c3c4nc(c(-c5c(F)cc(S(=O)(=O)[O-])cc5F)c5ccc([nH]5)c(-c5c(F)cc(S(=O)(=O)[O-])cc5F)c5nc(c(-c6c(F)cc(S(=O)(=O)[O-])cc6F)c6ccc3[nH]6)C=C5)C=C4)cc2)o1
REMARK SMILES IDX 24 1 23 2 22 3 21 4 19 5 20 6 16 8 15 9 14 10 11 11 12 12
REMARK SMILES IDX 97 13 13 14 10 15 5 16 6 17 7 18 9 19 8 20 3 21 4 22 2 23
REMARK SMILES IDX 1 24 17 25 18 26 25 27 26 28 27 29 28 30 29 31 30 33 31 34
REMARK SMILES IDX 32 35 96 36 33 37 95 38 34 39 35 40 36 41 89 42 37 43 94 44
REMARK SMILES IDX 88 45 90 46 38 47 93 48 87 49 86 50 39 52 73 53 52 54 72 55
REMARK SMILES IDX 53 56 56 57 71 58 91 59 54 60 55 61 70 63 92 64 57 65 40 66
REMARK SMILES IDX 41 67 50 68 42 69 43 70 49 71 51 72 44 73 45 74 46 75 47 76
REMARK SMILES IDX 48 77 74 78 75 79 84 80 76 81 77 82 83 83 85 84 78 85 79 86
REMARK SMILES IDX 80 87 81 88 82 89 58 90 59 91 68 92 60 93 61 94 67 95 69 96
REMARK SMILES IDX 62 97 63 98 64 99 65 100 66 101
REMARK H PARENT 21 7 28 32 90 51 56 62
REMARK Flexibility Score: inf
ROOT
ATOM      1  C   UNL A   1      32.361  28.435  25.551  1.00  0.00     0.002 C 
ENDROOT
BRANCH   1   2
ATOM      2  C   UNL A   1      31.463  29.411  24.781  1.00  0.00     0.021 C 
BRANCH   2   3
ATOM      3  C   UNL A   1      30.977  28.841  23.451  1.00  0.00     0.116 C 
BRANCH   3   4
ATOM      4  N   UNL A   1      29.729  28.123  23.627  1.00  0.00    -0.351 N 
ATOM      5  C   UNL A   1      29.428  26.822  23.871  1.00  0.00     0.262 C 
ATOM      6  O   UNL A   1      28.225  26.544  23.925  1.00  0.00    -0.268 OA
ATOM      7  H   UNL A   1      28.934  28.699  23.554  1.00  0.00     0.163 HD
BRANCH   5   8
ATOM      8  C   UNL A   1      30.455  25.762  24.099  1.00  0.00     0.120 C 
ATOM      9  C   UNL A   1      31.133  25.347  23.006  1.00  0.00     0.072 C 
BRANCH   9  10
ATOM     10  C   UNL A   1      32.110  24.308  22.990  1.00  0.00     0.129 A 
ATOM     11  C   UNL A   1      33.031  22.288  23.202  1.00  0.00     0.135 A 
ATOM     12  C   UNL A   1      34.046  23.129  22.812  1.00  0.00     0.051 A 
ATOM     13  O   UNL A   1      31.866  22.986  23.282  1.00  0.00    -0.457 OA
ATOM     14  C   UNL A   1      33.462  24.412  22.679  1.00  0.00     0.051 A 
BRANCH  11  15
ATOM     15  C   UNL A   1      32.960  20.877  23.554  1.00  0.00     0.032 A 
ATOM     16  C   UNL A   1      33.715  20.318  24.604  1.00  0.00     0.071 A 
ATOM     17  C   UNL A   1      33.701  18.935  24.839  1.00  0.00     0.016 A 
ATOM     18  C   UNL A   1      32.911  18.098  24.053  1.00  0.00     0.001 A 
ATOM     19  C   UNL A   1      32.155  20.018  22.787  1.00  0.00     0.013 A 
ATOM     20  C   UNL A   1      32.132  18.641  23.034  1.00  0.00     0.001 A 
BRANCH  16  21
ATOM     21  C   UNL A   1      34.560  21.137  25.498  1.00  0.00     0.338 C 
ATOM     22  O   UNL A   1      34.130  21.737  26.474  1.00  0.00    -0.246 OA
BRANCH  21  23
ATOM     23  O   UNL A   1      35.832  21.151  25.038  1.00  0.00    -0.465 OA
ATOM     24  C   UNL A   1      36.719  21.980  25.784  1.00  0.00     0.282 C 
ENDBRANCH  21  23
ENDBRANCH  16  21
ENDBRANCH  11  15
ENDBRANCH   9  10
BRANCH   8  25
ATOM     25  C   UNL A   1      30.687  25.118  25.457  1.00  0.00     0.105 C 
ATOM     26  N   UNL A   1      30.879  24.585  26.583  1.00  0.00    -0.192 NA
ENDBRANCH   8  25
ENDBRANCH   5   8
ENDBRANCH   3   4
ENDBRANCH   2   3
ENDBRANCH   1   2
BRANCH   1  27
ATOM     27  C   UNL A   1      33.805  28.918  25.752  1.00  0.00     0.002 C 
BRANCH  27  28
ATOM     28  C   UNL A   1      34.373  28.681  27.155  1.00  0.00     0.021 C 
BRANCH  28  29
ATOM     29  C   UNL A   1      35.442  29.687  27.568  1.00  0.00     0.116 C 
BRANCH  29  30
ATOM     30  N   UNL A   1      35.397  29.944  28.998  1.00  0.00    -0.352 N 
ATOM     31  C   UNL A   1      36.365  29.732  29.946  1.00  0.00     0.251 C 
ATOM     32  H   UNL A   1      34.553  30.324  29.334  1.00  0.00     0.163 HD
ATOM     33  O   UNL A   1      36.069  29.757  31.137  1.00  0.00    -0.269 OA
BRANCH  31  34
ATOM     34  C   UNL A   1      37.758  29.476  29.527  1.00  0.00     0.039 A 
ATOM     35  C   UNL A   1      38.088  29.572  28.173  1.00  0.00     0.014 A 
ATOM     36  C   UNL A   1      38.727  29.104  30.465  1.00  0.00     0.014 A 
ATOM     37  C   UNL A   1      39.400  29.325  27.764  1.00  0.00     0.010 A 
ATOM     38  C   UNL A   1      40.046  28.926  30.064  1.00  0.00     0.010 A 
ATOM     39  C   UNL A   1      40.391  29.017  28.709  1.00  0.00    -0.014 A 
BRANCH  39  40
ATOM     40  C   UNL A   1      41.790  28.743  28.294  1.00  0.00     0.031 A 
ATOM     41  C   UNL A   1      42.196  27.343  27.919  1.00  0.00     0.074 A 
ATOM     42  C   UNL A   1      42.698  29.738  28.303  1.00  0.00     0.049 A 
ATOM     43  N   UNL A   1      43.379  26.881  27.606  1.00  0.00    -0.248 NA
ATOM     44  C   UNL A   1      41.136  26.320  27.923  1.00  0.00     0.031 C 
ATOM     45  C   UNL A   1      42.429  31.127  28.682  1.00  0.00     0.029 A 
ATOM     46  N   UNL A   1      44.033  29.732  27.991  1.00  0.00    -0.354 N 
ATOM     47  C   UNL A   1      43.209  25.519  27.388  1.00  0.00     0.074 A 
ATOM     48  C   UNL A   1      41.820  25.217  27.658  1.00  0.00     0.031 C 
ATOM     49  C   UNL A   1      43.559  31.842  28.562  1.00  0.00     0.029 A 
ATOM     50  C   UNL A   1      44.638  30.960  28.131  1.00  0.00     0.049 A 
ATOM     51  H   UNL A   1      44.514  28.926  27.695  1.00  0.00     0.167 HD
ATOM     52  C   UNL A   1      44.121  24.607  26.973  1.00  0.00     0.037 A 
ATOM     53  C   UNL A   1      45.920  31.326  27.938  1.00  0.00     0.037 A 
ATOM     54  C   UNL A   1      45.494  24.922  26.678  1.00  0.00     0.049 A 
ATOM     55  C   UNL A   1      46.914  30.294  27.478  1.00  0.00     0.074 A 
ATOM     56  C   UNL A   1      46.490  24.080  26.219  1.00  0.00     0.029 A 
ATOM     57  N   UNL A   1      46.061  26.181  26.805  1.00  0.00    -0.354 N 
ATOM     58  N   UNL A   1      46.726  29.018  27.237  1.00  0.00    -0.248 NA
ATOM     59  C   UNL A   1      48.292  30.751  27.256  1.00  0.00     0.031 C 
ATOM     60  C   UNL A   1      47.669  24.824  26.097  1.00  0.00     0.029 A 
ATOM     61  C   UNL A   1      47.395  26.138  26.439  1.00  0.00     0.049 A 
ATOM     62  H   UNL A   1      45.584  26.987  27.111  1.00  0.00     0.167 HD
ATOM     63  C   UNL A   1      47.953  28.529  26.800  1.00  0.00     0.074 A 
ATOM     64  C   UNL A   1      48.872  29.648  26.804  1.00  0.00     0.031 C 
ATOM     65  C   UNL A   1      48.288  27.270  26.428  1.00  0.00     0.037 A 
BRANCH  52  66
ATOM     66  C   UNL A   1      43.658  23.186  26.798  1.00  0.00     0.058 A 
ATOM     67  C   UNL A   1      43.404  22.357  27.903  1.00  0.00     0.135 A 
ATOM     68  C   UNL A   1      43.427  22.659  25.517  1.00  0.00     0.135 A 
ATOM     69  F   UNL A   1      43.625  22.805  29.150  1.00  0.00    -0.206 F 
ATOM     70  C   UNL A   1      42.963  21.048  27.744  1.00  0.00     0.059 A 
ATOM     71  C   UNL A   1      42.960  21.360  25.336  1.00  0.00     0.059 A 
ATOM     72  F   UNL A   1      43.655  23.407  24.427  1.00  0.00    -0.206 F 
ATOM     73  C   UNL A   1      42.742  20.558  26.456  1.00  0.00     0.060 A 
BRANCH  73  74
ATOM     74  S   UNL A   1      42.155  18.861  26.269  1.00  0.00     0.124 S 
ATOM     75  O   UNL A   1      42.238  18.371  27.642  1.00  0.00    -0.237 OA
ATOM     76  O   UNL A   1      40.806  19.054  25.746  1.00  0.00    -0.237 OA
ATOM     77  O   UNL A   1      43.108  18.273  25.334  1.00  0.00    -0.744 OA
ENDBRANCH  73  74
ENDBRANCH  52  66
BRANCH  53  78
ATOM     78  C   UNL A   1      46.335  32.739  28.151  1.00  0.00     0.058 A 
ATOM     79  C   UNL A   1      46.872  33.153  29.379  1.00  0.00     0.135 A 
ATOM     80  C   UNL A   1      46.196  33.702  27.141  1.00  0.00     0.135 A 
ATOM     81  F   UNL A   1      47.022  32.269  30.377  1.00  0.00    -0.206 F 
ATOM     82  C   UNL A   1      47.229  34.477  29.610  1.00  0.00     0.059 A 
ATOM     83  C   UNL A   1      46.570  35.028  27.338  1.00  0.00     0.059 A 
ATOM     84  F   UNL A   1      45.707  33.353  25.940  1.00  0.00    -0.206 F 
ATOM     85  C   UNL A   1      47.070  35.409  28.583  1.00  0.00     0.060 A 
BRANCH  85  86
ATOM     86  S   UNL A   1      47.555  37.123  28.884  1.00  0.00     0.124 S 
ATOM     87  O   UNL A   1      48.965  37.099  28.511  1.00  0.00    -0.237 OA
ATOM     88  O   UNL A   1      46.669  37.856  27.987  1.00  0.00    -0.237 OA
ATOM     89  O   UNL A   1      47.281  37.302  30.307  1.00  0.00    -0.744 OA
ENDBRANCH  85  86
ENDBRANCH  53  78
BRANCH  65  90
ATOM     90  C   UNL A   1      49.692  27.043  25.941  1.00  0.00     0.058 A 
ATOM     91  C   UNL A   1      50.067  27.307  24.616  1.00  0.00     0.135 A 
ATOM     92  C   UNL A   1      50.686  26.602  26.832  1.00  0.00     0.135 A 
ATOM     93  F   UNL A   1      49.154  27.724  23.725  1.00  0.00    -0.206 F 
ATOM     94  C   UNL A   1      51.376  27.120  24.183  1.00  0.00     0.059 A 
ATOM     95  C   UNL A   1      52.005  26.433  26.426  1.00  0.00     0.059 A 
ATOM     96  F   UNL A   1      50.380  26.345  28.114  1.00  0.00    -0.206 F 
ATOM     97  C   UNL A   1      52.338  26.684  25.095  1.00  0.00     0.060 A 
BRANCH  97  98
ATOM     98  S   UNL A   1      54.040  26.478  24.529  1.00  0.00     0.124 S 
ATOM     99  O   UNL A   1      54.652  27.725  24.979  1.00  0.00    -0.237 OA
ATOM    100  O   UNL A   1      54.461  25.273  25.236  1.00  0.00    -0.237 OA
ATOM    101  O   UNL A   1      53.902  26.333  23.084  1.00  0.00    -0.744 OA
ENDBRANCH  97  98
ENDBRANCH  65  90
ENDBRANCH  39  40
ENDBRANCH  31  34
ENDBRANCH  29  30
ENDBRANCH  28  29
ENDBRANCH  27  28
ENDBRANCH   1  27
TORSDOF 21
ENDMDL
MODEL 3
REMARK VINA RESULT:     -10.8      2.407      9.139
REMARK SMILES COC(=O)c1ccccc1-c1ccc(/C=C(\C#N)C(=O)NCCCCCCNC(=O)c2ccc(-c3c4nc(c(-c5c(F)cc(S(=O)(=O)[O-])cc5F)c5ccc([nH]5)c(-c5c(F)cc(S(=O)(=O)[O-])cc5F)c5nc(c(-c6c(F)cc(S(=O)(=O)[O-])cc6F)c6ccc3[nH]6)C=C5)C=C4)cc2)o1
REMARK SMILES IDX 24 1 23 2 22 3 21 4 19 5 20 6 16 8 15 9 14 10 11 11 12 12
REMARK SMILES IDX 97 13 13 14 10 15 5 16 6 17 7 18 9 19 8 20 3 21 4 22 2 23
REMARK SMILES IDX 1 24 17 25 18 26 25 27 26 28 27 29 28 30 29 31 30 33 31 34
REMARK SMILES IDX 32 35 96 36 33 37 95 38 34 39 35 40 36 41 89 42 37 43 94 44
REMARK SMILES IDX 88 45 90 46 38 47 93 48 87 49 86 50 39 52 73 53 52 54 72 55
REMARK SMILES IDX 53 56 56 57 71 58 91 59 54 60 55 61 70 63 92 64 57 65 40 66
REMARK SMILES IDX 41 67 50 68 42 69 43 70 49 71 51 72 44 73 45 74 46 75 47 76
REMARK SMILES IDX 48 77 74 78 75 79 84 80 76 81 77 82 83 83 85 84 78 85 79 86
REMARK SMILES IDX 80 87 81 88 82 89 58 90 59 91 68 92 60 93 61 94 67 95 69 96
REMARK SMILES IDX 62 97 63 98 64 99 65 100 66 101
REMARK H PARENT 21 7 28 32 90 51 56 62
REMARK Flexibility Score: inf
ROOT
ATOM      1  C   UNL A   1      36.525  33.735  29.639  1.00  0.00     0.002 C 
ENDROOT
BRANCH   1   2
ATOM      2  C   UNL A   1      35.313  33.800  28.700  1.00  0.00     0.021 C 
BRANCH   2   3
ATOM      3  C   UNL A   1      34.346  32.638  28.906  1.00  0.00     0.116 C 
BRANCH   3   4
ATOM      4  N   UNL A   1      35.032  31.367  28.766  1.00  0.00    -0.351 N 
ATOM      5  C   UNL A   1      34.828  30.279  27.980  1.00  0.00     0.262 C 
ATOM      6  O   UNL A   1      35.603  29.332  28.153  1.00  0.00    -0.268 OA
ATOM      7  H   UNL A   1      35.809  31.275  29.364  1.00  0.00     0.163 HD
BRANCH   5   8
ATOM      8  C   UNL A   1      33.764  30.198  26.936  1.00  0.00     0.120 C 
ATOM      9  C   UNL A   1      33.954  29.280  25.963  1.00  0.00     0.072 C 
BRANCH   9  10
ATOM     10  C   UNL A   1      33.095  29.079  24.842  1.00  0.00     0.129 A 
ATOM     11  C   UNL A   1      31.232  28.832  23.642  1.00  0.00     0.135 A 
ATOM     12  C   UNL A   1      32.276  28.686  22.758  1.00  0.00     0.051 A 
ATOM     13  O   UNL A   1      31.720  29.094  24.884  1.00  0.00    -0.457 OA
ATOM     14  C   UNL A   1      33.458  28.843  23.520  1.00  0.00     0.051 A 
BRANCH  11  15
ATOM     15  C   UNL A   1      29.783  28.739  23.526  1.00  0.00     0.032 A 
ATOM     16  C   UNL A   1      29.082  27.535  23.730  1.00  0.00     0.071 A 
ATOM     17  C   UNL A   1      27.698  27.464  23.501  1.00  0.00     0.016 A 
ATOM     18  C   UNL A   1      26.996  28.599  23.098  1.00  0.00     0.001 A 
ATOM     19  C   UNL A   1      29.053  29.876  23.141  1.00  0.00     0.013 A 
ATOM     20  C   UNL A   1      27.672  29.805  22.928  1.00  0.00     0.001 A 
BRANCH  16  21
ATOM     21  C   UNL A   1      29.746  26.294  24.177  1.00  0.00     0.338 C 
ATOM     22  O   UNL A   1      29.834  25.958  25.351  1.00  0.00    -0.246 OA
BRANCH  21  23
ATOM     23  O   UNL A   1      30.267  25.645  23.112  1.00  0.00    -0.465 OA
ATOM     24  C   UNL A   1      31.536  25.041  23.350  1.00  0.00     0.282 C 
ENDBRANCH  21  23
ENDBRANCH  16  21
ENDBRANCH  11  15
ENDBRANCH   9  10
BRANCH   8  25
ATOM     25  C   UNL A   1      32.566  31.135  26.907  1.00  0.00     0.105 C 
ATOM     26  N   UNL A   1      31.573  31.912  26.883  1.00  0.00    -0.192 NA
ENDBRANCH   8  25
ENDBRANCH   5   8
ENDBRANCH   3   4
ENDBRANCH   2   3
ENDBRANCH   1   2
BRANCH   1  27
ATOM     27  C   UNL A   1      36.180  33.823  31.133  1.00  0.00     0.002 C 
BRANCH  27  28
ATOM     28  C   UNL A   1      37.385  34.019  32.060  1.00  0.00     0.021 C 
BRANCH  28  29
ATOM     29  C   UNL A   1      37.793  32.762  32.819  1.00  0.00     0.116 C 
BRANCH  29  30
ATOM     30  N   UNL A   1      36.856  31.676  32.581  1.00  0.00    -0.352 N 
ATOM     31  C   UNL A   1      36.954  30.623  31.708  1.00  0.00     0.251 C 
ATOM     32  H   UNL A   1      36.034  31.700  33.123  1.00  0.00     0.163 HD
ATOM     33  O   UNL A   1      35.961  29.951  31.448  1.00  0.00    -0.269 OA
BRANCH  31  34
ATOM     34  C   UNL A   1      38.256  30.306  31.087  1.00  0.00     0.039 A 
ATOM     35  C   UNL A   1      38.473  30.650  29.751  1.00  0.00     0.014 A 
ATOM     36  C   UNL A   1      39.247  29.634  31.813  1.00  0.00     0.014 A 
ATOM     37  C   UNL A   1      39.697  30.349  29.152  1.00  0.00     0.010 A 
ATOM     38  C   UNL A   1      40.488  29.397  31.234  1.00  0.00     0.010 A 
ATOM     39  C   UNL A   1      40.719  29.736  29.893  1.00  0.00    -0.014 A 
BRANCH  39  40
ATOM     40  C   UNL A   1      42.024  29.399  29.272  1.00  0.00     0.031 A 
ATOM     41  C   UNL A   1      42.265  28.009  28.748  1.00  0.00     0.074 A 
ATOM     42  C   UNL A   1      43.002  30.325  29.227  1.00  0.00     0.049 A 
ATOM     43  N   UNL A   1      43.356  27.493  28.244  1.00  0.00    -0.248 NA
ATOM     44  C   UNL A   1      41.136  27.066  28.825  1.00  0.00     0.031 C 
ATOM     45  C   UNL A   1      42.897  31.694  29.736  1.00  0.00     0.029 A 
ATOM     46  N   UNL A   1      44.280  30.251  28.735  1.00  0.00    -0.354 N 
ATOM     47  C   UNL A   1      43.050  26.168  27.955  1.00  0.00     0.074 A 
ATOM     48  C   UNL A   1      41.690  25.942  28.392  1.00  0.00     0.031 C 
ATOM     49  C   UNL A   1      44.055  32.337  29.513  1.00  0.00     0.029 A 
ATOM     50  C   UNL A   1      44.994  31.419  28.876  1.00  0.00     0.049 A 
ATOM     51  H   UNL A   1      44.652  29.441  28.319  1.00  0.00     0.167 HD
ATOM     52  C   UNL A   1      43.824  25.231  27.357  1.00  0.00     0.037 A 
ATOM     53  C   UNL A   1      46.264  31.710  28.536  1.00  0.00     0.037 A 
ATOM     54  C   UNL A   1      45.167  25.472  26.899  1.00  0.00     0.049 A 
ATOM     55  C   UNL A   1      47.104  30.651  27.873  1.00  0.00     0.074 A 
ATOM     56  C   UNL A   1      46.024  24.603  26.249  1.00  0.00     0.029 A 
ATOM     57  N   UNL A   1      45.845  26.675  27.036  1.00  0.00    -0.354 N 
ATOM     58  N   UNL A   1      46.785  29.415  27.570  1.00  0.00    -0.248 NA
ATOM     59  C   UNL A   1      48.473  31.028  27.496  1.00  0.00     0.031 C 
ATOM     60  C   UNL A   1      47.233  25.271  26.020  1.00  0.00     0.029 A 
ATOM     61  C   UNL A   1      47.112  26.569  26.487  1.00  0.00     0.049 A 
ATOM     62  H   UNL A   1      45.478  27.485  27.460  1.00  0.00     0.167 HD
ATOM     63  C   UNL A   1      47.901  28.879  26.936  1.00  0.00     0.074 A 
ATOM     64  C   UNL A   1      48.899  29.927  26.892  1.00  0.00     0.031 C 
ATOM     65  C   UNL A   1      48.082  27.633  26.434  1.00  0.00     0.037 A 
BRANCH  52  66
ATOM     66  C   UNL A   1      43.230  23.865  27.148  1.00  0.00     0.058 A 
ATOM     67  C   UNL A   1      42.706  23.476  25.904  1.00  0.00     0.135 A 
ATOM     68  C   UNL A   1      43.220  22.920  28.187  1.00  0.00     0.135 A 
ATOM     69  F   UNL A   1      42.675  24.346  24.882  1.00  0.00    -0.206 F 
ATOM     70  C   UNL A   1      42.170  22.209  25.704  1.00  0.00     0.059 A 
ATOM     71  C   UNL A   1      42.712  21.637  28.001  1.00  0.00     0.059 A 
ATOM     72  F   UNL A   1      43.706  23.240  29.396  1.00  0.00    -0.206 F 
ATOM     73  C   UNL A   1      42.178  21.295  26.760  1.00  0.00     0.060 A 
BRANCH  73  74
ATOM     74  S   UNL A   1      41.491  19.649  26.479  1.00  0.00     0.124 S 
ATOM     75  O   UNL A   1      42.332  19.165  25.388  1.00  0.00    -0.237 OA
ATOM     76  O   UNL A   1      41.695  19.001  27.771  1.00  0.00    -0.237 OA
ATOM     77  O   UNL A   1      40.101  19.916  26.127  1.00  0.00    -0.744 OA
ENDBRANCH  73  74
ENDBRANCH  52  66
BRANCH  53  78
ATOM     78  C   UNL A   1      46.815  33.069  28.789  1.00  0.00     0.058 A 
ATOM     79  C   UNL A   1      47.489  33.361  29.984  1.00  0.00     0.135 A 
ATOM     80  C   UNL A   1      46.673  34.101  27.850  1.00  0.00     0.135 A 
ATOM     81  F   UNL A   1      47.647  32.406  30.914  1.00  0.00    -0.206 F 
ATOM     82  C   UNL A   1      47.975  34.635  30.255  1.00  0.00     0.059 A 
ATOM     83  C   UNL A   1      47.174  35.378  28.087  1.00  0.00     0.059 A 
ATOM     84  F   UNL A   1      46.055  33.869  26.682  1.00  0.00    -0.206 F 
ATOM     85  C   UNL A   1      47.810  35.639  29.300  1.00  0.00     0.060 A 
BRANCH  85  86
ATOM     86  S   UNL A   1      48.463  37.286  29.652  1.00  0.00     0.124 S 
ATOM     87  O   UNL A   1      47.247  38.019  29.983  1.00  0.00    -0.237 OA
ATOM     88  O   UNL A   1      49.374  37.025  30.761  1.00  0.00    -0.237 OA
ATOM     89  O   UNL A   1      49.108  37.664  28.398  1.00  0.00    -0.744 OA
ENDBRANCH  85  86
ENDBRANCH  53  78
BRANCH  65  90
ATOM     90  C   UNL A   1      49.387  27.349  25.745  1.00  0.00     0.058 A 
ATOM     91  C   UNL A   1      50.547  27.022  26.462  1.00  0.00     0.135 A 
ATOM     92  C   UNL A   1      49.461  27.354  24.341  1.00  0.00     0.135 A 
ATOM     93  F   UNL A   1      50.531  27.010  27.804  1.00  0.00    -0.206 F 
ATOM     94  C   UNL A   1      51.744  26.733  25.814  1.00  0.00     0.059 A 
ATOM     95  C   UNL A   1      50.640  27.043  23.672  1.00  0.00     0.059 A 
ATOM     96  F   UNL A   1      48.375  27.650  23.608  1.00  0.00    -0.206 F 
ATOM     97  C   UNL A   1      51.779  26.745  24.418  1.00  0.00     0.060 A 
BRANCH  97  98
ATOM     98  S   UNL A   1      53.329  26.334  23.586  1.00  0.00     0.124 S 
ATOM     99  O   UNL A   1      52.999  26.620  22.194  1.00  0.00    -0.237 OA
ATOM    100  O   UNL A   1      54.274  27.250  24.216  1.00  0.00    -0.237 OA
ATOM    101  O   UNL A   1      53.524  24.924  23.909  1.00  0.00    -0.744 OA
ENDBRANCH  97  98
ENDBRANCH  65  90
ENDBRANCH  39  40
ENDBRANCH  31  34
ENDBRANCH  29  30
ENDBRANCH  28  29
ENDBRANCH  27  28
ENDBRANCH   1  27
TORSDOF 21
ENDMDL
