MODEL 1
REMARK VINA RESULT:     -12.0      0.000      0.000
REMARK SMILES C[NH+](Cc1ccc2nsnc2c1)Cc1ccccc1C(=O)NCCCCCCNC(=O)c1ccc(-c2c3nc(c(-c4c(F)cc(S(=O)(=O)[O-])cc4F)c4ccc([nH]4)c(-c4c(F)cc(S(=O)(=O)[O-])cc4F)c4nc(c(-c5c(F)cc(S(=O)(=O)[O-])cc5F)c5ccc2[nH]5)C=C4)C=C3)cc1
REMARK SMILES IDX 25 1 24 2 23 3 22 4 20 5 21 6 19 8 14 9 15 10 16 11 18 12
REMARK SMILES IDX 17 13 13 14 2 15 1 16 3 18 4 19 5 20 12 21 6 22 11 23 7 24
REMARK SMILES IDX 10 25 8 26 9 27 26 28 27 29 28 30 29 31 30 32 31 34 32 35
REMARK SMILES IDX 33 36 97 37 34 38 96 39 35 40 36 41 37 42 90 43 38 44 95 45
REMARK SMILES IDX 89 46 91 47 39 48 94 49 88 50 87 51 40 53 74 54 53 55 73 56
REMARK SMILES IDX 54 57 57 58 72 59 92 60 55 61 56 62 71 64 93 65 58 66 41 67
REMARK SMILES IDX 42 68 51 69 43 70 44 71 50 72 52 73 45 74 46 75 47 76 48 77
REMARK SMILES IDX 49 78 75 79 76 80 85 81 77 82 78 83 84 84 86 85 79 86 80 87
REMARK SMILES IDX 81 88 82 89 83 90 59 91 60 92 69 93 61 94 62 95 68 96 70 97
REMARK SMILES IDX 63 98 64 99 65 100 66 101 67 102
REMARK H PARENT 22 7 2 17 29 33 91 52 57 63
REMARK Flexibility Score: inf
ROOT
ATOM      1  C   UNL A   1      39.614  22.918  27.221  1.00  0.00     0.002 C 
ENDROOT
BRANCH   1   2
ATOM      2  C   UNL A   1      38.848  23.980  26.443  1.00  0.00     0.021 C 
BRANCH   2   3
ATOM      3  C   UNL A   1      37.466  23.633  25.924  1.00  0.00     0.116 C 
BRANCH   3   4
ATOM      4  N   UNL A   1      37.247  23.509  24.519  1.00  0.00    -0.352 N 
ATOM      5  C   UNL A   1      36.177  22.985  23.828  1.00  0.00     0.251 C 
ATOM      6  O   UNL A   1      36.362  22.931  22.603  1.00  0.00    -0.269 OA
ATOM      7  H   UNL A   1      37.977  23.853  23.954  1.00  0.00     0.163 HD
BRANCH   5   8
ATOM      8  C   UNL A   1      34.841  22.463  24.366  1.00  0.00     0.048 A 
ATOM      9  C   UNL A   1      33.581  23.095  24.601  1.00  0.00     0.019 A 
ATOM     10  C   UNL A   1      32.449  22.265  24.810  1.00  0.00     0.010 A 
ATOM     11  C   UNL A   1      32.534  20.882  24.935  1.00  0.00     0.001 A 
ATOM     12  C   UNL A   1      34.887  21.049  24.535  1.00  0.00     0.014 A 
ATOM     13  C   UNL A   1      33.766  20.273  24.833  1.00  0.00     0.001 A 
BRANCH   9  14
ATOM     14  C   UNL A   1      33.338  24.590  24.655  1.00  0.00     0.299 C 
BRANCH  14  15
ATOM     15  N   UNL A   1      32.799  25.314  23.511  1.00  0.00    -0.330 N 
ATOM     16  C   UNL A   1      33.681  25.754  22.464  1.00  0.00     0.333 C 
ATOM     17  H   UNL A   1      32.354  24.406  23.648  1.00  0.00     0.348 HD
BRANCH  15  18
ATOM     18  C   UNL A   1      31.374  25.612  23.425  1.00  0.00     0.299 C 
BRANCH  18  19
ATOM     19  C   UNL A   1      31.105  27.105  23.425  1.00  0.00     0.009 A 
ATOM     20  C   UNL A   1      31.447  27.877  24.576  1.00  0.00     0.012 A 
ATOM     21  C   UNL A   1      30.362  27.641  22.348  1.00  0.00     0.041 A 
ATOM     22  C   UNL A   1      30.996  29.192  24.789  1.00  0.00     0.032 A 
ATOM     23  C   UNL A   1      29.850  28.944  22.535  1.00  0.00     0.105 A 
ATOM     24  C   UNL A   1      30.159  29.728  23.784  1.00  0.00     0.104 A 
ATOM     25  N   UNL A   1      29.033  29.591  21.690  1.00  0.00    -0.173 NA
ATOM     26  N   UNL A   1      29.544  30.921  23.822  1.00  0.00    -0.173 NA
ATOM     27  S   UNL A   1      28.657  31.034  22.422  1.00  0.00     0.069 S 
ENDBRANCH  18  19
ENDBRANCH  15  18
ENDBRANCH  14  15
ENDBRANCH   9  14
ENDBRANCH   5   8
ENDBRANCH   3   4
ENDBRANCH   2   3
ENDBRANCH   1   2
BRANCH   1  28
ATOM     28  C   UNL A   1      40.653  22.089  26.460  1.00  0.00     0.002 C 
BRANCH  28  29
ATOM     29  C   UNL A   1      42.045  21.940  27.086  1.00  0.00     0.021 C 
BRANCH  29  30
ATOM     30  C   UNL A   1      42.902  23.201  27.170  1.00  0.00     0.116 C 
BRANCH  30  31
ATOM     31  N   UNL A   1      42.715  24.093  26.038  1.00  0.00    -0.352 N 
ATOM     32  C   UNL A   1      42.309  25.401  25.994  1.00  0.00     0.251 C 
ATOM     33  H   UNL A   1      42.911  23.693  25.160  1.00  0.00     0.163 HD
ATOM     34  O   UNL A   1      42.070  25.921  24.901  1.00  0.00    -0.269 OA
BRANCH  32  35
ATOM     35  C   UNL A   1      42.134  26.187  27.233  1.00  0.00     0.039 A 
ATOM     36  C   UNL A   1      43.013  27.245  27.485  1.00  0.00     0.014 A 
ATOM     37  C   UNL A   1      41.134  25.875  28.159  1.00  0.00     0.014 A 
ATOM     38  C   UNL A   1      42.846  28.032  28.628  1.00  0.00     0.010 A 
ATOM     39  C   UNL A   1      40.927  26.700  29.264  1.00  0.00     0.010 A 
ATOM     40  C   UNL A   1      41.776  27.791  29.506  1.00  0.00    -0.014 A 
BRANCH  40  41
ATOM     41  C   UNL A   1      41.512  28.696  30.657  1.00  0.00     0.031 A 
ATOM     42  C   UNL A   1      42.317  28.583  31.922  1.00  0.00     0.074 A 
ATOM     43  C   UNL A   1      40.498  29.581  30.577  1.00  0.00     0.049 A 
ATOM     44  N   UNL A   1      42.189  29.248  33.042  1.00  0.00    -0.248 NA
ATOM     45  C   UNL A   1      43.391  27.578  31.940  1.00  0.00     0.031 C 
ATOM     46  C   UNL A   1      39.616  29.752  29.419  1.00  0.00     0.029 A 
ATOM     47  N   UNL A   1      40.029  30.496  31.486  1.00  0.00    -0.354 N 
ATOM     48  C   UNL A   1      43.158  28.738  33.900  1.00  0.00     0.074 A 
ATOM     49  C   UNL A   1      43.831  27.673  33.188  1.00  0.00     0.031 C 
ATOM     50  C   UNL A   1      38.730  30.725  29.679  1.00  0.00     0.029 A 
ATOM     51  C   UNL A   1      38.948  31.218  31.035  1.00  0.00     0.049 A 
ATOM     52  H   UNL A   1      40.427  30.623  32.376  1.00  0.00     0.167 HD
ATOM     53  C   UNL A   1      43.470  29.136  35.156  1.00  0.00     0.037 A 
ATOM     54  C   UNL A   1      38.207  32.162  31.647  1.00  0.00     0.037 A 
ATOM     55  C   UNL A   1      42.801  30.207  35.852  1.00  0.00     0.049 A 
ATOM     56  C   UNL A   1      38.559  32.571  33.052  1.00  0.00     0.074 A 
ATOM     57  C   UNL A   1      43.083  30.727  37.104  1.00  0.00     0.029 A 
ATOM     58  N   UNL A   1      41.713  30.916  35.362  1.00  0.00    -0.354 N 
ATOM     59  N   UNL A   1      39.526  32.129  33.820  1.00  0.00    -0.248 NA
ATOM     60  C   UNL A   1      37.722  33.607  33.671  1.00  0.00     0.031 C 
ATOM     61  C   UNL A   1      42.131  31.709  37.394  1.00  0.00     0.029 A 
ATOM     62  C   UNL A   1      41.290  31.844  36.301  1.00  0.00     0.049 A 
ATOM     63  H   UNL A   1      41.302  30.780  34.478  1.00  0.00     0.167 HD
ATOM     64  C   UNL A   1      39.426  32.846  35.006  1.00  0.00     0.074 A 
ATOM     65  C   UNL A   1      38.318  33.766  34.846  1.00  0.00     0.031 C 
ATOM     66  C   UNL A   1      40.181  32.751  36.129  1.00  0.00     0.037 A 
BRANCH  53  67
ATOM     67  C   UNL A   1      44.583  28.411  35.867  1.00  0.00     0.058 A 
ATOM     68  C   UNL A   1      45.921  28.821  35.754  1.00  0.00     0.135 A 
ATOM     69  C   UNL A   1      44.303  27.321  36.706  1.00  0.00     0.135 A 
ATOM     70  F   UNL A   1      46.249  29.850  34.956  1.00  0.00    -0.206 F 
ATOM     71  C   UNL A   1      46.945  28.159  36.425  1.00  0.00     0.059 A 
ATOM     72  C   UNL A   1      45.308  26.662  37.411  1.00  0.00     0.059 A 
ATOM     73  F   UNL A   1      43.042  26.886  36.853  1.00  0.00    -0.206 F 
ATOM     74  C   UNL A   1      46.627  27.081  37.253  1.00  0.00     0.060 A 
BRANCH  74  75
ATOM     75  S   UNL A   1      47.968  26.238  38.118  1.00  0.00     0.124 S 
ATOM     76  O   UNL A   1      47.323  25.879  39.378  1.00  0.00    -0.237 OA
ATOM     77  O   UNL A   1      48.268  25.125  37.221  1.00  0.00    -0.237 OA
ATOM     78  O   UNL A   1      49.007  27.258  38.215  1.00  0.00    -0.744 OA
ENDBRANCH  74  75
ENDBRANCH  53  67
BRANCH  54  79
ATOM     79  C   UNL A   1      37.062  32.787  30.931  1.00  0.00     0.058 A 
ATOM     80  C   UNL A   1      35.750  32.334  31.130  1.00  0.00     0.135 A 
ATOM     81  C   UNL A   1      37.254  33.859  30.044  1.00  0.00     0.135 A 
ATOM     82  F   UNL A   1      35.514  31.306  31.961  1.00  0.00    -0.206 F 
ATOM     83  C   UNL A   1      34.670  32.909  30.466  1.00  0.00     0.059 A 
ATOM     84  C   UNL A   1      36.188  34.470  29.392  1.00  0.00     0.059 A 
ATOM     85  F   UNL A   1      38.488  34.343  29.831  1.00  0.00    -0.206 F 
ATOM     86  C   UNL A   1      34.900  33.980  29.602  1.00  0.00     0.060 A 
BRANCH  86  87
ATOM     87  S   UNL A   1      33.487  34.752  28.785  1.00  0.00     0.124 S 
ATOM     88  O   UNL A   1      32.577  34.958  29.905  1.00  0.00    -0.237 OA
ATOM     89  O   UNL A   1      34.084  35.955  28.214  1.00  0.00    -0.237 OA
ATOM     90  O   UNL A   1      33.073  33.746  27.811  1.00  0.00    -0.744 OA
ENDBRANCH  86  87
ENDBRANCH  54  79
BRANCH  66  91
ATOM     91  C   UNL A   1      39.845  33.672  37.269  1.00  0.00     0.058 A 
ATOM     92  C   UNL A   1      38.942  33.298  38.278  1.00  0.00     0.135 A 
ATOM     93  C   UNL A   1      40.467  34.927  37.382  1.00  0.00     0.135 A 
ATOM     94  F   UNL A   1      38.312  32.115  38.215  1.00  0.00    -0.206 F 
ATOM     95  C   UNL A   1      38.652  34.143  39.344  1.00  0.00     0.059 A 
ATOM     96  C   UNL A   1      40.217  35.774  38.456  1.00  0.00     0.059 A 
ATOM     97  F   UNL A   1      41.347  35.331  36.450  1.00  0.00    -0.206 F 
ATOM     98  C   UNL A   1      39.297  35.379  39.427  1.00  0.00     0.060 A 
BRANCH  98  99
ATOM     99  S   UNL A   1      38.938  36.448  40.835  1.00  0.00     0.124 S 
ATOM    100  O   UNL A   1      40.222  36.464  41.528  1.00  0.00    -0.237 OA
ATOM    101  O   UNL A   1      38.552  37.697  40.186  1.00  0.00    -0.237 OA
ATOM    102  O   UNL A   1      37.860  35.748  41.528  1.00  0.00    -0.744 OA
ENDBRANCH  98  99
ENDBRANCH  66  91
ENDBRANCH  40  41
ENDBRANCH  32  35
ENDBRANCH  30  31
ENDBRANCH  29  30
ENDBRANCH  28  29
ENDBRANCH   1  28
TORSDOF 20
ENDMDL
MODEL 2
REMARK VINA RESULT:     -11.9      6.597     12.088
REMARK SMILES C[NH+](Cc1ccc2nsnc2c1)Cc1ccccc1C(=O)NCCCCCCNC(=O)c1ccc(-c2c3nc(c(-c4c(F)cc(S(=O)(=O)[O-])cc4F)c4ccc([nH]4)c(-c4c(F)cc(S(=O)(=O)[O-])cc4F)c4nc(c(-c5c(F)cc(S(=O)(=O)[O-])cc5F)c5ccc2[nH]5)C=C4)C=C3)cc1
REMARK SMILES IDX 25 1 24 2 23 3 22 4 20 5 21 6 19 8 14 9 15 10 16 11 18 12
REMARK SMILES IDX 17 13 13 14 2 15 1 16 3 18 4 19 5 20 12 21 6 22 11 23 7 24
REMARK SMILES IDX 10 25 8 26 9 27 26 28 27 29 28 30 29 31 30 32 31 34 32 35
REMARK SMILES IDX 33 36 97 37 34 38 96 39 35 40 36 41 37 42 90 43 38 44 95 45
REMARK SMILES IDX 89 46 91 47 39 48 94 49 88 50 87 51 40 53 74 54 53 55 73 56
REMARK SMILES IDX 54 57 57 58 72 59 92 60 55 61 56 62 71 64 93 65 58 66 41 67
REMARK SMILES IDX 42 68 51 69 43 70 44 71 50 72 52 73 45 74 46 75 47 76 48 77
REMARK SMILES IDX 49 78 75 79 76 80 85 81 77 82 78 83 84 84 86 85 79 86 80 87
REMARK SMILES IDX 81 88 82 89 83 90 59 91 60 92 69 93 61 94 62 95 68 96 70 97
REMARK SMILES IDX 63 98 64 99 65 100 66 101 67 102
REMARK H PARENT 22 7 2 17 29 33 91 52 57 63
REMARK Flexibility Score: inf
ROOT
ATOM      1  C   UNL A   1      34.551  30.350  27.375  1.00  0.00     0.002 C 
ENDROOT
BRANCH   1   2
ATOM      2  C   UNL A   1      33.405  29.591  26.717  1.00  0.00     0.021 C 
BRANCH   2   3
ATOM      3  C   UNL A   1      33.569  28.100  26.488  1.00  0.00     0.116 C 
BRANCH   3   4
ATOM      4  N   UNL A   1      33.623  27.590  25.157  1.00  0.00    -0.352 N 
ATOM      5  C   UNL A   1      33.428  26.310  24.686  1.00  0.00     0.251 C 
ATOM      6  O   UNL A   1      33.663  26.190  23.474  1.00  0.00    -0.269 OA
ATOM      7  H   UNL A   1      33.835  28.258  24.465  1.00  0.00     0.163 HD
BRANCH   5   8
ATOM      8  C   UNL A   1      32.988  25.056  25.449  1.00  0.00     0.048 A 
ATOM      9  C   UNL A   1      33.718  23.997  26.070  1.00  0.00     0.019 A 
ATOM     10  C   UNL A   1      33.024  23.146  26.968  1.00  0.00     0.010 A 
ATOM     11  C   UNL A   1      31.647  23.207  27.161  1.00  0.00     0.001 A 
ATOM     12  C   UNL A   1      31.577  25.062  25.650  1.00  0.00     0.014 A 
ATOM     13  C   UNL A   1      30.913  24.147  26.470  1.00  0.00     0.001 A 
BRANCH   9  14
ATOM     14  C   UNL A   1      35.187  23.690  25.852  1.00  0.00     0.299 C 
BRANCH  14  15
ATOM     15  N   UNL A   1      35.625  22.780  24.802  1.00  0.00    -0.330 N 
ATOM     16  C   UNL A   1      35.602  23.209  23.430  1.00  0.00     0.333 C 
ATOM     17  H   UNL A   1      36.337  22.927  25.517  1.00  0.00     0.348 HD
BRANCH  15  18
ATOM     18  C   UNL A   1      36.070  21.430  25.126  1.00  0.00     0.299 C 
BRANCH  18  19
ATOM     19  C   UNL A   1      35.003  20.393  24.832  1.00  0.00     0.009 A 
ATOM     20  C   UNL A   1      33.628  20.773  24.878  1.00  0.00     0.012 A 
ATOM     21  C   UNL A   1      35.411  19.046  24.696  1.00  0.00     0.041 A 
ATOM     22  C   UNL A   1      32.568  19.848  24.896  1.00  0.00     0.032 A 
ATOM     23  C   UNL A   1      34.386  18.077  24.754  1.00  0.00     0.105 A 
ATOM     24  C   UNL A   1      32.940  18.484  24.872  1.00  0.00     0.104 A 
ATOM     25  N   UNL A   1      34.565  16.748  24.757  1.00  0.00    -0.173 NA
ATOM     26  N   UNL A   1      32.105  17.437  24.974  1.00  0.00    -0.173 NA
ATOM     27  S   UNL A   1      33.057  16.076  24.933  1.00  0.00     0.069 S 
ENDBRANCH  18  19
ENDBRANCH  15  18
ENDBRANCH  14  15
ENDBRANCH   9  14
ENDBRANCH   5   8
ENDBRANCH   3   4
ENDBRANCH   2   3
ENDBRANCH   1   2
BRANCH   1  28
ATOM     28  C   UNL A   1      34.251  31.740  27.943  1.00  0.00     0.002 C 
BRANCH  28  29
ATOM     29  C   UNL A   1      35.398  32.756  27.987  1.00  0.00     0.021 C 
BRANCH  29  30
ATOM     30  C   UNL A   1      36.158  32.882  29.306  1.00  0.00     0.116 C 
BRANCH  30  31
ATOM     31  N   UNL A   1      35.801  31.854  30.269  1.00  0.00    -0.352 N 
ATOM     32  C   UNL A   1      36.467  30.717  30.645  1.00  0.00     0.251 C 
ATOM     33  H   UNL A   1      34.940  31.997  30.725  1.00  0.00     0.163 HD
ATOM     34  O   UNL A   1      35.900  29.900  31.376  1.00  0.00    -0.269 OA
BRANCH  32  35
ATOM     35  C   UNL A   1      37.841  30.447  30.173  1.00  0.00     0.039 A 
ATOM     36  C   UNL A   1      38.875  30.392  31.114  1.00  0.00     0.014 A 
ATOM     37  C   UNL A   1      38.125  30.277  28.815  1.00  0.00     0.014 A 
ATOM     38  C   UNL A   1      40.177  30.097  30.702  1.00  0.00     0.010 A 
ATOM     39  C   UNL A   1      39.410  29.918  28.412  1.00  0.00     0.010 A 
ATOM     40  C   UNL A   1      40.448  29.817  29.352  1.00  0.00    -0.014 A 
BRANCH  40  41
ATOM     41  C   UNL A   1      41.802  29.380  28.919  1.00  0.00     0.031 A 
ATOM     42  C   UNL A   1      42.931  30.369  28.814  1.00  0.00     0.074 A 
ATOM     43  C   UNL A   1      41.994  28.095  28.560  1.00  0.00     0.049 A 
ATOM     44  N   UNL A   1      44.158  30.178  28.401  1.00  0.00    -0.248 NA
ATOM     45  C   UNL A   1      42.637  31.758  29.201  1.00  0.00     0.031 C 
ATOM     46  C   UNL A   1      40.964  27.052  28.574  1.00  0.00     0.029 A 
ATOM     47  N   UNL A   1      43.113  27.445  28.103  1.00  0.00    -0.354 N 
ATOM     48  C   UNL A   1      44.780  31.420  28.471  1.00  0.00     0.074 A 
ATOM     49  C   UNL A   1      43.780  32.366  28.916  1.00  0.00     0.031 C 
ATOM     50  C   UNL A   1      41.504  25.893  28.169  1.00  0.00     0.029 A 
ATOM     51  C   UNL A   1      42.904  26.115  27.822  1.00  0.00     0.049 A 
ATOM     52  H   UNL A   1      43.983  27.889  27.988  1.00  0.00     0.167 HD
ATOM     53  C   UNL A   1      46.071  31.735  28.209  1.00  0.00     0.037 A 
ATOM     54  C   UNL A   1      43.740  25.181  27.329  1.00  0.00     0.037 A 
ATOM     55  C   UNL A   1      47.063  30.782  27.777  1.00  0.00     0.049 A 
ATOM     56  C   UNL A   1      45.164  25.561  27.023  1.00  0.00     0.074 A 
ATOM     57  C   UNL A   1      48.411  30.990  27.544  1.00  0.00     0.029 A 
ATOM     58  N   UNL A   1      46.813  29.444  27.506  1.00  0.00    -0.354 N 
ATOM     59  N   UNL A   1      45.754  26.724  27.166  1.00  0.00    -0.248 NA
ATOM     60  C   UNL A   1      46.035  24.505  26.492  1.00  0.00     0.031 C 
ATOM     61  C   UNL A   1      48.964  29.793  27.077  1.00  0.00     0.029 A 
ATOM     62  C   UNL A   1      47.975  28.823  27.074  1.00  0.00     0.049 A 
ATOM     63  H   UNL A   1      45.940  29.000  27.606  1.00  0.00     0.167 HD
ATOM     64  C   UNL A   1      47.070  26.534  26.761  1.00  0.00     0.074 A 
ATOM     65  C   UNL A   1      47.194  25.140  26.388  1.00  0.00     0.031 C 
ATOM     66  C   UNL A   1      48.083  27.434  26.700  1.00  0.00     0.037 A 
BRANCH  53  67
ATOM     67  C   UNL A   1      46.491  33.172  28.377  1.00  0.00     0.058 A 
ATOM     68  C   UNL A   1      46.413  34.093  27.319  1.00  0.00     0.135 A 
ATOM     69  C   UNL A   1      46.935  33.645  29.622  1.00  0.00     0.135 A 
ATOM     70  F   UNL A   1      46.007  33.694  26.103  1.00  0.00    -0.206 F 
ATOM     71  C   UNL A   1      46.786  35.424  27.482  1.00  0.00     0.059 A 
ATOM     72  C   UNL A   1      47.284  34.980  29.816  1.00  0.00     0.059 A 
ATOM     73  F   UNL A   1      47.028  32.811  30.669  1.00  0.00    -0.206 F 
ATOM     74  C   UNL A   1      47.219  35.857  28.736  1.00  0.00     0.060 A 
BRANCH  74  75
ATOM     75  S   UNL A   1      47.694  37.588  28.930  1.00  0.00     0.124 S 
ATOM     76  O   UNL A   1      48.624  37.512  30.052  1.00  0.00    -0.237 OA
ATOM     77  O   UNL A   1      48.291  37.894  27.633  1.00  0.00    -0.237 OA
ATOM     78  O   UNL A   1      46.429  38.260  29.209  1.00  0.00    -0.744 OA
ENDBRANCH  74  75
ENDBRANCH  53  67
BRANCH  54  79
ATOM     79  C   UNL A   1      43.252  23.794  27.099  1.00  0.00     0.058 A 
ATOM     80  C   UNL A   1      42.846  23.371  25.825  1.00  0.00     0.135 A 
ATOM     81  C   UNL A   1      43.194  22.859  28.146  1.00  0.00     0.135 A 
ATOM     82  F   UNL A   1      42.874  24.230  24.794  1.00  0.00    -0.206 F 
ATOM     83  C   UNL A   1      42.387  22.078  25.597  1.00  0.00     0.059 A 
ATOM     84  C   UNL A   1      42.766  21.552  27.937  1.00  0.00     0.059 A 
ATOM     85  F   UNL A   1      43.586  23.206  29.382  1.00  0.00    -0.206 F 
ATOM     86  C   UNL A   1      42.354  21.174  26.660  1.00  0.00     0.060 A 
BRANCH  86  87
ATOM     87  S   UNL A   1      41.805  19.483  26.342  1.00  0.00     0.124 S 
ATOM     88  O   UNL A   1      40.362  19.659  26.234  1.00  0.00    -0.237 OA
ATOM     89  O   UNL A   1      42.505  19.162  25.102  1.00  0.00    -0.237 OA
ATOM     90  O   UNL A   1      42.266  18.755  27.520  1.00  0.00    -0.744 OA
ENDBRANCH  86  87
ENDBRANCH  54  79
BRANCH  66  91
ATOM     91  C   UNL A   1      49.421  26.936  26.225  1.00  0.00     0.058 A 
ATOM     92  C   UNL A   1      49.836  27.097  24.893  1.00  0.00     0.135 A 
ATOM     93  C   UNL A   1      50.319  26.333  27.122  1.00  0.00     0.135 A 
ATOM     94  F   UNL A   1      49.015  27.659  23.993  1.00  0.00    -0.206 F 
ATOM     95  C   UNL A   1      51.085  26.659  24.463  1.00  0.00     0.059 A 
ATOM     96  C   UNL A   1      51.584  25.916  26.721  1.00  0.00     0.059 A 
ATOM     97  F   UNL A   1      49.976  26.163  28.410  1.00  0.00    -0.206 F 
ATOM     98  C   UNL A   1      51.954  26.072  25.385  1.00  0.00     0.060 A 
BRANCH  98  99
ATOM     99  S   UNL A   1      53.583  25.541  24.819  1.00  0.00     0.124 S 
ATOM    100  O   UNL A   1      53.600  24.144  25.242  1.00  0.00    -0.237 OA
ATOM    101  O   UNL A   1      53.500  25.767  23.380  1.00  0.00    -0.237 OA
ATOM    102  O   UNL A   1      54.497  26.425  25.536  1.00  0.00    -0.744 OA
ENDBRANCH  98  99
ENDBRANCH  66  91
ENDBRANCH  40  41
ENDBRANCH  32  35
ENDBRANCH  30  31
ENDBRANCH  29  30
ENDBRANCH  28  29
ENDBRANCH   1  28
TORSDOF 20
ENDMDL
MODEL 3
REMARK VINA RESULT:     -11.8      1.179      2.555
REMARK SMILES C[NH+](Cc1ccc2nsnc2c1)Cc1ccccc1C(=O)NCCCCCCNC(=O)c1ccc(-c2c3nc(c(-c4c(F)cc(S(=O)(=O)[O-])cc4F)c4ccc([nH]4)c(-c4c(F)cc(S(=O)(=O)[O-])cc4F)c4nc(c(-c5c(F)cc(S(=O)(=O)[O-])cc5F)c5ccc2[nH]5)C=C4)C=C3)cc1
REMARK SMILES IDX 25 1 24 2 23 3 22 4 20 5 21 6 19 8 14 9 15 10 16 11 18 12
REMARK SMILES IDX 17 13 13 14 2 15 1 16 3 18 4 19 5 20 12 21 6 22 11 23 7 24
REMARK SMILES IDX 10 25 8 26 9 27 26 28 27 29 28 30 29 31 30 32 31 34 32 35
REMARK SMILES IDX 33 36 97 37 34 38 96 39 35 40 36 41 37 42 90 43 38 44 95 45
REMARK SMILES IDX 89 46 91 47 39 48 94 49 88 50 87 51 40 53 74 54 53 55 73 56
REMARK SMILES IDX 54 57 57 58 72 59 92 60 55 61 56 62 71 64 93 65 58 66 41 67
REMARK SMILES IDX 42 68 51 69 43 70 44 71 50 72 52 73 45 74 46 75 47 76 48 77
REMARK SMILES IDX 49 78 75 79 76 80 85 81 77 82 78 83 84 84 86 85 79 86 80 87
REMARK SMILES IDX 81 88 82 89 83 90 59 91 60 92 69 93 61 94 62 95 68 96 70 97
REMARK SMILES IDX 63 98 64 99 65 100 66 101 67 102
REMARK H PARENT 22 7 2 17 29 33 91 52 57 63
REMARK Flexibility Score: inf
ROOT
ATOM      1  C   UNL A   1      37.803  23.034  25.890  1.00  0.00     0.002 C 
ENDROOT
BRANCH   1   2
ATOM      2  C   UNL A   1      36.965  23.522  24.716  1.00  0.00     0.021 C 
BRANCH   2   3
ATOM      3  C   UNL A   1      35.775  22.686  24.285  1.00  0.00     0.116 C 
BRANCH   3   4
ATOM      4  N   UNL A   1      34.990  23.094  23.166  1.00  0.00    -0.352 N 
ATOM      5  C   UNL A   1      34.164  24.186  23.009  1.00  0.00     0.251 C 
ATOM      6  O   UNL A   1      33.539  24.180  21.939  1.00  0.00    -0.269 OA
ATOM      7  H   UNL A   1      35.046  22.502  22.381  1.00  0.00     0.163 HD
BRANCH   5   8
ATOM      8  C   UNL A   1      33.918  25.357  23.967  1.00  0.00     0.048 A 
ATOM      9  C   UNL A   1      33.748  25.426  25.384  1.00  0.00     0.019 A 
ATOM     10  C   UNL A   1      33.851  26.698  26.006  1.00  0.00     0.010 A 
ATOM     11  C   UNL A   1      33.969  27.885  25.290  1.00  0.00     0.001 A 
ATOM     12  C   UNL A   1      34.005  26.598  23.273  1.00  0.00     0.014 A 
ATOM     13  C   UNL A   1      34.009  27.839  23.913  1.00  0.00     0.001 A 
BRANCH   9  14
ATOM     14  C   UNL A   1      33.457  24.252  26.298  1.00  0.00     0.299 C 
BRANCH  14  15
ATOM     15  N   UNL A   1      32.221  23.489  26.185  1.00  0.00    -0.330 N 
ATOM     16  C   UNL A   1      32.272  22.097  25.830  1.00  0.00     0.333 C 
ATOM     17  H   UNL A   1      32.328  23.932  27.098  1.00  0.00     0.348 HD
BRANCH  15  18
ATOM     18  C   UNL A   1      30.930  24.128  26.410  1.00  0.00     0.299 C 
BRANCH  18  19
ATOM     19  C   UNL A   1      30.547  25.053  25.270  1.00  0.00     0.009 A 
ATOM     20  C   UNL A   1      30.486  24.536  23.941  1.00  0.00     0.012 A 
ATOM     21  C   UNL A   1      30.436  26.434  25.550  1.00  0.00     0.041 A 
ATOM     22  C   UNL A   1      30.416  25.349  22.795  1.00  0.00     0.032 A 
ATOM     23  C   UNL A   1      30.408  27.294  24.431  1.00  0.00     0.105 A 
ATOM     24  C   UNL A   1      30.414  26.744  23.028  1.00  0.00     0.104 A 
ATOM     25  N   UNL A   1      30.417  28.635  24.474  1.00  0.00    -0.173 NA
ATOM     26  N   UNL A   1      30.444  27.701  22.087  1.00  0.00    -0.173 NA
ATOM     27  S   UNL A   1      30.471  29.151  22.898  1.00  0.00     0.069 S 
ENDBRANCH  18  19
ENDBRANCH  15  18
ENDBRANCH  14  15
ENDBRANCH   9  14
ENDBRANCH   5   8
ENDBRANCH   3   4
ENDBRANCH   2   3
ENDBRANCH   1   2
BRANCH   1  28
ATOM     28  C   UNL A   1      38.582  21.727  25.715  1.00  0.00     0.002 C 
BRANCH  28  29
ATOM     29  C   UNL A   1      39.944  21.610  26.409  1.00  0.00     0.021 C 
BRANCH  29  30
ATOM     30  C   UNL A   1      40.571  22.905  26.922  1.00  0.00     0.116 C 
BRANCH  30  31
ATOM     31  N   UNL A   1      41.585  23.440  26.029  1.00  0.00    -0.352 N 
ATOM     32  C   UNL A   1      42.158  24.683  25.978  1.00  0.00     0.251 C 
ATOM     33  H   UNL A   1      41.913  22.807  25.350  1.00  0.00     0.163 HD
ATOM     34  O   UNL A   1      42.895  24.968  25.030  1.00  0.00    -0.269 OA
BRANCH  32  35
ATOM     35  C   UNL A   1      41.891  25.690  27.026  1.00  0.00     0.039 A 
ATOM     36  C   UNL A   1      40.831  25.471  27.912  1.00  0.00     0.014 A 
ATOM     37  C   UNL A   1      42.654  26.857  27.127  1.00  0.00     0.014 A 
ATOM     38  C   UNL A   1      40.581  26.385  28.938  1.00  0.00     0.010 A 
ATOM     39  C   UNL A   1      42.446  27.734  28.191  1.00  0.00     0.010 A 
ATOM     40  C   UNL A   1      41.412  27.504  29.112  1.00  0.00    -0.014 A 
BRANCH  40  41
ATOM     41  C   UNL A   1      41.235  28.416  30.272  1.00  0.00     0.031 A 
ATOM     42  C   UNL A   1      42.087  28.268  31.503  1.00  0.00     0.074 A 
ATOM     43  C   UNL A   1      40.256  29.343  30.235  1.00  0.00     0.049 A 
ATOM     44  N   UNL A   1      42.034  28.935  32.627  1.00  0.00    -0.248 NA
ATOM     45  C   UNL A   1      43.118  27.219  31.476  1.00  0.00     0.031 C 
ATOM     46  C   UNL A   1      39.334  29.553  29.116  1.00  0.00     0.029 A 
ATOM     47  N   UNL A   1      39.864  30.275  31.164  1.00  0.00    -0.354 N 
ATOM     48  C   UNL A   1      43.016  28.383  33.444  1.00  0.00     0.074 A 
ATOM     49  C   UNL A   1      43.614  27.293  32.703  1.00  0.00     0.031 C 
ATOM     50  C   UNL A   1      38.501  30.562  29.413  1.00  0.00     0.029 A 
ATOM     51  C   UNL A   1      38.796  31.042  30.759  1.00  0.00     0.049 A 
ATOM     52  H   UNL A   1      40.304  30.384  32.036  1.00  0.00     0.167 HD
ATOM     53  C   UNL A   1      43.396  28.766  34.686  1.00  0.00     0.037 A 
ATOM     54  C   UNL A   1      38.121  32.015  31.402  1.00  0.00     0.037 A 
ATOM     55  C   UNL A   1      42.803  29.863  35.410  1.00  0.00     0.049 A 
ATOM     56  C   UNL A   1      38.549  32.406  32.790  1.00  0.00     0.074 A 
ATOM     57  C   UNL A   1      43.158  30.367  36.649  1.00  0.00     0.029 A 
ATOM     58  N   UNL A   1      41.725  30.617  34.966  1.00  0.00    -0.354 N 
ATOM     59  N   UNL A   1      39.528  31.923  33.518  1.00  0.00    -0.248 NA
ATOM     60  C   UNL A   1      37.782  33.475  33.445  1.00  0.00     0.031 C 
ATOM     61  C   UNL A   1      42.260  31.388  36.979  1.00  0.00     0.029 A 
ATOM     62  C   UNL A   1      41.381  31.560  35.922  1.00  0.00     0.049 A 
ATOM     63  H   UNL A   1      41.272  30.499  34.100  1.00  0.00     0.167 HD
ATOM     64  C   UNL A   1      39.507  32.641  34.707  1.00  0.00     0.074 A 
ATOM     65  C   UNL A   1      38.433  33.606  34.593  1.00  0.00     0.031 C 
ATOM     66  C   UNL A   1      40.304  32.512  35.797  1.00  0.00     0.037 A 
BRANCH  53  67
ATOM     67  C   UNL A   1      44.507  27.994  35.349  1.00  0.00     0.058 A 
ATOM     68  C   UNL A   1      44.249  26.874  36.155  1.00  0.00     0.135 A 
ATOM     69  C   UNL A   1      45.849  28.352  35.139  1.00  0.00     0.135 A 
ATOM     70  F   UNL A   1      42.985  26.493  36.400  1.00  0.00    -0.206 F 
ATOM     71  C   UNL A   1      45.278  26.153  36.753  1.00  0.00     0.059 A 
ATOM     72  C   UNL A   1      46.897  27.627  35.703  1.00  0.00     0.059 A 
ATOM     73  F   UNL A   1      46.156  29.413  34.377  1.00  0.00    -0.206 F 
ATOM     74  C   UNL A   1      46.600  26.537  36.519  1.00  0.00     0.060 A 
BRANCH  74  75
ATOM     75  S   UNL A   1      47.922  25.587  37.299  1.00  0.00     0.124 S 
ATOM     76  O   UNL A   1      49.106  26.323  36.866  1.00  0.00    -0.237 OA
ATOM     77  O   UNL A   1      47.591  25.697  38.716  1.00  0.00    -0.237 OA
ATOM     78  O   UNL A   1      47.769  24.254  36.724  1.00  0.00    -0.744 OA
ENDBRANCH  74  75
ENDBRANCH  53  67
BRANCH  54  79
ATOM     79  C   UNL A   1      36.974  32.688  30.735  1.00  0.00     0.058 A 
ATOM     80  C   UNL A   1      35.655  32.276  30.973  1.00  0.00     0.135 A 
ATOM     81  C   UNL A   1      37.172  33.766  29.856  1.00  0.00     0.135 A 
ATOM     82  F   UNL A   1      35.413  31.245  31.798  1.00  0.00    -0.206 F 
ATOM     83  C   UNL A   1      34.573  32.897  30.356  1.00  0.00     0.059 A 
ATOM     84  C   UNL A   1      36.106  34.421  29.249  1.00  0.00     0.059 A 
ATOM     85  F   UNL A   1      38.414  34.211  29.606  1.00  0.00    -0.206 F 
ATOM     86  C   UNL A   1      34.810  33.972  29.498  1.00  0.00     0.060 A 
BRANCH  86  87
ATOM     87  S   UNL A   1      33.396  34.803  28.741  1.00  0.00     0.124 S 
ATOM     88  O   UNL A   1      32.938  33.797  27.791  1.00  0.00    -0.237 OA
ATOM     89  O   UNL A   1      32.529  35.040  29.892  1.00  0.00    -0.237 OA
ATOM     90  O   UNL A   1      33.987  36.003  28.156  1.00  0.00    -0.744 OA
ENDBRANCH  86  87
ENDBRANCH  54  79
BRANCH  66  91
ATOM     91  C   UNL A   1      40.055  33.444  36.951  1.00  0.00     0.058 A 
ATOM     92  C   UNL A   1      40.772  34.642  37.099  1.00  0.00     0.135 A 
ATOM     93  C   UNL A   1      39.054  33.161  37.895  1.00  0.00     0.135 A 
ATOM     94  F   UNL A   1      41.746  34.958  36.231  1.00  0.00    -0.206 F 
ATOM     95  C   UNL A   1      40.521  35.515  38.153  1.00  0.00     0.059 A 
ATOM     96  C   UNL A   1      38.764  34.034  38.938  1.00  0.00     0.059 A 
ATOM     97  F   UNL A   1      38.331  32.033  37.796  1.00  0.00    -0.206 F 
ATOM     98  C   UNL A   1      39.512  35.204  39.066  1.00  0.00     0.060 A 
BRANCH  98  99
ATOM     99  S   UNL A   1      39.175  36.363  40.407  1.00  0.00     0.124 S 
ATOM    100  O   UNL A   1      38.598  37.492  39.683  1.00  0.00    -0.237 OA
ATOM    101  O   UNL A   1      38.249  35.608  41.245  1.00  0.00    -0.237 OA
ATOM    102  O   UNL A   1      40.491  36.600  40.992  1.00  0.00    -0.744 OA
ENDBRANCH  98  99
ENDBRANCH  66  91
ENDBRANCH  40  41
ENDBRANCH  32  35
ENDBRANCH  30  31
ENDBRANCH  29  30
ENDBRANCH  28  29
ENDBRANCH   1  28
TORSDOF 20
ENDMDL
