MODEL 1
REMARK VINA RESULT:     -11.5      0.000      0.000
REMARK SMILES C[C@@H](CS(=O)(=O)[C@@H]1CCC[C@H](S(C)(=O)=O)C1)C(=O)NCCCCCCNC(=O)c1ccc(-c2c3nc(c(-c4c(F)cc(S(=O)(=O)[O-])cc4F)c4ccc([nH]4)c(-c4c(F)cc(S(=O)(=O)[O-])cc4F)c4nc(c(-c5c(F)cc(S(=O)(=O)[O-])cc5F)c5ccc2[nH]5)C=C4)C=C3)cc1
REMARK SMILES IDX 22 1 21 2 20 3 19 4 17 5 18 6 2 8 1 9 3 10 4 11 5 12 6 13
REMARK SMILES IDX 7 14 8 15 16 16 9 17 11 18 10 19 12 20 13 21 14 22 15 23
REMARK SMILES IDX 23 24 24 25 25 26 26 27 27 28 28 30 29 31 30 32 94 33 31 34
REMARK SMILES IDX 93 35 32 36 33 37 34 38 87 39 35 40 92 41 86 42 88 43 36 44
REMARK SMILES IDX 91 45 85 46 84 47 37 49 71 50 50 51 70 52 51 53 54 54 69 55
REMARK SMILES IDX 89 56 52 57 53 58 68 60 90 61 55 62 38 63 39 64 48 65 40 66
REMARK SMILES IDX 41 67 47 68 49 69 42 70 43 71 44 72 45 73 46 74 72 75 73 76
REMARK SMILES IDX 82 77 74 78 75 79 81 80 83 81 76 82 77 83 78 84 79 85 80 86
REMARK SMILES IDX 56 87 57 88 66 89 58 90 59 91 65 92 67 93 60 94 61 95 62 96
REMARK SMILES IDX 63 97 64 98
REMARK H PARENT 19 7 26 29 88 48 54 59
REMARK Flexibility Score: inf
ROOT
ATOM      1  C   UNL A   1      37.097  22.833  25.280  1.00  0.00     0.002 C 
ENDROOT
BRANCH   1   2
ATOM      2  C   UNL A   1      36.243  21.760  25.950  1.00  0.00     0.021 C 
BRANCH   2   3
ATOM      3  C   UNL A   1      35.671  20.696  25.025  1.00  0.00     0.116 C 
BRANCH   3   4
ATOM      4  N   UNL A   1      34.312  20.328  25.308  1.00  0.00    -0.356 N 
ATOM      5  C   UNL A   1      33.154  21.008  25.152  1.00  0.00     0.223 C 
ATOM      6  O   UNL A   1      32.125  20.336  25.310  1.00  0.00    -0.275 OA
ATOM      7  H   UNL A   1      34.205  19.423  25.681  1.00  0.00     0.163 HD
BRANCH   5   8
ATOM      8  C   UNL A   1      33.007  22.526  24.935  1.00  0.00     0.090 C 
ATOM      9  C   UNL A   1      32.838  23.284  26.246  1.00  0.00     0.019 C 
BRANCH   8  10
ATOM     10  C   UNL A   1      33.582  23.331  23.776  1.00  0.00     0.150 C 
BRANCH  10  11
ATOM     11  S   UNL A   1      32.765  24.364  22.588  1.00  0.00     0.153 S 
ATOM     12  O   UNL A   1      33.300  23.985  21.293  1.00  0.00    -0.229 OA
ATOM     13  O   UNL A   1      31.351  24.103  22.824  1.00  0.00    -0.229 OA
BRANCH  11  14
ATOM     14  C   UNL A   1      32.913  26.197  22.765  1.00  0.00     0.110 C 
ATOM     15  C   UNL A   1      33.474  26.467  24.175  1.00  0.00     0.020 C 
ATOM     16  C   UNL A   1      31.704  27.073  22.447  1.00  0.00     0.039 C 
ATOM     17  C   UNL A   1      33.684  27.943  24.463  1.00  0.00     0.003 C 
ATOM     18  C   UNL A   1      31.777  28.540  22.938  1.00  0.00     0.109 C 
ATOM     19  C   UNL A   1      32.372  28.696  24.336  1.00  0.00     0.020 C 
BRANCH  18  20
ATOM     20  S   UNL A   1      30.121  29.289  22.856  1.00  0.00     0.150 S 
ATOM     21  C   UNL A   1      28.997  27.961  23.214  1.00  0.00     0.158 C 
ATOM     22  O   UNL A   1      30.017  30.243  23.947  1.00  0.00    -0.229 OA
ATOM     23  O   UNL A   1      29.870  29.713  21.493  1.00  0.00    -0.229 OA
ENDBRANCH  18  20
ENDBRANCH  11  14
ENDBRANCH  10  11
ENDBRANCH   8  10
ENDBRANCH   5   8
ENDBRANCH   3   4
ENDBRANCH   2   3
ENDBRANCH   1   2
BRANCH   1  24
ATOM     24  C   UNL A   1      38.220  23.432  26.137  1.00  0.00     0.002 C 
BRANCH  24  25
ATOM     25  C   UNL A   1      39.375  22.495  26.514  1.00  0.00     0.021 C 
BRANCH  25  26
ATOM     26  C   UNL A   1      40.642  23.172  27.034  1.00  0.00     0.116 C 
BRANCH  26  27
ATOM     27  N   UNL A   1      41.296  23.976  26.015  1.00  0.00    -0.352 N 
ATOM     28  C   UNL A   1      41.588  25.316  25.984  1.00  0.00     0.251 C 
ATOM     29  H   UNL A   1      41.578  23.476  25.215  1.00  0.00     0.163 HD
ATOM     30  O   UNL A   1      41.960  25.829  24.931  1.00  0.00    -0.269 OA
BRANCH  28  31
ATOM     31  C   UNL A   1      41.448  26.154  27.196  1.00  0.00     0.039 A 
ATOM     32  C   UNL A   1      42.441  27.096  27.479  1.00  0.00     0.014 A 
ATOM     33  C   UNL A   1      40.379  25.982  28.081  1.00  0.00     0.014 A 
ATOM     34  C   UNL A   1      42.331  27.909  28.610  1.00  0.00     0.010 A 
ATOM     35  C   UNL A   1      40.238  26.835  29.177  1.00  0.00     0.010 A 
ATOM     36  C   UNL A   1      41.210  27.811  29.449  1.00  0.00    -0.014 A 
BRANCH  36  37
ATOM     37  C   UNL A   1      41.021  28.749  30.587  1.00  0.00     0.031 A 
ATOM     38  C   UNL A   1      41.841  28.615  31.841  1.00  0.00     0.074 A 
ATOM     39  C   UNL A   1      40.055  29.685  30.515  1.00  0.00     0.049 A 
ATOM     40  N   UNL A   1      41.765  29.297  32.954  1.00  0.00    -0.248 NA
ATOM     41  C   UNL A   1      42.865  27.559  31.850  1.00  0.00     0.031 C 
ATOM     42  C   UNL A   1      39.158  29.883  29.374  1.00  0.00     0.029 A 
ATOM     43  N   UNL A   1      39.649  30.631  31.423  1.00  0.00    -0.354 N 
ATOM     44  C   UNL A   1      42.726  28.755  33.799  1.00  0.00     0.074 A 
ATOM     45  C   UNL A   1      43.334  27.650  33.087  1.00  0.00     0.031 C 
ATOM     46  C   UNL A   1      38.315  30.890  29.646  1.00  0.00     0.029 A 
ATOM     47  C   UNL A   1      38.582  31.384  30.994  1.00  0.00     0.049 A 
ATOM     48  H   UNL A   1      40.082  30.759  32.298  1.00  0.00     0.167 HD
ATOM     49  C   UNL A   1      43.084  29.155  35.045  1.00  0.00     0.037 A 
ATOM     50  C   UNL A   1      37.880  32.350  31.619  1.00  0.00     0.037 A 
ATOM     51  C   UNL A   1      42.473  30.256  35.747  1.00  0.00     0.049 A 
ATOM     52  C   UNL A   1      38.279  32.768  33.006  1.00  0.00     0.074 A 
ATOM     53  C   UNL A   1      42.799  30.772  36.990  1.00  0.00     0.029 A 
ATOM     54  N   UNL A   1      41.406  31.006  35.273  1.00  0.00    -0.354 N 
ATOM     55  N   UNL A   1      39.237  32.291  33.765  1.00  0.00    -0.248 NA
ATOM     56  C   UNL A   1      37.509  33.857  33.621  1.00  0.00     0.031 C 
ATOM     57  C   UNL A   1      41.895  31.797  37.290  1.00  0.00     0.029 A 
ATOM     58  C   UNL A   1      41.039  31.958  36.211  1.00  0.00     0.049 A 
ATOM     59  H   UNL A   1      40.972  30.880  34.398  1.00  0.00     0.167 HD
ATOM     60  C   UNL A   1      39.192  33.027  34.943  1.00  0.00     0.074 A 
ATOM     61  C   UNL A   1      38.126  33.995  34.788  1.00  0.00     0.031 C 
ATOM     62  C   UNL A   1      39.964  32.909  36.053  1.00  0.00     0.037 A 
BRANCH  49  63
ATOM     63  C   UNL A   1      44.183  28.385  35.729  1.00  0.00     0.058 A 
ATOM     64  C   UNL A   1      43.907  27.288  36.562  1.00  0.00     0.135 A 
ATOM     65  C   UNL A   1      45.529  28.743  35.547  1.00  0.00     0.135 A 
ATOM     66  F   UNL A   1      42.638  26.907  36.780  1.00  0.00    -0.206 F 
ATOM     67  C   UNL A   1      44.919  26.607  37.231  1.00  0.00     0.059 A 
ATOM     68  C   UNL A   1      46.561  28.055  36.182  1.00  0.00     0.059 A 
ATOM     69  F   UNL A   1      45.854  29.778  34.758  1.00  0.00    -0.206 F 
ATOM     70  C   UNL A   1      46.243  27.004  37.041  1.00  0.00     0.060 A 
BRANCH  70  71
ATOM     71  S   UNL A   1      47.542  26.137  37.947  1.00  0.00     0.124 S 
ATOM     72  O   UNL A   1      47.102  26.319  39.327  1.00  0.00    -0.237 OA
ATOM     73  O   UNL A   1      47.436  24.779  37.422  1.00  0.00    -0.237 OA
ATOM     74  O   UNL A   1      48.755  26.857  37.575  1.00  0.00    -0.744 OA
ENDBRANCH  70  71
ENDBRANCH  49  63
BRANCH  50  75
ATOM     75  C   UNL A   1      36.730  32.983  30.920  1.00  0.00     0.058 A 
ATOM     76  C   UNL A   1      35.410  32.699  31.294  1.00  0.00     0.135 A 
ATOM     77  C   UNL A   1      36.936  33.929  29.903  1.00  0.00     0.135 A 
ATOM     78  F   UNL A   1      35.164  31.796  32.255  1.00  0.00    -0.206 F 
ATOM     79  C   UNL A   1      34.331  33.332  30.686  1.00  0.00     0.059 A 
ATOM     80  C   UNL A   1      35.874  34.593  29.297  1.00  0.00     0.059 A 
ATOM     81  F   UNL A   1      38.182  34.246  29.520  1.00  0.00    -0.206 F 
ATOM     82  C   UNL A   1      34.574  34.285  29.694  1.00  0.00     0.060 A 
BRANCH  82  83
ATOM     83  S   UNL A   1      33.168  35.160  28.972  1.00  0.00     0.124 S 
ATOM     84  O   UNL A   1      32.323  35.375  30.141  1.00  0.00    -0.237 OA
ATOM     85  O   UNL A   1      33.803  36.351  28.414  1.00  0.00    -0.237 OA
ATOM     86  O   UNL A   1      32.655  34.213  27.986  1.00  0.00    -0.744 OA
ENDBRANCH  82  83
ENDBRANCH  50  75
BRANCH  62  87
ATOM     87  C   UNL A   1      39.685  33.851  37.191  1.00  0.00     0.058 A 
ATOM     88  C   UNL A   1      38.886  33.471  38.281  1.00  0.00     0.135 A 
ATOM     89  C   UNL A   1      40.270  35.128  37.222  1.00  0.00     0.135 A 
ATOM     90  F   UNL A   1      38.297  32.264  38.298  1.00  0.00    -0.206 F 
ATOM     91  C   UNL A   1      38.662  34.329  39.353  1.00  0.00     0.059 A 
ATOM     92  C   UNL A   1      40.080  35.992  38.296  1.00  0.00     0.059 A 
ATOM     93  F   UNL A   1      41.049  35.539  36.209  1.00  0.00    -0.206 F 
ATOM     94  C   UNL A   1      39.267  35.587  39.353  1.00  0.00     0.060 A 
BRANCH  94  95
ATOM     95  S   UNL A   1      39.004  36.673  40.772  1.00  0.00     0.124 S 
ATOM     96  O   UNL A   1      38.499  37.881  40.128  1.00  0.00    -0.237 OA
ATOM     97  O   UNL A   1      38.032  35.922  41.562  1.00  0.00    -0.237 OA
ATOM     98  O   UNL A   1      40.333  36.786  41.366  1.00  0.00    -0.744 OA
ENDBRANCH  94  95
ENDBRANCH  62  87
ENDBRANCH  36  37
ENDBRANCH  28  31
ENDBRANCH  26  27
ENDBRANCH  25  26
ENDBRANCH  24  25
ENDBRANCH   1  24
TORSDOF 20
ENDMDL
MODEL 2
REMARK VINA RESULT:     -11.5      1.400      8.350
REMARK SMILES C[C@@H](CS(=O)(=O)[C@@H]1CCC[C@H](S(C)(=O)=O)C1)C(=O)NCCCCCCNC(=O)c1ccc(-c2c3nc(c(-c4c(F)cc(S(=O)(=O)[O-])cc4F)c4ccc([nH]4)c(-c4c(F)cc(S(=O)(=O)[O-])cc4F)c4nc(c(-c5c(F)cc(S(=O)(=O)[O-])cc5F)c5ccc2[nH]5)C=C4)C=C3)cc1
REMARK SMILES IDX 22 1 21 2 20 3 19 4 17 5 18 6 2 8 1 9 3 10 4 11 5 12 6 13
REMARK SMILES IDX 7 14 8 15 16 16 9 17 11 18 10 19 12 20 13 21 14 22 15 23
REMARK SMILES IDX 23 24 24 25 25 26 26 27 27 28 28 30 29 31 30 32 94 33 31 34
REMARK SMILES IDX 93 35 32 36 33 37 34 38 87 39 35 40 92 41 86 42 88 43 36 44
REMARK SMILES IDX 91 45 85 46 84 47 37 49 71 50 50 51 70 52 51 53 54 54 69 55
REMARK SMILES IDX 89 56 52 57 53 58 68 60 90 61 55 62 38 63 39 64 48 65 40 66
REMARK SMILES IDX 41 67 47 68 49 69 42 70 43 71 44 72 45 73 46 74 72 75 73 76
REMARK SMILES IDX 82 77 74 78 75 79 81 80 83 81 76 82 77 83 78 84 79 85 80 86
REMARK SMILES IDX 56 87 57 88 66 89 58 90 59 91 65 92 67 93 60 94 61 95 62 96
REMARK SMILES IDX 63 97 64 98
REMARK H PARENT 19 7 26 29 88 48 54 59
REMARK Flexibility Score: inf
ROOT
ATOM      1  C   UNL A   1      36.751  23.210  25.357  1.00  0.00     0.002 C 
ENDROOT
BRANCH   1   2
ATOM      2  C   UNL A   1      36.005  22.007  25.931  1.00  0.00     0.021 C 
BRANCH   2   3
ATOM      3  C   UNL A   1      35.689  20.893  24.945  1.00  0.00     0.116 C 
BRANCH   3   4
ATOM      4  N   UNL A   1      34.552  20.089  25.299  1.00  0.00    -0.356 N 
ATOM      5  C   UNL A   1      33.226  20.330  25.202  1.00  0.00     0.223 C 
ATOM      6  O   UNL A   1      32.497  19.350  25.414  1.00  0.00    -0.275 OA
ATOM      7  H   UNL A   1      34.779  19.209  25.677  1.00  0.00     0.163 HD
BRANCH   5   8
ATOM      8  C   UNL A   1      32.558  21.702  24.991  1.00  0.00     0.090 C 
ATOM      9  C   UNL A   1      32.957  22.341  23.666  1.00  0.00     0.019 C 
BRANCH   8  10
ATOM     10  C   UNL A   1      31.220  22.151  25.566  1.00  0.00     0.150 C 
BRANCH  10  11
ATOM     11  S   UNL A   1      30.847  23.474  26.687  1.00  0.00     0.153 S 
ATOM     12  O   UNL A   1      29.656  23.062  27.409  1.00  0.00    -0.229 OA
ATOM     13  O   UNL A   1      32.074  23.623  27.460  1.00  0.00    -0.229 OA
BRANCH  11  14
ATOM     14  C   UNL A   1      30.552  25.161  25.993  1.00  0.00     0.110 C 
ATOM     15  C   UNL A   1      30.422  25.000  24.466  1.00  0.00     0.020 C 
ATOM     16  C   UNL A   1      31.498  26.295  26.376  1.00  0.00     0.039 C 
ATOM     17  C   UNL A   1      30.143  26.309  23.749  1.00  0.00     0.003 C 
ATOM     18  C   UNL A   1      31.413  27.576  25.509  1.00  0.00     0.109 C 
ATOM     19  C   UNL A   1      31.260  27.302  24.015  1.00  0.00     0.020 C 
BRANCH  18  20
ATOM     20  S   UNL A   1      32.869  28.621  25.826  1.00  0.00     0.150 S 
ATOM     21  C   UNL A   1      32.350  29.763  27.084  1.00  0.00     0.158 C 
ATOM     22  O   UNL A   1      33.894  27.776  26.412  1.00  0.00    -0.229 OA
ATOM     23  O   UNL A   1      33.155  29.391  24.633  1.00  0.00    -0.229 OA
ENDBRANCH  18  20
ENDBRANCH  11  14
ENDBRANCH  10  11
ENDBRANCH   8  10
ENDBRANCH   5   8
ENDBRANCH   3   4
ENDBRANCH   2   3
ENDBRANCH   1   2
BRANCH   1  24
ATOM     24  C   UNL A   1      37.920  23.740  26.198  1.00  0.00     0.002 C 
BRANCH  24  25
ATOM     25  C   UNL A   1      39.066  22.761  26.480  1.00  0.00     0.021 C 
BRANCH  25  26
ATOM     26  C   UNL A   1      40.370  23.384  26.977  1.00  0.00     0.116 C 
BRANCH  26  27
ATOM     27  N   UNL A   1      40.970  24.268  25.993  1.00  0.00    -0.352 N 
ATOM     28  C   UNL A   1      41.211  25.619  26.032  1.00  0.00     0.251 C 
ATOM     29  H   UNL A   1      41.252  23.825  25.160  1.00  0.00     0.163 HD
ATOM     30  O   UNL A   1      41.539  26.204  25.004  1.00  0.00    -0.269 OA
BRANCH  28  31
ATOM     31  C   UNL A   1      41.068  26.380  27.294  1.00  0.00     0.039 A 
ATOM     32  C   UNL A   1      42.027  27.348  27.605  1.00  0.00     0.014 A 
ATOM     33  C   UNL A   1      40.032  26.112  28.193  1.00  0.00     0.014 A 
ATOM     34  C   UNL A   1      41.913  28.091  28.783  1.00  0.00     0.010 A 
ATOM     35  C   UNL A   1      39.884  26.895  29.340  1.00  0.00     0.010 A 
ATOM     36  C   UNL A   1      40.820  27.897  29.643  1.00  0.00    -0.014 A 
BRANCH  36  37
ATOM     37  C   UNL A   1      40.622  28.760  30.837  1.00  0.00     0.031 A 
ATOM     38  C   UNL A   1      39.582  29.847  30.839  1.00  0.00     0.074 A 
ATOM     39  C   UNL A   1      41.434  28.606  31.901  1.00  0.00     0.049 A 
ATOM     40  N   UNL A   1      39.319  30.735  31.763  1.00  0.00    -0.248 NA
ATOM     41  C   UNL A   1      38.745  29.963  29.636  1.00  0.00     0.031 C 
ATOM     42  C   UNL A   1      42.514  27.622  32.000  1.00  0.00     0.029 A 
ATOM     43  N   UNL A   1      41.494  29.285  33.092  1.00  0.00    -0.354 N 
ATOM     44  C   UNL A   1      38.290  31.519  31.255  1.00  0.00     0.074 A 
ATOM     45  C   UNL A   1      38.016  31.034  29.918  1.00  0.00     0.031 C 
ATOM     46  C   UNL A   1      43.124  27.756  33.187  1.00  0.00     0.029 A 
ATOM     47  C   UNL A   1      42.506  28.859  33.919  1.00  0.00     0.049 A 
ATOM     48  H   UNL A   1      40.871  30.008  33.332  1.00  0.00     0.167 HD
ATOM     49  C   UNL A   1      37.620  32.534  31.854  1.00  0.00     0.037 A 
ATOM     50  C   UNL A   1      42.910  29.313  35.122  1.00  0.00     0.037 A 
ATOM     51  C   UNL A   1      37.899  33.011  33.186  1.00  0.00     0.049 A 
ATOM     52  C   UNL A   1      42.168  30.451  35.763  1.00  0.00     0.074 A 
ATOM     53  C   UNL A   1      37.245  33.999  33.902  1.00  0.00     0.029 A 
ATOM     54  N   UNL A   1      38.922  32.543  34.000  1.00  0.00    -0.354 N 
ATOM     55  N   UNL A   1      41.151  31.137  35.298  1.00  0.00    -0.248 NA
ATOM     56  C   UNL A   1      42.621  30.876  37.094  1.00  0.00     0.031 C 
ATOM     57  C   UNL A   1      37.904  34.164  35.125  1.00  0.00     0.029 A 
ATOM     58  C   UNL A   1      38.937  33.242  35.196  1.00  0.00     0.049 A 
ATOM     59  H   UNL A   1      39.546  31.819  33.761  1.00  0.00     0.167 HD
ATOM     60  C   UNL A   1      40.835  32.067  36.281  1.00  0.00     0.074 A 
ATOM     61  C   UNL A   1      41.757  31.843  37.376  1.00  0.00     0.031 C 
ATOM     62  C   UNL A   1      39.871  33.021  36.275  1.00  0.00     0.037 A 
BRANCH  49  63
ATOM     63  C   UNL A   1      36.525  33.202  31.065  1.00  0.00     0.058 A 
ATOM     64  C   UNL A   1      36.809  34.044  29.977  1.00  0.00     0.135 A 
ATOM     65  C   UNL A   1      35.175  32.995  31.394  1.00  0.00     0.135 A 
ATOM     66  F   UNL A   1      38.082  34.286  29.623  1.00  0.00    -0.206 F 
ATOM     67  C   UNL A   1      35.800  34.698  29.278  1.00  0.00     0.059 A 
ATOM     68  C   UNL A   1      34.147  33.615  30.687  1.00  0.00     0.059 A 
ATOM     69  F   UNL A   1      34.843  32.196  32.419  1.00  0.00    -0.206 F 
ATOM     70  C   UNL A   1      34.472  34.484  29.647  1.00  0.00     0.060 A 
BRANCH  70  71
ATOM     71  S   UNL A   1      33.175  35.370  28.757  1.00  0.00     0.124 S 
ATOM     72  O   UNL A   1      32.389  35.916  29.860  1.00  0.00    -0.237 OA
ATOM     73  O   UNL A   1      33.937  36.342  27.979  1.00  0.00    -0.237 OA
ATOM     74  O   UNL A   1      32.520  34.325  27.978  1.00  0.00    -0.744 OA
ENDBRANCH  70  71
ENDBRANCH  49  63
BRANCH  50  75
ATOM     75  C   UNL A   1      44.077  28.676  35.787  1.00  0.00     0.058 A 
ATOM     76  C   UNL A   1      43.910  27.595  36.664  1.00  0.00     0.135 A 
ATOM     77  C   UNL A   1      45.386  29.101  35.510  1.00  0.00     0.135 A 
ATOM     78  F   UNL A   1      42.678  27.160  36.966  1.00  0.00    -0.206 F 
ATOM     79  C   UNL A   1      45.001  26.955  37.244  1.00  0.00     0.059 A 
ATOM     80  C   UNL A   1      46.494  28.461  36.057  1.00  0.00     0.059 A 
ATOM     81  F   UNL A   1      45.598  30.121  34.664  1.00  0.00    -0.206 F 
ATOM     82  C   UNL A   1      46.290  27.389  36.925  1.00  0.00     0.060 A 
BRANCH  82  83
ATOM     83  S   UNL A   1      47.699  26.496  37.619  1.00  0.00     0.124 S 
ATOM     84  O   UNL A   1      48.028  25.579  36.535  1.00  0.00    -0.237 OA
ATOM     85  O   UNL A   1      48.655  27.574  37.858  1.00  0.00    -0.237 OA
ATOM     86  O   UNL A   1      47.146  25.882  38.822  1.00  0.00    -0.744 OA
ENDBRANCH  82  83
ENDBRANCH  50  75
BRANCH  62  87
ATOM     87  C   UNL A   1      39.759  33.898  37.491  1.00  0.00     0.058 A 
ATOM     88  C   UNL A   1      40.356  35.168  37.538  1.00  0.00     0.135 A 
ATOM     89  C   UNL A   1      39.000  33.490  38.601  1.00  0.00     0.135 A 
ATOM     90  F   UNL A   1      41.098  35.604  36.508  1.00  0.00    -0.206 F 
ATOM     91  C   UNL A   1      40.218  35.995  38.649  1.00  0.00     0.059 A 
ATOM     92  C   UNL A   1      38.828  34.312  39.710  1.00  0.00     0.059 A 
ATOM     93  F   UNL A   1      38.403  32.288  38.605  1.00  0.00    -0.206 F 
ATOM     94  C   UNL A   1      39.449  35.559  39.728  1.00  0.00     0.060 A 
BRANCH  94  95
ATOM     95  S   UNL A   1      39.242  36.663  41.144  1.00  0.00     0.124 S 
ATOM     96  O   UNL A   1      38.855  37.909  40.491  1.00  0.00    -0.237 OA
ATOM     97  O   UNL A   1      38.194  35.995  41.909  1.00  0.00    -0.237 OA
ATOM     98  O   UNL A   1      40.562  36.665  41.769  1.00  0.00    -0.744 OA
ENDBRANCH  94  95
ENDBRANCH  62  87
ENDBRANCH  36  37
ENDBRANCH  28  31
ENDBRANCH  26  27
ENDBRANCH  25  26
ENDBRANCH  24  25
ENDBRANCH   1  24
TORSDOF 20
ENDMDL
MODEL 3
REMARK VINA RESULT:     -11.4      1.194      2.032
REMARK SMILES C[C@@H](CS(=O)(=O)[C@@H]1CCC[C@H](S(C)(=O)=O)C1)C(=O)NCCCCCCNC(=O)c1ccc(-c2c3nc(c(-c4c(F)cc(S(=O)(=O)[O-])cc4F)c4ccc([nH]4)c(-c4c(F)cc(S(=O)(=O)[O-])cc4F)c4nc(c(-c5c(F)cc(S(=O)(=O)[O-])cc5F)c5ccc2[nH]5)C=C4)C=C3)cc1
REMARK SMILES IDX 22 1 21 2 20 3 19 4 17 5 18 6 2 8 1 9 3 10 4 11 5 12 6 13
REMARK SMILES IDX 7 14 8 15 16 16 9 17 11 18 10 19 12 20 13 21 14 22 15 23
REMARK SMILES IDX 23 24 24 25 25 26 26 27 27 28 28 30 29 31 30 32 94 33 31 34
REMARK SMILES IDX 93 35 32 36 33 37 34 38 87 39 35 40 92 41 86 42 88 43 36 44
REMARK SMILES IDX 91 45 85 46 84 47 37 49 71 50 50 51 70 52 51 53 54 54 69 55
REMARK SMILES IDX 89 56 52 57 53 58 68 60 90 61 55 62 38 63 39 64 48 65 40 66
REMARK SMILES IDX 41 67 47 68 49 69 42 70 43 71 44 72 45 73 46 74 72 75 73 76
REMARK SMILES IDX 82 77 74 78 75 79 81 80 83 81 76 82 77 83 78 84 79 85 80 86
REMARK SMILES IDX 56 87 57 88 66 89 58 90 59 91 65 92 67 93 60 94 61 95 62 96
REMARK SMILES IDX 63 97 64 98
REMARK H PARENT 19 7 26 29 88 48 54 59
REMARK Flexibility Score: inf
ROOT
ATOM      1  C   UNL A   1      36.449  23.015  24.332  1.00  0.00     0.002 C 
ENDROOT
BRANCH   1   2
ATOM      2  C   UNL A   1      35.311  21.997  24.329  1.00  0.00     0.021 C 
BRANCH   2   3
ATOM      3  C   UNL A   1      35.609  20.670  25.011  1.00  0.00     0.116 C 
BRANCH   3   4
ATOM      4  N   UNL A   1      34.460  19.832  25.213  1.00  0.00    -0.356 N 
ATOM      5  C   UNL A   1      33.161  20.008  24.884  1.00  0.00     0.223 C 
ATOM      6  O   UNL A   1      32.443  19.007  25.023  1.00  0.00    -0.275 OA
ATOM      7  H   UNL A   1      34.652  18.982  25.670  1.00  0.00     0.163 HD
BRANCH   5   8
ATOM      8  C   UNL A   1      32.487  21.337  24.492  1.00  0.00     0.090 C 
ATOM      9  C   UNL A   1      32.052  21.357  23.032  1.00  0.00     0.019 C 
BRANCH   8  10
ATOM     10  C   UNL A   1      31.719  22.266  25.423  1.00  0.00     0.150 C 
BRANCH  10  11
ATOM     11  S   UNL A   1      32.317  23.468  26.584  1.00  0.00     0.153 S 
ATOM     12  O   UNL A   1      31.158  23.899  27.346  1.00  0.00    -0.229 OA
ATOM     13  O   UNL A   1      33.360  22.754  27.308  1.00  0.00    -0.229 OA
BRANCH  11  14
ATOM     14  C   UNL A   1      33.176  24.969  25.933  1.00  0.00     0.110 C 
ATOM     15  C   UNL A   1      32.528  26.188  26.618  1.00  0.00     0.020 C 
ATOM     16  C   UNL A   1      33.302  25.154  24.424  1.00  0.00     0.039 C 
ATOM     17  C   UNL A   1      33.154  27.508  26.206  1.00  0.00     0.003 C 
ATOM     18  C   UNL A   1      33.712  26.569  23.942  1.00  0.00     0.109 C 
ATOM     19  C   UNL A   1      33.031  27.703  24.705  1.00  0.00     0.020 C 
BRANCH  18  20
ATOM     20  S   UNL A   1      33.398  26.715  22.156  1.00  0.00     0.150 S 
ATOM     21  C   UNL A   1      31.643  26.950  22.015  1.00  0.00     0.158 C 
ATOM     22  O   UNL A   1      34.031  27.940  21.699  1.00  0.00    -0.229 OA
ATOM     23  O   UNL A   1      33.718  25.452  21.523  1.00  0.00    -0.229 OA
ENDBRANCH  18  20
ENDBRANCH  11  14
ENDBRANCH  10  11
ENDBRANCH   8  10
ENDBRANCH   5   8
ENDBRANCH   3   4
ENDBRANCH   2   3
ENDBRANCH   1   2
BRANCH   1  24
ATOM     24  C   UNL A   1      37.086  23.308  25.697  1.00  0.00     0.002 C 
BRANCH  24  25
ATOM     25  C   UNL A   1      38.457  22.676  25.968  1.00  0.00     0.021 C 
BRANCH  25  26
ATOM     26  C   UNL A   1      39.401  23.484  26.859  1.00  0.00     0.116 C 
BRANCH  26  27
ATOM     27  N   UNL A   1      40.702  23.686  26.245  1.00  0.00    -0.352 N 
ATOM     28  C   UNL A   1      41.587  24.730  26.346  1.00  0.00     0.251 C 
ATOM     29  H   UNL A   1      40.999  22.952  25.660  1.00  0.00     0.163 HD
ATOM     30  O   UNL A   1      42.541  24.790  25.576  1.00  0.00    -0.269 OA
BRANCH  28  31
ATOM     31  C   UNL A   1      41.400  25.789  27.363  1.00  0.00     0.039 A 
ATOM     32  C   UNL A   1      40.433  25.603  28.355  1.00  0.00     0.014 A 
ATOM     33  C   UNL A   1      42.129  26.981  27.316  1.00  0.00     0.014 A 
ATOM     34  C   UNL A   1      40.242  26.580  29.337  1.00  0.00     0.010 A 
ATOM     35  C   UNL A   1      41.980  27.929  28.330  1.00  0.00     0.010 A 
ATOM     36  C   UNL A   1      41.040  27.735  29.354  1.00  0.00    -0.014 A 
BRANCH  36  37
ATOM     37  C   UNL A   1      40.929  28.726  30.457  1.00  0.00     0.031 A 
ATOM     38  C   UNL A   1      41.802  28.622  31.677  1.00  0.00     0.074 A 
ATOM     39  C   UNL A   1      39.985  29.685  30.387  1.00  0.00     0.049 A 
ATOM     40  N   UNL A   1      41.795  29.353  32.762  1.00  0.00    -0.248 NA
ATOM     41  C   UNL A   1      42.797  27.539  31.687  1.00  0.00     0.031 C 
ATOM     42  C   UNL A   1      39.043  29.859  29.280  1.00  0.00     0.029 A 
ATOM     43  N   UNL A   1      39.647  30.680  31.269  1.00  0.00    -0.354 N 
ATOM     44  C   UNL A   1      42.779  28.821  33.586  1.00  0.00     0.074 A 
ATOM     45  C   UNL A   1      43.324  27.670  32.897  1.00  0.00     0.031 C 
ATOM     46  C   UNL A   1      38.239  30.900  29.545  1.00  0.00     0.029 A 
ATOM     47  C   UNL A   1      38.581  31.444  30.857  1.00  0.00     0.049 A 
ATOM     48  H   UNL A   1      40.123  30.833  32.118  1.00  0.00     0.167 HD
ATOM     49  C   UNL A   1      43.205  29.264  34.796  1.00  0.00     0.037 A 
ATOM     50  C   UNL A   1      37.935  32.456  31.469  1.00  0.00     0.037 A 
ATOM     51  C   UNL A   1      42.656  30.411  35.475  1.00  0.00     0.049 A 
ATOM     52  C   UNL A   1      38.408  32.921  32.816  1.00  0.00     0.074 A 
ATOM     53  C   UNL A   1      43.052  30.970  36.678  1.00  0.00     0.029 A 
ATOM     54  N   UNL A   1      41.588  31.170  35.017  1.00  0.00    -0.354 N 
ATOM     55  N   UNL A   1      39.387  32.450  33.552  1.00  0.00    -0.248 NA
ATOM     56  C   UNL A   1      37.696  34.056  33.417  1.00  0.00     0.031 C 
ATOM     57  C   UNL A   1      42.190  32.033  36.972  1.00  0.00     0.029 A 
ATOM     58  C   UNL A   1      41.290  32.171  35.927  1.00  0.00     0.049 A 
ATOM     59  H   UNL A   1      41.112  31.019  34.169  1.00  0.00     0.167 HD
ATOM     60  C   UNL A   1      39.416  33.236  34.698  1.00  0.00     0.074 A 
ATOM     61  C   UNL A   1      38.369  34.227  34.548  1.00  0.00     0.031 C 
ATOM     62  C   UNL A   1      40.234  33.144  35.776  1.00  0.00     0.037 A 
BRANCH  49  63
ATOM     63  C   UNL A   1      44.313  28.493  35.462  1.00  0.00     0.058 A 
ATOM     64  C   UNL A   1      44.047  27.445  36.359  1.00  0.00     0.135 A 
ATOM     65  C   UNL A   1      45.659  28.801  35.201  1.00  0.00     0.135 A 
ATOM     66  F   UNL A   1      42.780  27.113  36.654  1.00  0.00    -0.206 F 
ATOM     67  C   UNL A   1      45.070  26.764  37.011  1.00  0.00     0.059 A 
ATOM     68  C   UNL A   1      46.700  28.112  35.819  1.00  0.00     0.059 A 
ATOM     69  F   UNL A   1      45.974  29.788  34.349  1.00  0.00    -0.206 F 
ATOM     70  C   UNL A   1      46.394  27.112  36.741  1.00  0.00     0.060 A 
BRANCH  70  71
ATOM     71  S   UNL A   1      47.711  26.248  37.624  1.00  0.00     0.124 S 
ATOM     72  O   UNL A   1      47.011  25.807  38.827  1.00  0.00    -0.237 OA
ATOM     73  O   UNL A   1      48.080  25.195  36.684  1.00  0.00    -0.237 OA
ATOM     74  O   UNL A   1      48.719  27.283  37.829  1.00  0.00    -0.744 OA
ENDBRANCH  70  71
ENDBRANCH  49  63
BRANCH  50  75
ATOM     75  C   UNL A   1      36.771  33.090  30.794  1.00  0.00     0.058 A 
ATOM     76  C   UNL A   1      35.458  32.806  31.196  1.00  0.00     0.135 A 
ATOM     77  C   UNL A   1      36.956  34.038  29.775  1.00  0.00     0.135 A 
ATOM     78  F   UNL A   1      35.232  31.901  32.159  1.00  0.00    -0.206 F 
ATOM     79  C   UNL A   1      34.367  33.440  30.611  1.00  0.00     0.059 A 
ATOM     80  C   UNL A   1      35.882  34.704  29.193  1.00  0.00     0.059 A 
ATOM     81  F   UNL A   1      38.194  34.355  29.368  1.00  0.00    -0.206 F 
ATOM     82  C   UNL A   1      34.590  34.396  29.617  1.00  0.00     0.060 A 
BRANCH  82  83
ATOM     83  S   UNL A   1      33.170  35.272  28.925  1.00  0.00     0.124 S 
ATOM     84  O   UNL A   1      32.563  34.239  28.095  1.00  0.00    -0.237 OA
ATOM     85  O   UNL A   1      32.428  35.646  30.126  1.00  0.00    -0.237 OA
ATOM     86  O   UNL A   1      33.782  36.385  28.204  1.00  0.00    -0.744 OA
ENDBRANCH  82  83
ENDBRANCH  50  75
BRANCH  62  87
ATOM     87  C   UNL A   1      40.034  34.142  36.883  1.00  0.00     0.058 A 
ATOM     88  C   UNL A   1      40.673  35.392  36.870  1.00  0.00     0.135 A 
ATOM     89  C   UNL A   1      39.149  33.870  37.940  1.00  0.00     0.135 A 
ATOM     90  F   UNL A   1      41.534  35.700  35.886  1.00  0.00    -0.206 F 
ATOM     91  C   UNL A   1      40.455  36.330  37.874  1.00  0.00     0.059 A 
ATOM     92  C   UNL A   1      38.897  34.804  38.940  1.00  0.00     0.059 A 
ATOM     93  F   UNL A   1      38.507  32.693  37.997  1.00  0.00    -0.206 F 
ATOM     94  C   UNL A   1      39.562  36.028  38.903  1.00  0.00     0.060 A 
BRANCH  94  95
ATOM     95  S   UNL A   1      39.256  37.273  40.175  1.00  0.00     0.124 S 
ATOM     96  O   UNL A   1      40.612  37.713  40.487  1.00  0.00    -0.237 OA
ATOM     97  O   UNL A   1      38.422  38.242  39.469  1.00  0.00    -0.237 OA
ATOM     98  O   UNL A   1      38.579  36.524  41.229  1.00  0.00    -0.744 OA
ENDBRANCH  94  95
ENDBRANCH  62  87
ENDBRANCH  36  37
ENDBRANCH  28  31
ENDBRANCH  26  27
ENDBRANCH  25  26
ENDBRANCH  24  25
ENDBRANCH   1  24
TORSDOF 20
ENDMDL
