MODEL 1
REMARK VINA RESULT:     -12.1      0.000      0.000
REMARK SMILES Cc1cc(F)cc(N[C@H](C(=O)NCCCCCCNC(=O)c2ccc(-c3c4nc(c(-c5c(F)cc(S(=O)(=O)[O-])cc5F)c5ccc([nH]5)c(-c5c(F)cc(S(=O)(=O)[O-])cc5F)c5nc(c(-c6c(F)cc(S(=O)(=O)[O-])cc6F)c6ccc3[nH]6)C=C5)C=C4)cc2)c2cc(C)cc(C)c2)c1
REMARK SMILES IDX 16 1 15 2 14 3 13 4 12 5 10 6 11 7 9 9 8 10 7 12 1 13 2 14
REMARK SMILES IDX 3 15 96 16 4 17 5 18 6 19 88 20 89 21 95 22 90 23 93 24
REMARK SMILES IDX 91 25 92 26 94 27 17 28 18 29 19 30 20 31 21 33 22 34 23 35
REMARK SMILES IDX 87 36 24 37 86 38 25 39 26 40 27 41 80 42 28 43 85 44 79 45
REMARK SMILES IDX 81 46 29 47 84 48 78 49 77 50 30 52 64 53 43 54 63 55 44 56
REMARK SMILES IDX 47 57 62 58 82 59 45 60 46 61 61 63 83 64 48 65 31 66 32 67
REMARK SMILES IDX 41 68 33 69 34 70 40 71 42 72 35 73 36 74 37 75 38 76 39 77
REMARK SMILES IDX 65 78 66 79 75 80 67 81 68 82 74 83 76 84 69 85 70 86 71 87
REMARK SMILES IDX 72 88 73 89 49 90 50 91 59 92 51 93 52 94 58 95 60 96 53 97
REMARK SMILES IDX 54 98 55 99 56 100 57 101
REMARK H PARENT 12 8 8 11 19 32 81 51 47 62
REMARK Flexibility Score: inf
ROOT
ATOM      1  C   UNL A   1      36.019  24.058  25.460  1.00  0.00     0.002 C 
ENDROOT
BRANCH   1   2
ATOM      2  C   UNL A   1      35.153  23.761  24.232  1.00  0.00     0.002 C 
BRANCH   2   3
ATOM      3  C   UNL A   1      33.778  23.146  24.516  1.00  0.00     0.021 C 
BRANCH   3   4
ATOM      4  C   UNL A   1      32.659  23.604  23.585  1.00  0.00     0.116 C 
BRANCH   4   5
ATOM      5  N   UNL A   1      33.140  24.430  22.502  1.00  0.00    -0.354 N 
ATOM      6  C   UNL A   1      33.172  25.792  22.390  1.00  0.00     0.247 C 
ATOM      7  O   UNL A   1      33.658  26.218  21.333  1.00  0.00    -0.272 OA
ATOM      8  H   UNL A   1      33.498  23.939  21.728  1.00  0.00     0.163 HD
BRANCH   6   9
ATOM      9  C   UNL A   1      32.521  26.743  23.441  1.00  0.00     0.200 C 
BRANCH   9  10
ATOM     10  N   UNL A   1      33.340  27.917  23.853  1.00  0.00    -0.370 N 
ATOM     11  H   UNL A   1      34.001  28.197  23.180  1.00  0.00     0.161 HD
BRANCH  10  12
ATOM     12  C   UNL A   1      33.347  28.687  25.000  1.00  0.00     0.038 A 
ATOM     13  C   UNL A   1      31.240  31.562  26.456  1.00  0.00     0.044 C 
ATOM     14  C   UNL A   1      32.287  30.497  26.309  1.00  0.00    -0.046 A 
ATOM     15  C   UNL A   1      33.192  30.296  27.350  1.00  0.00     0.042 A 
ATOM     16  C   UNL A   1      32.392  29.716  25.139  1.00  0.00     0.029 A 
ATOM     17  C   UNL A   1      34.127  29.292  27.232  1.00  0.00     0.125 A 
ATOM     18  F   UNL A   1      35.002  29.073  28.224  1.00  0.00    -0.207 F 
ATOM     19  C   UNL A   1      34.172  28.485  26.099  1.00  0.00     0.065 A 
ENDBRANCH  10  12
ENDBRANCH   9  10
BRANCH   9  20
ATOM     20  C   UNL A   1      31.083  27.156  23.124  1.00  0.00    -0.016 A 
ATOM     21  C   UNL A   1      30.824  28.303  22.361  1.00  0.00     0.009 A 
ATOM     22  C   UNL A   1      29.995  26.504  23.723  1.00  0.00     0.009 A 
ATOM     23  C   UNL A   1      29.601  28.965  22.459  1.00  0.00    -0.051 A 
ATOM     24  C   UNL A   1      28.704  27.051  23.649  1.00  0.00    -0.051 A 
ATOM     25  C   UNL A   1      29.536  30.427  22.119  1.00  0.00     0.044 C 
ATOM     26  C   UNL A   1      28.534  28.322  23.084  1.00  0.00     0.006 A 
ATOM     27  C   UNL A   1      27.532  26.356  24.271  1.00  0.00     0.044 C 
ENDBRANCH   9  20
ENDBRANCH   6   9
ENDBRANCH   4   5
ENDBRANCH   3   4
ENDBRANCH   2   3
ENDBRANCH   1   2
BRANCH   1  28
ATOM     28  C   UNL A   1      37.477  23.602  25.367  1.00  0.00     0.021 C 
BRANCH  28  29
ATOM     29  C   UNL A   1      38.397  24.150  26.452  1.00  0.00     0.116 C 
BRANCH  29  30
ATOM     30  N   UNL A   1      39.803  24.030  26.106  1.00  0.00    -0.352 N 
ATOM     31  C   UNL A   1      40.858  24.817  26.492  1.00  0.00     0.251 C 
ATOM     32  H   UNL A   1      40.031  23.279  25.512  1.00  0.00     0.163 HD
ATOM     33  O   UNL A   1      41.963  24.665  25.973  1.00  0.00    -0.269 OA
BRANCH  31  34
ATOM     34  C   UNL A   1      40.656  25.866  27.514  1.00  0.00     0.039 A 
ATOM     35  C   UNL A   1      39.633  25.709  28.450  1.00  0.00     0.014 A 
ATOM     36  C   UNL A   1      41.480  26.995  27.555  1.00  0.00     0.014 A 
ATOM     37  C   UNL A   1      39.471  26.658  29.462  1.00  0.00     0.010 A 
ATOM     38  C   UNL A   1      41.368  27.896  28.609  1.00  0.00     0.010 A 
ATOM     39  C   UNL A   1      40.358  27.741  29.570  1.00  0.00    -0.014 A 
BRANCH  39  40
ATOM     40  C   UNL A   1      40.241  28.720  30.682  1.00  0.00     0.031 A 
ATOM     41  C   UNL A   1      41.093  28.574  31.914  1.00  0.00     0.074 A 
ATOM     42  C   UNL A   1      39.330  29.711  30.604  1.00  0.00     0.049 A 
ATOM     43  N   UNL A   1      41.102  29.298  33.003  1.00  0.00    -0.248 NA
ATOM     44  C   UNL A   1      42.042  27.447  31.937  1.00  0.00     0.031 C 
ATOM     45  C   UNL A   1      38.413  29.929  29.482  1.00  0.00     0.029 A 
ATOM     46  N   UNL A   1      39.020  30.718  31.483  1.00  0.00    -0.354 N 
ATOM     47  C   UNL A   1      42.046  28.714  33.840  1.00  0.00     0.074 A 
ATOM     48  C   UNL A   1      42.545  27.540  33.159  1.00  0.00     0.031 C 
ATOM     49  C   UNL A   1      37.664  31.015  29.730  1.00  0.00     0.029 A 
ATOM     50  C   UNL A   1      38.015  31.548  31.043  1.00  0.00     0.049 A 
ATOM     51  H   UNL A   1      39.474  30.835  32.349  1.00  0.00     0.167 HD
ATOM     52  C   UNL A   1      42.477  29.134  35.055  1.00  0.00     0.037 A 
ATOM     53  C   UNL A   1      37.438  32.613  31.632  1.00  0.00     0.037 A 
ATOM     54  C   UNL A   1      41.988  30.316  35.716  1.00  0.00     0.049 A 
ATOM     55  C   UNL A   1      37.924  33.053  32.987  1.00  0.00     0.074 A 
ATOM     56  C   UNL A   1      42.397  30.857  36.922  1.00  0.00     0.029 A 
ATOM     57  N   UNL A   1      40.979  31.137  35.232  1.00  0.00    -0.354 N 
ATOM     58  N   UNL A   1      38.865  32.528  33.735  1.00  0.00    -0.248 NA
ATOM     59  C   UNL A   1      37.278  34.234  33.576  1.00  0.00     0.031 C 
ATOM     60  C   UNL A   1      41.599  31.972  37.194  1.00  0.00     0.029 A 
ATOM     61  C   UNL A   1      40.735  32.165  36.128  1.00  0.00     0.049 A 
ATOM     62  H   UNL A   1      40.507  31.008  34.379  1.00  0.00     0.167 HD
ATOM     63  C   UNL A   1      38.947  33.333  34.866  1.00  0.00     0.074 A 
ATOM     64  C   UNL A   1      37.966  34.385  34.700  1.00  0.00     0.031 C 
ATOM     65  C   UNL A   1      39.761  33.213  35.944  1.00  0.00     0.037 A 
BRANCH  52  66
ATOM     66  C   UNL A   1      43.530  28.311  35.747  1.00  0.00     0.058 A 
ATOM     67  C   UNL A   1      43.195  27.260  36.617  1.00  0.00     0.135 A 
ATOM     68  C   UNL A   1      44.893  28.549  35.508  1.00  0.00     0.135 A 
ATOM     69  F   UNL A   1      41.907  26.997  36.895  1.00  0.00    -0.206 F 
ATOM     70  C   UNL A   1      44.172  26.496  37.248  1.00  0.00     0.059 A 
ATOM     71  C   UNL A   1      45.887  27.776  36.102  1.00  0.00     0.059 A 
ATOM     72  F   UNL A   1      45.273  29.540  34.686  1.00  0.00    -0.206 F 
ATOM     73  C   UNL A   1      45.516  26.762  36.983  1.00  0.00     0.060 A 
BRANCH  73  74
ATOM     74  S   UNL A   1      46.769  25.755  37.805  1.00  0.00     0.124 S 
ATOM     75  O   UNL A   1      46.023  24.531  38.081  1.00  0.00    -0.237 OA
ATOM     76  O   UNL A   1      47.803  25.650  36.781  1.00  0.00    -0.237 OA
ATOM     77  O   UNL A   1      47.128  26.548  38.976  1.00  0.00    -0.744 OA
ENDBRANCH  73  74
ENDBRANCH  52  66
BRANCH  53  78
ATOM     78  C   UNL A   1      36.347  33.349  30.936  1.00  0.00     0.058 A 
ATOM     79  C   UNL A   1      35.016  33.250  31.370  1.00  0.00     0.135 A 
ATOM     80  C   UNL A   1      36.614  34.173  29.832  1.00  0.00     0.135 A 
ATOM     81  F   UNL A   1      34.707  32.471  32.416  1.00  0.00    -0.206 F 
ATOM     82  C   UNL A   1      33.986  33.925  30.722  1.00  0.00     0.059 A 
ATOM     83  C   UNL A   1      35.605  34.882  29.186  1.00  0.00     0.059 A 
ATOM     84  F   UNL A   1      37.872  34.318  29.388  1.00  0.00    -0.206 F 
ATOM     85  C   UNL A   1      34.292  34.743  29.632  1.00  0.00     0.060 A 
BRANCH  85  86
ATOM     86  S   UNL A   1      32.954  35.649  28.827  1.00  0.00     0.124 S 
ATOM     87  O   UNL A   1      32.363  34.617  27.985  1.00  0.00    -0.237 OA
ATOM     88  O   UNL A   1      32.151  36.084  29.966  1.00  0.00    -0.237 OA
ATOM     89  O   UNL A   1      33.652  36.719  28.119  1.00  0.00    -0.744 OA
ENDBRANCH  85  86
ENDBRANCH  53  78
BRANCH  65  90
ATOM     90  C   UNL A   1      39.661  34.267  37.013  1.00  0.00     0.058 A 
ATOM     91  C   UNL A   1      39.054  34.013  38.252  1.00  0.00     0.135 A 
ATOM     92  C   UNL A   1      40.238  35.533  36.814  1.00  0.00     0.135 A 
ATOM     93  F   UNL A   1      38.481  32.822  38.494  1.00  0.00    -0.206 F 
ATOM     94  C   UNL A   1      39.002  34.982  39.249  1.00  0.00     0.059 A 
ATOM     95  C   UNL A   1      40.227  36.506  37.808  1.00  0.00     0.059 A 
ATOM     96  F   UNL A   1      40.842  35.826  35.651  1.00  0.00    -0.206 F 
ATOM     97  C   UNL A   1      39.597  36.225  39.019  1.00  0.00     0.060 A 
BRANCH  97  98
ATOM     98  S   UNL A   1      39.559  37.458  40.336  1.00  0.00     0.124 S 
ATOM     99  O   UNL A   1      40.980  37.634  40.616  1.00  0.00    -0.237 OA
ATOM    100  O   UNL A   1      38.896  38.586  39.687  1.00  0.00    -0.237 OA
ATOM    101  O   UNL A   1      38.787  36.808  41.391  1.00  0.00    -0.744 OA
ENDBRANCH  97  98
ENDBRANCH  65  90
ENDBRANCH  39  40
ENDBRANCH  31  34
ENDBRANCH  29  30
ENDBRANCH  28  29
ENDBRANCH   1  28
TORSDOF 19
ENDMDL
MODEL 2
REMARK VINA RESULT:     -11.9      2.519      4.429
REMARK SMILES Cc1cc(F)cc(N[C@H](C(=O)NCCCCCCNC(=O)c2ccc(-c3c4nc(c(-c5c(F)cc(S(=O)(=O)[O-])cc5F)c5ccc([nH]5)c(-c5c(F)cc(S(=O)(=O)[O-])cc5F)c5nc(c(-c6c(F)cc(S(=O)(=O)[O-])cc6F)c6ccc3[nH]6)C=C5)C=C4)cc2)c2cc(C)cc(C)c2)c1
REMARK SMILES IDX 16 1 15 2 14 3 13 4 12 5 10 6 11 7 9 9 8 10 7 12 1 13 2 14
REMARK SMILES IDX 3 15 96 16 4 17 5 18 6 19 88 20 89 21 95 22 90 23 93 24
REMARK SMILES IDX 91 25 92 26 94 27 17 28 18 29 19 30 20 31 21 33 22 34 23 35
REMARK SMILES IDX 87 36 24 37 86 38 25 39 26 40 27 41 80 42 28 43 85 44 79 45
REMARK SMILES IDX 81 46 29 47 84 48 78 49 77 50 30 52 64 53 43 54 63 55 44 56
REMARK SMILES IDX 47 57 62 58 82 59 45 60 46 61 61 63 83 64 48 65 31 66 32 67
REMARK SMILES IDX 41 68 33 69 34 70 40 71 42 72 35 73 36 74 37 75 38 76 39 77
REMARK SMILES IDX 65 78 66 79 75 80 67 81 68 82 74 83 76 84 69 85 70 86 71 87
REMARK SMILES IDX 72 88 73 89 49 90 50 91 59 92 51 93 52 94 58 95 60 96 53 97
REMARK SMILES IDX 54 98 55 99 56 100 57 101
REMARK H PARENT 12 8 8 11 19 32 81 51 47 62
REMARK Flexibility Score: inf
ROOT
ATOM      1  C   UNL A   1      38.745  22.481  26.111  1.00  0.00     0.002 C 
ENDROOT
BRANCH   1   2
ATOM      2  C   UNL A   1      37.868  21.389  25.493  1.00  0.00     0.002 C 
BRANCH   2   3
ATOM      3  C   UNL A   1      36.365  21.688  25.441  1.00  0.00     0.021 C 
BRANCH   3   4
ATOM      4  C   UNL A   1      35.946  23.016  26.063  1.00  0.00     0.116 C 
BRANCH   4   5
ATOM      5  N   UNL A   1      34.933  22.859  27.081  1.00  0.00    -0.354 N 
ATOM      6  C   UNL A   1      33.679  22.325  26.989  1.00  0.00     0.247 C 
ATOM      7  O   UNL A   1      33.036  22.317  28.048  1.00  0.00    -0.272 OA
ATOM      8  H   UNL A   1      35.184  23.186  27.975  1.00  0.00     0.163 HD
BRANCH   6   9
ATOM      9  C   UNL A   1      33.042  21.887  25.634  1.00  0.00     0.200 C 
BRANCH   9  10
ATOM     10  N   UNL A   1      32.359  20.564  25.632  1.00  0.00    -0.370 N 
ATOM     11  H   UNL A   1      31.634  20.490  26.293  1.00  0.00     0.161 HD
BRANCH  10  12
ATOM     12  C   UNL A   1      32.550  19.422  24.878  1.00  0.00     0.038 A 
ATOM     13  C   UNL A   1      33.247  15.698  25.561  1.00  0.00     0.044 C 
ATOM     14  C   UNL A   1      32.977  16.987  24.843  1.00  0.00    -0.046 A 
ATOM     15  C   UNL A   1      32.883  16.974  23.452  1.00  0.00     0.042 A 
ATOM     16  C   UNL A   1      32.841  18.209  25.535  1.00  0.00     0.029 A 
ATOM     17  C   UNL A   1      32.595  18.150  22.796  1.00  0.00     0.125 A 
ATOM     18  F   UNL A   1      32.490  18.161  21.459  1.00  0.00    -0.207 F 
ATOM     19  C   UNL A   1      32.395  19.333  23.501  1.00  0.00     0.065 A 
ENDBRANCH  10  12
ENDBRANCH   9  10
BRANCH   9  20
ATOM     20  C   UNL A   1      32.180  22.956  24.960  1.00  0.00    -0.016 A 
ATOM     21  C   UNL A   1      32.408  23.314  23.624  1.00  0.00     0.009 A 
ATOM     22  C   UNL A   1      31.263  23.718  25.698  1.00  0.00     0.009 A 
ATOM     23  C   UNL A   1      32.009  24.559  23.140  1.00  0.00    -0.051 A 
ATOM     24  C   UNL A   1      30.680  24.869  25.145  1.00  0.00    -0.051 A 
ATOM     25  C   UNL A   1      32.727  25.145  21.957  1.00  0.00     0.044 C 
ATOM     26  C   UNL A   1      31.121  25.323  23.895  1.00  0.00     0.006 A 
ATOM     27  C   UNL A   1      29.687  25.682  25.918  1.00  0.00     0.044 C 
ENDBRANCH   9  20
ENDBRANCH   6   9
ENDBRANCH   4   5
ENDBRANCH   3   4
ENDBRANCH   2   3
ENDBRANCH   1   2
BRANCH   1  28
ATOM     28  C   UNL A   1      40.056  22.000  26.738  1.00  0.00     0.021 C 
BRANCH  28  29
ATOM     29  C   UNL A   1      40.999  23.106  27.195  1.00  0.00     0.116 C 
BRANCH  29  30
ATOM     30  N   UNL A   1      41.531  23.882  26.087  1.00  0.00    -0.352 N 
ATOM     31  C   UNL A   1      41.769  25.231  26.013  1.00  0.00     0.251 C 
ATOM     32  H   UNL A   1      41.751  23.368  25.277  1.00  0.00     0.163 HD
ATOM     33  O   UNL A   1      42.071  25.744  24.937  1.00  0.00    -0.269 OA
BRANCH  31  34
ATOM     34  C   UNL A   1      41.634  26.068  27.223  1.00  0.00     0.039 A 
ATOM     35  C   UNL A   1      42.546  27.104  27.433  1.00  0.00     0.014 A 
ATOM     36  C   UNL A   1      40.605  25.839  28.142  1.00  0.00     0.014 A 
ATOM     37  C   UNL A   1      42.393  27.946  28.536  1.00  0.00     0.010 A 
ATOM     38  C   UNL A   1      40.408  26.727  29.196  1.00  0.00     0.010 A 
ATOM     39  C   UNL A   1      41.303  27.786  29.408  1.00  0.00    -0.014 A 
BRANCH  39  40
ATOM     40  C   UNL A   1      41.089  28.716  30.547  1.00  0.00     0.031 A 
ATOM     41  C   UNL A   1      41.931  28.599  31.789  1.00  0.00     0.074 A 
ATOM     42  C   UNL A   1      40.103  29.633  30.482  1.00  0.00     0.049 A 
ATOM     43  N   UNL A   1      41.864  29.287  32.899  1.00  0.00    -0.248 NA
ATOM     44  C   UNL A   1      42.967  27.553  31.796  1.00  0.00     0.031 C 
ATOM     45  C   UNL A   1      39.189  29.812  29.351  1.00  0.00     0.029 A 
ATOM     46  N   UNL A   1      39.699  30.584  31.385  1.00  0.00    -0.354 N 
ATOM     47  C   UNL A   1      42.839  28.755  33.736  1.00  0.00     0.074 A 
ATOM     48  C   UNL A   1      43.441  27.647  33.029  1.00  0.00     0.031 C 
ATOM     49  C   UNL A   1      38.351  30.827  29.618  1.00  0.00     0.029 A 
ATOM     50  C   UNL A   1      38.638  31.344  30.952  1.00  0.00     0.049 A 
ATOM     51  H   UNL A   1      40.128  30.709  32.263  1.00  0.00     0.167 HD
ATOM     52  C   UNL A   1      43.214  29.169  34.970  1.00  0.00     0.037 A 
ATOM     53  C   UNL A   1      37.967  32.341  31.563  1.00  0.00     0.037 A 
ATOM     54  C   UNL A   1      42.621  30.287  35.658  1.00  0.00     0.049 A 
ATOM     55  C   UNL A   1      38.394  32.775  32.939  1.00  0.00     0.074 A 
ATOM     56  C   UNL A   1      42.967  30.821  36.887  1.00  0.00     0.029 A 
ATOM     57  N   UNL A   1      41.558  31.039  35.181  1.00  0.00    -0.354 N 
ATOM     58  N   UNL A   1      39.363  32.303  33.688  1.00  0.00    -0.248 NA
ATOM     59  C   UNL A   1      37.646  33.881  33.551  1.00  0.00     0.031 C 
ATOM     60  C   UNL A   1      42.077  31.859  37.178  1.00  0.00     0.029 A 
ATOM     61  C   UNL A   1      41.218  32.016  36.103  1.00  0.00     0.049 A 
ATOM     62  H   UNL A   1      41.111  30.900  34.315  1.00  0.00     0.167 HD
ATOM     63  C   UNL A   1      39.361  33.076  34.844  1.00  0.00     0.074 A 
ATOM     64  C   UNL A   1      38.301  34.051  34.691  1.00  0.00     0.031 C 
ATOM     65  C   UNL A   1      40.165  32.988  35.933  1.00  0.00     0.037 A 
BRANCH  52  66
ATOM     66  C   UNL A   1      44.319  28.412  35.657  1.00  0.00     0.058 A 
ATOM     67  C   UNL A   1      44.054  27.330  36.513  1.00  0.00     0.135 A 
ATOM     68  C   UNL A   1      45.664  28.745  35.426  1.00  0.00     0.135 A 
ATOM     69  F   UNL A   1      42.787  26.976  36.783  1.00  0.00    -0.206 F 
ATOM     70  C   UNL A   1      45.079  26.627  37.138  1.00  0.00     0.059 A 
ATOM     71  C   UNL A   1      46.707  28.035  36.014  1.00  0.00     0.059 A 
ATOM     72  F   UNL A   1      45.978  29.769  34.617  1.00  0.00    -0.206 F 
ATOM     73  C   UNL A   1      46.403  26.987  36.882  1.00  0.00     0.060 A 
BRANCH  73  74
ATOM     74  S   UNL A   1      47.720  26.058  37.696  1.00  0.00     0.124 S 
ATOM     75  O   UNL A   1      47.891  24.934  36.780  1.00  0.00    -0.237 OA
ATOM     76  O   UNL A   1      48.811  27.026  37.723  1.00  0.00    -0.237 OA
ATOM     77  O   UNL A   1      47.148  25.725  38.996  1.00  0.00    -0.744 OA
ENDBRANCH  73  74
ENDBRANCH  52  66
BRANCH  53  78
ATOM     78  C   UNL A   1      36.831  33.008  30.868  1.00  0.00     0.058 A 
ATOM     79  C   UNL A   1      35.504  32.764  31.253  1.00  0.00     0.135 A 
ATOM     80  C   UNL A   1      37.050  33.911  29.817  1.00  0.00     0.135 A 
ATOM     81  F   UNL A   1      35.241  31.905  32.249  1.00  0.00    -0.206 F 
ATOM     82  C   UNL A   1      34.434  33.375  30.607  1.00  0.00     0.059 A 
ATOM     83  C   UNL A   1      35.998  34.556  29.175  1.00  0.00     0.059 A 
ATOM     84  F   UNL A   1      38.302  34.194  29.421  1.00  0.00    -0.206 F 
ATOM     85  C   UNL A   1      34.692  34.273  29.570  1.00  0.00     0.060 A 
BRANCH  85  86
ATOM     86  S   UNL A   1      33.297  35.094  28.768  1.00  0.00     0.124 S 
ATOM     87  O   UNL A   1      32.511  35.527  29.916  1.00  0.00    -0.237 OA
ATOM     88  O   UNL A   1      33.960  36.150  28.010  1.00  0.00    -0.237 OA
ATOM     89  O   UNL A   1      32.703  34.032  27.960  1.00  0.00    -0.744 OA
ENDBRANCH  85  86
ENDBRANCH  53  78
BRANCH  65  90
ATOM     90  C   UNL A   1      39.964  33.996  37.031  1.00  0.00     0.058 A 
ATOM     91  C   UNL A   1      40.522  35.282  36.971  1.00  0.00     0.135 A 
ATOM     92  C   UNL A   1      39.146  33.688  38.132  1.00  0.00     0.135 A 
ATOM     93  F   UNL A   1      41.316  35.627  35.945  1.00  0.00    -0.206 F 
ATOM     94  C   UNL A   1      40.296  36.220  37.973  1.00  0.00     0.059 A 
ATOM     95  C   UNL A   1      38.880  34.621  39.129  1.00  0.00     0.059 A 
ATOM     96  F   UNL A   1      38.577  32.476  38.234  1.00  0.00    -0.206 F 
ATOM     97  C   UNL A   1      39.469  35.882  39.046  1.00  0.00     0.060 A 
BRANCH  97  98
ATOM     98  S   UNL A   1      39.151  37.123  40.317  1.00  0.00     0.124 S 
ATOM     99  O   UNL A   1      38.477  38.165  39.550  1.00  0.00    -0.237 OA
ATOM    100  O   UNL A   1      38.315  36.390  41.264  1.00  0.00    -0.237 OA
ATOM    101  O   UNL A   1      40.485  37.464  40.802  1.00  0.00    -0.744 OA
ENDBRANCH  97  98
ENDBRANCH  65  90
ENDBRANCH  39  40
ENDBRANCH  31  34
ENDBRANCH  29  30
ENDBRANCH  28  29
ENDBRANCH   1  28
TORSDOF 19
ENDMDL
MODEL 3
REMARK VINA RESULT:     -11.8      0.655      8.130
REMARK SMILES Cc1cc(F)cc(N[C@H](C(=O)NCCCCCCNC(=O)c2ccc(-c3c4nc(c(-c5c(F)cc(S(=O)(=O)[O-])cc5F)c5ccc([nH]5)c(-c5c(F)cc(S(=O)(=O)[O-])cc5F)c5nc(c(-c6c(F)cc(S(=O)(=O)[O-])cc6F)c6ccc3[nH]6)C=C5)C=C4)cc2)c2cc(C)cc(C)c2)c1
REMARK SMILES IDX 16 1 15 2 14 3 13 4 12 5 10 6 11 7 9 9 8 10 7 12 1 13 2 14
REMARK SMILES IDX 3 15 96 16 4 17 5 18 6 19 88 20 89 21 95 22 90 23 93 24
REMARK SMILES IDX 91 25 92 26 94 27 17 28 18 29 19 30 20 31 21 33 22 34 23 35
REMARK SMILES IDX 87 36 24 37 86 38 25 39 26 40 27 41 80 42 28 43 85 44 79 45
REMARK SMILES IDX 81 46 29 47 84 48 78 49 77 50 30 52 64 53 43 54 63 55 44 56
REMARK SMILES IDX 47 57 62 58 82 59 45 60 46 61 61 63 83 64 48 65 31 66 32 67
REMARK SMILES IDX 41 68 33 69 34 70 40 71 42 72 35 73 36 74 37 75 38 76 39 77
REMARK SMILES IDX 65 78 66 79 75 80 67 81 68 82 74 83 76 84 69 85 70 86 71 87
REMARK SMILES IDX 72 88 73 89 49 90 50 91 59 92 51 93 52 94 58 95 60 96 53 97
REMARK SMILES IDX 54 98 55 99 56 100 57 101
REMARK H PARENT 12 8 8 11 19 32 81 51 47 62
REMARK Flexibility Score: inf
ROOT
ATOM      1  C   UNL A   1      36.072  23.982  25.792  1.00  0.00     0.002 C 
ENDROOT
BRANCH   1   2
ATOM      2  C   UNL A   1      35.055  23.075  25.095  1.00  0.00     0.002 C 
BRANCH   2   3
ATOM      3  C   UNL A   1      33.599  23.227  25.552  1.00  0.00     0.021 C 
BRANCH   3   4
ATOM      4  C   UNL A   1      32.594  23.492  24.436  1.00  0.00     0.116 C 
BRANCH   4   5
ATOM      5  N   UNL A   1      33.193  24.137  23.290  1.00  0.00    -0.354 N 
ATOM      6  C   UNL A   1      33.296  25.466  22.991  1.00  0.00     0.247 C 
ATOM      7  O   UNL A   1      33.880  25.719  21.928  1.00  0.00    -0.272 OA
ATOM      8  H   UNL A   1      33.585  23.527  22.624  1.00  0.00     0.163 HD
BRANCH   6   9
ATOM      9  C   UNL A   1      32.613  26.581  23.842  1.00  0.00     0.200 C 
BRANCH   9  10
ATOM     10  N   UNL A   1      33.450  27.773  24.149  1.00  0.00    -0.370 N 
ATOM     11  H   UNL A   1      34.119  27.978  23.457  1.00  0.00     0.161 HD
BRANCH  10  12
ATOM     12  C   UNL A   1      33.467  28.645  25.221  1.00  0.00     0.038 A 
ATOM     13  C   UNL A   1      31.328  31.594  26.465  1.00  0.00     0.044 C 
ATOM     14  C   UNL A   1      32.396  30.544  26.388  1.00  0.00    -0.046 A 
ATOM     15  C   UNL A   1      33.331  30.459  27.418  1.00  0.00     0.042 A 
ATOM     16  C   UNL A   1      32.491  29.661  25.291  1.00  0.00     0.029 A 
ATOM     17  C   UNL A   1      34.286  29.468  27.366  1.00  0.00     0.125 A 
ATOM     18  F   UNL A   1      35.191  29.360  28.351  1.00  0.00    -0.207 F 
ATOM     19  C   UNL A   1      34.323  28.562  26.311  1.00  0.00     0.065 A 
ENDBRANCH  10  12
ENDBRANCH   9  10
BRANCH   9  20
ATOM     20  C   UNL A   1      31.222  26.992  23.356  1.00  0.00    -0.016 A 
ATOM     21  C   UNL A   1      31.067  28.071  22.475  1.00  0.00     0.009 A 
ATOM     22  C   UNL A   1      30.065  26.419  23.904  1.00  0.00     0.009 A 
ATOM     23  C   UNL A   1      29.859  28.764  22.399  1.00  0.00    -0.051 A 
ATOM     24  C   UNL A   1      28.803  26.983  23.661  1.00  0.00    -0.051 A 
ATOM     25  C   UNL A   1      29.867  30.191  21.928  1.00  0.00     0.044 C 
ATOM     26  C   UNL A   1      28.722  28.201  22.974  1.00  0.00     0.006 A 
ATOM     27  C   UNL A   1      27.559  26.370  24.227  1.00  0.00     0.044 C 
ENDBRANCH   9  20
ENDBRANCH   6   9
ENDBRANCH   4   5
ENDBRANCH   3   4
ENDBRANCH   2   3
ENDBRANCH   1   2
BRANCH   1  28
ATOM     28  C   UNL A   1      37.509  23.456  25.831  1.00  0.00     0.021 C 
BRANCH  28  29
ATOM     29  C   UNL A   1      38.502  24.341  26.575  1.00  0.00     0.116 C 
BRANCH  29  30
ATOM     30  N   UNL A   1      39.729  24.558  25.826  1.00  0.00    -0.352 N 
ATOM     31  C   UNL A   1      40.738  25.457  26.063  1.00  0.00     0.251 C 
ATOM     32  H   UNL A   1      39.854  23.979  25.040  1.00  0.00     0.163 HD
ATOM     33  O   UNL A   1      41.631  25.613  25.231  1.00  0.00    -0.269 OA
BRANCH  31  34
ATOM     34  C   UNL A   1      40.734  26.255  27.307  1.00  0.00     0.039 A 
ATOM     35  C   UNL A   1      41.579  27.362  27.402  1.00  0.00     0.014 A 
ATOM     36  C   UNL A   1      39.893  25.918  28.372  1.00  0.00     0.014 A 
ATOM     37  C   UNL A   1      41.539  28.166  28.543  1.00  0.00     0.010 A 
ATOM     38  C   UNL A   1      39.798  26.764  29.474  1.00  0.00     0.010 A 
ATOM     39  C   UNL A   1      40.625  27.892  29.574  1.00  0.00    -0.014 A 
BRANCH  39  40
ATOM     40  C   UNL A   1      40.524  28.778  30.763  1.00  0.00     0.031 A 
ATOM     41  C   UNL A   1      39.498  29.878  30.803  1.00  0.00     0.074 A 
ATOM     42  C   UNL A   1      41.389  28.623  31.785  1.00  0.00     0.049 A 
ATOM     43  N   UNL A   1      39.287  30.777  31.729  1.00  0.00    -0.248 NA
ATOM     44  C   UNL A   1      38.609  30.003  29.635  1.00  0.00     0.031 C 
ATOM     45  C   UNL A   1      42.459  27.623  31.842  1.00  0.00     0.029 A 
ATOM     46  N   UNL A   1      41.513  29.305  32.969  1.00  0.00    -0.354 N 
ATOM     47  C   UNL A   1      38.252  31.576  31.256  1.00  0.00     0.074 A 
ATOM     48  C   UNL A   1      37.919  31.093  29.934  1.00  0.00     0.031 C 
ATOM     49  C   UNL A   1      43.110  27.741  33.010  1.00  0.00     0.029 A 
ATOM     50  C   UNL A   1      42.535  28.847  33.768  1.00  0.00     0.049 A 
ATOM     51  H   UNL A   1      40.925  30.053  33.223  1.00  0.00     0.167 HD
ATOM     52  C   UNL A   1      37.619  32.600  31.878  1.00  0.00     0.037 A 
ATOM     53  C   UNL A   1      42.965  29.275  34.971  1.00  0.00     0.037 A 
ATOM     54  C   UNL A   1      37.945  33.060  33.203  1.00  0.00     0.049 A 
ATOM     55  C   UNL A   1      42.255  30.423  35.637  1.00  0.00     0.074 A 
ATOM     56  C   UNL A   1      37.329  34.053  33.943  1.00  0.00     0.029 A 
ATOM     57  N   UNL A   1      38.978  32.563  33.984  1.00  0.00    -0.354 N 
ATOM     58  N   UNL A   1      41.234  31.123  35.202  1.00  0.00    -0.248 NA
ATOM     59  C   UNL A   1      42.747  30.836  36.958  1.00  0.00     0.031 C 
ATOM     60  C   UNL A   1      38.023  34.196  35.147  1.00  0.00     0.029 A 
ATOM     61  C   UNL A   1      39.032  33.247  35.187  1.00  0.00     0.049 A 
ATOM     62  H   UNL A   1      39.582  31.832  33.722  1.00  0.00     0.167 HD
ATOM     63  C   UNL A   1      40.941  32.036  36.210  1.00  0.00     0.074 A 
ATOM     64  C   UNL A   1      41.887  31.793  37.279  1.00  0.00     0.031 C 
ATOM     65  C   UNL A   1      39.975  32.987  36.248  1.00  0.00     0.037 A 
BRANCH  52  66
ATOM     66  C   UNL A   1      36.510  33.293  31.133  1.00  0.00     0.058 A 
ATOM     67  C   UNL A   1      35.161  33.126  31.489  1.00  0.00     0.135 A 
ATOM     68  C   UNL A   1      36.800  34.167  30.072  1.00  0.00     0.135 A 
ATOM     69  F   UNL A   1      34.823  32.291  32.485  1.00  0.00    -0.206 F 
ATOM     70  C   UNL A   1      34.140  33.776  30.803  1.00  0.00     0.059 A 
ATOM     71  C   UNL A   1      35.796  34.853  29.393  1.00  0.00     0.059 A 
ATOM     72  F   UNL A   1      38.070  34.366  29.687  1.00  0.00    -0.206 F 
ATOM     73  C   UNL A   1      34.468  34.638  29.756  1.00  0.00     0.060 A 
BRANCH  73  74
ATOM     74  S   UNL A   1      33.130  35.478  28.882  1.00  0.00     0.124 S 
ATOM     75  O   UNL A   1      33.871  36.449  28.081  1.00  0.00    -0.237 OA
ATOM     76  O   UNL A   1      32.510  34.386  28.140  1.00  0.00    -0.237 OA
ATOM     77  O   UNL A   1      32.322  36.042  29.958  1.00  0.00    -0.744 OA
ENDBRANCH  73  74
ENDBRANCH  52  66
BRANCH  53  78
ATOM     78  C   UNL A   1      44.117  28.602  35.632  1.00  0.00     0.058 A 
ATOM     79  C   UNL A   1      45.435  29.011  35.381  1.00  0.00     0.135 A 
ATOM     80  C   UNL A   1      43.922  27.547  36.537  1.00  0.00     0.135 A 
ATOM     81  F   UNL A   1      45.676  30.011  34.520  1.00  0.00    -0.206 F 
ATOM     82  C   UNL A   1      46.521  28.384  35.986  1.00  0.00     0.059 A 
ATOM     83  C   UNL A   1      44.989  26.925  37.177  1.00  0.00     0.059 A 
ATOM     84  F   UNL A   1      42.679  27.129  36.828  1.00  0.00    -0.206 F 
ATOM     85  C   UNL A   1      46.286  27.343  36.886  1.00  0.00     0.060 A 
BRANCH  85  86
ATOM     86  S   UNL A   1      47.700  26.567  37.699  1.00  0.00     0.124 S 
ATOM     87  O   UNL A   1      48.685  26.552  36.626  1.00  0.00    -0.237 OA
ATOM     88  O   UNL A   1      47.964  27.490  38.799  1.00  0.00    -0.237 OA
ATOM     89  O   UNL A   1      47.181  25.262  38.100  1.00  0.00    -0.744 OA
ENDBRANCH  85  86
ENDBRANCH  53  78
BRANCH  65  90
ATOM     90  C   UNL A   1      39.860  33.813  37.501  1.00  0.00     0.058 A 
ATOM     91  C   UNL A   1      40.614  34.981  37.692  1.00  0.00     0.135 A 
ATOM     92  C   UNL A   1      38.933  33.461  38.497  1.00  0.00     0.135 A 
ATOM     93  F   UNL A   1      41.517  35.361  36.775  1.00  0.00    -0.206 F 
ATOM     94  C   UNL A   1      40.470  35.759  38.836  1.00  0.00     0.059 A 
ATOM     95  C   UNL A   1      38.750  34.241  39.634  1.00  0.00     0.059 A 
ATOM     96  F   UNL A   1      38.178  32.358  38.359  1.00  0.00    -0.206 F 
ATOM     97  C   UNL A   1      39.531  35.383  39.800  1.00  0.00     0.060 A 
BRANCH  97  98
ATOM     98  S   UNL A   1      39.326  36.425  41.259  1.00  0.00     0.124 S 
ATOM     99  O   UNL A   1      38.766  37.640  40.678  1.00  0.00    -0.237 OA
ATOM    100  O   UNL A   1      38.412  35.634  42.079  1.00  0.00    -0.237 OA
ATOM    101  O   UNL A   1      40.682  36.548  41.785  1.00  0.00    -0.744 OA
ENDBRANCH  97  98
ENDBRANCH  65  90
ENDBRANCH  39  40
ENDBRANCH  31  34
ENDBRANCH  29  30
ENDBRANCH  28  29
ENDBRANCH   1  28
TORSDOF 19
ENDMDL
