MODEL 1
REMARK VINA RESULT:      -9.7      0.000      0.000
REMARK SMILES COC(=O)[C@@H]([NH2+]CC(C)(C)C(=O)NCCCCCCNC(=O)c1ccc(-c2c3nc(c(-c4c(F)cc(S(=O)(=O)[O-])cc4F)c4ccc([nH]4)c(-c4c(F)cc(S(=O)(=O)[O-])cc4F)c4nc(c(-c5c(F)cc(S(=O)(=O)[O-])cc5F)c5ccc2[nH]5)C=C4)C=C3)cc1)c1ccccc1
REMARK SMILES IDX 15 1 14 2 13 3 11 4 12 5 8 7 9 8 10 9 7 10 6 11 5 14 3 15
REMARK SMILES IDX 4 16 2 17 1 18 89 19 90 20 94 21 91 22 93 23 92 24 16 25
REMARK SMILES IDX 17 26 18 27 19 28 20 29 21 30 22 32 23 33 24 34 88 35 25 36
REMARK SMILES IDX 87 37 26 38 27 39 28 40 81 41 29 42 86 43 80 44 82 45 30 46
REMARK SMILES IDX 85 47 79 48 78 49 31 51 65 52 44 53 64 54 45 55 48 56 63 57
REMARK SMILES IDX 83 58 46 59 47 60 62 62 84 63 49 64 32 65 33 66 42 67 34 68
REMARK SMILES IDX 35 69 41 70 43 71 36 72 37 73 38 74 39 75 40 76 66 77 67 78
REMARK SMILES IDX 76 79 68 80 69 81 75 82 77 83 70 84 71 85 72 86 73 87 74 88
REMARK SMILES IDX 50 89 51 90 60 91 52 92 53 93 59 94 61 95 54 96 55 97 56 98
REMARK SMILES IDX 57 99 58 100
REMARK H PARENT 13 6 6 12 6 13 20 31 82 50 48 61
REMARK Flexibility Score: inf
ROOT
ATOM      1  C   UNL A   1      37.232  23.064  25.699  1.00  0.00     0.021 C 
ENDROOT
BRANCH   1   2
ATOM      2  C   UNL A   1      35.883  23.769  25.894  1.00  0.00     0.116 C 
BRANCH   2   3
ATOM      3  N   UNL A   1      35.293  24.109  24.615  1.00  0.00    -0.355 N 
ATOM      4  C   UNL A   1      34.513  23.328  23.824  1.00  0.00     0.231 C 
ATOM      5  O   UNL A   1      34.887  23.237  22.654  1.00  0.00    -0.274 OA
ATOM      6  H   UNL A   1      35.479  25.015  24.280  1.00  0.00     0.163 HD
BRANCH   4   7
ATOM      7  C   UNL A   1      33.271  22.598  24.357  1.00  0.00     0.092 C 
ATOM      8  C   UNL A   1      33.653  21.387  25.224  1.00  0.00     0.027 C 
ATOM      9  C   UNL A   1      32.416  22.141  23.159  1.00  0.00     0.027 C 
BRANCH   7  10
ATOM     10  C   UNL A   1      32.370  23.587  25.190  1.00  0.00     0.277 C 
BRANCH  10  11
ATOM     11  N   UNL A   1      31.338  24.406  24.524  1.00  0.00    -0.330 N 
ATOM     12  H   UNL A   1      31.186  24.027  23.588  1.00  0.00     0.347 HD
ATOM     13  H   UNL A   1      30.508  24.361  25.114  1.00  0.00     0.347 HD
BRANCH  11  14
ATOM     14  C   UNL A   1      31.681  25.850  24.387  1.00  0.00     0.324 C 
BRANCH  14  15
ATOM     15  C   UNL A   1      32.410  26.335  25.663  1.00  0.00     0.369 C 
ATOM     16  O   UNL A   1      33.631  26.471  25.728  1.00  0.00    -0.245 OA
BRANCH  15  17
ATOM     17  O   UNL A   1      31.574  26.526  26.724  1.00  0.00    -0.464 OA
ATOM     18  C   UNL A   1      31.709  27.801  27.350  1.00  0.00     0.282 C 
ENDBRANCH  15  17
ENDBRANCH  14  15
BRANCH  14  19
ATOM     19  C   UNL A   1      30.506  26.740  23.985  1.00  0.00     0.021 A 
ATOM     20  C   UNL A   1      30.756  27.997  23.403  1.00  0.00     0.010 A 
ATOM     21  C   UNL A   1      29.169  26.339  24.122  1.00  0.00     0.010 A 
ATOM     22  C   UNL A   1      29.716  28.812  22.954  1.00  0.00     0.001 A 
ATOM     23  C   UNL A   1      28.124  27.172  23.709  1.00  0.00     0.001 A 
ATOM     24  C   UNL A   1      28.398  28.402  23.115  1.00  0.00     0.000 A 
ENDBRANCH  14  19
ENDBRANCH  11  14
ENDBRANCH  10  11
ENDBRANCH   7  10
ENDBRANCH   4   7
ENDBRANCH   2   3
ENDBRANCH   1   2
BRANCH   1  25
ATOM     25  C   UNL A   1      38.438  23.742  26.374  1.00  0.00     0.002 C 
BRANCH  25  26
ATOM     26  C   UNL A   1      39.683  22.873  26.576  1.00  0.00     0.002 C 
BRANCH  26  27
ATOM     27  C   UNL A   1      39.587  21.448  26.034  1.00  0.00     0.021 C 
BRANCH  27  28
ATOM     28  C   UNL A   1      40.138  20.377  26.960  1.00  0.00     0.116 C 
BRANCH  28  29
ATOM     29  N   UNL A   1      40.995  19.428  26.267  1.00  0.00    -0.352 N 
ATOM     30  C   UNL A   1      42.249  19.649  25.749  1.00  0.00     0.251 C 
ATOM     31  H   UNL A   1      40.634  18.518  26.155  1.00  0.00     0.163 HD
ATOM     32  O   UNL A   1      42.798  18.800  25.052  1.00  0.00    -0.269 OA
BRANCH  30  33
ATOM     33  C   UNL A   1      42.913  20.942  26.020  1.00  0.00     0.039 A 
ATOM     34  C   UNL A   1      43.125  21.833  24.966  1.00  0.00     0.014 A 
ATOM     35  C   UNL A   1      43.265  21.292  27.327  1.00  0.00     0.014 A 
ATOM     36  C   UNL A   1      43.634  23.107  25.233  1.00  0.00     0.010 A 
ATOM     37  C   UNL A   1      43.705  22.583  27.598  1.00  0.00     0.010 A 
ATOM     38  C   UNL A   1      43.897  23.502  26.554  1.00  0.00    -0.014 A 
BRANCH  38  39
ATOM     39  C   UNL A   1      44.392  24.865  26.875  1.00  0.00     0.031 A 
ATOM     40  C   UNL A   1      43.422  25.913  27.349  1.00  0.00     0.074 A 
ATOM     41  C   UNL A   1      45.685  25.181  26.668  1.00  0.00     0.049 A 
ATOM     42  N   UNL A   1      43.621  27.187  27.562  1.00  0.00    -0.248 NA
ATOM     43  C   UNL A   1      42.037  25.473  27.586  1.00  0.00     0.031 C 
ATOM     44  C   UNL A   1      46.716  24.262  26.178  1.00  0.00     0.029 A 
ATOM     45  N   UNL A   1      46.353  26.369  26.831  1.00  0.00    -0.354 N 
ATOM     46  C   UNL A   1      42.386  27.704  27.939  1.00  0.00     0.074 A 
ATOM     47  C   UNL A   1      41.435  26.616  27.877  1.00  0.00     0.031 C 
ATOM     48  C   UNL A   1      47.886  24.917  26.094  1.00  0.00     0.029 A 
ATOM     49  C   UNL A   1      47.683  26.308  26.487  1.00  0.00     0.049 A 
ATOM     50  H   UNL A   1      45.920  27.189  27.162  1.00  0.00     0.167 HD
ATOM     51  C   UNL A   1      42.079  28.966  28.324  1.00  0.00     0.037 A 
ATOM     52  C   UNL A   1      48.630  27.269  26.479  1.00  0.00     0.037 A 
ATOM     53  C   UNL A   1      43.036  30.035  28.417  1.00  0.00     0.049 A 
ATOM     54  C   UNL A   1      48.263  28.663  26.910  1.00  0.00     0.074 A 
ATOM     55  C   UNL A   1      42.834  31.336  28.840  1.00  0.00     0.029 A 
ATOM     56  N   UNL A   1      44.380  29.925  28.089  1.00  0.00    -0.354 N 
ATOM     57  N   UNL A   1      47.098  29.125  27.300  1.00  0.00    -0.248 NA
ATOM     58  C   UNL A   1      49.336  29.668  26.901  1.00  0.00     0.031 C 
ATOM     59  C   UNL A   1      44.049  32.022  28.739  1.00  0.00     0.029 A 
ATOM     60  C   UNL A   1      45.016  31.136  28.292  1.00  0.00     0.049 A 
ATOM     61  H   UNL A   1      44.815  29.105  27.762  1.00  0.00     0.167 HD
ATOM     62  C   UNL A   1      47.307  30.464  27.613  1.00  0.00     0.074 A 
ATOM     63  C   UNL A   1      48.708  30.738  27.370  1.00  0.00     0.031 C 
ATOM     64  C   UNL A   1      46.418  31.384  28.062  1.00  0.00     0.037 A 
BRANCH  51  65
ATOM     65  C   UNL A   1      40.647  29.251  28.684  1.00  0.00     0.058 A 
ATOM     66  C   UNL A   1      40.237  29.369  30.021  1.00  0.00     0.135 A 
ATOM     67  C   UNL A   1      39.681  29.434  27.683  1.00  0.00     0.135 A 
ATOM     68  F   UNL A   1      41.118  29.186  31.018  1.00  0.00    -0.206 F 
ATOM     69  C   UNL A   1      38.913  29.628  30.355  1.00  0.00     0.059 A 
ATOM     70  C   UNL A   1      38.355  29.720  27.994  1.00  0.00     0.059 A 
ATOM     71  F   UNL A   1      40.020  29.330  26.388  1.00  0.00    -0.206 F 
ATOM     72  C   UNL A   1      37.977  29.799  29.333  1.00  0.00     0.060 A 
BRANCH  72  73
ATOM     73  S   UNL A   1      36.262  30.135  29.782  1.00  0.00     0.124 S 
ATOM     74  O   UNL A   1      35.546  29.515  28.671  1.00  0.00    -0.237 OA
ATOM     75  O   UNL A   1      36.136  29.462  31.071  1.00  0.00    -0.237 OA
ATOM     76  O   UNL A   1      36.202  31.593  29.831  1.00  0.00    -0.744 OA
ENDBRANCH  72  73
ENDBRANCH  51  65
BRANCH  52  77
ATOM     77  C   UNL A   1      50.021  26.942  26.069  1.00  0.00     0.058 A 
ATOM     78  C   UNL A   1      50.413  27.028  24.725  1.00  0.00     0.135 A 
ATOM     79  C   UNL A   1      50.985  26.540  27.007  1.00  0.00     0.135 A 
ATOM     80  F   UNL A   1      49.524  27.402  23.791  1.00  0.00    -0.206 F 
ATOM     81  C   UNL A   1      51.705  26.710  24.320  1.00  0.00     0.059 A 
ATOM     82  C   UNL A   1      52.290  26.237  26.629  1.00  0.00     0.059 A 
ATOM     83  F   UNL A   1      50.665  26.457  28.308  1.00  0.00    -0.206 F 
ATOM     84  C   UNL A   1      52.637  26.315  25.281  1.00  0.00     0.060 A 
BRANCH  84  85
ATOM     85  S   UNL A   1      54.323  25.942  24.752  1.00  0.00     0.124 S 
ATOM     86  O   UNL A   1      54.402  24.509  25.014  1.00  0.00    -0.237 OA
ATOM     87  O   UNL A   1      54.300  26.335  23.347  1.00  0.00    -0.237 OA
ATOM     88  O   UNL A   1      55.139  26.788  25.618  1.00  0.00    -0.744 OA
ENDBRANCH  84  85
ENDBRANCH  52  77
BRANCH  64  89
ATOM     89  C   UNL A   1      46.935  32.761  28.365  1.00  0.00     0.058 A 
ATOM     90  C   UNL A   1      47.483  33.082  29.616  1.00  0.00     0.135 A 
ATOM     91  C   UNL A   1      46.954  33.745  27.365  1.00  0.00     0.135 A 
ATOM     92  F   UNL A   1      47.481  32.177  30.607  1.00  0.00    -0.206 F 
ATOM     93  C   UNL A   1      48.024  34.338  29.868  1.00  0.00     0.059 A 
ATOM     94  C   UNL A   1      47.510  35.001  27.588  1.00  0.00     0.059 A 
ATOM     95  F   UNL A   1      46.449  33.483  26.148  1.00  0.00    -0.206 F 
ATOM     96  C   UNL A   1      48.038  35.289  28.845  1.00  0.00     0.060 A 
BRANCH  96  97
ATOM     97  S   UNL A   1      48.797  36.896  29.167  1.00  0.00     0.124 S 
ATOM     98  O   UNL A   1      48.071  37.755  28.237  1.00  0.00    -0.237 OA
ATOM     99  O   UNL A   1      48.504  37.103  30.582  1.00  0.00    -0.237 OA
ATOM    100  O   UNL A   1      50.205  36.676  28.851  1.00  0.00    -0.744 OA
ENDBRANCH  96  97
ENDBRANCH  64  89
ENDBRANCH  38  39
ENDBRANCH  30  33
ENDBRANCH  28  29
ENDBRANCH  27  28
ENDBRANCH  26  27
ENDBRANCH  25  26
ENDBRANCH   1  25
TORSDOF 22
ENDMDL
MODEL 2
REMARK VINA RESULT:      -9.5      1.212      8.350
REMARK SMILES COC(=O)[C@@H]([NH2+]CC(C)(C)C(=O)NCCCCCCNC(=O)c1ccc(-c2c3nc(c(-c4c(F)cc(S(=O)(=O)[O-])cc4F)c4ccc([nH]4)c(-c4c(F)cc(S(=O)(=O)[O-])cc4F)c4nc(c(-c5c(F)cc(S(=O)(=O)[O-])cc5F)c5ccc2[nH]5)C=C4)C=C3)cc1)c1ccccc1
REMARK SMILES IDX 15 1 14 2 13 3 11 4 12 5 8 7 9 8 10 9 7 10 6 11 5 14 3 15
REMARK SMILES IDX 4 16 2 17 1 18 89 19 90 20 94 21 91 22 93 23 92 24 16 25
REMARK SMILES IDX 17 26 18 27 19 28 20 29 21 30 22 32 23 33 24 34 88 35 25 36
REMARK SMILES IDX 87 37 26 38 27 39 28 40 81 41 29 42 86 43 80 44 82 45 30 46
REMARK SMILES IDX 85 47 79 48 78 49 31 51 65 52 44 53 64 54 45 55 48 56 63 57
REMARK SMILES IDX 83 58 46 59 47 60 62 62 84 63 49 64 32 65 33 66 42 67 34 68
REMARK SMILES IDX 35 69 41 70 43 71 36 72 37 73 38 74 39 75 40 76 66 77 67 78
REMARK SMILES IDX 76 79 68 80 69 81 75 82 77 83 70 84 71 85 72 86 73 87 74 88
REMARK SMILES IDX 50 89 51 90 60 91 52 92 53 93 59 94 61 95 54 96 55 97 56 98
REMARK SMILES IDX 57 99 58 100
REMARK H PARENT 13 6 6 12 6 13 20 31 82 50 48 61
REMARK Flexibility Score: inf
ROOT
ATOM      1  C   UNL A   1      38.654  22.245  26.010  1.00  0.00     0.021 C 
ENDROOT
BRANCH   1   2
ATOM      2  C   UNL A   1      37.464  23.212  26.063  1.00  0.00     0.116 C 
BRANCH   2   3
ATOM      3  N   UNL A   1      37.134  23.694  24.737  1.00  0.00    -0.355 N 
ATOM      4  C   UNL A   1      36.211  23.196  23.876  1.00  0.00     0.231 C 
ATOM      5  O   UNL A   1      36.634  22.954  22.744  1.00  0.00    -0.274 OA
ATOM      6  H   UNL A   1      37.640  24.478  24.423  1.00  0.00     0.163 HD
BRANCH   4   7
ATOM      7  C   UNL A   1      34.756  22.935  24.291  1.00  0.00     0.092 C 
ATOM      8  C   UNL A   1      34.596  21.565  24.970  1.00  0.00     0.027 C 
ATOM      9  C   UNL A   1      33.865  23.008  23.034  1.00  0.00     0.027 C 
BRANCH   7  10
ATOM     10  C   UNL A   1      34.249  24.071  25.257  1.00  0.00     0.277 C 
BRANCH  10  11
ATOM     11  N   UNL A   1      33.183  25.000  24.831  1.00  0.00    -0.330 N 
ATOM     12  H   UNL A   1      33.613  25.753  24.293  1.00  0.00     0.347 HD
ATOM     13  H   UNL A   1      32.518  24.449  24.289  1.00  0.00     0.347 HD
BRANCH  11  14
ATOM     14  C   UNL A   1      32.410  25.614  25.949  1.00  0.00     0.324 C 
BRANCH  14  15
ATOM     15  C   UNL A   1      30.950  25.102  25.915  1.00  0.00     0.369 C 
ATOM     16  O   UNL A   1      30.607  24.021  26.393  1.00  0.00    -0.245 OA
BRANCH  15  17
ATOM     17  O   UNL A   1      30.101  25.930  25.242  1.00  0.00    -0.464 OA
ATOM     18  C   UNL A   1      29.882  25.559  23.881  1.00  0.00     0.282 C 
ENDBRANCH  15  17
ENDBRANCH  14  15
BRANCH  14  19
ATOM     19  C   UNL A   1      32.516  27.136  26.025  1.00  0.00     0.021 A 
ATOM     20  C   UNL A   1      31.920  27.820  27.100  1.00  0.00     0.010 A 
ATOM     21  C   UNL A   1      33.234  27.894  25.088  1.00  0.00     0.010 A 
ATOM     22  C   UNL A   1      32.052  29.201  27.250  1.00  0.00     0.001 A 
ATOM     23  C   UNL A   1      33.334  29.283  25.215  1.00  0.00     0.001 A 
ATOM     24  C   UNL A   1      32.754  29.935  26.301  1.00  0.00     0.000 A 
ENDBRANCH  14  19
ENDBRANCH  11  14
ENDBRANCH  10  11
ENDBRANCH   7  10
ENDBRANCH   4   7
ENDBRANCH   2   3
ENDBRANCH   1   2
BRANCH   1  25
ATOM     25  C   UNL A   1      39.972  22.782  26.595  1.00  0.00     0.002 C 
BRANCH  25  26
ATOM     26  C   UNL A   1      40.750  21.829  27.508  1.00  0.00     0.002 C 
BRANCH  26  27
ATOM     27  C   UNL A   1      40.868  20.390  27.010  1.00  0.00     0.021 C 
BRANCH  27  28
ATOM     28  C   UNL A   1      42.158  19.686  27.399  1.00  0.00     0.116 C 
BRANCH  28  29
ATOM     29  N   UNL A   1      42.805  19.044  26.266  1.00  0.00    -0.352 N 
ATOM     30  C   UNL A   1      43.592  19.630  25.304  1.00  0.00     0.251 C 
ATOM     31  H   UNL A   1      42.662  18.073  26.179  1.00  0.00     0.163 HD
ATOM     32  O   UNL A   1      43.949  18.995  24.315  1.00  0.00    -0.269 OA
BRANCH  30  33
ATOM     33  C   UNL A   1      43.974  21.049  25.463  1.00  0.00     0.039 A 
ATOM     34  C   UNL A   1      43.347  22.016  24.676  1.00  0.00     0.014 A 
ATOM     35  C   UNL A   1      44.906  21.421  26.437  1.00  0.00     0.014 A 
ATOM     36  C   UNL A   1      43.608  23.369  24.909  1.00  0.00     0.010 A 
ATOM     37  C   UNL A   1      45.111  22.769  26.713  1.00  0.00     0.010 A 
ATOM     38  C   UNL A   1      44.467  23.755  25.950  1.00  0.00    -0.014 A 
BRANCH  38  39
ATOM     39  C   UNL A   1      44.727  25.186  26.255  1.00  0.00     0.031 A 
ATOM     40  C   UNL A   1      46.127  25.726  26.136  1.00  0.00     0.074 A 
ATOM     41  C   UNL A   1      43.733  25.973  26.710  1.00  0.00     0.049 A 
ATOM     42  N   UNL A   1      46.590  26.902  26.470  1.00  0.00    -0.248 NA
ATOM     43  C   UNL A   1      47.145  24.811  25.594  1.00  0.00     0.031 C 
ATOM     44  C   UNL A   1      42.341  25.555  26.902  1.00  0.00     0.029 A 
ATOM     45  N   UNL A   1      43.741  27.286  27.108  1.00  0.00    -0.354 N 
ATOM     46  C   UNL A   1      47.953  26.861  26.199  1.00  0.00     0.074 A 
ATOM     47  C   UNL A   1      48.250  25.530  25.719  1.00  0.00     0.031 C 
ATOM     48  C   UNL A   1      41.630  26.596  27.366  1.00  0.00     0.029 A 
ATOM     49  C   UNL A   1      42.518  27.742  27.540  1.00  0.00     0.049 A 
ATOM     50  H   UNL A   1      44.548  27.850  27.085  1.00  0.00     0.167 HD
ATOM     51  C   UNL A   1      48.869  27.852  26.317  1.00  0.00     0.037 A 
ATOM     52  C   UNL A   1      42.156  28.944  28.033  1.00  0.00     0.037 A 
ATOM     53  C   UNL A   1      48.561  29.184  26.763  1.00  0.00     0.049 A 
ATOM     54  C   UNL A   1      43.193  30.028  28.157  1.00  0.00     0.074 A 
ATOM     55  C   UNL A   1      49.409  30.272  26.874  1.00  0.00     0.029 A 
ATOM     56  N   UNL A   1      47.304  29.614  27.163  1.00  0.00    -0.354 N 
ATOM     57  N   UNL A   1      44.470  29.984  27.859  1.00  0.00    -0.248 NA
ATOM     58  C   UNL A   1      42.742  31.325  28.681  1.00  0.00     0.031 C 
ATOM     59  C   UNL A   1      48.672  31.351  27.371  1.00  0.00     0.029 A 
ATOM     60  C   UNL A   1      47.356  30.947  27.530  1.00  0.00     0.049 A 
ATOM     61  H   UNL A   1      46.496  29.053  27.182  1.00  0.00     0.167 HD
ATOM     62  C   UNL A   1      44.967  31.254  28.130  1.00  0.00     0.074 A 
ATOM     63  C   UNL A   1      43.854  32.045  28.613  1.00  0.00     0.031 C 
ATOM     64  C   UNL A   1      46.231  31.723  27.990  1.00  0.00     0.037 A 
BRANCH  51  65
ATOM     65  C   UNL A   1      50.290  27.529  25.948  1.00  0.00     0.058 A 
ATOM     66  C   UNL A   1      51.245  27.206  26.925  1.00  0.00     0.135 A 
ATOM     67  C   UNL A   1      50.696  27.518  24.605  1.00  0.00     0.135 A 
ATOM     68  F   UNL A   1      50.914  27.219  28.225  1.00  0.00    -0.206 F 
ATOM     69  C   UNL A   1      52.561  26.912  26.585  1.00  0.00     0.059 A 
ATOM     70  C   UNL A   1      52.001  27.201  24.240  1.00  0.00     0.059 A 
ATOM     71  F   UNL A   1      49.822  27.822  23.631  1.00  0.00    -0.206 F 
ATOM     72  C   UNL A   1      52.930  26.915  25.238  1.00  0.00     0.060 A 
BRANCH  72  73
ATOM     73  S   UNL A   1      54.642  26.531  24.813  1.00  0.00     0.124 S 
ATOM     74  O   UNL A   1      55.348  27.005  25.999  1.00  0.00    -0.237 OA
ATOM     75  O   UNL A   1      54.604  25.083  24.635  1.00  0.00    -0.237 OA
ATOM     76  O   UNL A   1      54.871  27.303  23.595  1.00  0.00    -0.744 OA
ENDBRANCH  72  73
ENDBRANCH  51  65
BRANCH  52  77
ATOM     77  C   UNL A   1      40.744  29.195  28.428  1.00  0.00     0.058 A 
ATOM     78  C   UNL A   1      40.379  29.268  29.780  1.00  0.00     0.135 A 
ATOM     79  C   UNL A   1      39.736  29.367  27.466  1.00  0.00     0.135 A 
ATOM     80  F   UNL A   1      41.307  29.103  30.735  1.00  0.00    -0.206 F 
ATOM     81  C   UNL A   1      39.061  29.485  30.168  1.00  0.00     0.059 A 
ATOM     82  C   UNL A   1      38.414  29.607  27.830  1.00  0.00     0.059 A 
ATOM     83  F   UNL A   1      40.038  29.322  26.160  1.00  0.00    -0.206 F 
ATOM     84  C   UNL A   1      38.085  29.653  29.185  1.00  0.00     0.060 A 
BRANCH  84  85
ATOM     85  S   UNL A   1      36.383  29.974  29.697  1.00  0.00     0.124 S 
ATOM     86  O   UNL A   1      35.629  29.328  28.628  1.00  0.00    -0.237 OA
ATOM     87  O   UNL A   1      36.326  29.324  31.002  1.00  0.00    -0.237 OA
ATOM     88  O   UNL A   1      36.314  31.432  29.728  1.00  0.00    -0.744 OA
ENDBRANCH  84  85
ENDBRANCH  52  77
BRANCH  64  89
ATOM     89  C   UNL A   1      46.477  33.168  28.319  1.00  0.00     0.058 A 
ATOM     90  C   UNL A   1      46.289  34.181  27.367  1.00  0.00     0.135 A 
ATOM     91  C   UNL A   1      46.827  33.546  29.625  1.00  0.00     0.135 A 
ATOM     92  F   UNL A   1      45.961  33.869  26.103  1.00  0.00    -0.206 F 
ATOM     93  C   UNL A   1      46.450  35.523  27.697  1.00  0.00     0.059 A 
ATOM     94  C   UNL A   1      46.972  34.883  29.982  1.00  0.00     0.059 A 
ATOM     95  F   UNL A   1      47.009  32.614  30.574  1.00  0.00    -0.206 F 
ATOM     96  C   UNL A   1      46.787  35.864  29.009  1.00  0.00     0.060 A 
BRANCH  96  97
ATOM     97  S   UNL A   1      46.935  37.612  29.438  1.00  0.00     0.124 S 
ATOM     98  O   UNL A   1      45.786  37.796  30.319  1.00  0.00    -0.237 OA
ATOM     99  O   UNL A   1      48.244  37.667  30.081  1.00  0.00    -0.237 OA
ATOM    100  O   UNL A   1      46.850  38.287  28.146  1.00  0.00    -0.744 OA
ENDBRANCH  96  97
ENDBRANCH  64  89
ENDBRANCH  38  39
ENDBRANCH  30  33
ENDBRANCH  28  29
ENDBRANCH  27  28
ENDBRANCH  26  27
ENDBRANCH  25  26
ENDBRANCH   1  25
TORSDOF 22
ENDMDL
MODEL 3
REMARK VINA RESULT:      -9.2      6.380      9.110
REMARK SMILES COC(=O)[C@@H]([NH2+]CC(C)(C)C(=O)NCCCCCCNC(=O)c1ccc(-c2c3nc(c(-c4c(F)cc(S(=O)(=O)[O-])cc4F)c4ccc([nH]4)c(-c4c(F)cc(S(=O)(=O)[O-])cc4F)c4nc(c(-c5c(F)cc(S(=O)(=O)[O-])cc5F)c5ccc2[nH]5)C=C4)C=C3)cc1)c1ccccc1
REMARK SMILES IDX 15 1 14 2 13 3 11 4 12 5 8 7 9 8 10 9 7 10 6 11 5 14 3 15
REMARK SMILES IDX 4 16 2 17 1 18 89 19 90 20 94 21 91 22 93 23 92 24 16 25
REMARK SMILES IDX 17 26 18 27 19 28 20 29 21 30 22 32 23 33 24 34 88 35 25 36
REMARK SMILES IDX 87 37 26 38 27 39 28 40 81 41 29 42 86 43 80 44 82 45 30 46
REMARK SMILES IDX 85 47 79 48 78 49 31 51 65 52 44 53 64 54 45 55 48 56 63 57
REMARK SMILES IDX 83 58 46 59 47 60 62 62 84 63 49 64 32 65 33 66 42 67 34 68
REMARK SMILES IDX 35 69 41 70 43 71 36 72 37 73 38 74 39 75 40 76 66 77 67 78
REMARK SMILES IDX 76 79 68 80 69 81 75 82 77 83 70 84 71 85 72 86 73 87 74 88
REMARK SMILES IDX 50 89 51 90 60 91 52 92 53 93 59 94 61 95 54 96 55 97 56 98
REMARK SMILES IDX 57 99 58 100
REMARK H PARENT 13 6 6 12 6 13 20 31 82 50 48 61
REMARK Flexibility Score: inf
ROOT
ATOM      1  C   UNL A   1      40.395  20.479  26.730  1.00  0.00     0.021 C 
ENDROOT
BRANCH   1   2
ATOM      2  C   UNL A   1      39.812  21.536  25.782  1.00  0.00     0.116 C 
BRANCH   2   3
ATOM      3  N   UNL A   1      38.771  22.298  26.440  1.00  0.00    -0.355 N 
ATOM      4  C   UNL A   1      37.663  22.849  25.882  1.00  0.00     0.231 C 
ATOM      5  O   UNL A   1      37.498  24.045  26.126  1.00  0.00    -0.274 OA
ATOM      6  H   UNL A   1      38.879  22.433  27.409  1.00  0.00     0.163 HD
BRANCH   4   7
ATOM      7  C   UNL A   1      36.701  22.044  24.996  1.00  0.00     0.092 C 
ATOM      8  C   UNL A   1      37.045  20.545  25.000  1.00  0.00     0.027 C 
ATOM      9  C   UNL A   1      36.775  22.597  23.558  1.00  0.00     0.027 C 
BRANCH   7  10
ATOM     10  C   UNL A   1      35.214  22.251  25.472  1.00  0.00     0.277 C 
BRANCH  10  11
ATOM     11  N   UNL A   1      34.301  23.137  24.722  1.00  0.00    -0.330 N 
ATOM     12  H   UNL A   1      34.270  24.039  25.198  1.00  0.00     0.347 HD
ATOM     13  H   UNL A   1      34.670  23.196  23.773  1.00  0.00     0.347 HD
BRANCH  11  14
ATOM     14  C   UNL A   1      32.904  22.631  24.600  1.00  0.00     0.324 C 
BRANCH  14  15
ATOM     15  C   UNL A   1      32.020  23.270  25.697  1.00  0.00     0.369 C 
ATOM     16  O   UNL A   1      32.388  23.401  26.864  1.00  0.00    -0.245 OA
BRANCH  15  17
ATOM     17  O   UNL A   1      30.771  23.604  25.260  1.00  0.00    -0.464 OA
ATOM     18  C   UNL A   1      30.636  24.970  24.870  1.00  0.00     0.282 C 
ENDBRANCH  15  17
ENDBRANCH  14  15
BRANCH  14  19
ATOM     19  C   UNL A   1      32.790  21.108  24.543  1.00  0.00     0.021 A 
ATOM     20  C   UNL A   1      32.529  20.478  23.311  1.00  0.00     0.010 A 
ATOM     21  C   UNL A   1      32.986  20.290  25.665  1.00  0.00     0.010 A 
ATOM     22  C   UNL A   1      32.489  19.089  23.197  1.00  0.00     0.001 A 
ATOM     23  C   UNL A   1      32.906  18.897  25.560  1.00  0.00     0.001 A 
ATOM     24  C   UNL A   1      32.669  18.297  24.325  1.00  0.00     0.000 A 
ENDBRANCH  14  19
ENDBRANCH  11  14
ENDBRANCH  10  11
ENDBRANCH   7  10
ENDBRANCH   4   7
ENDBRANCH   2   3
ENDBRANCH   1   2
BRANCH   1  25
ATOM     25  C   UNL A   1      41.857  20.703  27.153  1.00  0.00     0.002 C 
BRANCH  25  26
ATOM     26  C   UNL A   1      42.148  21.981  27.947  1.00  0.00     0.002 C 
BRANCH  26  27
ATOM     27  C   UNL A   1      43.411  22.737  27.536  1.00  0.00     0.021 C 
BRANCH  27  28
ATOM     28  C   UNL A   1      43.228  24.237  27.371  1.00  0.00     0.116 C 
BRANCH  28  29
ATOM     29  N   UNL A   1      42.483  24.579  26.171  1.00  0.00    -0.352 N 
ATOM     30  C   UNL A   1      41.478  25.508  26.040  1.00  0.00     0.251 C 
ATOM     31  H   UNL A   1      42.727  24.086  25.353  1.00  0.00     0.163 HD
ATOM     32  O   UNL A   1      40.828  25.586  25.001  1.00  0.00    -0.269 OA
BRANCH  30  33
ATOM     33  C   UNL A   1      41.171  26.390  27.185  1.00  0.00     0.039 A 
ATOM     34  C   UNL A   1      40.244  25.969  28.141  1.00  0.00     0.014 A 
ATOM     35  C   UNL A   1      41.849  27.603  27.341  1.00  0.00     0.014 A 
ATOM     36  C   UNL A   1      40.044  26.737  29.291  1.00  0.00     0.010 A 
ATOM     37  C   UNL A   1      41.699  28.329  28.518  1.00  0.00     0.010 A 
ATOM     38  C   UNL A   1      40.793  27.905  29.502  1.00  0.00    -0.014 A 
BRANCH  38  39
ATOM     39  C   UNL A   1      40.638  28.717  30.737  1.00  0.00     0.031 A 
ATOM     40  C   UNL A   1      39.607  29.812  30.778  1.00  0.00     0.074 A 
ATOM     41  C   UNL A   1      41.467  28.526  31.781  1.00  0.00     0.049 A 
ATOM     42  N   UNL A   1      39.393  30.712  31.702  1.00  0.00    -0.248 NA
ATOM     43  C   UNL A   1      38.716  29.927  29.611  1.00  0.00     0.031 C 
ATOM     44  C   UNL A   1      42.531  27.520  31.847  1.00  0.00     0.029 A 
ATOM     45  N   UNL A   1      41.557  29.180  32.985  1.00  0.00    -0.354 N 
ATOM     46  C   UNL A   1      38.360  31.508  31.222  1.00  0.00     0.074 A 
ATOM     47  C   UNL A   1      38.025  31.017  29.904  1.00  0.00     0.031 C 
ATOM     48  C   UNL A   1      43.154  27.615  33.034  1.00  0.00     0.029 A 
ATOM     49  C   UNL A   1      42.562  28.710  33.796  1.00  0.00     0.049 A 
ATOM     50  H   UNL A   1      40.957  29.917  33.242  1.00  0.00     0.167 HD
ATOM     51  C   UNL A   1      37.734  32.542  31.834  1.00  0.00     0.037 A 
ATOM     52  C   UNL A   1      42.968  29.124  35.014  1.00  0.00     0.037 A 
ATOM     53  C   UNL A   1      38.050  33.004  33.158  1.00  0.00     0.049 A 
ATOM     54  C   UNL A   1      42.258  30.276  35.672  1.00  0.00     0.074 A 
ATOM     55  C   UNL A   1      37.443  34.013  33.885  1.00  0.00     0.029 A 
ATOM     56  N   UNL A   1      39.054  32.482  33.960  1.00  0.00    -0.354 N 
ATOM     57  N   UNL A   1      41.257  30.993  35.219  1.00  0.00    -0.248 NA
ATOM     58  C   UNL A   1      42.727  30.674  37.007  1.00  0.00     0.031 C 
ATOM     59  C   UNL A   1      38.101  34.122  35.114  1.00  0.00     0.029 A 
ATOM     60  C   UNL A   1      39.091  33.154  35.169  1.00  0.00     0.049 A 
ATOM     61  H   UNL A   1      39.652  31.743  33.706  1.00  0.00     0.167 HD
ATOM     62  C   UNL A   1      40.958  31.906  36.225  1.00  0.00     0.074 A 
ATOM     63  C   UNL A   1      41.880  31.649  37.312  1.00  0.00     0.031 C 
ATOM     64  C   UNL A   1      40.005  32.869  36.247  1.00  0.00     0.037 A 
BRANCH  51  65
ATOM     65  C   UNL A   1      36.636  33.234  31.075  1.00  0.00     0.058 A 
ATOM     66  C   UNL A   1      36.915  34.067  29.980  1.00  0.00     0.135 A 
ATOM     67  C   UNL A   1      35.292  33.044  31.429  1.00  0.00     0.135 A 
ATOM     68  F   UNL A   1      38.185  34.296  29.610  1.00  0.00    -0.206 F 
ATOM     69  C   UNL A   1      35.901  34.711  29.280  1.00  0.00     0.059 A 
ATOM     70  C   UNL A   1      34.259  33.658  30.726  1.00  0.00     0.059 A 
ATOM     71  F   UNL A   1      34.970  32.259  32.470  1.00  0.00    -0.206 F 
ATOM     72  C   UNL A   1      34.575  34.502  29.663  1.00  0.00     0.060 A 
BRANCH  72  73
ATOM     73  S   UNL A   1      33.269  35.345  28.745  1.00  0.00     0.124 S 
ATOM     74  O   UNL A   1      32.479  35.921  29.830  1.00  0.00    -0.237 OA
ATOM     75  O   UNL A   1      34.020  36.299  27.935  1.00  0.00    -0.237 OA
ATOM     76  O   UNL A   1      32.624  34.266  28.003  1.00  0.00    -0.744 OA
ENDBRANCH  72  73
ENDBRANCH  51  65
BRANCH  52  77
ATOM     77  C   UNL A   1      44.092  28.433  35.700  1.00  0.00     0.058 A 
ATOM     78  C   UNL A   1      43.860  27.303  36.499  1.00  0.00     0.135 A 
ATOM     79  C   UNL A   1      45.415  28.883  35.572  1.00  0.00     0.135 A 
ATOM     80  F   UNL A   1      42.610  26.839  36.655  1.00  0.00    -0.206 F 
ATOM     81  C   UNL A   1      44.896  26.653  37.161  1.00  0.00     0.059 A 
ATOM     82  C   UNL A   1      46.472  28.237  36.208  1.00  0.00     0.059 A 
ATOM     83  F   UNL A   1      45.692  29.950  34.807  1.00  0.00    -0.206 F 
ATOM     84  C   UNL A   1      46.200  27.129  37.010  1.00  0.00     0.060 A 
BRANCH  84  85
ATOM     85  S   UNL A   1      47.543  26.255  37.842  1.00  0.00     0.124 S 
ATOM     86  O   UNL A   1      46.976  24.919  37.993  1.00  0.00    -0.237 OA
ATOM     87  O   UNL A   1      48.635  26.381  36.882  1.00  0.00    -0.237 OA
ATOM     88  O   UNL A   1      47.717  27.011  39.079  1.00  0.00    -0.744 OA
ENDBRANCH  84  85
ENDBRANCH  52  77
BRANCH  64  89
ATOM     89  C   UNL A   1      39.875  33.690  37.498  1.00  0.00     0.058 A 
ATOM     90  C   UNL A   1      39.026  33.305  38.546  1.00  0.00     0.135 A 
ATOM     91  C   UNL A   1      40.670  34.833  37.680  1.00  0.00     0.135 A 
ATOM     92  F   UNL A   1      38.241  32.224  38.417  1.00  0.00    -0.206 F 
ATOM     93  C   UNL A   1      38.962  34.031  39.731  1.00  0.00     0.059 A 
ATOM     94  C   UNL A   1      40.640  35.562  38.865  1.00  0.00     0.059 A 
ATOM     95  F   UNL A   1      41.506  35.237  36.710  1.00  0.00    -0.206 F 
ATOM     96  C   UNL A   1      39.777  35.155  39.882  1.00  0.00     0.060 A 
BRANCH  96  97
ATOM     97  S   UNL A   1      39.729  36.055  41.447  1.00  0.00     0.124 S 
ATOM     98  O   UNL A   1      38.297  36.074  41.731  1.00  0.00    -0.237 OA
ATOM     99  O   UNL A   1      40.537  35.210  42.320  1.00  0.00    -0.237 OA
ATOM    100  O   UNL A   1      40.320  37.348  41.114  1.00  0.00    -0.744 OA
ENDBRANCH  96  97
ENDBRANCH  64  89
ENDBRANCH  38  39
ENDBRANCH  30  33
ENDBRANCH  28  29
ENDBRANCH  27  28
ENDBRANCH  26  27
ENDBRANCH  25  26
ENDBRANCH   1  25
TORSDOF 22
ENDMDL
