MODEL 1
REMARK VINA RESULT:      -9.2      0.000      0.000
REMARK SMILES CCCC[C@H](C(=O)OC)[C@H](O)C(=O)NCCCCCCNC(=O)c1ccc(-c2c3nc(c(-c4c(F)cc(S(=O)(=O)[O-])cc4F)c4ccc([nH]4)c(-c4c(F)cc(S(=O)(=O)[O-])cc4F)c4nc(c(-c5c(F)cc(S(=O)(=O)[O-])cc5F)c5ccc2[nH]5)C=C4)C=C3)cc1
REMARK SMILES IDX 17 1 16 2 15 3 14 4 12 5 13 6 10 8 5 9 4 10 3 11 2 12 1 13
REMARK SMILES IDX 6 14 7 15 8 16 9 17 11 18 18 20 19 21 20 22 21 23 22 24
REMARK SMILES IDX 23 26 24 27 25 28 89 29 26 30 88 31 27 32 28 33 29 34 82 35
REMARK SMILES IDX 30 36 87 37 81 38 83 39 31 40 86 41 80 42 79 43 32 45 66 46
REMARK SMILES IDX 45 47 65 48 46 49 49 50 64 51 84 52 47 53 48 54 63 56 85 57
REMARK SMILES IDX 50 58 33 59 34 60 43 61 35 62 36 63 42 64 44 65 37 66 38 67
REMARK SMILES IDX 39 68 40 69 41 70 67 71 68 72 77 73 69 74 70 75 76 76 78 77
REMARK SMILES IDX 71 78 72 79 73 80 74 81 75 82 51 83 52 84 61 85 53 86 54 87
REMARK SMILES IDX 60 88 62 89 55 90 56 91 57 92 58 93 59 94
REMARK H PARENT 14 7 11 19 21 25 83 44 49 55
REMARK Flexibility Score: inf
ROOT
ATOM      1  C   UNL A   1      31.665  28.676  25.819  1.00  0.00     0.002 C 
ENDROOT
BRANCH   1   2
ATOM      2  C   UNL A   1      31.232  29.191  24.442  1.00  0.00     0.021 C 
BRANCH   2   3
ATOM      3  C   UNL A   1      30.425  28.185  23.629  1.00  0.00     0.116 C 
BRANCH   3   4
ATOM      4  N   UNL A   1      31.237  27.582  22.588  1.00  0.00    -0.354 N 
ATOM      5  C   UNL A   1      31.683  26.305  22.417  1.00  0.00     0.249 C 
ATOM      6  O   UNL A   1      32.392  26.073  21.433  1.00  0.00    -0.272 OA
ATOM      7  H   UNL A   1      31.515  28.206  21.879  1.00  0.00     0.163 HD
BRANCH   5   8
ATOM      8  C   UNL A   1      31.290  25.183  23.404  1.00  0.00     0.217 C 
BRANCH   8   9
ATOM      9  C   UNL A   1      32.304  25.089  24.565  1.00  0.00     0.137 C 
BRANCH   9  10
ATOM     10  C   UNL A   1      33.494  24.131  24.326  1.00  0.00     0.018 C 
BRANCH  10  11
ATOM     11  C   UNL A   1      34.805  24.626  24.962  1.00  0.00     0.001 C 
BRANCH  11  12
ATOM     12  C   UNL A   1      35.506  23.641  25.901  1.00  0.00    -0.003 C 
ATOM     13  C   UNL A   1      37.008  23.847  25.983  1.00  0.00     0.004 C 
ENDBRANCH  11  12
ENDBRANCH  10  11
ENDBRANCH   9  10
BRANCH   9  14
ATOM     14  C   UNL A   1      31.507  24.701  25.803  1.00  0.00     0.311 C 
ATOM     15  O   UNL A   1      31.441  25.342  26.843  1.00  0.00    -0.252 OA
BRANCH  14  16
ATOM     16  O   UNL A   1      30.888  23.507  25.585  1.00  0.00    -0.469 OA
ATOM     17  C   UNL A   1      30.266  22.914  26.726  1.00  0.00     0.282 C 
ENDBRANCH  14  16
ENDBRANCH   9  14
ENDBRANCH   8   9
BRANCH   8  18
ATOM     18  O   UNL A   1      31.047  23.949  22.733  1.00  0.00    -0.382 OA
ATOM     19  H   UNL A   1      30.157  23.962  22.345  1.00  0.00     0.211 HD
ENDBRANCH   8  18
ENDBRANCH   5   8
ENDBRANCH   3   4
ENDBRANCH   2   3
ENDBRANCH   1   2
BRANCH   1  20
ATOM     20  C   UNL A   1      32.906  29.359  26.405  1.00  0.00     0.002 C 
BRANCH  20  21
ATOM     21  C   UNL A   1      34.005  28.408  26.882  1.00  0.00     0.021 C 
BRANCH  21  22
ATOM     22  C   UNL A   1      35.322  29.088  27.239  1.00  0.00     0.116 C 
BRANCH  22  23
ATOM     23  N   UNL A   1      35.226  29.848  28.474  1.00  0.00    -0.352 N 
ATOM     24  C   UNL A   1      36.192  30.092  29.418  1.00  0.00     0.251 C 
ATOM     25  H   UNL A   1      34.344  30.245  28.659  1.00  0.00     0.163 HD
ATOM     26  O   UNL A   1      35.880  30.590  30.495  1.00  0.00    -0.269 OA
BRANCH  24  27
ATOM     27  C   UNL A   1      37.600  29.736  29.141  1.00  0.00     0.039 A 
ATOM     28  C   UNL A   1      38.066  29.797  27.825  1.00  0.00     0.014 A 
ATOM     29  C   UNL A   1      38.455  29.326  30.170  1.00  0.00     0.014 A 
ATOM     30  C   UNL A   1      39.398  29.486  27.549  1.00  0.00     0.010 A 
ATOM     31  C   UNL A   1      39.802  29.096  29.903  1.00  0.00     0.010 A 
ATOM     32  C   UNL A   1      40.285  29.156  28.588  1.00  0.00    -0.014 A 
BRANCH  32  33
ATOM     33  C   UNL A   1      41.708  28.828  28.308  1.00  0.00     0.031 A 
ATOM     34  C   UNL A   1      42.101  27.410  27.982  1.00  0.00     0.074 A 
ATOM     35  C   UNL A   1      42.646  29.793  28.380  1.00  0.00     0.049 A 
ATOM     36  N   UNL A   1      43.292  26.912  27.769  1.00  0.00    -0.248 NA
ATOM     37  C   UNL A   1      41.017  26.417  27.913  1.00  0.00     0.031 C 
ATOM     38  C   UNL A   1      42.397  31.194  28.730  1.00  0.00     0.029 A 
ATOM     39  N   UNL A   1      44.001  29.742  28.170  1.00  0.00    -0.354 N 
ATOM     40  C   UNL A   1      43.098  25.554  27.536  1.00  0.00     0.074 A 
ATOM     41  C   UNL A   1      41.687  25.292  27.710  1.00  0.00     0.031 C 
ATOM     42  C   UNL A   1      43.556  31.871  28.693  1.00  0.00     0.029 A 
ATOM     43  C   UNL A   1      44.635  30.949  28.354  1.00  0.00     0.049 A 
ATOM     44  H   UNL A   1      44.476  28.920  27.911  1.00  0.00     0.167 HD
ATOM     45  C   UNL A   1      44.007  24.618  27.173  1.00  0.00     0.037 A 
ATOM     46  C   UNL A   1      45.941  31.273  28.268  1.00  0.00     0.037 A 
ATOM     47  C   UNL A   1      45.409  24.886  26.985  1.00  0.00     0.049 A 
ATOM     48  C   UNL A   1      46.934  30.209  27.877  1.00  0.00     0.074 A 
ATOM     49  C   UNL A   1      46.411  24.008  26.610  1.00  0.00     0.029 A 
ATOM     50  N   UNL A   1      46.006  26.128  27.148  1.00  0.00    -0.354 N 
ATOM     51  N   UNL A   1      46.726  28.938  27.626  1.00  0.00    -0.248 NA
ATOM     52  C   UNL A   1      48.336  30.625  27.740  1.00  0.00     0.031 C 
ATOM     53  C   UNL A   1      47.620  24.711  26.579  1.00  0.00     0.029 A 
ATOM     54  C   UNL A   1      47.362  26.039  26.881  1.00  0.00     0.049 A 
ATOM     55  H   UNL A   1      45.535  26.950  27.414  1.00  0.00     0.167 HD
ATOM     56  C   UNL A   1      47.962  28.414  27.260  1.00  0.00     0.074 A 
ATOM     57  C   UNL A   1      48.908  29.509  27.312  1.00  0.00     0.031 C 
ATOM     58  C   UNL A   1      48.286  27.145  26.911  1.00  0.00     0.037 A 
BRANCH  45  59
ATOM     59  C   UNL A   1      43.508  23.219  26.928  1.00  0.00     0.058 A 
ATOM     60  C   UNL A   1      43.429  22.689  25.629  1.00  0.00     0.135 A 
ATOM     61  C   UNL A   1      43.155  22.381  27.998  1.00  0.00     0.135 A 
ATOM     62  F   UNL A   1      43.735  23.452  24.568  1.00  0.00    -0.206 F 
ATOM     63  C   UNL A   1      42.999  21.387  25.399  1.00  0.00     0.059 A 
ATOM     64  C   UNL A   1      42.751  21.064  27.792  1.00  0.00     0.059 A 
ATOM     65  F   UNL A   1      43.208  22.836  29.260  1.00  0.00    -0.206 F 
ATOM     66  C   UNL A   1      42.667  20.581  26.487  1.00  0.00     0.060 A 
BRANCH  66  67
ATOM     67  S   UNL A   1      42.138  18.884  26.168  1.00  0.00     0.124 S 
ATOM     68  O   UNL A   1      43.064  18.484  25.112  1.00  0.00    -0.237 OA
ATOM     69  O   UNL A   1      42.342  18.246  27.463  1.00  0.00    -0.237 OA
ATOM     70  O   UNL A   1      40.746  19.033  25.757  1.00  0.00    -0.744 OA
ENDBRANCH  66  67
ENDBRANCH  45  59
BRANCH  46  71
ATOM     71  C   UNL A   1      46.391  32.664  28.549  1.00  0.00     0.058 A 
ATOM     72  C   UNL A   1      46.744  33.067  29.846  1.00  0.00     0.135 A 
ATOM     73  C   UNL A   1      46.445  33.629  27.531  1.00  0.00     0.135 A 
ATOM     74  F   UNL A   1      46.709  32.185  30.856  1.00  0.00    -0.206 F 
ATOM     75  C   UNL A   1      47.091  34.385  30.132  1.00  0.00     0.059 A 
ATOM     76  C   UNL A   1      46.820  34.944  27.786  1.00  0.00     0.059 A 
ATOM     77  F   UNL A   1      46.140  33.292  26.267  1.00  0.00    -0.206 F 
ATOM     78  C   UNL A   1      47.120  35.317  29.095  1.00  0.00     0.060 A 
BRANCH  78  79
ATOM     79  S   UNL A   1      47.572  37.024  29.474  1.00  0.00     0.124 S 
ATOM     80  O   UNL A   1      48.855  36.845  30.142  1.00  0.00    -0.237 OA
ATOM     81  O   UNL A   1      47.620  37.631  28.147  1.00  0.00    -0.237 OA
ATOM     82  O   UNL A   1      46.475  37.480  30.323  1.00  0.00    -0.744 OA
ENDBRANCH  78  79
ENDBRANCH  46  71
BRANCH  58  83
ATOM     83  C   UNL A   1      49.706  26.882  26.489  1.00  0.00     0.058 A 
ATOM     84  C   UNL A   1      50.710  26.550  27.410  1.00  0.00     0.135 A 
ATOM     85  C   UNL A   1      50.057  26.935  25.129  1.00  0.00     0.135 A 
ATOM     86  F   UNL A   1      50.431  26.489  28.722  1.00  0.00    -0.206 F 
ATOM     87  C   UNL A   1      52.021  26.320  27.004  1.00  0.00     0.059 A 
ATOM     88  C   UNL A   1      51.353  26.676  24.697  1.00  0.00     0.059 A 
ATOM     89  F   UNL A   1      49.132  27.234  24.202  1.00  0.00    -0.206 F 
ATOM     90  C   UNL A   1      52.333  26.386  25.645  1.00  0.00     0.060 A 
BRANCH  90  91
ATOM     91  S   UNL A   1      54.035  26.074  25.131  1.00  0.00     0.124 S 
ATOM     92  O   UNL A   1      53.886  25.948  23.685  1.00  0.00    -0.237 OA
ATOM     93  O   UNL A   1      54.726  27.273  25.597  1.00  0.00    -0.237 OA
ATOM     94  O   UNL A   1      54.383  24.844  25.837  1.00  0.00    -0.744 OA
ENDBRANCH  90  91
ENDBRANCH  58  83
ENDBRANCH  32  33
ENDBRANCH  24  27
ENDBRANCH  22  23
ENDBRANCH  21  22
ENDBRANCH  20  21
ENDBRANCH   1  20
TORSDOF 23
ENDMDL
MODEL 2
REMARK VINA RESULT:      -9.0      6.767     11.485
REMARK SMILES CCCC[C@H](C(=O)OC)[C@H](O)C(=O)NCCCCCCNC(=O)c1ccc(-c2c3nc(c(-c4c(F)cc(S(=O)(=O)[O-])cc4F)c4ccc([nH]4)c(-c4c(F)cc(S(=O)(=O)[O-])cc4F)c4nc(c(-c5c(F)cc(S(=O)(=O)[O-])cc5F)c5ccc2[nH]5)C=C4)C=C3)cc1
REMARK SMILES IDX 17 1 16 2 15 3 14 4 12 5 13 6 10 8 5 9 4 10 3 11 2 12 1 13
REMARK SMILES IDX 6 14 7 15 8 16 9 17 11 18 18 20 19 21 20 22 21 23 22 24
REMARK SMILES IDX 23 26 24 27 25 28 89 29 26 30 88 31 27 32 28 33 29 34 82 35
REMARK SMILES IDX 30 36 87 37 81 38 83 39 31 40 86 41 80 42 79 43 32 45 66 46
REMARK SMILES IDX 45 47 65 48 46 49 49 50 64 51 84 52 47 53 48 54 63 56 85 57
REMARK SMILES IDX 50 58 33 59 34 60 43 61 35 62 36 63 42 64 44 65 37 66 38 67
REMARK SMILES IDX 39 68 40 69 41 70 67 71 68 72 77 73 69 74 70 75 76 76 78 77
REMARK SMILES IDX 71 78 72 79 73 80 74 81 75 82 51 83 52 84 61 85 53 86 54 87
REMARK SMILES IDX 60 88 62 89 55 90 56 91 57 92 58 93 59 94
REMARK H PARENT 14 7 11 19 21 25 83 44 49 55
REMARK Flexibility Score: inf
ROOT
ATOM      1  C   UNL A   1      37.166  23.411  24.771  1.00  0.00     0.002 C 
ENDROOT
BRANCH   1   2
ATOM      2  C   UNL A   1      35.682  23.623  25.091  1.00  0.00     0.021 C 
BRANCH   2   3
ATOM      3  C   UNL A   1      34.825  23.945  23.873  1.00  0.00     0.116 C 
BRANCH   3   4
ATOM      4  N   UNL A   1      33.985  22.816  23.512  1.00  0.00    -0.354 N 
ATOM      5  C   UNL A   1      32.632  22.699  23.393  1.00  0.00     0.249 C 
ATOM      6  O   UNL A   1      32.177  21.593  23.089  1.00  0.00    -0.272 OA
ATOM      7  H   UNL A   1      34.481  21.988  23.320  1.00  0.00     0.163 HD
BRANCH   5   8
ATOM      8  C   UNL A   1      31.704  23.917  23.599  1.00  0.00     0.217 C 
BRANCH   8   9
ATOM      9  C   UNL A   1      31.581  24.268  25.099  1.00  0.00     0.137 C 
BRANCH   9  10
ATOM     10  C   UNL A   1      30.885  23.198  25.972  1.00  0.00     0.018 C 
BRANCH  10  11
ATOM     11  C   UNL A   1      31.622  22.927  27.295  1.00  0.00     0.001 C 
BRANCH  11  12
ATOM     12  C   UNL A   1      33.133  22.702  27.183  1.00  0.00    -0.003 C 
ATOM     13  C   UNL A   1      33.506  21.285  26.787  1.00  0.00     0.004 C 
ENDBRANCH  11  12
ENDBRANCH  10  11
ENDBRANCH   9  10
BRANCH   9  14
ATOM     14  C   UNL A   1      30.862  25.609  25.169  1.00  0.00     0.311 C 
ATOM     15  O   UNL A   1      29.692  25.812  24.874  1.00  0.00    -0.252 OA
BRANCH  14  16
ATOM     16  O   UNL A   1      31.734  26.567  25.593  1.00  0.00    -0.469 OA
ATOM     17  C   UNL A   1      31.649  27.824  24.921  1.00  0.00     0.282 C 
ENDBRANCH  14  16
ENDBRANCH   9  14
ENDBRANCH   8   9
BRANCH   8  18
ATOM     18  O   UNL A   1      30.457  23.753  22.928  1.00  0.00    -0.382 OA
ATOM     19  H   UNL A   1      29.759  24.204  23.429  1.00  0.00     0.211 HD
ENDBRANCH   8  18
ENDBRANCH   5   8
ENDBRANCH   3   4
ENDBRANCH   2   3
ENDBRANCH   1   2
BRANCH   1  20
ATOM     20  C   UNL A   1      37.775  22.127  25.347  1.00  0.00     0.002 C 
BRANCH  20  21
ATOM     21  C   UNL A   1      38.883  22.341  26.379  1.00  0.00     0.021 C 
BRANCH  21  22
ATOM     22  C   UNL A   1      39.373  23.780  26.495  1.00  0.00     0.116 C 
BRANCH  22  23
ATOM     23  N   UNL A   1      40.711  23.946  25.953  1.00  0.00    -0.352 N 
ATOM     24  C   UNL A   1      41.632  24.931  26.209  1.00  0.00     0.251 C 
ATOM     25  H   UNL A   1      40.998  23.255  25.314  1.00  0.00     0.163 HD
ATOM     26  O   UNL A   1      42.639  25.019  25.513  1.00  0.00    -0.269 OA
BRANCH  24  27
ATOM     27  C   UNL A   1      41.400  25.890  27.310  1.00  0.00     0.039 A 
ATOM     28  C   UNL A   1      40.446  25.584  28.282  1.00  0.00     0.014 A 
ATOM     29  C   UNL A   1      42.106  27.096  27.375  1.00  0.00     0.014 A 
ATOM     30  C   UNL A   1      40.229  26.468  29.341  1.00  0.00     0.010 A 
ATOM     31  C   UNL A   1      41.946  27.937  28.473  1.00  0.00     0.010 A 
ATOM     32  C   UNL A   1      40.994  27.641  29.459  1.00  0.00    -0.014 A 
BRANCH  32  33
ATOM     33  C   UNL A   1      40.778  28.589  30.584  1.00  0.00     0.031 A 
ATOM     34  C   UNL A   1      41.594  28.457  31.844  1.00  0.00     0.074 A 
ATOM     35  C   UNL A   1      39.831  29.544  30.486  1.00  0.00     0.049 A 
ATOM     36  N   UNL A   1      41.514  29.143  32.955  1.00  0.00    -0.248 NA
ATOM     37  C   UNL A   1      42.616  27.397  31.868  1.00  0.00     0.031 C 
ATOM     38  C   UNL A   1      38.945  29.744  29.336  1.00  0.00     0.029 A 
ATOM     39  N   UNL A   1      39.447  30.519  31.371  1.00  0.00    -0.354 N 
ATOM     40  C   UNL A   1      42.475  28.602  33.804  1.00  0.00     0.074 A 
ATOM     41  C   UNL A   1      43.071  27.483  33.109  1.00  0.00     0.031 C 
ATOM     42  C   UNL A   1      38.137  30.788  29.579  1.00  0.00     0.029 A 
ATOM     43  C   UNL A   1      38.417  31.308  30.913  1.00  0.00     0.049 A 
ATOM     44  H   UNL A   1      39.869  30.644  32.252  1.00  0.00     0.167 HD
ATOM     45  C   UNL A   1      42.852  29.022  35.035  1.00  0.00     0.037 A 
ATOM     46  C   UNL A   1      37.767  32.329  31.507  1.00  0.00     0.037 A 
ATOM     47  C   UNL A   1      42.266  30.147  35.716  1.00  0.00     0.049 A 
ATOM     48  C   UNL A   1      38.197  32.767  32.884  1.00  0.00     0.074 A 
ATOM     49  C   UNL A   1      42.584  30.660  36.962  1.00  0.00     0.029 A 
ATOM     50  N   UNL A   1      41.250  30.941  35.205  1.00  0.00    -0.354 N 
ATOM     51  N   UNL A   1      39.132  32.265  33.655  1.00  0.00    -0.248 NA
ATOM     52  C   UNL A   1      37.496  33.921  33.463  1.00  0.00     0.031 C 
ATOM     53  C   UNL A   1      41.736  31.742  37.220  1.00  0.00     0.029 A 
ATOM     54  C   UNL A   1      40.928  31.938  36.111  1.00  0.00     0.049 A 
ATOM     55  H   UNL A   1      40.821  30.814  34.329  1.00  0.00     0.167 HD
ATOM     56  C   UNL A   1      39.159  33.068  34.791  1.00  0.00     0.074 A 
ATOM     57  C   UNL A   1      38.156  34.094  34.599  1.00  0.00     0.031 C 
ATOM     58  C   UNL A   1      39.945  32.969  35.893  1.00  0.00     0.037 A 
BRANCH  45  59
ATOM     59  C   UNL A   1      43.971  28.279  35.713  1.00  0.00     0.058 A 
ATOM     60  C   UNL A   1      43.714  27.200  36.576  1.00  0.00     0.135 A 
ATOM     61  C   UNL A   1      45.312  28.609  35.463  1.00  0.00     0.135 A 
ATOM     62  F   UNL A   1      42.450  26.853  36.867  1.00  0.00    -0.206 F 
ATOM     63  C   UNL A   1      44.745  26.488  37.180  1.00  0.00     0.059 A 
ATOM     64  C   UNL A   1      46.361  27.890  36.033  1.00  0.00     0.059 A 
ATOM     65  F   UNL A   1      45.617  29.633  34.650  1.00  0.00    -0.206 F 
ATOM     66  C   UNL A   1      46.065  26.838  36.899  1.00  0.00     0.060 A 
BRANCH  66  67
ATOM     67  S   UNL A   1      47.388  25.884  37.671  1.00  0.00     0.124 S 
ATOM     68  O   UNL A   1      47.437  24.705  36.812  1.00  0.00    -0.237 OA
ATOM     69  O   UNL A   1      48.526  26.791  37.568  1.00  0.00    -0.237 OA
ATOM     70  O   UNL A   1      46.895  25.652  39.025  1.00  0.00    -0.744 OA
ENDBRANCH  66  67
ENDBRANCH  45  59
BRANCH  46  71
ATOM     71  C   UNL A   1      36.646  33.015  30.808  1.00  0.00     0.058 A 
ATOM     72  C   UNL A   1      36.884  33.907  29.751  1.00  0.00     0.135 A 
ATOM     73  C   UNL A   1      35.315  32.817  31.205  1.00  0.00     0.135 A 
ATOM     74  F   UNL A   1      38.139  34.133  29.332  1.00  0.00    -0.206 F 
ATOM     75  C   UNL A   1      35.848  34.611  29.143  1.00  0.00     0.059 A 
ATOM     76  C   UNL A   1      34.259  33.484  30.591  1.00  0.00     0.059 A 
ATOM     77  F   UNL A   1      35.028  31.957  32.195  1.00  0.00    -0.206 F 
ATOM     78  C   UNL A   1      34.539  34.397  29.575  1.00  0.00     0.060 A 
BRANCH  78  79
ATOM     79  S   UNL A   1      33.201  35.313  28.781  1.00  0.00     0.124 S 
ATOM     80  O   UNL A   1      33.942  36.310  28.018  1.00  0.00    -0.237 OA
ATOM     81  O   UNL A   1      32.537  34.273  28.001  1.00  0.00    -0.237 OA
ATOM     82  O   UNL A   1      32.431  35.827  29.910  1.00  0.00    -0.744 OA
ENDBRANCH  78  79
ENDBRANCH  46  71
BRANCH  58  83
ATOM     83  C   UNL A   1      39.802  34.035  36.945  1.00  0.00     0.058 A 
ATOM     84  C   UNL A   1      39.099  33.817  38.139  1.00  0.00     0.135 A 
ATOM     85  C   UNL A   1      40.410  35.289  36.763  1.00  0.00     0.135 A 
ATOM     86  F   UNL A   1      38.496  32.638  38.363  1.00  0.00    -0.206 F 
ATOM     87  C   UNL A   1      38.968  34.817  39.098  1.00  0.00     0.059 A 
ATOM     88  C   UNL A   1      40.321  36.291  37.722  1.00  0.00     0.059 A 
ATOM     89  F   UNL A   1      41.108  35.547  35.645  1.00  0.00    -0.206 F 
ATOM     90  C   UNL A   1      39.582  36.051  38.880  1.00  0.00     0.060 A 
BRANCH  90  91
ATOM     91  S   UNL A   1      39.414  37.336  40.136  1.00  0.00     0.124 S 
ATOM     92  O   UNL A   1      38.857  38.437  39.358  1.00  0.00    -0.237 OA
ATOM     93  O   UNL A   1      38.508  36.715  41.097  1.00  0.00    -0.237 OA
ATOM     94  O   UNL A   1      40.782  37.529  40.609  1.00  0.00    -0.744 OA
ENDBRANCH  90  91
ENDBRANCH  58  83
ENDBRANCH  32  33
ENDBRANCH  24  27
ENDBRANCH  22  23
ENDBRANCH  21  22
ENDBRANCH  20  21
ENDBRANCH   1  20
TORSDOF 23
ENDMDL
MODEL 3
REMARK VINA RESULT:      -8.9      2.377      8.484
REMARK SMILES CCCC[C@H](C(=O)OC)[C@H](O)C(=O)NCCCCCCNC(=O)c1ccc(-c2c3nc(c(-c4c(F)cc(S(=O)(=O)[O-])cc4F)c4ccc([nH]4)c(-c4c(F)cc(S(=O)(=O)[O-])cc4F)c4nc(c(-c5c(F)cc(S(=O)(=O)[O-])cc5F)c5ccc2[nH]5)C=C4)C=C3)cc1
REMARK SMILES IDX 17 1 16 2 15 3 14 4 12 5 13 6 10 8 5 9 4 10 3 11 2 12 1 13
REMARK SMILES IDX 6 14 7 15 8 16 9 17 11 18 18 20 19 21 20 22 21 23 22 24
REMARK SMILES IDX 23 26 24 27 25 28 89 29 26 30 88 31 27 32 28 33 29 34 82 35
REMARK SMILES IDX 30 36 87 37 81 38 83 39 31 40 86 41 80 42 79 43 32 45 66 46
REMARK SMILES IDX 45 47 65 48 46 49 49 50 64 51 84 52 47 53 48 54 63 56 85 57
REMARK SMILES IDX 50 58 33 59 34 60 43 61 35 62 36 63 42 64 44 65 37 66 38 67
REMARK SMILES IDX 39 68 40 69 41 70 67 71 68 72 77 73 69 74 70 75 76 76 78 77
REMARK SMILES IDX 71 78 72 79 73 80 74 81 75 82 51 83 52 84 61 85 53 86 54 87
REMARK SMILES IDX 60 88 62 89 55 90 56 91 57 92 58 93 59 94
REMARK H PARENT 14 7 11 19 21 25 83 44 49 55
REMARK Flexibility Score: inf
ROOT
ATOM      1  C   UNL A   1      37.049  21.740  25.719  1.00  0.00     0.002 C 
ENDROOT
BRANCH   1   2
ATOM      2  C   UNL A   1      35.561  22.100  25.784  1.00  0.00     0.021 C 
BRANCH   2   3
ATOM      3  C   UNL A   1      34.724  21.485  24.668  1.00  0.00     0.116 C 
BRANCH   3   4
ATOM      4  N   UNL A   1      33.306  21.613  24.947  1.00  0.00    -0.354 N 
ATOM      5  C   UNL A   1      32.367  22.482  24.474  1.00  0.00     0.249 C 
ATOM      6  O   UNL A   1      31.217  22.376  24.910  1.00  0.00    -0.272 OA
ATOM      7  H   UNL A   1      32.959  20.956  25.592  1.00  0.00     0.163 HD
BRANCH   5   8
ATOM      8  C   UNL A   1      32.724  23.541  23.407  1.00  0.00     0.217 C 
BRANCH   8   9
ATOM      9  C   UNL A   1      32.020  24.883  23.705  1.00  0.00     0.137 C 
BRANCH   9  10
ATOM     10  C   UNL A   1      31.473  25.630  22.466  1.00  0.00     0.018 C 
BRANCH  10  11
ATOM     11  C   UNL A   1      30.993  27.057  22.785  1.00  0.00     0.001 C 
BRANCH  11  12
ATOM     12  C   UNL A   1      29.675  27.161  23.558  1.00  0.00    -0.003 C 
ATOM     13  C   UNL A   1      28.810  28.331  23.124  1.00  0.00     0.004 C 
ENDBRANCH  11  12
ENDBRANCH  10  11
ENDBRANCH   9  10
BRANCH   9  14
ATOM     14  C   UNL A   1      33.019  25.731  24.479  1.00  0.00     0.311 C 
ATOM     15  O   UNL A   1      34.021  26.260  24.017  1.00  0.00    -0.252 OA
BRANCH  14  16
ATOM     16  O   UNL A   1      32.640  25.794  25.787  1.00  0.00    -0.469 OA
ATOM     17  C   UNL A   1      32.561  27.106  26.346  1.00  0.00     0.282 C 
ENDBRANCH  14  16
ENDBRANCH   9  14
ENDBRANCH   8   9
BRANCH   8  18
ATOM     18  O   UNL A   1      32.521  23.050  22.084  1.00  0.00    -0.382 OA
ATOM     19  H   UNL A   1      31.695  22.543  22.051  1.00  0.00     0.211 HD
ENDBRANCH   8  18
ENDBRANCH   5   8
ENDBRANCH   3   4
ENDBRANCH   2   3
ENDBRANCH   1   2
BRANCH   1  20
ATOM     20  C   UNL A   1      37.409  20.653  24.699  1.00  0.00     0.002 C 
BRANCH  20  21
ATOM     21  C   UNL A   1      38.404  19.602  25.195  1.00  0.00     0.021 C 
BRANCH  21  22
ATOM     22  C   UNL A   1      39.529  20.154  26.063  1.00  0.00     0.116 C 
BRANCH  22  23
ATOM     23  N   UNL A   1      40.669  19.254  26.116  1.00  0.00    -0.352 N 
ATOM     24  C   UNL A   1      42.006  19.554  26.187  1.00  0.00     0.251 C 
ATOM     25  H   UNL A   1      40.452  18.294  26.099  1.00  0.00     0.163 HD
ATOM     26  O   UNL A   1      42.839  18.668  26.025  1.00  0.00    -0.269 OA
BRANCH  24  27
ATOM     27  C   UNL A   1      42.437  20.946  26.439  1.00  0.00     0.039 A 
ATOM     28  C   UNL A   1      42.627  21.366  27.757  1.00  0.00     0.014 A 
ATOM     29  C   UNL A   1      42.637  21.841  25.382  1.00  0.00     0.014 A 
ATOM     30  C   UNL A   1      43.056  22.669  28.013  1.00  0.00     0.010 A 
ATOM     31  C   UNL A   1      43.141  23.114  25.636  1.00  0.00     0.010 A 
ATOM     32  C   UNL A   1      43.340  23.548  26.954  1.00  0.00    -0.014 A 
BRANCH  32  33
ATOM     33  C   UNL A   1      43.802  24.937  27.211  1.00  0.00     0.031 A 
ATOM     34  C   UNL A   1      45.255  25.291  27.028  1.00  0.00     0.074 A 
ATOM     35  C   UNL A   1      42.926  25.869  27.639  1.00  0.00     0.049 A 
ATOM     36  N   UNL A   1      45.865  26.425  27.258  1.00  0.00    -0.248 NA
ATOM     37  C   UNL A   1      46.146  24.221  26.547  1.00  0.00     0.031 C 
ATOM     38  C   UNL A   1      41.503  25.638  27.898  1.00  0.00     0.029 A 
ATOM     39  N   UNL A   1      43.106  27.195  27.941  1.00  0.00    -0.354 N 
ATOM     40  C   UNL A   1      47.203  26.207  26.947  1.00  0.00     0.074 A 
ATOM     41  C   UNL A   1      47.331  24.812  26.586  1.00  0.00     0.031 C 
ATOM     42  C   UNL A   1      40.936  26.787  28.301  1.00  0.00     0.029 A 
ATOM     43  C   UNL A   1      41.959  27.826  28.367  1.00  0.00     0.049 A 
ATOM     44  H   UNL A   1      43.973  27.653  27.861  1.00  0.00     0.167 HD
ATOM     45  C   UNL A   1      48.226  27.094  26.928  1.00  0.00     0.037 A 
ATOM     46  C   UNL A   1      41.758  29.096  28.772  1.00  0.00     0.037 A 
ATOM     47  C   UNL A   1      48.091  28.486  27.273  1.00  0.00     0.049 A 
ATOM     48  C   UNL A   1      42.917  30.060  28.756  1.00  0.00     0.074 A 
ATOM     49  C   UNL A   1      49.064  29.470  27.277  1.00  0.00     0.029 A 
ATOM     50  N   UNL A   1      46.907  29.092  27.665  1.00  0.00    -0.354 N 
ATOM     51  N   UNL A   1      44.167  29.842  28.423  1.00  0.00    -0.248 NA
ATOM     52  C   UNL A   1      42.634  31.446  29.151  1.00  0.00     0.031 C 
ATOM     53  C   UNL A   1      48.476  30.665  27.705  1.00  0.00     0.029 A 
ATOM     54  C   UNL A   1      47.125  30.437  27.914  1.00  0.00     0.049 A 
ATOM     55  H   UNL A   1      46.041  28.635  27.754  1.00  0.00     0.167 HD
ATOM     56  C   UNL A   1      44.809  31.072  28.529  1.00  0.00     0.074 A 
ATOM     57  C   UNL A   1      43.805  32.030  28.944  1.00  0.00     0.031 C 
ATOM     58  C   UNL A   1      46.109  31.383  28.301  1.00  0.00     0.037 A 
BRANCH  45  59
ATOM     59  C   UNL A   1      49.576  26.594  26.491  1.00  0.00     0.058 A 
ATOM     60  C   UNL A   1      50.448  25.962  27.394  1.00  0.00     0.135 A 
ATOM     61  C   UNL A   1      49.986  26.696  25.152  1.00  0.00     0.135 A 
ATOM     62  F   UNL A   1      50.117  25.855  28.691  1.00  0.00    -0.206 F 
ATOM     63  C   UNL A   1      51.684  25.469  26.990  1.00  0.00     0.059 A 
ATOM     64  C   UNL A   1      51.205  26.181  24.718  1.00  0.00     0.059 A 
ATOM     65  F   UNL A   1      49.194  27.293  24.247  1.00  0.00    -0.206 F 
ATOM     66  C   UNL A   1      52.051  25.579  25.649  1.00  0.00     0.060 A 
BRANCH  66  67
ATOM     67  S   UNL A   1      53.647  24.907  25.139  1.00  0.00     0.124 S 
ATOM     68  O   UNL A   1      53.347  23.481  25.048  1.00  0.00    -0.237 OA
ATOM     69  O   UNL A   1      53.880  25.587  23.870  1.00  0.00    -0.237 OA
ATOM     70  O   UNL A   1      54.542  25.291  26.227  1.00  0.00    -0.744 OA
ENDBRANCH  66  67
ENDBRANCH  45  59
BRANCH  46  71
ATOM     71  C   UNL A   1      40.410  29.537  29.224  1.00  0.00     0.058 A 
ATOM     72  C   UNL A   1      39.378  29.783  28.305  1.00  0.00     0.135 A 
ATOM     73  C   UNL A   1      40.136  29.754  30.583  1.00  0.00     0.135 A 
ATOM     74  F   UNL A   1      39.588  29.592  26.993  1.00  0.00    -0.206 F 
ATOM     75  C   UNL A   1      38.139  30.269  28.711  1.00  0.00     0.059 A 
ATOM     76  C   UNL A   1      38.894  30.209  31.017  1.00  0.00     0.059 A 
ATOM     77  F   UNL A   1      41.079  29.512  31.508  1.00  0.00    -0.206 F 
ATOM     78  C   UNL A   1      37.910  30.485  30.070  1.00  0.00     0.060 A 
BRANCH  78  79
ATOM     79  S   UNL A   1      36.299  31.116  30.590  1.00  0.00     0.124 S 
ATOM     80  O   UNL A   1      36.641  32.461  31.033  1.00  0.00    -0.237 OA
ATOM     81  O   UNL A   1      35.522  31.026  29.357  1.00  0.00    -0.237 OA
ATOM     82  O   UNL A   1      35.899  30.186  31.642  1.00  0.00    -0.744 OA
ENDBRANCH  78  79
ENDBRANCH  46  71
BRANCH  58  83
ATOM     83  C   UNL A   1      46.508  32.828  28.426  1.00  0.00     0.058 A 
ATOM     84  C   UNL A   1      46.985  33.371  29.629  1.00  0.00     0.135 A 
ATOM     85  C   UNL A   1      46.440  33.677  27.307  1.00  0.00     0.135 A 
ATOM     86  F   UNL A   1      47.067  32.606  30.729  1.00  0.00    -0.206 F 
ATOM     87  C   UNL A   1      47.341  34.712  29.730  1.00  0.00     0.059 A 
ATOM     88  C   UNL A   1      46.823  35.011  27.377  1.00  0.00     0.059 A 
ATOM     89  F   UNL A   1      46.006  33.206  26.127  1.00  0.00    -0.206 F 
ATOM     90  C   UNL A   1      47.256  35.525  28.599  1.00  0.00     0.060 A 
BRANCH  90  91
ATOM     91  S   UNL A   1      47.732  37.260  28.741  1.00  0.00     0.124 S 
ATOM     92  O   UNL A   1      46.433  37.924  28.708  1.00  0.00    -0.237 OA
ATOM     93  O   UNL A   1      48.428  37.288  30.023  1.00  0.00    -0.237 OA
ATOM     94  O   UNL A   1      48.578  37.477  27.571  1.00  0.00    -0.744 OA
ENDBRANCH  90  91
ENDBRANCH  58  83
ENDBRANCH  32  33
ENDBRANCH  24  27
ENDBRANCH  22  23
ENDBRANCH  21  22
ENDBRANCH  20  21
ENDBRANCH   1  20
TORSDOF 23
ENDMDL
