MODEL 1
REMARK VINA RESULT:     -13.2      0.000      0.000
REMARK SMILES CCC(=O)Nc1cc(NC(=O)/C=C/C(=O)NCCCCCCNC(=O)c2ccc(-c3c4nc(c(-c5c(F)cc(S(=O)(=O)[O-])cc5F)c5ccc([nH]5)c(-c5c(F)cc(S(=O)(=O)[O-])cc5F)c5nc(c(-c6c(F)cc(S(=O)(=O)[O-])cc6F)c6ccc3[nH]6)C=C5)C=C4)cc2)ccc1C
REMARK SMILES IDX 19 1 18 2 17 3 16 4 14 5 15 6 13 8 12 9 10 10 9 11 11 13
REMARK SMILES IDX 8 14 6 15 7 16 94 17 93 18 95 19 92 20 5 21 3 22 4 23 2 25
REMARK SMILES IDX 1 26 20 27 21 28 22 29 23 30 24 31 25 33 26 34 27 35 91 36
REMARK SMILES IDX 28 37 90 38 29 39 30 40 31 41 84 42 32 43 89 44 83 45 85 46
REMARK SMILES IDX 33 47 88 48 82 49 81 50 34 52 68 53 47 54 67 55 48 56 51 57
REMARK SMILES IDX 66 58 86 59 49 60 50 61 65 63 87 64 52 65 35 66 36 67 45 68
REMARK SMILES IDX 37 69 38 70 44 71 46 72 39 73 40 74 41 75 42 76 43 77 69 78
REMARK SMILES IDX 70 79 79 80 71 81 72 82 78 83 80 84 73 85 74 86 75 87 76 88
REMARK SMILES IDX 77 89 53 90 54 91 63 92 55 93 56 94 62 95 64 96 57 97 58 98
REMARK SMILES IDX 59 99 60 100 61 101
REMARK H PARENT 16 7 9 12 5 24 23 32 85 51 51 62
REMARK Flexibility Score: inf
ROOT
ATOM      1  C   UNL A   1      31.410  29.561  24.256  1.00  0.00     0.002 C 
ENDROOT
BRANCH   1   2
ATOM      2  C   UNL A   1      31.629  28.536  23.137  1.00  0.00     0.021 C 
BRANCH   2   3
ATOM      3  C   UNL A   1      33.078  28.341  22.705  1.00  0.00     0.116 C 
BRANCH   3   4
ATOM      4  N   UNL A   1      33.311  26.997  22.214  1.00  0.00    -0.353 N 
ATOM      5  C   UNL A   1      33.540  25.858  22.912  1.00  0.00     0.244 C 
ATOM      6  O   UNL A   1      33.870  24.821  22.338  1.00  0.00    -0.270 OA
ATOM      7  H   UNL A   1      33.300  26.897  21.235  1.00  0.00     0.163 HD
BRANCH   5   8
ATOM      8  C   UNL A   1      33.334  25.831  24.373  1.00  0.00     0.077 C 
ATOM      9  C   UNL A   1      32.137  25.441  24.841  1.00  0.00     0.077 C 
BRANCH   9  10
ATOM     10  C   UNL A   1      31.984  24.991  26.235  1.00  0.00     0.248 C 
ATOM     11  N   UNL A   1      32.318  23.709  26.584  1.00  0.00    -0.322 N 
ATOM     12  H   UNL A   1      32.222  23.515  27.545  1.00  0.00     0.170 HD
ATOM     13  O   UNL A   1      31.548  25.773  27.076  1.00  0.00    -0.270 OA
BRANCH  11  14
ATOM     14  C   UNL A   1      32.776  22.615  25.819  1.00  0.00     0.043 A 
ATOM     15  C   UNL A   1      34.484  21.000  25.182  1.00  0.00     0.046 A 
ATOM     16  C   UNL A   1      34.114  22.238  25.715  1.00  0.00     0.052 A 
ATOM     17  C   UNL A   1      33.502  20.136  24.685  1.00  0.00    -0.027 A 
ATOM     18  C   UNL A   1      32.176  20.595  24.628  1.00  0.00     0.008 A 
ATOM     19  C   UNL A   1      33.760  18.693  24.352  1.00  0.00     0.046 C 
ATOM     20  C   UNL A   1      31.816  21.825  25.190  1.00  0.00     0.026 A 
BRANCH  15  21
ATOM     21  N   UNL A   1      35.798  20.583  25.428  1.00  0.00    -0.326 N 
ATOM     22  C   UNL A   1      36.963  21.056  24.895  1.00  0.00     0.224 C 
ATOM     23  O   UNL A   1      38.022  20.465  25.116  1.00  0.00    -0.275 OA
ATOM     24  H   UNL A   1      35.895  19.846  26.073  1.00  0.00     0.169 HD
BRANCH  22  25
ATOM     25  C   UNL A   1      36.965  22.364  24.130  1.00  0.00     0.097 C 
ATOM     26  C   UNL A   1      37.310  23.585  24.951  1.00  0.00     0.014 C 
ENDBRANCH  22  25
ENDBRANCH  15  21
ENDBRANCH  11  14
ENDBRANCH   9  10
ENDBRANCH   5   8
ENDBRANCH   3   4
ENDBRANCH   2   3
ENDBRANCH   1   2
BRANCH   1  27
ATOM     27  C   UNL A   1      31.944  29.203  25.654  1.00  0.00     0.002 C 
BRANCH  27  28
ATOM     28  C   UNL A   1      33.446  29.379  25.907  1.00  0.00     0.021 C 
BRANCH  28  29
ATOM     29  C   UNL A   1      33.810  29.795  27.320  1.00  0.00     0.116 C 
BRANCH  29  30
ATOM     30  N   UNL A   1      34.738  30.906  27.417  1.00  0.00    -0.352 N 
ATOM     31  C   UNL A   1      35.554  30.976  28.542  1.00  0.00     0.251 C 
ATOM     32  H   UNL A   1      34.788  31.590  26.710  1.00  0.00     0.163 HD
ATOM     33  O   UNL A   1      35.361  31.698  29.505  1.00  0.00    -0.269 OA
BRANCH  31  34
ATOM     34  C   UNL A   1      36.554  29.885  28.600  1.00  0.00     0.039 A 
ATOM     35  C   UNL A   1      36.844  29.240  29.800  1.00  0.00     0.014 A 
ATOM     36  C   UNL A   1      37.364  29.721  27.474  1.00  0.00     0.014 A 
ATOM     37  C   UNL A   1      38.030  28.507  29.903  1.00  0.00     0.010 A 
ATOM     38  C   UNL A   1      38.575  29.069  27.607  1.00  0.00     0.010 A 
ATOM     39  C   UNL A   1      38.926  28.482  28.829  1.00  0.00    -0.014 A 
BRANCH  39  40
ATOM     40  C   UNL A   1      40.294  27.970  28.919  1.00  0.00     0.031 A 
ATOM     41  C   UNL A   1      40.637  26.595  28.481  1.00  0.00     0.074 A 
ATOM     42  C   UNL A   1      41.297  28.777  29.335  1.00  0.00     0.049 A 
ATOM     43  N   UNL A   1      41.685  25.954  28.884  1.00  0.00    -0.248 NA
ATOM     44  C   UNL A   1      39.808  25.815  27.567  1.00  0.00     0.031 C 
ATOM     45  C   UNL A   1      42.732  28.541  29.193  1.00  0.00     0.029 A 
ATOM     46  N   UNL A   1      41.212  29.894  30.164  1.00  0.00    -0.354 N 
ATOM     47  C   UNL A   1      41.808  24.817  28.124  1.00  0.00     0.074 A 
ATOM     48  C   UNL A   1      40.591  24.752  27.344  1.00  0.00     0.031 C 
ATOM     49  C   UNL A   1      43.386  29.291  30.090  1.00  0.00     0.029 A 
ATOM     50  C   UNL A   1      42.396  29.940  30.929  1.00  0.00     0.049 A 
ATOM     51  H   UNL A   1      40.464  30.534  30.208  1.00  0.00     0.167 HD
ATOM     52  C   UNL A   1      42.965  24.096  28.147  1.00  0.00     0.037 A 
ATOM     53  C   UNL A   1      42.351  29.869  32.292  1.00  0.00     0.037 A 
ATOM     54  C   UNL A   1      43.956  24.654  29.060  1.00  0.00     0.049 A 
ATOM     55  C   UNL A   1      43.008  28.638  32.887  1.00  0.00     0.074 A 
ATOM     56  C   UNL A   1      45.085  25.442  28.911  1.00  0.00     0.029 A 
ATOM     57  N   UNL A   1      43.693  24.625  30.416  1.00  0.00    -0.354 N 
ATOM     58  N   UNL A   1      43.634  27.723  32.199  1.00  0.00    -0.248 NA
ATOM     59  C   UNL A   1      42.932  28.301  34.311  1.00  0.00     0.031 C 
ATOM     60  C   UNL A   1      45.498  25.883  30.200  1.00  0.00     0.029 A 
ATOM     61  C   UNL A   1      44.614  25.368  31.128  1.00  0.00     0.049 A 
ATOM     62  H   UNL A   1      42.943  24.135  30.824  1.00  0.00     0.167 HD
ATOM     63  C   UNL A   1      43.934  26.668  33.021  1.00  0.00     0.074 A 
ATOM     64  C   UNL A   1      43.512  27.090  34.341  1.00  0.00     0.031 C 
ATOM     65  C   UNL A   1      44.446  25.491  32.563  1.00  0.00     0.037 A 
BRANCH  52  66
ATOM     66  C   UNL A   1      43.252  22.989  27.165  1.00  0.00     0.058 A 
ATOM     67  C   UNL A   1      42.561  21.763  27.229  1.00  0.00     0.135 A 
ATOM     68  C   UNL A   1      44.231  23.076  26.156  1.00  0.00     0.135 A 
ATOM     69  F   UNL A   1      41.556  21.567  28.092  1.00  0.00    -0.206 F 
ATOM     70  C   UNL A   1      42.894  20.667  26.434  1.00  0.00     0.059 A 
ATOM     71  C   UNL A   1      44.621  21.977  25.383  1.00  0.00     0.059 A 
ATOM     72  F   UNL A   1      44.838  24.242  25.884  1.00  0.00    -0.206 F 
ATOM     73  C   UNL A   1      43.953  20.768  25.541  1.00  0.00     0.060 A 
BRANCH  73  74
ATOM     74  S   UNL A   1      44.470  19.293  24.643  1.00  0.00     0.124 S 
ATOM     75  O   UNL A   1      43.454  18.319  25.036  1.00  0.00    -0.237 OA
ATOM     76  O   UNL A   1      44.412  19.745  23.258  1.00  0.00    -0.237 OA
ATOM     77  O   UNL A   1      45.808  19.031  25.167  1.00  0.00    -0.744 OA
ENDBRANCH  73  74
ENDBRANCH  52  66
BRANCH  53  78
ATOM     78  C   UNL A   1      41.167  30.577  32.852  1.00  0.00     0.058 A 
ATOM     79  C   UNL A   1      40.025  29.803  33.145  1.00  0.00     0.135 A 
ATOM     80  C   UNL A   1      41.298  31.813  33.496  1.00  0.00     0.135 A 
ATOM     81  F   UNL A   1      39.842  28.620  32.535  1.00  0.00    -0.206 F 
ATOM     82  C   UNL A   1      39.155  30.149  34.172  1.00  0.00     0.059 A 
ATOM     83  C   UNL A   1      40.425  32.188  34.518  1.00  0.00     0.059 A 
ATOM     84  F   UNL A   1      42.359  32.595  33.251  1.00  0.00    -0.206 F 
ATOM     85  C   UNL A   1      39.414  31.306  34.904  1.00  0.00     0.060 A 
BRANCH  85  86
ATOM     86  S   UNL A   1      38.526  31.550  36.460  1.00  0.00     0.124 S 
ATOM     87  O   UNL A   1      38.167  30.187  36.828  1.00  0.00    -0.237 OA
ATOM     88  O   UNL A   1      39.547  32.189  37.294  1.00  0.00    -0.237 OA
ATOM     89  O   UNL A   1      37.417  32.417  36.078  1.00  0.00    -0.744 OA
ENDBRANCH  85  86
ENDBRANCH  53  78
BRANCH  65  90
ATOM     90  C   UNL A   1      44.811  24.341  33.456  1.00  0.00     0.058 A 
ATOM     91  C   UNL A   1      46.147  24.023  33.747  1.00  0.00     0.135 A 
ATOM     92  C   UNL A   1      43.834  23.439  33.928  1.00  0.00     0.135 A 
ATOM     93  F   UNL A   1      47.146  24.803  33.307  1.00  0.00    -0.206 F 
ATOM     94  C   UNL A   1      46.494  22.887  34.480  1.00  0.00     0.059 A 
ATOM     95  C   UNL A   1      44.159  22.278  34.623  1.00  0.00     0.059 A 
ATOM     96  F   UNL A   1      42.526  23.674  33.745  1.00  0.00    -0.206 F 
ATOM     97  C   UNL A   1      45.492  22.017  34.910  1.00  0.00     0.060 A 
BRANCH  97  98
ATOM     98  S   UNL A   1      45.938  20.521  35.814  1.00  0.00     0.124 S 
ATOM     99  O   UNL A   1      45.075  19.511  35.209  1.00  0.00    -0.237 OA
ATOM    100  O   UNL A   1      47.358  20.406  35.501  1.00  0.00    -0.237 OA
ATOM    101  O   UNL A   1      45.621  20.858  37.198  1.00  0.00    -0.744 OA
ENDBRANCH  97  98
ENDBRANCH  65  90
ENDBRANCH  39  40
ENDBRANCH  31  34
ENDBRANCH  29  30
ENDBRANCH  28  29
ENDBRANCH  27  28
ENDBRANCH   1  27
TORSDOF 20
ENDMDL
MODEL 2
REMARK VINA RESULT:     -12.7      1.584      2.623
REMARK SMILES CCC(=O)Nc1cc(NC(=O)/C=C/C(=O)NCCCCCCNC(=O)c2ccc(-c3c4nc(c(-c5c(F)cc(S(=O)(=O)[O-])cc5F)c5ccc([nH]5)c(-c5c(F)cc(S(=O)(=O)[O-])cc5F)c5nc(c(-c6c(F)cc(S(=O)(=O)[O-])cc6F)c6ccc3[nH]6)C=C5)C=C4)cc2)ccc1C
REMARK SMILES IDX 19 1 18 2 17 3 16 4 14 5 15 6 13 8 12 9 10 10 9 11 11 13
REMARK SMILES IDX 8 14 6 15 7 16 94 17 93 18 95 19 92 20 5 21 3 22 4 23 2 25
REMARK SMILES IDX 1 26 20 27 21 28 22 29 23 30 24 31 25 33 26 34 27 35 91 36
REMARK SMILES IDX 28 37 90 38 29 39 30 40 31 41 84 42 32 43 89 44 83 45 85 46
REMARK SMILES IDX 33 47 88 48 82 49 81 50 34 52 68 53 47 54 67 55 48 56 51 57
REMARK SMILES IDX 66 58 86 59 49 60 50 61 65 63 87 64 52 65 35 66 36 67 45 68
REMARK SMILES IDX 37 69 38 70 44 71 46 72 39 73 40 74 41 75 42 76 43 77 69 78
REMARK SMILES IDX 70 79 79 80 71 81 72 82 78 83 80 84 73 85 74 86 75 87 76 88
REMARK SMILES IDX 77 89 53 90 54 91 63 92 55 93 56 94 62 95 64 96 57 97 58 98
REMARK SMILES IDX 59 99 60 100 61 101
REMARK H PARENT 16 7 9 12 5 24 23 32 85 51 51 62
REMARK Flexibility Score: inf
ROOT
ATOM      1  C   UNL A   1      32.781  29.321  24.620  1.00  0.00     0.002 C 
ENDROOT
BRANCH   1   2
ATOM      2  C   UNL A   1      31.281  29.626  24.526  1.00  0.00     0.021 C 
BRANCH   2   3
ATOM      3  C   UNL A   1      30.592  29.129  23.261  1.00  0.00     0.116 C 
BRANCH   3   4
ATOM      4  N   UNL A   1      29.583  28.132  23.561  1.00  0.00    -0.353 N 
ATOM      5  C   UNL A   1      29.683  26.781  23.546  1.00  0.00     0.244 C 
ATOM      6  O   UNL A   1      28.687  26.071  23.680  1.00  0.00    -0.270 OA
ATOM      7  H   UNL A   1      28.700  28.488  23.812  1.00  0.00     0.163 HD
BRANCH   5   8
ATOM      8  C   UNL A   1      31.007  26.138  23.431  1.00  0.00     0.077 C 
ATOM      9  C   UNL A   1      31.377  25.651  22.235  1.00  0.00     0.077 C 
BRANCH   9  10
ATOM     10  C   UNL A   1      32.795  25.387  21.937  1.00  0.00     0.248 C 
ATOM     11  N   UNL A   1      33.567  24.687  22.828  1.00  0.00    -0.322 N 
ATOM     12  H   UNL A   1      34.488  24.525  22.522  1.00  0.00     0.170 HD
ATOM     13  O   UNL A   1      33.279  25.806  20.889  1.00  0.00    -0.270 OA
BRANCH  11  14
ATOM     14  C   UNL A   1      33.281  24.156  24.104  1.00  0.00     0.043 A 
ATOM     15  C   UNL A   1      32.590  22.341  25.573  1.00  0.00     0.046 A 
ATOM     16  C   UNL A   1      32.603  22.957  24.319  1.00  0.00     0.052 A 
ATOM     17  C   UNL A   1      33.222  22.960  26.658  1.00  0.00    -0.027 A 
ATOM     18  C   UNL A   1      33.747  24.250  26.478  1.00  0.00     0.008 A 
ATOM     19  C   UNL A   1      33.502  22.263  27.961  1.00  0.00     0.046 C 
ATOM     20  C   UNL A   1      33.776  24.843  25.211  1.00  0.00     0.026 A 
BRANCH  15  21
ATOM     21  N   UNL A   1      32.181  21.002  25.606  1.00  0.00    -0.326 N 
ATOM     22  C   UNL A   1      32.736  19.919  24.987  1.00  0.00     0.224 C 
ATOM     23  O   UNL A   1      32.151  18.834  25.007  1.00  0.00    -0.275 OA
ATOM     24  H   UNL A   1      31.381  20.816  26.148  1.00  0.00     0.169 HD
BRANCH  22  25
ATOM     25  C   UNL A   1      34.120  20.027  24.377  1.00  0.00     0.097 C 
ATOM     26  C   UNL A   1      35.238  20.267  25.366  1.00  0.00     0.014 C 
ENDBRANCH  22  25
ENDBRANCH  15  21
ENDBRANCH  11  14
ENDBRANCH   9  10
ENDBRANCH   5   8
ENDBRANCH   3   4
ENDBRANCH   2   3
ENDBRANCH   1   2
BRANCH   1  27
ATOM     27  C   UNL A   1      33.236  28.346  25.719  1.00  0.00     0.002 C 
BRANCH  27  28
ATOM     28  C   UNL A   1      34.512  28.696  26.494  1.00  0.00     0.021 C 
BRANCH  28  29
ATOM     29  C   UNL A   1      34.304  29.617  27.683  1.00  0.00     0.116 C 
BRANCH  29  30
ATOM     30  N   UNL A   1      35.235  30.726  27.775  1.00  0.00    -0.352 N 
ATOM     31  C   UNL A   1      36.083  30.772  28.878  1.00  0.00     0.251 C 
ATOM     32  H   UNL A   1      35.265  31.423  27.081  1.00  0.00     0.163 HD
ATOM     33  O   UNL A   1      35.918  31.475  29.860  1.00  0.00    -0.269 OA
BRANCH  31  34
ATOM     34  C   UNL A   1      37.082  29.680  28.885  1.00  0.00     0.039 A 
ATOM     35  C   UNL A   1      37.343  28.953  30.045  1.00  0.00     0.014 A 
ATOM     36  C   UNL A   1      37.921  29.594  27.772  1.00  0.00     0.014 A 
ATOM     37  C   UNL A   1      38.527  28.215  30.127  1.00  0.00     0.010 A 
ATOM     38  C   UNL A   1      39.129  28.934  27.890  1.00  0.00     0.010 A 
ATOM     39  C   UNL A   1      39.451  28.264  29.077  1.00  0.00    -0.014 A 
BRANCH  39  40
ATOM     40  C   UNL A   1      40.817  27.747  29.166  1.00  0.00     0.031 A 
ATOM     41  C   UNL A   1      41.178  26.417  28.618  1.00  0.00     0.074 A 
ATOM     42  C   UNL A   1      41.802  28.514  29.686  1.00  0.00     0.049 A 
ATOM     43  N   UNL A   1      42.215  25.743  28.997  1.00  0.00    -0.248 NA
ATOM     44  C   UNL A   1      40.383  25.722  27.611  1.00  0.00     0.031 C 
ATOM     45  C   UNL A   1      43.242  28.292  29.571  1.00  0.00     0.029 A 
ATOM     46  N   UNL A   1      41.686  29.552  30.609  1.00  0.00    -0.354 N 
ATOM     47  C   UNL A   1      42.367  24.679  28.142  1.00  0.00     0.074 A 
ATOM     48  C   UNL A   1      41.177  24.684  27.320  1.00  0.00     0.031 C 
ATOM     49  C   UNL A   1      43.864  28.959  30.554  1.00  0.00     0.029 A 
ATOM     50  C   UNL A   1      42.844  29.529  31.413  1.00  0.00     0.049 A 
ATOM     51  H   UNL A   1      40.935  30.185  30.685  1.00  0.00     0.167 HD
ATOM     52  C   UNL A   1      43.525  23.959  28.139  1.00  0.00     0.037 A 
ATOM     53  C   UNL A   1      42.754  29.336  32.763  1.00  0.00     0.037 A 
ATOM     54  C   UNL A   1      44.483  24.434  29.131  1.00  0.00     0.049 A 
ATOM     55  C   UNL A   1      43.395  28.058  33.266  1.00  0.00     0.074 A 
ATOM     56  C   UNL A   1      45.614  25.232  29.091  1.00  0.00     0.029 A 
ATOM     57  N   UNL A   1      44.176  24.283  30.469  1.00  0.00    -0.354 N 
ATOM     58  N   UNL A   1      44.047  27.208  32.520  1.00  0.00    -0.248 NA
ATOM     59  C   UNL A   1      43.273  27.594  34.651  1.00  0.00     0.031 C 
ATOM     60  C   UNL A   1      45.983  25.556  30.427  1.00  0.00     0.029 A 
ATOM     61  C   UNL A   1      45.070  24.959  31.275  1.00  0.00     0.049 A 
ATOM     62  H   UNL A   1      43.414  23.758  30.806  1.00  0.00     0.167 HD
ATOM     63  C   UNL A   1      44.323  26.083  33.253  1.00  0.00     0.074 A 
ATOM     64  C   UNL A   1      43.857  26.385  34.591  1.00  0.00     0.031 C 
ATOM     65  C   UNL A   1      44.854  24.952  32.709  1.00  0.00     0.037 A 
BRANCH  52  66
ATOM     66  C   UNL A   1      43.848  22.945  27.072  1.00  0.00     0.058 A 
ATOM     67  C   UNL A   1      43.098  21.759  26.944  1.00  0.00     0.135 A 
ATOM     68  C   UNL A   1      44.917  23.081  26.165  1.00  0.00     0.135 A 
ATOM     69  F   UNL A   1      42.010  21.532  27.692  1.00  0.00    -0.206 F 
ATOM     70  C   UNL A   1      43.451  20.734  26.067  1.00  0.00     0.059 A 
ATOM     71  C   UNL A   1      45.324  22.047  25.314  1.00  0.00     0.059 A 
ATOM     72  F   UNL A   1      45.601  24.233  26.073  1.00  0.00    -0.206 F 
ATOM     73  C   UNL A   1      44.590  20.868  25.284  1.00  0.00     0.060 A 
BRANCH  73  74
ATOM     74  S   UNL A   1      45.116  19.466  24.280  1.00  0.00     0.124 S 
ATOM     75  O   UNL A   1      46.572  19.575  24.335  1.00  0.00    -0.237 OA
ATOM     76  O   UNL A   1      44.537  18.341  25.003  1.00  0.00    -0.237 OA
ATOM     77  O   UNL A   1      44.528  19.748  22.973  1.00  0.00    -0.744 OA
ENDBRANCH  73  74
ENDBRANCH  52  66
BRANCH  53  78
ATOM     78  C   UNL A   1      41.549  29.990  33.344  1.00  0.00     0.058 A 
ATOM     79  C   UNL A   1      41.618  31.377  33.592  1.00  0.00     0.135 A 
ATOM     80  C   UNL A   1      40.280  29.413  33.221  1.00  0.00     0.135 A 
ATOM     81  F   UNL A   1      42.812  31.973  33.742  1.00  0.00    -0.206 F 
ATOM     82  C   UNL A   1      40.489  32.185  33.527  1.00  0.00     0.059 A 
ATOM     83  C   UNL A   1      39.132  30.204  33.170  1.00  0.00     0.059 A 
ATOM     84  F   UNL A   1      40.153  28.098  32.992  1.00  0.00    -0.206 F 
ATOM     85  C   UNL A   1      39.262  31.593  33.234  1.00  0.00     0.060 A 
BRANCH  85  86
ATOM     86  S   UNL A   1      37.882  32.667  32.773  1.00  0.00     0.124 S 
ATOM     87  O   UNL A   1      38.028  33.775  33.708  1.00  0.00    -0.237 OA
ATOM     88  O   UNL A   1      38.189  32.969  31.373  1.00  0.00    -0.237 OA
ATOM     89  O   UNL A   1      36.715  31.816  32.975  1.00  0.00    -0.744 OA
ENDBRANCH  85  86
ENDBRANCH  53  78
BRANCH  65  90
ATOM     90  C   UNL A   1      45.193  23.727  33.507  1.00  0.00     0.058 A 
ATOM     91  C   UNL A   1      44.223  22.771  33.846  1.00  0.00     0.135 A 
ATOM     92  C   UNL A   1      46.472  23.552  34.077  1.00  0.00     0.135 A 
ATOM     93  F   UNL A   1      42.968  22.877  33.380  1.00  0.00    -0.206 F 
ATOM     94  C   UNL A   1      44.508  21.692  34.684  1.00  0.00     0.059 A 
ATOM     95  C   UNL A   1      46.768  22.510  34.950  1.00  0.00     0.059 A 
ATOM     96  F   UNL A   1      47.483  24.383  33.781  1.00  0.00    -0.206 F 
ATOM     97  C   UNL A   1      45.783  21.573  35.236  1.00  0.00     0.060 A 
BRANCH  97  98
ATOM     98  S   UNL A   1      46.144  20.210  36.361  1.00  0.00     0.124 S 
ATOM     99  O   UNL A   1      47.594  20.076  36.249  1.00  0.00    -0.237 OA
ATOM    100  O   UNL A   1      45.657  20.743  37.629  1.00  0.00    -0.237 OA
ATOM    101  O   UNL A   1      45.376  19.102  35.804  1.00  0.00    -0.744 OA
ENDBRANCH  97  98
ENDBRANCH  65  90
ENDBRANCH  39  40
ENDBRANCH  31  34
ENDBRANCH  29  30
ENDBRANCH  28  29
ENDBRANCH  27  28
ENDBRANCH   1  27
TORSDOF 20
ENDMDL
MODEL 3
REMARK VINA RESULT:     -12.5      1.152      2.267
REMARK SMILES CCC(=O)Nc1cc(NC(=O)/C=C/C(=O)NCCCCCCNC(=O)c2ccc(-c3c4nc(c(-c5c(F)cc(S(=O)(=O)[O-])cc5F)c5ccc([nH]5)c(-c5c(F)cc(S(=O)(=O)[O-])cc5F)c5nc(c(-c6c(F)cc(S(=O)(=O)[O-])cc6F)c6ccc3[nH]6)C=C5)C=C4)cc2)ccc1C
REMARK SMILES IDX 19 1 18 2 17 3 16 4 14 5 15 6 13 8 12 9 10 10 9 11 11 13
REMARK SMILES IDX 8 14 6 15 7 16 94 17 93 18 95 19 92 20 5 21 3 22 4 23 2 25
REMARK SMILES IDX 1 26 20 27 21 28 22 29 23 30 24 31 25 33 26 34 27 35 91 36
REMARK SMILES IDX 28 37 90 38 29 39 30 40 31 41 84 42 32 43 89 44 83 45 85 46
REMARK SMILES IDX 33 47 88 48 82 49 81 50 34 52 68 53 47 54 67 55 48 56 51 57
REMARK SMILES IDX 66 58 86 59 49 60 50 61 65 63 87 64 52 65 35 66 36 67 45 68
REMARK SMILES IDX 37 69 38 70 44 71 46 72 39 73 40 74 41 75 42 76 43 77 69 78
REMARK SMILES IDX 70 79 79 80 71 81 72 82 78 83 80 84 73 85 74 86 75 87 76 88
REMARK SMILES IDX 77 89 53 90 54 91 63 92 55 93 56 94 62 95 64 96 57 97 58 98
REMARK SMILES IDX 59 99 60 100 61 101
REMARK H PARENT 16 7 9 12 5 24 23 32 85 51 51 62
REMARK Flexibility Score: inf
ROOT
ATOM      1  C   UNL A   1      31.702  27.860  25.708  1.00  0.00     0.002 C 
ENDROOT
BRANCH   1   2
ATOM      2  C   UNL A   1      30.538  27.025  26.257  1.00  0.00     0.021 C 
BRANCH   2   3
ATOM      3  C   UNL A   1      30.392  25.634  25.652  1.00  0.00     0.116 C 
BRANCH   3   4
ATOM      4  N   UNL A   1      30.645  24.597  26.633  1.00  0.00    -0.353 N 
ATOM      5  C   UNL A   1      31.778  23.888  26.857  1.00  0.00     0.244 C 
ATOM      6  O   UNL A   1      31.783  22.933  27.633  1.00  0.00    -0.270 OA
ATOM      7  H   UNL A   1      29.886  24.377  27.220  1.00  0.00     0.163 HD
BRANCH   5   8
ATOM      8  C   UNL A   1      33.044  24.295  26.217  1.00  0.00     0.077 C 
ATOM      9  C   UNL A   1      33.346  23.776  25.016  1.00  0.00     0.077 C 
BRANCH   9  10
ATOM     10  C   UNL A   1      34.341  24.425  24.144  1.00  0.00     0.248 C 
ATOM     11  N   UNL A   1      35.587  23.874  23.994  1.00  0.00    -0.322 N 
ATOM     12  H   UNL A   1      36.166  24.356  23.360  1.00  0.00     0.170 HD
ATOM     13  O   UNL A   1      34.045  25.466  23.563  1.00  0.00    -0.270 OA
BRANCH  11  14
ATOM     14  C   UNL A   1      36.191  22.742  24.581  1.00  0.00     0.043 A 
ATOM     15  C   UNL A   1      36.374  20.339  24.930  1.00  0.00     0.046 A 
ATOM     16  C   UNL A   1      35.625  21.469  24.590  1.00  0.00     0.052 A 
ATOM     17  C   UNL A   1      37.709  20.483  25.326  1.00  0.00    -0.027 A 
ATOM     18  C   UNL A   1      38.220  21.782  25.488  1.00  0.00     0.008 A 
ATOM     19  C   UNL A   1      38.668  19.332  25.442  1.00  0.00     0.046 C 
ATOM     20  C   UNL A   1      37.467  22.902  25.118  1.00  0.00     0.026 A 
BRANCH  15  21
ATOM     21  N   UNL A   1      35.822  19.098  24.588  1.00  0.00    -0.326 N 
ATOM     22  C   UNL A   1      34.558  18.630  24.812  1.00  0.00     0.224 C 
ATOM     23  O   UNL A   1      34.290  17.451  24.573  1.00  0.00    -0.275 OA
ATOM     24  H   UNL A   1      36.428  18.477  24.124  1.00  0.00     0.169 HD
BRANCH  22  25
ATOM     25  C   UNL A   1      33.465  19.588  25.243  1.00  0.00     0.097 C 
ATOM     26  C   UNL A   1      32.573  20.084  24.128  1.00  0.00     0.014 C 
ENDBRANCH  22  25
ENDBRANCH  15  21
ENDBRANCH  11  14
ENDBRANCH   9  10
ENDBRANCH   5   8
ENDBRANCH   3   4
ENDBRANCH   2   3
ENDBRANCH   1   2
BRANCH   1  27
ATOM     27  C   UNL A   1      33.051  27.756  26.440  1.00  0.00     0.002 C 
BRANCH  27  28
ATOM     28  C   UNL A   1      34.019  28.938  26.313  1.00  0.00     0.021 C 
BRANCH  28  29
ATOM     29  C   UNL A   1      34.099  29.831  27.537  1.00  0.00     0.116 C 
BRANCH  29  30
ATOM     30  N   UNL A   1      35.075  30.901  27.457  1.00  0.00    -0.352 N 
ATOM     31  C   UNL A   1      36.007  31.009  28.486  1.00  0.00     0.251 C 
ATOM     32  H   UNL A   1      35.078  31.532  26.701  1.00  0.00     0.163 HD
ATOM     33  O   UNL A   1      35.946  31.804  29.408  1.00  0.00    -0.269 OA
BRANCH  31  34
ATOM     34  C   UNL A   1      36.963  29.879  28.520  1.00  0.00     0.039 A 
ATOM     35  C   UNL A   1      37.203  29.177  29.700  1.00  0.00     0.014 A 
ATOM     36  C   UNL A   1      37.791  29.727  27.405  1.00  0.00     0.014 A 
ATOM     37  C   UNL A   1      38.357  28.395  29.798  1.00  0.00     0.010 A 
ATOM     38  C   UNL A   1      38.973  29.023  27.537  1.00  0.00     0.010 A 
ATOM     39  C   UNL A   1      39.275  28.377  28.741  1.00  0.00    -0.014 A 
BRANCH  39  40
ATOM     40  C   UNL A   1      40.620  27.809  28.839  1.00  0.00     0.031 A 
ATOM     41  C   UNL A   1      40.907  26.419  28.406  1.00  0.00     0.074 A 
ATOM     42  C   UNL A   1      41.654  28.575  29.256  1.00  0.00     0.049 A 
ATOM     43  N   UNL A   1      41.927  25.737  28.816  1.00  0.00    -0.248 NA
ATOM     44  C   UNL A   1      40.050  25.671  27.492  1.00  0.00     0.031 C 
ATOM     45  C   UNL A   1      43.079  28.278  29.121  1.00  0.00     0.029 A 
ATOM     46  N   UNL A   1      41.612  29.697  30.082  1.00  0.00    -0.354 N 
ATOM     47  C   UNL A   1      42.005  24.593  28.060  1.00  0.00     0.074 A 
ATOM     48  C   UNL A   1      40.790  24.576  27.276  1.00  0.00     0.031 C 
ATOM     49  C   UNL A   1      43.760  29.004  30.019  1.00  0.00     0.029 A 
ATOM     50  C   UNL A   1      42.794  29.696  30.851  1.00  0.00     0.049 A 
ATOM     51  H   UNL A   1      40.892  30.368  30.120  1.00  0.00     0.167 HD
ATOM     52  C   UNL A   1      43.131  23.824  28.090  1.00  0.00     0.037 A 
ATOM     53  C   UNL A   1      42.741  29.632  32.215  1.00  0.00     0.037 A 
ATOM     54  C   UNL A   1      44.140  24.344  29.005  1.00  0.00     0.049 A 
ATOM     55  C   UNL A   1      43.343  28.377  32.816  1.00  0.00     0.074 A 
ATOM     56  C   UNL A   1      45.302  25.084  28.859  1.00  0.00     0.029 A 
ATOM     57  N   UNL A   1      43.872  24.330  30.360  1.00  0.00    -0.354 N 
ATOM     58  N   UNL A   1      43.934  27.434  32.133  1.00  0.00    -0.248 NA
ATOM     59  C   UNL A   1      43.248  28.048  34.241  1.00  0.00     0.031 C 
ATOM     60  C   UNL A   1      45.728  25.512  30.148  1.00  0.00     0.029 A 
ATOM     61  C   UNL A   1      44.820  25.037  31.073  1.00  0.00     0.049 A 
ATOM     62  H   UNL A   1      43.100  23.874  30.767  1.00  0.00     0.167 HD
ATOM     63  C   UNL A   1      44.187  26.370  32.960  1.00  0.00     0.074 A 
ATOM     64  C   UNL A   1      43.777  26.814  34.277  1.00  0.00     0.031 C 
ATOM     65  C   UNL A   1      44.651  25.171  32.508  1.00  0.00     0.037 A 
BRANCH  52  66
ATOM     66  C   UNL A   1      43.375  22.704  27.113  1.00  0.00     0.058 A 
ATOM     67  C   UNL A   1      42.644  21.502  27.186  1.00  0.00     0.135 A 
ATOM     68  C   UNL A   1      44.352  22.752  26.099  1.00  0.00     0.135 A 
ATOM     69  F   UNL A   1      41.636  21.345  28.054  1.00  0.00    -0.206 F 
ATOM     70  C   UNL A   1      42.936  20.391  26.395  1.00  0.00     0.059 A 
ATOM     71  C   UNL A   1      44.701  21.636  25.331  1.00  0.00     0.059 A 
ATOM     72  F   UNL A   1      44.998  23.895  25.818  1.00  0.00    -0.206 F 
ATOM     73  C   UNL A   1      43.993  20.452  25.497  1.00  0.00     0.060 A 
BRANCH  73  74
ATOM     74  S   UNL A   1      44.455  18.955  24.605  1.00  0.00     0.124 S 
ATOM     75  O   UNL A   1      45.742  18.618  25.210  1.00  0.00    -0.237 OA
ATOM     76  O   UNL A   1      43.350  18.059  24.925  1.00  0.00    -0.237 OA
ATOM     77  O   UNL A   1      44.527  19.399  23.216  1.00  0.00    -0.744 OA
ENDBRANCH  73  74
ENDBRANCH  52  66
BRANCH  53  78
ATOM     78  C   UNL A   1      41.585  30.390  32.767  1.00  0.00     0.058 A 
ATOM     79  C   UNL A   1      40.420  29.661  33.082  1.00  0.00     0.135 A 
ATOM     80  C   UNL A   1      41.762  31.634  33.386  1.00  0.00     0.135 A 
ATOM     81  F   UNL A   1      40.193  28.473  32.496  1.00  0.00    -0.206 F 
ATOM     82  C   UNL A   1      39.568  30.056  34.107  1.00  0.00     0.059 A 
ATOM     83  C   UNL A   1      40.909  32.057  34.405  1.00  0.00     0.059 A 
ATOM     84  F   UNL A   1      42.847  32.374  33.120  1.00  0.00    -0.206 F 
ATOM     85  C   UNL A   1      39.871  31.217  34.815  1.00  0.00     0.060 A 
BRANCH  85  86
ATOM     86  S   UNL A   1      39.002  31.522  36.371  1.00  0.00     0.124 S 
ATOM     87  O   UNL A   1      40.094  31.864  37.273  1.00  0.00    -0.237 OA
ATOM     88  O   UNL A   1      38.107  32.623  36.007  1.00  0.00    -0.237 OA
ATOM     89  O   UNL A   1      38.335  30.252  36.635  1.00  0.00    -0.744 OA
ENDBRANCH  85  86
ENDBRANCH  53  78
BRANCH  65  90
ATOM     90  C   UNL A   1      44.964  24.010  33.406  1.00  0.00     0.058 A 
ATOM     91  C   UNL A   1      46.243  23.821  33.955  1.00  0.00     0.135 A 
ATOM     92  C   UNL A   1      44.029  22.977  33.624  1.00  0.00     0.135 A 
ATOM     93  F   UNL A   1      47.209  24.734  33.767  1.00  0.00    -0.206 F 
ATOM     94  C   UNL A   1      46.569  22.683  34.694  1.00  0.00     0.059 A 
ATOM     95  C   UNL A   1      44.344  21.814  34.320  1.00  0.00     0.059 A 
ATOM     96  F   UNL A   1      42.766  23.080  33.183  1.00  0.00    -0.206 F 
ATOM     97  C   UNL A   1      45.614  21.682  34.866  1.00  0.00     0.060 A 
BRANCH  97  98
ATOM     98  S   UNL A   1      46.045  20.185  35.777  1.00  0.00     0.124 S 
ATOM     99  O   UNL A   1      47.460  20.012  35.459  1.00  0.00    -0.237 OA
ATOM    100  O   UNL A   1      45.753  20.587  37.149  1.00  0.00    -0.237 OA
ATOM    101  O   UNL A   1      45.155  19.178  35.210  1.00  0.00    -0.744 OA
ENDBRANCH  97  98
ENDBRANCH  65  90
ENDBRANCH  39  40
ENDBRANCH  31  34
ENDBRANCH  29  30
ENDBRANCH  28  29
ENDBRANCH  27  28
ENDBRANCH   1  27
TORSDOF 20
ENDMDL
