MODEL 1
REMARK VINA RESULT:     -13.0      0.000      0.000
REMARK SMILES O=C1O[C@@H](c2ccc(O)c(O)c2)[C@H](C(=O)NCCCCCCNC(=O)c2ccc(-c3c4nc(c(-c5c(F)cc(S(=O)(=O)[O-])cc5F)c5ccc([nH]5)c(-c5c(F)cc(S(=O)(=O)[O-])cc5F)c5nc(c(-c6c(F)cc(S(=O)(=O)[O-])cc6F)c6ccc3[nH]6)C=C5)C=C4)cc2)/C1=C\c1ccc(O)c(O)c1
REMARK SMILES IDX 20 1 19 2 18 3 17 4 16 5 14 6 15 7 13 9 1 10 2 11 3 12 92 13
REMARK SMILES IDX 4 14 93 15 5 16 6 17 12 18 7 19 10 20 8 21 11 22 9 24 94 26
REMARK SMILES IDX 95 27 101 28 96 29 99 30 97 31 100 32 98 34 21 36 22 37
REMARK SMILES IDX 23 38 24 39 25 41 26 42 27 43 91 44 28 45 90 46 29 47 30 48
REMARK SMILES IDX 31 49 84 50 32 51 89 52 83 53 85 54 33 55 88 56 82 57 81 58
REMARK SMILES IDX 34 60 68 61 47 62 67 63 48 64 51 65 66 66 86 67 49 68 50 69
REMARK SMILES IDX 65 71 87 72 52 73 35 74 36 75 45 76 37 77 38 78 44 79 46 80
REMARK SMILES IDX 39 81 40 82 41 83 42 84 43 85 69 86 70 87 79 88 71 89 72 90
REMARK SMILES IDX 78 91 80 92 73 93 74 94 75 95 76 96 77 97 53 98 54 99 63 100
REMARK SMILES IDX 55 101 56 102 62 103 64 104 57 105 58 106 59 107 60 108
REMARK SMILES IDX 61 109
REMARK H PARENT 16 8 11 23 9 25 100 33 98 35 23 40 85 59 51 70
REMARK Flexibility Score: inf
ROOT
ATOM      1  C   UNL A   1      32.889  29.439  27.191  1.00  0.00     0.002 C 
ENDROOT
BRANCH   1   2
ATOM      2  C   UNL A   1      31.798  28.436  27.581  1.00  0.00     0.002 C 
BRANCH   2   3
ATOM      3  C   UNL A   1      31.350  27.497  26.461  1.00  0.00     0.021 C 
BRANCH   3   4
ATOM      4  C   UNL A   1      32.149  26.205  26.369  1.00  0.00     0.116 C 
BRANCH   4   5
ATOM      5  N   UNL A   1      31.447  25.056  26.899  1.00  0.00    -0.355 N 
ATOM      6  C   UNL A   1      31.752  23.725  26.849  1.00  0.00     0.231 C 
ATOM      7  O   UNL A   1      31.035  22.971  27.510  1.00  0.00    -0.274 OA
ATOM      8  H   UNL A   1      30.612  25.269  27.375  1.00  0.00     0.163 HD
BRANCH   6   9
ATOM      9  C   UNL A   1      32.866  23.212  25.927  1.00  0.00     0.161 C 
ATOM     10  O   UNL A   1      31.873  20.004  24.708  1.00  0.00    -0.247 OA
ATOM     11  C   UNL A   1      32.414  20.960  25.237  1.00  0.00     0.335 C 
ATOM     12  O   UNL A   1      33.251  20.899  26.300  1.00  0.00    -0.453 OA
ATOM     13  C   UNL A   1      32.298  22.372  24.833  1.00  0.00     0.054 C 
ATOM     14  C   UNL A   1      33.789  22.200  26.603  1.00  0.00     0.224 C 
ATOM     15  C   UNL A   1      31.764  22.686  23.644  1.00  0.00     0.020 C 
BRANCH  14  16
ATOM     16  C   UNL A   1      35.265  22.312  26.208  1.00  0.00    -0.002 A 
ATOM     17  C   UNL A   1      35.988  23.513  26.397  1.00  0.00     0.012 A 
ATOM     18  C   UNL A   1      35.973  21.195  25.740  1.00  0.00     0.057 A 
ATOM     19  C   UNL A   1      37.363  23.595  26.159  1.00  0.00     0.050 A 
ATOM     20  C   UNL A   1      37.337  21.291  25.479  1.00  0.00     0.157 A 
ATOM     21  C   UNL A   1      38.032  22.474  25.700  1.00  0.00     0.157 A 
BRANCH  20  22
ATOM     22  O   UNL A   1      38.003  20.192  25.014  1.00  0.00    -0.504 OA
ATOM     23  H   UNL A   1      38.447  19.626  25.613  1.00  0.00     0.293 HD
ENDBRANCH  20  22
BRANCH  21  24
ATOM     24  O   UNL A   1      39.376  22.484  25.457  1.00  0.00    -0.504 OA
ATOM     25  H   UNL A   1      39.760  21.818  24.922  1.00  0.00     0.293 HD
ENDBRANCH  21  24
ENDBRANCH  14  16
BRANCH  15  26
ATOM     26  C   UNL A   1      31.611  24.051  23.144  1.00  0.00    -0.021 A 
ATOM     27  C   UNL A   1      30.499  24.831  23.501  1.00  0.00     0.012 A 
ATOM     28  C   UNL A   1      32.608  24.596  22.329  1.00  0.00     0.058 A 
ATOM     29  C   UNL A   1      30.365  26.137  23.022  1.00  0.00     0.051 A 
ATOM     30  C   UNL A   1      32.471  25.897  21.868  1.00  0.00     0.157 A 
ATOM     31  C   UNL A   1      31.357  26.661  22.204  1.00  0.00     0.157 A 
BRANCH  30  32
ATOM     32  O   UNL A   1      33.448  26.431  21.074  1.00  0.00    -0.504 OA
ATOM     33  H   UNL A   1      33.230  26.773  20.229  1.00  0.00     0.293 HD
ENDBRANCH  30  32
BRANCH  31  34
ATOM     34  O   UNL A   1      31.283  27.933  21.705  1.00  0.00    -0.504 OA
ATOM     35  H   UNL A   1      31.730  28.634  22.139  1.00  0.00     0.293 HD
ENDBRANCH  31  34
ENDBRANCH  15  26
ENDBRANCH   6   9
ENDBRANCH   4   5
ENDBRANCH   3   4
ENDBRANCH   2   3
ENDBRANCH   1   2
BRANCH   1  36
ATOM     36  C   UNL A   1      34.325  28.986  27.470  1.00  0.00     0.021 C 
BRANCH  36  37
ATOM     37  C   UNL A   1      35.320  30.123  27.670  1.00  0.00     0.116 C 
BRANCH  37  38
ATOM     38  N   UNL A   1      35.318  30.614  29.038  1.00  0.00    -0.352 N 
ATOM     39  C   UNL A   1      36.285  30.490  30.003  1.00  0.00     0.251 C 
ATOM     40  H   UNL A   1      34.509  31.105  29.310  1.00  0.00     0.163 HD
ATOM     41  O   UNL A   1      36.035  30.784  31.167  1.00  0.00    -0.269 OA
BRANCH  39  42
ATOM     42  C   UNL A   1      37.624  29.984  29.631  1.00  0.00     0.039 A 
ATOM     43  C   UNL A   1      38.023  30.035  28.295  1.00  0.00     0.014 A 
ATOM     44  C   UNL A   1      38.483  29.467  30.606  1.00  0.00     0.014 A 
ATOM     45  C   UNL A   1      39.307  29.615  27.943  1.00  0.00     0.010 A 
ATOM     46  C   UNL A   1      39.788  29.127  30.266  1.00  0.00     0.010 A 
ATOM     47  C   UNL A   1      40.212  29.188  28.929  1.00  0.00    -0.014 A 
BRANCH  47  48
ATOM     48  C   UNL A   1      41.599  28.784  28.587  1.00  0.00     0.031 A 
ATOM     49  C   UNL A   1      42.693  29.817  28.549  1.00  0.00     0.074 A 
ATOM     50  C   UNL A   1      41.861  27.506  28.248  1.00  0.00     0.049 A 
ATOM     51  N   UNL A   1      43.943  29.684  28.187  1.00  0.00    -0.248 NA
ATOM     52  C   UNL A   1      42.326  31.187  28.941  1.00  0.00     0.031 C 
ATOM     53  C   UNL A   1      40.877  26.421  28.211  1.00  0.00     0.029 A 
ATOM     54  N   UNL A   1      43.031  26.904  27.858  1.00  0.00    -0.354 N 
ATOM     55  C   UNL A   1      44.506  30.950  28.296  1.00  0.00     0.074 A 
ATOM     56  C   UNL A   1      43.448  31.850  28.697  1.00  0.00     0.031 C 
ATOM     57  C   UNL A   1      41.488  25.285  27.841  1.00  0.00     0.029 A 
ATOM     58  C   UNL A   1      42.896  25.565  27.571  1.00  0.00     0.049 A 
ATOM     59  H   UNL A   1      43.888  27.385  27.791  1.00  0.00     0.167 HD
ATOM     60  C   UNL A   1      45.793  31.324  28.105  1.00  0.00     0.037 A 
ATOM     61  C   UNL A   1      43.798  24.669  27.126  1.00  0.00     0.037 A 
ATOM     62  C   UNL A   1      46.845  30.417  27.725  1.00  0.00     0.049 A 
ATOM     63  C   UNL A   1      45.219  25.113  26.899  1.00  0.00     0.074 A 
ATOM     64  C   UNL A   1      48.191  30.686  27.553  1.00  0.00     0.029 A 
ATOM     65  N   UNL A   1      46.671  29.067  27.458  1.00  0.00    -0.354 N 
ATOM     66  N   UNL A   1      45.746  26.304  27.060  1.00  0.00    -0.248 NA
ATOM     67  C   UNL A   1      46.170  24.092  26.438  1.00  0.00     0.031 C 
ATOM     68  C   UNL A   1      48.820  29.512  27.126  1.00  0.00     0.029 A 
ATOM     69  C   UNL A   1      47.880  28.495  27.097  1.00  0.00     0.049 A 
ATOM     70  H   UNL A   1      45.814  28.585  27.517  1.00  0.00     0.167 HD
ATOM     71  C   UNL A   1      47.097  26.166  26.755  1.00  0.00     0.074 A 
ATOM     72  C   UNL A   1      47.306  24.776  26.407  1.00  0.00     0.031 C 
ATOM     73  C   UNL A   1      48.076  27.105  26.767  1.00  0.00     0.037 A 
BRANCH  60  74
ATOM     74  C   UNL A   1      46.137  32.778  28.300  1.00  0.00     0.058 A 
ATOM     75  C   UNL A   1      46.078  33.700  27.244  1.00  0.00     0.135 A 
ATOM     76  C   UNL A   1      46.496  33.261  29.570  1.00  0.00     0.135 A 
ATOM     77  F   UNL A   1      45.757  33.294  26.005  1.00  0.00    -0.206 F 
ATOM     78  C   UNL A   1      46.393  35.043  27.431  1.00  0.00     0.059 A 
ATOM     79  C   UNL A   1      46.782  34.605  29.786  1.00  0.00     0.059 A 
ATOM     80  F   UNL A   1      46.571  32.423  30.616  1.00  0.00    -0.206 F 
ATOM     81  C   UNL A   1      46.743  35.486  28.707  1.00  0.00     0.060 A 
BRANCH  81  82
ATOM     82  S   UNL A   1      47.145  37.231  28.932  1.00  0.00     0.124 S 
ATOM     83  O   UNL A   1      48.398  37.147  29.677  1.00  0.00    -0.237 OA
ATOM     84  O   UNL A   1      47.256  37.704  27.555  1.00  0.00    -0.237 OA
ATOM     85  O   UNL A   1      46.004  37.749  29.680  1.00  0.00    -0.744 OA
ENDBRANCH  81  82
ENDBRANCH  60  74
BRANCH  61  86
ATOM     86  C   UNL A   1      43.391  23.258  26.884  1.00  0.00     0.058 A 
ATOM     87  C   UNL A   1      43.131  22.386  27.952  1.00  0.00     0.135 A 
ATOM     88  C   UNL A   1      43.248  22.753  25.581  1.00  0.00     0.135 A 
ATOM     89  F   UNL A   1      43.260  22.817  29.215  1.00  0.00    -0.206 F 
ATOM     90  C   UNL A   1      42.766  21.061  27.740  1.00  0.00     0.059 A 
ATOM     91  C   UNL A   1      42.854  21.441  25.343  1.00  0.00     0.059 A 
ATOM     92  F   UNL A   1      43.468  23.550  24.523  1.00  0.00    -0.206 F 
ATOM     93  C   UNL A   1      42.626  20.598  26.430  1.00  0.00     0.060 A 
BRANCH  93  94
ATOM     94  S   UNL A   1      42.111  18.888  26.168  1.00  0.00     0.124 S 
ATOM     95  O   UNL A   1      42.308  18.315  27.494  1.00  0.00    -0.237 OA
ATOM     96  O   UNL A   1      40.725  19.050  25.740  1.00  0.00    -0.237 OA
ATOM     97  O   UNL A   1      43.028  18.417  25.134  1.00  0.00    -0.744 OA
ENDBRANCH  93  94
ENDBRANCH  61  86
BRANCH  73  98
ATOM     98  C   UNL A   1      49.476  26.658  26.444  1.00  0.00     0.058 A 
ATOM     99  C   UNL A   1      50.297  26.036  27.397  1.00  0.00     0.135 A 
ATOM    100  C   UNL A   1      49.977  26.798  25.139  1.00  0.00     0.135 A 
ATOM    101  F   UNL A   1      49.869  25.881  28.660  1.00  0.00    -0.206 F 
ATOM    102  C   UNL A   1      51.574  25.587  27.073  1.00  0.00     0.059 A 
ATOM    103  C   UNL A   1      51.239  26.328  24.786  1.00  0.00     0.059 A 
ATOM    104  F   UNL A   1      49.231  27.376  24.185  1.00  0.00    -0.206 F 
ATOM    105  C   UNL A   1      52.033  25.733  25.763  1.00  0.00     0.060 A 
BRANCH 105 106
ATOM    106  S   UNL A   1      53.675  25.107  25.347  1.00  0.00     0.124 S 
ATOM    107  O   UNL A   1      54.471  25.608  26.462  1.00  0.00    -0.237 OA
ATOM    108  O   UNL A   1      53.457  23.663  25.321  1.00  0.00    -0.237 OA
ATOM    109  O   UNL A   1      53.954  25.717  24.052  1.00  0.00    -0.744 OA
ENDBRANCH 105 106
ENDBRANCH  73  98
ENDBRANCH  47  48
ENDBRANCH  39  42
ENDBRANCH  37  38
ENDBRANCH  36  37
ENDBRANCH   1  36
TORSDOF 22
ENDMDL
MODEL 2
REMARK VINA RESULT:     -12.9      6.303     11.850
REMARK SMILES O=C1O[C@@H](c2ccc(O)c(O)c2)[C@H](C(=O)NCCCCCCNC(=O)c2ccc(-c3c4nc(c(-c5c(F)cc(S(=O)(=O)[O-])cc5F)c5ccc([nH]5)c(-c5c(F)cc(S(=O)(=O)[O-])cc5F)c5nc(c(-c6c(F)cc(S(=O)(=O)[O-])cc6F)c6ccc3[nH]6)C=C5)C=C4)cc2)/C1=C\c1ccc(O)c(O)c1
REMARK SMILES IDX 20 1 19 2 18 3 17 4 16 5 14 6 15 7 13 9 1 10 2 11 3 12 92 13
REMARK SMILES IDX 4 14 93 15 5 16 6 17 12 18 7 19 10 20 8 21 11 22 9 24 94 26
REMARK SMILES IDX 95 27 101 28 96 29 99 30 97 31 100 32 98 34 21 36 22 37
REMARK SMILES IDX 23 38 24 39 25 41 26 42 27 43 91 44 28 45 90 46 29 47 30 48
REMARK SMILES IDX 31 49 84 50 32 51 89 52 83 53 85 54 33 55 88 56 82 57 81 58
REMARK SMILES IDX 34 60 68 61 47 62 67 63 48 64 51 65 66 66 86 67 49 68 50 69
REMARK SMILES IDX 65 71 87 72 52 73 35 74 36 75 45 76 37 77 38 78 44 79 46 80
REMARK SMILES IDX 39 81 40 82 41 83 42 84 43 85 69 86 70 87 79 88 71 89 72 90
REMARK SMILES IDX 78 91 80 92 73 93 74 94 75 95 76 96 77 97 53 98 54 99 63 100
REMARK SMILES IDX 55 101 56 102 62 103 64 104 57 105 58 106 59 107 60 108
REMARK SMILES IDX 61 109
REMARK H PARENT 16 8 11 23 9 25 100 33 98 35 23 40 85 59 51 70
REMARK Flexibility Score: inf
ROOT
ATOM      1  C   UNL A   1      36.776  23.566  24.706  1.00  0.00     0.002 C 
ENDROOT
BRANCH   1   2
ATOM      2  C   UNL A   1      36.067  22.466  23.909  1.00  0.00     0.002 C 
BRANCH   2   3
ATOM      3  C   UNL A   1      34.707  22.857  23.333  1.00  0.00     0.021 C 
BRANCH   3   4
ATOM      4  C   UNL A   1      34.376  24.338  23.458  1.00  0.00     0.116 C 
BRANCH   4   5
ATOM      5  N   UNL A   1      33.394  24.791  22.496  1.00  0.00    -0.355 N 
ATOM      6  C   UNL A   1      32.423  25.746  22.599  1.00  0.00     0.231 C 
ATOM      7  O   UNL A   1      31.809  26.021  21.566  1.00  0.00    -0.274 OA
ATOM      8  H   UNL A   1      33.433  24.336  21.624  1.00  0.00     0.163 HD
BRANCH   6   9
ATOM      9  C   UNL A   1      32.063  26.352  23.962  1.00  0.00     0.161 C 
ATOM     10  O   UNL A   1      28.504  26.626  24.120  1.00  0.00    -0.247 OA
ATOM     11  C   UNL A   1      29.710  26.802  24.085  1.00  0.00     0.335 C 
ATOM     12  O   UNL A   1      30.325  27.953  23.724  1.00  0.00    -0.453 OA
ATOM     13  C   UNL A   1      30.752  25.824  24.443  1.00  0.00     0.054 C 
ATOM     14  C   UNL A   1      31.751  27.846  23.893  1.00  0.00     0.224 C 
ATOM     15  C   UNL A   1      30.422  24.705  25.103  1.00  0.00     0.020 C 
BRANCH  14  16
ATOM     16  C   UNL A   1      32.244  28.662  25.093  1.00  0.00    -0.002 A 
ATOM     17  C   UNL A   1      33.373  28.256  25.843  1.00  0.00     0.012 A 
ATOM     18  C   UNL A   1      31.653  29.890  25.423  1.00  0.00     0.057 A 
ATOM     19  C   UNL A   1      33.910  29.051  26.861  1.00  0.00     0.050 A 
ATOM     20  C   UNL A   1      32.176  30.663  26.454  1.00  0.00     0.157 A 
ATOM     21  C   UNL A   1      33.304  30.258  27.159  1.00  0.00     0.157 A 
BRANCH  20  22
ATOM     22  O   UNL A   1      31.577  31.851  26.764  1.00  0.00    -0.504 OA
ATOM     23  H   UNL A   1      32.047  32.654  26.659  1.00  0.00     0.293 HD
ENDBRANCH  20  22
BRANCH  21  24
ATOM     24  O   UNL A   1      33.784  31.086  28.134  1.00  0.00    -0.504 OA
ATOM     25  H   UNL A   1      34.695  31.302  28.157  1.00  0.00     0.293 HD
ENDBRANCH  21  24
ENDBRANCH  14  16
BRANCH  15  26
ATOM     26  C   UNL A   1      31.378  23.678  25.512  1.00  0.00    -0.021 A 
ATOM     27  C   UNL A   1      32.390  23.960  26.442  1.00  0.00     0.012 A 
ATOM     28  C   UNL A   1      31.253  22.384  24.993  1.00  0.00     0.058 A 
ATOM     29  C   UNL A   1      33.295  22.969  26.831  1.00  0.00     0.051 A 
ATOM     30  C   UNL A   1      32.150  21.404  25.393  1.00  0.00     0.157 A 
ATOM     31  C   UNL A   1      33.168  21.693  26.299  1.00  0.00     0.157 A 
BRANCH  30  32
ATOM     32  O   UNL A   1      32.026  20.139  24.890  1.00  0.00    -0.504 OA
ATOM     33  H   UNL A   1      31.431  19.972  24.186  1.00  0.00     0.293 HD
ENDBRANCH  30  32
BRANCH  31  34
ATOM     34  O   UNL A   1      34.022  20.680  26.640  1.00  0.00    -0.504 OA
ATOM     35  H   UNL A   1      34.916  20.707  26.360  1.00  0.00     0.293 HD
ENDBRANCH  31  34
ENDBRANCH  15  26
ENDBRANCH   6   9
ENDBRANCH   4   5
ENDBRANCH   3   4
ENDBRANCH   2   3
ENDBRANCH   1   2
BRANCH   1  36
ATOM     36  C   UNL A   1      37.673  23.074  25.845  1.00  0.00     0.021 C 
BRANCH  36  37
ATOM     37  C   UNL A   1      38.535  24.156  26.486  1.00  0.00     0.116 C 
BRANCH  37  38
ATOM     38  N   UNL A   1      39.943  23.995  26.161  1.00  0.00    -0.352 N 
ATOM     39  C   UNL A   1      41.008  24.782  26.520  1.00  0.00     0.251 C 
ATOM     40  H   UNL A   1      40.162  23.212  25.605  1.00  0.00     0.163 HD
ATOM     41  O   UNL A   1      42.101  24.618  25.988  1.00  0.00    -0.269 OA
BRANCH  39  42
ATOM     42  C   UNL A   1      40.824  25.836  27.540  1.00  0.00     0.039 A 
ATOM     43  C   UNL A   1      39.824  25.684  28.502  1.00  0.00     0.014 A 
ATOM     44  C   UNL A   1      41.643  26.969  27.545  1.00  0.00     0.014 A 
ATOM     45  C   UNL A   1      39.681  26.646  29.505  1.00  0.00     0.010 A 
ATOM     46  C   UNL A   1      41.553  27.881  28.591  1.00  0.00     0.010 A 
ATOM     47  C   UNL A   1      40.564  27.735  29.577  1.00  0.00    -0.014 A 
BRANCH  47  48
ATOM     48  C   UNL A   1      40.465  28.744  30.662  1.00  0.00     0.031 A 
ATOM     49  C   UNL A   1      41.342  28.625  31.880  1.00  0.00     0.074 A 
ATOM     50  C   UNL A   1      39.543  29.725  30.583  1.00  0.00     0.049 A 
ATOM     51  N   UNL A   1      41.344  29.346  32.970  1.00  0.00    -0.248 NA
ATOM     52  C   UNL A   1      42.326  27.531  31.884  1.00  0.00     0.031 C 
ATOM     53  C   UNL A   1      38.610  29.923  29.472  1.00  0.00     0.029 A 
ATOM     54  N   UNL A   1      39.231  30.734  31.460  1.00  0.00    -0.354 N 
ATOM     55  C   UNL A   1      42.317  28.789  33.792  1.00  0.00     0.074 A 
ATOM     56  C   UNL A   1      42.841  27.632  33.101  1.00  0.00     0.031 C 
ATOM     57  C   UNL A   1      37.846  30.997  29.724  1.00  0.00     0.029 A 
ATOM     58  C   UNL A   1      38.202  31.540  31.033  1.00  0.00     0.049 A 
ATOM     59  H   UNL A   1      39.700  30.869  32.316  1.00  0.00     0.167 HD
ATOM     60  C   UNL A   1      42.752  29.217  35.001  1.00  0.00     0.037 A 
ATOM     61  C   UNL A   1      37.602  32.587  31.632  1.00  0.00     0.037 A 
ATOM     62  C   UNL A   1      42.239  30.383  35.672  1.00  0.00     0.049 A 
ATOM     63  C   UNL A   1      38.089  33.032  32.986  1.00  0.00     0.074 A 
ATOM     64  C   UNL A   1      42.645  30.930  36.876  1.00  0.00     0.029 A 
ATOM     65  N   UNL A   1      41.207  31.181  35.199  1.00  0.00    -0.354 N 
ATOM     66  N   UNL A   1      39.048  32.525  33.724  1.00  0.00    -0.248 NA
ATOM     67  C   UNL A   1      37.418  34.194  33.585  1.00  0.00     0.031 C 
ATOM     68  C   UNL A   1      41.821  32.023  37.160  1.00  0.00     0.029 A 
ATOM     69  C   UNL A   1      40.945  32.200  36.101  1.00  0.00     0.049 A 
ATOM     70  H   UNL A   1      40.731  31.043  34.349  1.00  0.00     0.167 HD
ATOM     71  C   UNL A   1      39.119  33.330  34.858  1.00  0.00     0.074 A 
ATOM     72  C   UNL A   1      38.112  34.358  34.703  1.00  0.00     0.031 C 
ATOM     73  C   UNL A   1      39.948  33.227  35.927  1.00  0.00     0.037 A 
BRANCH  60  74
ATOM     74  C   UNL A   1      43.837  28.421  35.678  1.00  0.00     0.058 A 
ATOM     75  C   UNL A   1      45.197  28.685  35.455  1.00  0.00     0.135 A 
ATOM     76  C   UNL A   1      43.510  27.404  36.590  1.00  0.00     0.135 A 
ATOM     77  F   UNL A   1      45.569  29.634  34.581  1.00  0.00    -0.206 F 
ATOM     78  C   UNL A   1      46.195  27.949  36.086  1.00  0.00     0.059 A 
ATOM     79  C   UNL A   1      44.492  26.679  37.259  1.00  0.00     0.059 A 
ATOM     80  F   UNL A   1      42.225  27.107  36.841  1.00  0.00    -0.206 F 
ATOM     81  C   UNL A   1      45.832  26.948  36.988  1.00  0.00     0.060 A 
BRANCH  81  82
ATOM     82  S   UNL A   1      47.139  26.006  37.800  1.00  0.00     0.124 S 
ATOM     83  O   UNL A   1      46.991  26.438  39.187  1.00  0.00    -0.237 OA
ATOM     84  O   UNL A   1      46.749  24.628  37.521  1.00  0.00    -0.237 OA
ATOM     85  O   UNL A   1      48.353  26.460  37.129  1.00  0.00    -0.744 OA
ENDBRANCH  81  82
ENDBRANCH  60  74
BRANCH  61  86
ATOM     86  C   UNL A   1      36.488  33.299  30.948  1.00  0.00     0.058 A 
ATOM     87  C   UNL A   1      35.166  33.179  31.403  1.00  0.00     0.135 A 
ATOM     88  C   UNL A   1      36.720  34.117  29.830  1.00  0.00     0.135 A 
ATOM     89  F   UNL A   1      34.890  32.404  32.462  1.00  0.00    -0.206 F 
ATOM     90  C   UNL A   1      34.113  33.825  30.764  1.00  0.00     0.059 A 
ATOM     91  C   UNL A   1      35.689  34.798  29.194  1.00  0.00     0.059 A 
ATOM     92  F   UNL A   1      37.969  34.280  29.365  1.00  0.00    -0.206 F 
ATOM     93  C   UNL A   1      34.385  34.636  29.661  1.00  0.00     0.060 A 
BRANCH  93  94
ATOM     94  S   UNL A   1      33.015  35.502  28.866  1.00  0.00     0.124 S 
ATOM     95  O   UNL A   1      32.454  34.453  28.023  1.00  0.00    -0.237 OA
ATOM     96  O   UNL A   1      32.204  35.905  30.011  1.00  0.00    -0.237 OA
ATOM     97  O   UNL A   1      33.675  36.595  28.159  1.00  0.00    -0.744 OA
ENDBRANCH  93  94
ENDBRANCH  61  86
BRANCH  73  98
ATOM     98  C   UNL A   1      39.842  34.281  36.996  1.00  0.00     0.058 A 
ATOM     99  C   UNL A   1      40.504  35.514  36.893  1.00  0.00     0.135 A 
ATOM    100  C   UNL A   1      39.011  34.075  38.109  1.00  0.00     0.135 A 
ATOM    101  F   UNL A   1      41.314  35.762  35.852  1.00  0.00    -0.206 F 
ATOM    102  C   UNL A   1      40.362  36.498  37.867  1.00  0.00     0.059 A 
ATOM    103  C   UNL A   1      38.829  35.056  39.079  1.00  0.00     0.059 A 
ATOM    104  F   UNL A   1      38.345  32.918  38.252  1.00  0.00    -0.206 F 
ATOM    105  C   UNL A   1      39.517  36.261  38.953  1.00  0.00     0.060 A 
BRANCH 105 106
ATOM    106  S   UNL A   1      39.309  37.563  40.186  1.00  0.00     0.124 S 
ATOM    107  O   UNL A   1      40.637  38.168  40.202  1.00  0.00    -0.237 OA
ATOM    108  O   UNL A   1      38.248  38.377  39.601  1.00  0.00    -0.237 OA
ATOM    109  O   UNL A   1      38.938  36.833  41.394  1.00  0.00    -0.744 OA
ENDBRANCH 105 106
ENDBRANCH  73  98
ENDBRANCH  47  48
ENDBRANCH  39  42
ENDBRANCH  37  38
ENDBRANCH  36  37
ENDBRANCH   1  36
TORSDOF 22
ENDMDL
MODEL 3
REMARK VINA RESULT:     -12.5      0.844      7.998
REMARK SMILES O=C1O[C@@H](c2ccc(O)c(O)c2)[C@H](C(=O)NCCCCCCNC(=O)c2ccc(-c3c4nc(c(-c5c(F)cc(S(=O)(=O)[O-])cc5F)c5ccc([nH]5)c(-c5c(F)cc(S(=O)(=O)[O-])cc5F)c5nc(c(-c6c(F)cc(S(=O)(=O)[O-])cc6F)c6ccc3[nH]6)C=C5)C=C4)cc2)/C1=C\c1ccc(O)c(O)c1
REMARK SMILES IDX 20 1 19 2 18 3 17 4 16 5 14 6 15 7 13 9 1 10 2 11 3 12 92 13
REMARK SMILES IDX 4 14 93 15 5 16 6 17 12 18 7 19 10 20 8 21 11 22 9 24 94 26
REMARK SMILES IDX 95 27 101 28 96 29 99 30 97 31 100 32 98 34 21 36 22 37
REMARK SMILES IDX 23 38 24 39 25 41 26 42 27 43 91 44 28 45 90 46 29 47 30 48
REMARK SMILES IDX 31 49 84 50 32 51 89 52 83 53 85 54 33 55 88 56 82 57 81 58
REMARK SMILES IDX 34 60 68 61 47 62 67 63 48 64 51 65 66 66 86 67 49 68 50 69
REMARK SMILES IDX 65 71 87 72 52 73 35 74 36 75 45 76 37 77 38 78 44 79 46 80
REMARK SMILES IDX 39 81 40 82 41 83 42 84 43 85 69 86 70 87 79 88 71 89 72 90
REMARK SMILES IDX 78 91 80 92 73 93 74 94 75 95 76 96 77 97 53 98 54 99 63 100
REMARK SMILES IDX 55 101 56 102 62 103 64 104 57 105 58 106 59 107 60 108
REMARK SMILES IDX 61 109
REMARK H PARENT 16 8 11 23 9 25 100 33 98 35 23 40 85 59 51 70
REMARK Flexibility Score: inf
ROOT
ATOM      1  C   UNL A   1      32.940  29.142  26.913  1.00  0.00     0.002 C 
ENDROOT
BRANCH   1   2
ATOM      2  C   UNL A   1      31.856  28.166  27.382  1.00  0.00     0.002 C 
BRANCH   2   3
ATOM      3  C   UNL A   1      31.425  27.130  26.345  1.00  0.00     0.021 C 
BRANCH   3   4
ATOM      4  C   UNL A   1      32.130  25.787  26.469  1.00  0.00     0.116 C 
BRANCH   4   5
ATOM      5  N   UNL A   1      31.249  24.655  26.283  1.00  0.00    -0.355 N 
ATOM      6  C   UNL A   1      31.492  23.413  25.767  1.00  0.00     0.231 C 
ATOM      7  O   UNL A   1      30.577  22.592  25.854  1.00  0.00    -0.274 OA
ATOM      8  H   UNL A   1      30.322  24.803  26.577  1.00  0.00     0.163 HD
BRANCH   6   9
ATOM      9  C   UNL A   1      32.805  23.116  25.030  1.00  0.00     0.161 C 
ATOM     10  O   UNL A   1      32.043  20.942  22.297  1.00  0.00    -0.247 OA
ATOM     11  C   UNL A   1      32.450  21.475  23.316  1.00  0.00     0.335 C 
ATOM     12  O   UNL A   1      32.908  20.825  24.413  1.00  0.00    -0.453 OA
ATOM     13  C   UNL A   1      32.555  22.922  23.570  1.00  0.00     0.054 C 
ATOM     14  C   UNL A   1      33.403  21.758  25.391  1.00  0.00     0.224 C 
ATOM     15  C   UNL A   1      32.441  23.791  22.556  1.00  0.00     0.020 C 
BRANCH  14  16
ATOM     16  C   UNL A   1      34.933  21.732  25.476  1.00  0.00    -0.002 A 
ATOM     17  C   UNL A   1      35.676  20.613  25.033  1.00  0.00     0.012 A 
ATOM     18  C   UNL A   1      35.651  22.860  25.903  1.00  0.00     0.057 A 
ATOM     19  C   UNL A   1      37.073  20.622  24.987  1.00  0.00     0.050 A 
ATOM     20  C   UNL A   1      37.042  22.852  25.881  1.00  0.00     0.157 A 
ATOM     21  C   UNL A   1      37.751  21.751  25.414  1.00  0.00     0.157 A 
BRANCH  20  22
ATOM     22  O   UNL A   1      37.719  23.958  26.312  1.00  0.00    -0.504 OA
ATOM     23  H   UNL A   1      38.594  23.875  26.635  1.00  0.00     0.293 HD
ENDBRANCH  20  22
BRANCH  21  24
ATOM     24  O   UNL A   1      39.114  21.829  25.387  1.00  0.00    -0.504 OA
ATOM     25  H   UNL A   1      39.588  21.487  24.654  1.00  0.00     0.293 HD
ENDBRANCH  21  24
ENDBRANCH  14  16
BRANCH  15  26
ATOM     26  C   UNL A   1      32.538  25.242  22.698  1.00  0.00    -0.021 A 
ATOM     27  C   UNL A   1      33.680  25.839  23.255  1.00  0.00     0.012 A 
ATOM     28  C   UNL A   1      31.489  26.045  22.238  1.00  0.00     0.058 A 
ATOM     29  C   UNL A   1      33.765  27.228  23.382  1.00  0.00     0.051 A 
ATOM     30  C   UNL A   1      31.588  27.424  22.358  1.00  0.00     0.157 A 
ATOM     31  C   UNL A   1      32.712  28.013  22.931  1.00  0.00     0.157 A 
BRANCH  30  32
ATOM     32  O   UNL A   1      30.565  28.209  21.904  1.00  0.00    -0.504 OA
ATOM     33  H   UNL A   1      29.737  28.197  22.341  1.00  0.00     0.293 HD
ENDBRANCH  30  32
BRANCH  31  34
ATOM     34  O   UNL A   1      32.736  29.377  23.026  1.00  0.00    -0.504 OA
ATOM     35  H   UNL A   1      31.961  29.874  22.846  1.00  0.00     0.293 HD
ENDBRANCH  31  34
ENDBRANCH  15  26
ENDBRANCH   6   9
ENDBRANCH   4   5
ENDBRANCH   3   4
ENDBRANCH   2   3
ENDBRANCH   1   2
BRANCH   1  36
ATOM     36  C   UNL A   1      34.363  28.577  26.888  1.00  0.00     0.021 C 
BRANCH  36  37
ATOM     37  C   UNL A   1      35.437  29.543  27.372  1.00  0.00     0.116 C 
BRANCH  37  38
ATOM     38  N   UNL A   1      35.320  29.821  28.794  1.00  0.00    -0.352 N 
ATOM     39  C   UNL A   1      36.280  29.750  29.772  1.00  0.00     0.251 C 
ATOM     40  H   UNL A   1      34.425  30.099  29.098  1.00  0.00     0.163 HD
ATOM     41  O   UNL A   1      35.961  29.817  30.954  1.00  0.00    -0.269 OA
BRANCH  39  42
ATOM     42  C   UNL A   1      37.698  29.576  29.388  1.00  0.00     0.039 A 
ATOM     43  C   UNL A   1      38.643  29.316  30.380  1.00  0.00     0.014 A 
ATOM     44  C   UNL A   1      38.086  29.666  28.048  1.00  0.00     0.014 A 
ATOM     45  C   UNL A   1      39.974  29.091  30.022  1.00  0.00     0.010 A 
ATOM     46  C   UNL A   1      39.394  29.361  27.686  1.00  0.00     0.010 A 
ATOM     47  C   UNL A   1      40.355  29.079  28.670  1.00  0.00    -0.014 A 
BRANCH  47  48
ATOM     48  C   UNL A   1      41.753  28.794  28.260  1.00  0.00     0.031 A 
ATOM     49  C   UNL A   1      42.152  27.392  27.880  1.00  0.00     0.074 A 
ATOM     50  C   UNL A   1      42.675  29.776  28.292  1.00  0.00     0.049 A 
ATOM     51  N   UNL A   1      43.335  26.923  27.582  1.00  0.00    -0.248 NA
ATOM     52  C   UNL A   1      41.084  26.380  27.862  1.00  0.00     0.031 C 
ATOM     53  C   UNL A   1      42.420  31.166  28.679  1.00  0.00     0.029 A 
ATOM     54  N   UNL A   1      44.018  29.755  28.007  1.00  0.00    -0.354 N 
ATOM     55  C   UNL A   1      43.156  25.563  27.354  1.00  0.00     0.074 A 
ATOM     56  C   UNL A   1      41.764  25.272  27.609  1.00  0.00     0.031 C 
ATOM     57  C   UNL A   1      43.561  31.866  28.586  1.00  0.00     0.029 A 
ATOM     58  C   UNL A   1      44.639  30.970  28.178  1.00  0.00     0.049 A 
ATOM     59  H   UNL A   1      44.492  28.946  27.706  1.00  0.00     0.167 HD
ATOM     60  C   UNL A   1      44.065  24.646  26.945  1.00  0.00     0.037 A 
ATOM     61  C   UNL A   1      45.933  31.321  28.036  1.00  0.00     0.037 A 
ATOM     62  C   UNL A   1      45.446  24.950  26.673  1.00  0.00     0.049 A 
ATOM     63  C   UNL A   1      46.929  30.279  27.601  1.00  0.00     0.074 A 
ATOM     64  C   UNL A   1      46.437  24.104  26.208  1.00  0.00     0.029 A 
ATOM     65  N   UNL A   1      46.033  26.195  26.844  1.00  0.00    -0.354 N 
ATOM     66  N   UNL A   1      46.731  29.009  27.336  1.00  0.00    -0.248 NA
ATOM     67  C   UNL A   1      48.322  30.717  27.437  1.00  0.00     0.031 C 
ATOM     68  C   UNL A   1      47.635  24.822  26.152  1.00  0.00     0.029 A 
ATOM     69  C   UNL A   1      47.378  26.134  26.518  1.00  0.00     0.049 A 
ATOM     70  H   UNL A   1      45.563  27.004  27.152  1.00  0.00     0.167 HD
ATOM     71  C   UNL A   1      47.967  28.506  26.940  1.00  0.00     0.074 A 
ATOM     72  C   UNL A   1      48.902  29.611  26.994  1.00  0.00     0.031 C 
ATOM     73  C   UNL A   1      48.295  27.246  26.562  1.00  0.00     0.037 A 
BRANCH  60  74
ATOM     74  C   UNL A   1      43.596  23.226  26.766  1.00  0.00     0.058 A 
ATOM     75  C   UNL A   1      43.322  22.394  27.862  1.00  0.00     0.135 A 
ATOM     76  C   UNL A   1      43.383  22.702  25.480  1.00  0.00     0.135 A 
ATOM     77  F   UNL A   1      43.522  22.835  29.115  1.00  0.00    -0.206 F 
ATOM     78  C   UNL A   1      42.884  21.084  27.692  1.00  0.00     0.059 A 
ATOM     79  C   UNL A   1      42.914  21.407  25.286  1.00  0.00     0.059 A 
ATOM     80  F   UNL A   1      43.631  23.452  24.394  1.00  0.00    -0.206 F 
ATOM     81  C   UNL A   1      42.682  20.600  26.399  1.00  0.00     0.060 A 
BRANCH  81  82
ATOM     82  S   UNL A   1      42.112  18.900  26.196  1.00  0.00     0.124 S 
ATOM     83  O   UNL A   1      43.051  18.394  25.199  1.00  0.00    -0.237 OA
ATOM     84  O   UNL A   1      42.266  18.358  27.543  1.00  0.00    -0.237 OA
ATOM     85  O   UNL A   1      40.735  19.055  25.739  1.00  0.00    -0.744 OA
ENDBRANCH  81  82
ENDBRANCH  60  74
BRANCH  61  86
ATOM     86  C   UNL A   1      46.357  32.724  28.291  1.00  0.00     0.058 A 
ATOM     87  C   UNL A   1      46.332  33.685  27.268  1.00  0.00     0.135 A 
ATOM     88  C   UNL A   1      46.792  33.137  29.561  1.00  0.00     0.135 A 
ATOM     89  F   UNL A   1      45.931  33.340  26.035  1.00  0.00    -0.206 F 
ATOM     90  C   UNL A   1      46.741  34.996  27.488  1.00  0.00     0.059 A 
ATOM     91  C   UNL A   1      47.176  34.449  29.814  1.00  0.00     0.059 A 
ATOM     92  F   UNL A   1      46.819  32.262  30.579  1.00  0.00    -0.206 F 
ATOM     93  C   UNL A   1      47.159  35.369  28.766  1.00  0.00     0.060 A 
BRANCH  93  94
ATOM     94  S   UNL A   1      47.649  37.084  29.049  1.00  0.00     0.124 S 
ATOM     95  O   UNL A   1      48.184  37.456  27.745  1.00  0.00    -0.237 OA
ATOM     96  O   UNL A   1      46.381  37.704  29.422  1.00  0.00    -0.237 OA
ATOM     97  O   UNL A   1      48.628  36.979  30.127  1.00  0.00    -0.744 OA
ENDBRANCH  93  94
ENDBRANCH  61  86
BRANCH  73  98
ATOM     98  C   UNL A   1      49.714  26.995  26.124  1.00  0.00     0.058 A 
ATOM     99  C   UNL A   1      50.704  26.566  27.020  1.00  0.00     0.135 A 
ATOM    100  C   UNL A   1      50.067  27.127  24.771  1.00  0.00     0.135 A 
ATOM    101  F   UNL A   1      50.422  26.429  28.325  1.00  0.00    -0.206 F 
ATOM    102  C   UNL A   1      52.001  26.296  26.594  1.00  0.00     0.059 A 
ATOM    103  C   UNL A   1      51.349  26.831  24.318  1.00  0.00     0.059 A 
ATOM    104  F   UNL A   1      49.156  27.524  23.869  1.00  0.00    -0.206 F 
ATOM    105  C   UNL A   1      52.311  26.426  25.239  1.00  0.00     0.060 A 
BRANCH 105 106
ATOM    106  S   UNL A   1      53.986  26.029  24.694  1.00  0.00     0.124 S 
ATOM    107  O   UNL A   1      54.067  24.606  25.007  1.00  0.00    -0.237 OA
ATOM    108  O   UNL A   1      53.938  26.365  23.275  1.00  0.00    -0.237 OA
ATOM    109  O   UNL A   1      54.825  26.900  25.511  1.00  0.00    -0.744 OA
ENDBRANCH 105 106
ENDBRANCH  73  98
ENDBRANCH  47  48
ENDBRANCH  39  42
ENDBRANCH  37  38
ENDBRANCH  36  37
ENDBRANCH   1  36
TORSDOF 22
ENDMDL
