MODEL 1
REMARK VINA RESULT:     -11.3      0.000      0.000
REMARK SMILES O=C(NCCCCCCNC(=O)[C@H]1C=C[C@@H](NS(=O)(=O)c2ccc(Br)cc2)C1)c1ccc(-c2c3nc(c(-c4c(F)cc(S(=O)(=O)[O-])cc4F)c4ccc([nH]4)c(-c4c(F)cc(S(=O)(=O)[O-])cc4F)c4nc(c(-c5c(F)cc(S(=O)(=O)[O-])cc5F)c5ccc2[nH]5)C=C4)C=C3)cc1
REMARK SMILES IDX 6 1 5 2 4 3 3 4 1 5 2 6 29 8 30 9 94 10 31 11 93 12 32 13
REMARK SMILES IDX 33 14 34 15 87 16 35 17 92 18 86 19 88 20 36 21 91 22 85 23
REMARK SMILES IDX 84 24 37 26 71 27 50 28 70 29 51 30 54 31 69 32 89 33 52 34
REMARK SMILES IDX 53 35 68 37 90 38 55 39 38 40 39 41 48 42 40 43 41 44 47 45
REMARK SMILES IDX 49 46 42 47 43 48 44 49 45 50 46 51 72 52 73 53 82 54 74 55
REMARK SMILES IDX 75 56 81 57 83 58 76 59 77 60 78 61 79 62 80 63 56 64 57 65
REMARK SMILES IDX 66 66 58 67 59 68 65 69 67 70 60 71 61 72 62 73 63 74 64 75
REMARK SMILES IDX 7 76 8 77 9 78 10 79 11 80 12 82 13 83 14 84 28 85 15 86
REMARK SMILES IDX 16 87 17 88 18 90 19 91 20 92 21 93 22 94 27 95 23 96 26 97
REMARK SMILES IDX 24 98 25 99
REMARK H PARENT 3 7 88 25 54 36 10 81 17 89
REMARK Flexibility Score: inf
ROOT
ATOM      1  C   UNL A   1      31.665  29.027  25.968  1.00  0.00     0.002 C 
ENDROOT
BRANCH   1   2
ATOM      2  C   UNL A   1      32.772  28.000  26.205  1.00  0.00     0.021 C 
BRANCH   2   3
ATOM      3  C   UNL A   1      33.813  28.431  27.228  1.00  0.00     0.116 C 
BRANCH   3   4
ATOM      4  N   UNL A   1      33.660  29.826  27.605  1.00  0.00    -0.352 N 
ATOM      5  O   UNL A   1      34.209  31.729  28.686  1.00  0.00    -0.269 OA
ATOM      6  C   UNL A   1      34.560  30.637  28.252  1.00  0.00     0.251 C 
ATOM      7  H   UNL A   1      32.801  30.243  27.367  1.00  0.00     0.163 HD
BRANCH   6   8
ATOM      8  C   UNL A   1      35.952  30.171  28.425  1.00  0.00     0.039 A 
ATOM      9  C   UNL A   1      36.863  30.279  27.369  1.00  0.00     0.014 A 
ATOM     10  C   UNL A   1      36.350  29.634  29.650  1.00  0.00     0.014 A 
ATOM     11  C   UNL A   1      38.140  29.753  27.502  1.00  0.00     0.010 A 
ATOM     12  C   UNL A   1      37.664  29.187  29.811  1.00  0.00     0.010 A 
ATOM     13  C   UNL A   1      38.567  29.241  28.737  1.00  0.00    -0.014 A 
BRANCH  13  14
ATOM     14  C   UNL A   1      40.000  28.911  28.927  1.00  0.00     0.031 A 
ATOM     15  C   UNL A   1      40.564  27.583  28.515  1.00  0.00     0.074 A 
ATOM     16  C   UNL A   1      40.785  29.841  29.509  1.00  0.00     0.049 A 
ATOM     17  N   UNL A   1      41.782  27.131  28.662  1.00  0.00    -0.248 NA
ATOM     18  C   UNL A   1      39.649  26.634  27.860  1.00  0.00     0.031 C 
ATOM     19  C   UNL A   1      40.329  31.159  29.966  1.00  0.00     0.029 A 
ATOM     20  N   UNL A   1      42.119  29.829  29.826  1.00  0.00    -0.354 N 
ATOM     21  C   UNL A   1      41.779  25.841  28.146  1.00  0.00     0.074 A 
ATOM     22  C   UNL A   1      40.433  25.577  27.684  1.00  0.00     0.031 C 
ATOM     23  C   UNL A   1      41.364  31.830  30.488  1.00  0.00     0.029 A 
ATOM     24  C   UNL A   1      42.538  30.967  30.474  1.00  0.00     0.049 A 
ATOM     25  H   UNL A   1      42.718  29.078  29.610  1.00  0.00     0.167 HD
ATOM     26  C   UNL A   1      42.810  24.966  28.074  1.00  0.00     0.037 A 
ATOM     27  C   UNL A   1      43.719  31.269  31.044  1.00  0.00     0.037 A 
ATOM     28  C   UNL A   1      44.148  25.259  28.526  1.00  0.00     0.049 A 
ATOM     29  C   UNL A   1      44.828  30.259  30.979  1.00  0.00     0.074 A 
ATOM     30  C   UNL A   1      45.279  24.469  28.418  1.00  0.00     0.029 A 
ATOM     31  N   UNL A   1      44.531  26.416  29.188  1.00  0.00    -0.354 N 
ATOM     32  N   UNL A   1      44.833  29.080  30.404  1.00  0.00    -0.248 NA
ATOM     33  C   UNL A   1      46.090  30.611  31.642  1.00  0.00     0.031 C 
ATOM     34  C   UNL A   1      46.328  25.115  29.078  1.00  0.00     0.029 A 
ATOM     35  C   UNL A   1      45.868  26.337  29.541  1.00  0.00     0.049 A 
ATOM     36  H   UNL A   1      43.941  27.179  29.379  1.00  0.00     0.167 HD
ATOM     37  C   UNL A   1      46.097  28.553  30.632  1.00  0.00     0.074 A 
ATOM     38  C   UNL A   1      46.841  29.555  31.367  1.00  0.00     0.031 C 
ATOM     39  C   UNL A   1      46.594  27.345  30.273  1.00  0.00     0.037 A 
BRANCH  26  40
ATOM     40  C   UNL A   1      42.556  23.594  27.513  1.00  0.00     0.058 A 
ATOM     41  C   UNL A   1      42.711  23.307  26.149  1.00  0.00     0.135 A 
ATOM     42  C   UNL A   1      42.269  22.523  28.378  1.00  0.00     0.135 A 
ATOM     43  F   UNL A   1      42.972  24.292  25.276  1.00  0.00    -0.206 F 
ATOM     44  C   UNL A   1      42.596  22.008  25.662  1.00  0.00     0.059 A 
ATOM     45  C   UNL A   1      42.173  21.214  27.917  1.00  0.00     0.059 A 
ATOM     46  F   UNL A   1      42.106  22.743  29.692  1.00  0.00    -0.206 F 
ATOM     47  C   UNL A   1      42.337  20.967  26.556  1.00  0.00     0.060 A 
BRANCH  47  48
ATOM     48  S   UNL A   1      42.247  19.281  25.912  1.00  0.00     0.124 S 
ATOM     49  O   UNL A   1      42.815  18.516  27.018  1.00  0.00    -0.237 OA
ATOM     50  O   UNL A   1      40.814  19.109  25.695  1.00  0.00    -0.237 OA
ATOM     51  O   UNL A   1      43.061  19.332  24.702  1.00  0.00    -0.744 OA
ENDBRANCH  47  48
ENDBRANCH  26  40
BRANCH  27  52
ATOM     52  C   UNL A   1      43.889  32.553  31.774  1.00  0.00     0.058 A 
ATOM     53  C   UNL A   1      43.463  32.698  33.101  1.00  0.00     0.135 A 
ATOM     54  C   UNL A   1      44.472  33.668  31.150  1.00  0.00     0.135 A 
ATOM     55  F   UNL A   1      42.900  31.663  33.743  1.00  0.00    -0.206 F 
ATOM     56  C   UNL A   1      43.575  33.912  33.772  1.00  0.00     0.059 A 
ATOM     57  C   UNL A   1      44.628  34.880  31.810  1.00  0.00     0.059 A 
ATOM     58  F   UNL A   1      44.917  33.577  29.886  1.00  0.00    -0.206 F 
ATOM     59  C   UNL A   1      44.157  34.998  33.116  1.00  0.00     0.060 A 
BRANCH  59  60
ATOM     60  S   UNL A   1      44.299  36.567  33.996  1.00  0.00     0.124 S 
ATOM     61  O   UNL A   1      45.036  37.375  33.032  1.00  0.00    -0.237 OA
ATOM     62  O   UNL A   1      42.901  36.931  34.202  1.00  0.00    -0.237 OA
ATOM     63  O   UNL A   1      45.030  36.206  35.207  1.00  0.00    -0.744 OA
ENDBRANCH  59  60
ENDBRANCH  27  52
BRANCH  39  64
ATOM     64  C   UNL A   1      48.014  27.040  30.661  1.00  0.00     0.058 A 
ATOM     65  C   UNL A   1      48.313  26.283  31.804  1.00  0.00     0.135 A 
ATOM     66  C   UNL A   1      49.081  27.451  29.847  1.00  0.00     0.135 A 
ATOM     67  F   UNL A   1      47.330  25.879  32.624  1.00  0.00    -0.206 F 
ATOM     68  C   UNL A   1      49.623  25.951  32.131  1.00  0.00     0.059 A 
ATOM     69  C   UNL A   1      50.396  27.104  30.137  1.00  0.00     0.059 A 
ATOM     70  F   UNL A   1      48.847  28.174  28.739  1.00  0.00    -0.206 F 
ATOM     71  C   UNL A   1      50.657  26.357  31.285  1.00  0.00     0.060 A 
BRANCH  71  72
ATOM     72  S   UNL A   1      52.345  25.862  31.690  1.00  0.00     0.124 S 
ATOM     73  O   UNL A   1      52.156  24.474  32.098  1.00  0.00    -0.237 OA
ATOM     74  O   UNL A   1      53.038  26.062  30.421  1.00  0.00    -0.237 OA
ATOM     75  O   UNL A   1      52.724  26.784  32.756  1.00  0.00    -0.744 OA
ENDBRANCH  71  72
ENDBRANCH  39  64
ENDBRANCH  13  14
ENDBRANCH   6   8
ENDBRANCH   3   4
ENDBRANCH   2   3
ENDBRANCH   1   2
BRANCH   1  76
ATOM     76  C   UNL A   1      31.381  29.335  24.494  1.00  0.00     0.002 C 
BRANCH  76  77
ATOM     77  C   UNL A   1      30.229  28.535  23.873  1.00  0.00     0.021 C 
BRANCH  77  78
ATOM     78  C   UNL A   1      30.415  28.205  22.393  1.00  0.00     0.116 C 
BRANCH  78  79
ATOM     79  N   UNL A   1      31.822  28.146  22.050  1.00  0.00    -0.356 N 
ATOM     80  C   UNL A   1      32.673  27.083  22.052  1.00  0.00     0.226 C 
ATOM     81  H   UNL A   1      32.222  29.002  21.775  1.00  0.00     0.163 HD
ATOM     82  O   UNL A   1      33.866  27.296  21.834  1.00  0.00    -0.274 OA
BRANCH  80  83
ATOM     83  C   UNL A   1      32.109  25.691  22.322  1.00  0.00     0.103 C 
ATOM     84  C   UNL A   1      32.917  24.644  21.623  1.00  0.00    -0.016 C 
ATOM     85  C   UNL A   1      32.245  25.298  23.799  1.00  0.00     0.042 C 
ATOM     86  C   UNL A   1      33.247  23.640  22.438  1.00  0.00    -0.011 C 
ATOM     87  C   UNL A   1      32.696  23.823  23.807  1.00  0.00     0.093 C 
BRANCH  87  88
ATOM     88  N   UNL A   1      33.701  23.626  24.849  1.00  0.00    -0.204 NA
ATOM     89  H   UNL A   1      33.881  24.542  25.257  1.00  0.00     0.142 HD
BRANCH  88  90
ATOM     90  S   UNL A   1      33.418  22.577  26.132  1.00  0.00     0.241 S 
ATOM     91  O   UNL A   1      34.474  22.746  27.103  1.00  0.00    -0.207 OA
ATOM     92  O   UNL A   1      32.031  22.756  26.513  1.00  0.00    -0.207 OA
BRANCH  90  93
ATOM     93  C   UNL A   1      33.570  20.965  25.410  1.00  0.00     0.082 A 
ATOM     94  C   UNL A   1      34.843  20.422  25.199  1.00  0.00     0.023 A 
ATOM     95  C   UNL A   1      32.420  20.249  25.069  1.00  0.00     0.023 A 
ATOM     96  C   UNL A   1      34.964  19.149  24.639  1.00  0.00     0.017 A 
ATOM     97  C   UNL A   1      32.546  18.978  24.505  1.00  0.00     0.017 A 
ATOM     98  C   UNL A   1      33.816  18.434  24.296  1.00  0.00     0.018 A 
ATOM     99  Br  UNL A   1      33.984  16.707  23.547  1.00  0.00    -0.051 Br
ENDBRANCH  90  93
ENDBRANCH  88  90
ENDBRANCH  87  88
ENDBRANCH  80  83
ENDBRANCH  78  79
ENDBRANCH  77  78
ENDBRANCH  76  77
ENDBRANCH   1  76
TORSDOF 19
ENDMDL
MODEL 2
REMARK VINA RESULT:     -11.0      0.947      8.209
REMARK SMILES O=C(NCCCCCCNC(=O)[C@H]1C=C[C@@H](NS(=O)(=O)c2ccc(Br)cc2)C1)c1ccc(-c2c3nc(c(-c4c(F)cc(S(=O)(=O)[O-])cc4F)c4ccc([nH]4)c(-c4c(F)cc(S(=O)(=O)[O-])cc4F)c4nc(c(-c5c(F)cc(S(=O)(=O)[O-])cc5F)c5ccc2[nH]5)C=C4)C=C3)cc1
REMARK SMILES IDX 6 1 5 2 4 3 3 4 1 5 2 6 29 8 30 9 94 10 31 11 93 12 32 13
REMARK SMILES IDX 33 14 34 15 87 16 35 17 92 18 86 19 88 20 36 21 91 22 85 23
REMARK SMILES IDX 84 24 37 26 71 27 50 28 70 29 51 30 54 31 69 32 89 33 52 34
REMARK SMILES IDX 53 35 68 37 90 38 55 39 38 40 39 41 48 42 40 43 41 44 47 45
REMARK SMILES IDX 49 46 42 47 43 48 44 49 45 50 46 51 72 52 73 53 82 54 74 55
REMARK SMILES IDX 75 56 81 57 83 58 76 59 77 60 78 61 79 62 80 63 56 64 57 65
REMARK SMILES IDX 66 66 58 67 59 68 65 69 67 70 60 71 61 72 62 73 63 74 64 75
REMARK SMILES IDX 7 76 8 77 9 78 10 79 11 80 12 82 13 83 14 84 28 85 15 86
REMARK SMILES IDX 16 87 17 88 18 90 19 91 20 92 21 93 22 94 27 95 23 96 26 97
REMARK SMILES IDX 24 98 25 99
REMARK H PARENT 3 7 88 25 54 36 10 81 17 89
REMARK Flexibility Score: inf
ROOT
ATOM      1  C   UNL A   1      33.274  29.261  24.859  1.00  0.00     0.002 C 
ENDROOT
BRANCH   1   2
ATOM      2  C   UNL A   1      33.953  28.205  25.729  1.00  0.00     0.021 C 
BRANCH   2   3
ATOM      3  C   UNL A   1      33.761  28.412  27.224  1.00  0.00     0.116 C 
BRANCH   3   4
ATOM      4  N   UNL A   1      33.558  29.812  27.559  1.00  0.00    -0.352 N 
ATOM      5  O   UNL A   1      34.016  31.756  28.608  1.00  0.00    -0.269 OA
ATOM      6  C   UNL A   1      34.411  30.663  28.216  1.00  0.00     0.251 C 
ATOM      7  H   UNL A   1      32.698  30.200  27.278  1.00  0.00     0.163 HD
BRANCH   6   8
ATOM      8  C   UNL A   1      35.807  30.238  28.453  1.00  0.00     0.039 A 
ATOM      9  C   UNL A   1      36.746  30.307  27.418  1.00  0.00     0.014 A 
ATOM     10  C   UNL A   1      36.182  29.780  29.717  1.00  0.00     0.014 A 
ATOM     11  C   UNL A   1      38.029  29.818  27.616  1.00  0.00     0.010 A 
ATOM     12  C   UNL A   1      37.500  29.372  29.940  1.00  0.00     0.010 A 
ATOM     13  C   UNL A   1      38.432  29.386  28.889  1.00  0.00    -0.014 A 
BRANCH  13  14
ATOM     14  C   UNL A   1      39.866  29.100  29.136  1.00  0.00     0.031 A 
ATOM     15  C   UNL A   1      40.805  30.160  29.632  1.00  0.00     0.074 A 
ATOM     16  C   UNL A   1      40.310  27.854  28.875  1.00  0.00     0.049 A 
ATOM     17  N   UNL A   1      42.092  30.075  29.847  1.00  0.00    -0.248 NA
ATOM     18  C   UNL A   1      40.237  31.486  29.921  1.00  0.00     0.031 C 
ATOM     19  C   UNL A   1      39.480  26.755  28.368  1.00  0.00     0.029 A 
ATOM     20  N   UNL A   1      41.557  27.296  28.986  1.00  0.00    -0.354 N 
ATOM     21  C   UNL A   1      42.496  31.336  30.268  1.00  0.00     0.074 A 
ATOM     22  C   UNL A   1      41.316  32.174  30.276  1.00  0.00     0.031 C 
ATOM     23  C   UNL A   1      40.234  25.657  28.229  1.00  0.00     0.029 A 
ATOM     24  C   UNL A   1      41.613  25.990  28.560  1.00  0.00     0.049 A 
ATOM     25  H   UNL A   1      42.337  27.784  29.338  1.00  0.00     0.167 HD
ATOM     26  C   UNL A   1      43.741  31.746  30.611  1.00  0.00     0.037 A 
ATOM     27  C   UNL A   1      42.663  25.163  28.401  1.00  0.00     0.037 A 
ATOM     28  C   UNL A   1      44.899  30.886  30.611  1.00  0.00     0.049 A 
ATOM     29  C   UNL A   1      44.034  25.663  28.755  1.00  0.00     0.074 A 
ATOM     30  C   UNL A   1      46.186  31.186  31.024  1.00  0.00     0.029 A 
ATOM     31  N   UNL A   1      44.920  29.574  30.162  1.00  0.00    -0.354 N 
ATOM     32  N   UNL A   1      44.382  26.831  29.240  1.00  0.00    -0.248 NA
ATOM     33  C   UNL A   1      45.156  24.743  28.534  1.00  0.00     0.031 C 
ATOM     34  C   UNL A   1      46.999  30.081  30.755  1.00  0.00     0.029 A 
ATOM     35  C   UNL A   1      46.208  29.070  30.237  1.00  0.00     0.049 A 
ATOM     36  H   UNL A   1      44.136  29.076  29.838  1.00  0.00     0.167 HD
ATOM     37  C   UNL A   1      45.762  26.782  29.388  1.00  0.00     0.074 A 
ATOM     38  C   UNL A   1      46.180  25.459  28.973  1.00  0.00     0.031 C 
ATOM     39  C   UNL A   1      46.607  27.749  29.820  1.00  0.00     0.037 A 
BRANCH  26  40
ATOM     40  C   UNL A   1      43.949  33.185  30.993  1.00  0.00     0.058 A 
ATOM     41  C   UNL A   1      43.871  33.620  32.324  1.00  0.00     0.135 A 
ATOM     42  C   UNL A   1      44.350  34.119  30.022  1.00  0.00     0.135 A 
ATOM     43  F   UNL A   1      43.480  32.775  33.291  1.00  0.00    -0.206 F 
ATOM     44  C   UNL A   1      44.189  34.927  32.680  1.00  0.00     0.059 A 
ATOM     45  C   UNL A   1      44.696  35.424  30.358  1.00  0.00     0.059 A 
ATOM     46  F   UNL A   1      44.437  33.756  28.732  1.00  0.00    -0.206 F 
ATOM     47  C   UNL A   1      44.611  35.819  31.691  1.00  0.00     0.060 A 
BRANCH  47  48
ATOM     48  S   UNL A   1      45.072  37.496  32.182  1.00  0.00     0.124 S 
ATOM     49  O   UNL A   1      44.574  37.546  33.553  1.00  0.00    -0.237 OA
ATOM     50  O   UNL A   1      46.525  37.471  32.038  1.00  0.00    -0.237 OA
ATOM     51  O   UNL A   1      44.364  38.340  31.226  1.00  0.00    -0.744 OA
ENDBRANCH  47  48
ENDBRANCH  26  40
BRANCH  27  52
ATOM     52  C   UNL A   1      42.463  23.805  27.828  1.00  0.00     0.058 A 
ATOM     53  C   UNL A   1      42.404  22.670  28.646  1.00  0.00     0.135 A 
ATOM     54  C   UNL A   1      42.341  23.618  26.441  1.00  0.00     0.135 A 
ATOM     55  F   UNL A   1      42.516  22.795  29.978  1.00  0.00    -0.206 F 
ATOM     56  C   UNL A   1      42.267  21.393  28.110  1.00  0.00     0.059 A 
ATOM     57  C   UNL A   1      42.166  22.358  25.884  1.00  0.00     0.059 A 
ATOM     58  F   UNL A   1      42.370  24.675  25.612  1.00  0.00    -0.206 F 
ATOM     59  C   UNL A   1      42.152  21.248  26.726  1.00  0.00     0.060 A 
BRANCH  59  60
ATOM     60  S   UNL A   1      41.972  19.588  26.042  1.00  0.00     0.124 S 
ATOM     61  O   UNL A   1      42.427  18.764  27.155  1.00  0.00    -0.237 OA
ATOM     62  O   UNL A   1      40.544  19.532  25.745  1.00  0.00    -0.237 OA
ATOM     63  O   UNL A   1      42.848  19.611  24.874  1.00  0.00    -0.744 OA
ENDBRANCH  59  60
ENDBRANCH  27  52
BRANCH  39  64
ATOM     64  C   UNL A   1      48.070  27.411  29.875  1.00  0.00     0.058 A 
ATOM     65  C   UNL A   1      48.924  27.679  28.794  1.00  0.00     0.135 A 
ATOM     66  C   UNL A   1      48.637  26.877  31.044  1.00  0.00     0.135 A 
ATOM     67  F   UNL A   1      48.430  28.175  27.649  1.00  0.00    -0.206 F 
ATOM     68  C   UNL A   1      50.289  27.421  28.867  1.00  0.00     0.059 A 
ATOM     69  C   UNL A   1      50.003  26.641  31.150  1.00  0.00     0.059 A 
ATOM     70  F   UNL A   1      47.863  26.607  32.108  1.00  0.00    -0.206 F 
ATOM     71  C   UNL A   1      50.821  26.912  30.054  1.00  0.00     0.060 A 
BRANCH  71  72
ATOM     72  S   UNL A   1      52.603  26.644  30.154  1.00  0.00     0.124 S 
ATOM     73  O   UNL A   1      52.685  25.574  31.143  1.00  0.00    -0.237 OA
ATOM     74  O   UNL A   1      52.936  26.267  28.784  1.00  0.00    -0.237 OA
ATOM     75  O   UNL A   1      53.118  27.939  30.586  1.00  0.00    -0.744 OA
ENDBRANCH  71  72
ENDBRANCH  39  64
ENDBRANCH  13  14
ENDBRANCH   6   8
ENDBRANCH   3   4
ENDBRANCH   2   3
ENDBRANCH   1   2
BRANCH   1  76
ATOM     76  C   UNL A   1      32.616  28.718  23.585  1.00  0.00     0.002 C 
BRANCH  76  77
ATOM     77  C   UNL A   1      31.156  28.279  23.744  1.00  0.00     0.021 C 
BRANCH  77  78
ATOM     78  C   UNL A   1      30.642  27.375  22.625  1.00  0.00     0.116 C 
BRANCH  78  79
ATOM     79  N   UNL A   1      31.700  27.067  21.684  1.00  0.00    -0.356 N 
ATOM     80  C   UNL A   1      32.478  25.954  21.585  1.00  0.00     0.226 C 
ATOM     81  H   UNL A   1      31.884  27.767  21.016  1.00  0.00     0.163 HD
ATOM     82  O   UNL A   1      33.403  25.964  20.771  1.00  0.00    -0.274 OA
BRANCH  80  83
ATOM     83  C   UNL A   1      32.168  24.759  22.482  1.00  0.00     0.103 C 
ATOM     84  C   UNL A   1      32.749  23.502  21.914  1.00  0.00    -0.016 C 
ATOM     85  C   UNL A   1      32.865  24.872  23.843  1.00  0.00     0.042 C 
ATOM     86  C   UNL A   1      33.435  22.811  22.827  1.00  0.00    -0.011 C 
ATOM     87  C   UNL A   1      33.408  23.464  24.163  1.00  0.00     0.093 C 
BRANCH  87  88
ATOM     88  N   UNL A   1      34.736  23.577  24.761  1.00  0.00    -0.204 NA
ATOM     89  H   UNL A   1      34.823  24.536  25.097  1.00  0.00     0.142 HD
BRANCH  88  90
ATOM     90  S   UNL A   1      35.196  22.579  26.034  1.00  0.00     0.241 S 
ATOM     91  O   UNL A   1      36.637  22.592  26.128  1.00  0.00    -0.207 OA
ATOM     92  O   UNL A   1      34.380  22.956  27.170  1.00  0.00    -0.207 OA
BRANCH  90  93
ATOM     93  C   UNL A   1      34.681  20.963  25.518  1.00  0.00     0.082 A 
ATOM     94  C   UNL A   1      35.615  20.093  24.943  1.00  0.00     0.023 A 
ATOM     95  C   UNL A   1      33.353  20.570  25.702  1.00  0.00     0.023 A 
ATOM     96  C   UNL A   1      35.213  18.817  24.545  1.00  0.00     0.017 A 
ATOM     97  C   UNL A   1      32.955  19.294  25.298  1.00  0.00     0.017 A 
ATOM     98  C   UNL A   1      33.886  18.424  24.725  1.00  0.00     0.018 A 
ATOM     99  Br  UNL A   1      33.348  16.692  24.194  1.00  0.00    -0.051 Br
ENDBRANCH  90  93
ENDBRANCH  88  90
ENDBRANCH  87  88
ENDBRANCH  80  83
ENDBRANCH  78  79
ENDBRANCH  77  78
ENDBRANCH  76  77
ENDBRANCH   1  76
TORSDOF 19
ENDMDL
MODEL 3
REMARK VINA RESULT:     -10.9      3.283      9.129
REMARK SMILES O=C(NCCCCCCNC(=O)[C@H]1C=C[C@@H](NS(=O)(=O)c2ccc(Br)cc2)C1)c1ccc(-c2c3nc(c(-c4c(F)cc(S(=O)(=O)[O-])cc4F)c4ccc([nH]4)c(-c4c(F)cc(S(=O)(=O)[O-])cc4F)c4nc(c(-c5c(F)cc(S(=O)(=O)[O-])cc5F)c5ccc2[nH]5)C=C4)C=C3)cc1
REMARK SMILES IDX 6 1 5 2 4 3 3 4 1 5 2 6 29 8 30 9 94 10 31 11 93 12 32 13
REMARK SMILES IDX 33 14 34 15 87 16 35 17 92 18 86 19 88 20 36 21 91 22 85 23
REMARK SMILES IDX 84 24 37 26 71 27 50 28 70 29 51 30 54 31 69 32 89 33 52 34
REMARK SMILES IDX 53 35 68 37 90 38 55 39 38 40 39 41 48 42 40 43 41 44 47 45
REMARK SMILES IDX 49 46 42 47 43 48 44 49 45 50 46 51 72 52 73 53 82 54 74 55
REMARK SMILES IDX 75 56 81 57 83 58 76 59 77 60 78 61 79 62 80 63 56 64 57 65
REMARK SMILES IDX 66 66 58 67 59 68 65 69 67 70 60 71 61 72 62 73 63 74 64 75
REMARK SMILES IDX 7 76 8 77 9 78 10 79 11 80 12 82 13 83 14 84 28 85 15 86
REMARK SMILES IDX 16 87 17 88 18 90 19 91 20 92 21 93 22 94 27 95 23 96 26 97
REMARK SMILES IDX 24 98 25 99
REMARK H PARENT 3 7 88 25 54 36 10 81 17 89
REMARK Flexibility Score: inf
ROOT
ATOM      1  C   UNL A   1      32.678  29.613  27.193  1.00  0.00     0.002 C 
ENDROOT
BRANCH   1   2
ATOM      2  C   UNL A   1      34.081  29.425  26.616  1.00  0.00     0.021 C 
BRANCH   2   3
ATOM      3  C   UNL A   1      35.163  29.212  27.665  1.00  0.00     0.116 C 
BRANCH   3   4
ATOM      4  N   UNL A   1      35.111  30.219  28.712  1.00  0.00    -0.352 N 
ATOM      5  O   UNL A   1      35.845  31.308  30.547  1.00  0.00    -0.269 OA
ATOM      6  C   UNL A   1      36.103  30.593  29.585  1.00  0.00     0.251 C 
ATOM      7  H   UNL A   1      34.254  30.693  28.809  1.00  0.00     0.163 HD
BRANCH   6   8
ATOM      8  C   UNL A   1      37.482  30.114  29.352  1.00  0.00     0.039 A 
ATOM      9  C   UNL A   1      37.993  30.054  28.051  1.00  0.00     0.014 A 
ATOM     10  C   UNL A   1      38.270  29.733  30.439  1.00  0.00     0.014 A 
ATOM     11  C   UNL A   1      39.251  29.514  27.827  1.00  0.00     0.010 A 
ATOM     12  C   UNL A   1      39.571  29.273  30.219  1.00  0.00     0.010 A 
ATOM     13  C   UNL A   1      40.069  29.158  28.910  1.00  0.00    -0.014 A 
BRANCH  13  14
ATOM     14  C   UNL A   1      41.490  28.816  28.661  1.00  0.00     0.031 A 
ATOM     15  C   UNL A   1      42.566  29.862  28.679  1.00  0.00     0.074 A 
ATOM     16  C   UNL A   1      41.787  27.528  28.391  1.00  0.00     0.049 A 
ATOM     17  N   UNL A   1      43.843  29.725  28.430  1.00  0.00    -0.248 NA
ATOM     18  C   UNL A   1      42.166  31.239  29.010  1.00  0.00     0.031 C 
ATOM     19  C   UNL A   1      40.808  26.436  28.330  1.00  0.00     0.029 A 
ATOM     20  N   UNL A   1      42.979  26.914  28.111  1.00  0.00    -0.354 N 
ATOM     21  C   UNL A   1      44.396  30.994  28.547  1.00  0.00     0.074 A 
ATOM     22  C   UNL A   1      43.314  31.894  28.886  1.00  0.00     0.031 C 
ATOM     23  C   UNL A   1      41.440  25.290  28.048  1.00  0.00     0.029 A 
ATOM     24  C   UNL A   1      42.853  25.573  27.832  1.00  0.00     0.049 A 
ATOM     25  H   UNL A   1      43.843  27.387  28.111  1.00  0.00     0.167 HD
ATOM     26  C   UNL A   1      45.689  31.362  28.381  1.00  0.00     0.037 A 
ATOM     27  C   UNL A   1      43.759  24.677  27.399  1.00  0.00     0.037 A 
ATOM     28  C   UNL A   1      46.753  30.443  28.061  1.00  0.00     0.049 A 
ATOM     29  C   UNL A   1      45.175  25.129  27.189  1.00  0.00     0.074 A 
ATOM     30  C   UNL A   1      48.108  30.706  27.957  1.00  0.00     0.029 A 
ATOM     31  N   UNL A   1      46.585  29.096  27.773  1.00  0.00    -0.354 N 
ATOM     32  N   UNL A   1      45.697  26.315  27.394  1.00  0.00    -0.248 NA
ATOM     33  C   UNL A   1      46.124  24.131  26.682  1.00  0.00     0.031 C 
ATOM     34  C   UNL A   1      48.748  29.537  27.535  1.00  0.00     0.029 A 
ATOM     35  C   UNL A   1      47.804  28.529  27.439  1.00  0.00     0.049 A 
ATOM     36  H   UNL A   1      45.727  28.615  27.802  1.00  0.00     0.167 HD
ATOM     37  C   UNL A   1      47.037  26.202  27.047  1.00  0.00     0.074 A 
ATOM     38  C   UNL A   1      47.252  24.826  26.652  1.00  0.00     0.031 C 
ATOM     39  C   UNL A   1      48.001  27.155  27.048  1.00  0.00     0.037 A 
BRANCH  26  40
ATOM     40  C   UNL A   1      46.049  32.816  28.512  1.00  0.00     0.058 A 
ATOM     41  C   UNL A   1      46.456  33.375  29.733  1.00  0.00     0.135 A 
ATOM     42  C   UNL A   1      46.101  33.632  27.369  1.00  0.00     0.135 A 
ATOM     43  F   UNL A   1      46.414  32.645  30.859  1.00  0.00    -0.206 F 
ATOM     44  C   UNL A   1      46.907  34.689  29.815  1.00  0.00     0.059 A 
ATOM     45  C   UNL A   1      46.571  34.942  27.424  1.00  0.00     0.059 A 
ATOM     46  F   UNL A   1      45.719  33.149  26.177  1.00  0.00    -0.206 F 
ATOM     47  C   UNL A   1      46.971  35.461  28.653  1.00  0.00     0.060 A 
BRANCH  47  48
ATOM     48  S   UNL A   1      47.611  37.146  28.771  1.00  0.00     0.124 S 
ATOM     49  O   UNL A   1      46.553  37.907  28.114  1.00  0.00    -0.237 OA
ATOM     50  O   UNL A   1      47.722  37.334  30.215  1.00  0.00    -0.237 OA
ATOM     51  O   UNL A   1      48.879  37.083  28.051  1.00  0.00    -0.744 OA
ENDBRANCH  47  48
ENDBRANCH  26  40
BRANCH  27  52
ATOM     52  C   UNL A   1      43.339  23.287  27.078  1.00  0.00     0.058 A 
ATOM     53  C   UNL A   1      43.096  22.348  28.090  1.00  0.00     0.135 A 
ATOM     54  C   UNL A   1      43.187  22.867  25.747  1.00  0.00     0.135 A 
ATOM     55  F   UNL A   1      43.229  22.699  29.378  1.00  0.00    -0.206 F 
ATOM     56  C   UNL A   1      42.752  21.033  27.793  1.00  0.00     0.059 A 
ATOM     57  C   UNL A   1      42.808  21.570  25.426  1.00  0.00     0.059 A 
ATOM     58  F   UNL A   1      43.387  23.733  24.739  1.00  0.00    -0.206 F 
ATOM     59  C   UNL A   1      42.613  20.653  26.457  1.00  0.00     0.060 A 
BRANCH  59  60
ATOM     60  S   UNL A   1      42.164  18.946  26.084  1.00  0.00     0.124 S 
ATOM     61  O   UNL A   1      43.078  18.637  24.990  1.00  0.00    -0.237 OA
ATOM     62  O   UNL A   1      42.431  18.274  27.352  1.00  0.00    -0.237 OA
ATOM     63  O   UNL A   1      40.753  19.043  25.719  1.00  0.00    -0.744 OA
ENDBRANCH  59  60
ENDBRANCH  27  52
BRANCH  39  64
ATOM     64  C   UNL A   1      49.379  26.742  26.616  1.00  0.00     0.058 A 
ATOM     65  C   UNL A   1      50.250  26.073  27.490  1.00  0.00     0.135 A 
ATOM     66  C   UNL A   1      49.809  26.957  25.297  1.00  0.00     0.135 A 
ATOM     67  F   UNL A   1      49.893  25.857  28.766  1.00  0.00    -0.206 F 
ATOM     68  C   UNL A   1      51.504  25.639  27.072  1.00  0.00     0.059 A 
ATOM     69  C   UNL A   1      51.045  26.504  24.849  1.00  0.00     0.059 A 
ATOM     70  F   UNL A   1      49.012  27.589  24.420  1.00  0.00    -0.206 F 
ATOM     71  C   UNL A   1      51.888  25.849  25.747  1.00  0.00     0.060 A 
BRANCH  71  72
ATOM     72  S   UNL A   1      53.491  25.222  25.205  1.00  0.00     0.124 S 
ATOM     73  O   UNL A   1      53.510  25.632  23.805  1.00  0.00    -0.237 OA
ATOM     74  O   UNL A   1      54.414  25.930  26.085  1.00  0.00    -0.237 OA
ATOM     75  O   UNL A   1      53.389  23.785  25.436  1.00  0.00    -0.744 OA
ENDBRANCH  71  72
ENDBRANCH  39  64
ENDBRANCH  13  14
ENDBRANCH   6   8
ENDBRANCH   3   4
ENDBRANCH   2   3
ENDBRANCH   1   2
BRANCH   1  76
ATOM     76  C   UNL A   1      31.980  28.318  27.620  1.00  0.00     0.002 C 
BRANCH  76  77
ATOM     77  C   UNL A   1      31.426  27.468  26.470  1.00  0.00     0.021 C 
BRANCH  77  78
ATOM     78  C   UNL A   1      32.091  26.103  26.314  1.00  0.00     0.116 C 
BRANCH  78  79
ATOM     79  N   UNL A   1      31.313  25.071  26.972  1.00  0.00    -0.356 N 
ATOM     80  C   UNL A   1      31.306  23.725  26.766  1.00  0.00     0.226 C 
ATOM     81  H   UNL A   1      30.699  25.391  27.671  1.00  0.00     0.163 HD
ATOM     82  O   UNL A   1      30.468  23.051  27.367  1.00  0.00    -0.274 OA
BRANCH  80  83
ATOM     83  C   UNL A   1      32.329  23.123  25.807  1.00  0.00     0.103 C 
ATOM     84  C   UNL A   1      31.729  21.996  25.027  1.00  0.00    -0.016 C 
ATOM     85  C   UNL A   1      32.739  24.116  24.713  1.00  0.00     0.042 C 
ATOM     86  C   UNL A   1      31.970  22.110  23.719  1.00  0.00    -0.011 C 
ATOM     87  C   UNL A   1      32.794  23.307  23.402  1.00  0.00     0.093 C 
BRANCH  87  88
ATOM     88  N   UNL A   1      32.232  24.103  22.313  1.00  0.00    -0.204 NA
ATOM     89  H   UNL A   1      31.346  24.475  22.652  1.00  0.00     0.142 HD
BRANCH  88  90
ATOM     90  S   UNL A   1      33.082  25.402  21.667  1.00  0.00     0.241 S 
ATOM     91  O   UNL A   1      34.408  25.413  22.240  1.00  0.00    -0.207 OA
ATOM     92  O   UNL A   1      32.900  25.343  20.231  1.00  0.00    -0.207 OA
BRANCH  90  93
ATOM     93  C   UNL A   1      32.203  26.824  22.259  1.00  0.00     0.082 A 
ATOM     94  C   UNL A   1      30.808  26.865  22.151  1.00  0.00     0.023 A 
ATOM     95  C   UNL A   1      32.909  27.882  22.836  1.00  0.00     0.023 A 
ATOM     96  C   UNL A   1      30.114  27.980  22.625  1.00  0.00     0.017 A 
ATOM     97  C   UNL A   1      32.211  28.997  23.304  1.00  0.00     0.017 A 
ATOM     98  C   UNL A   1      30.818  29.039  23.199  1.00  0.00     0.018 A 
ATOM     99  Br  UNL A   1      29.874  30.542  23.848  1.00  0.00    -0.051 Br
ENDBRANCH  90  93
ENDBRANCH  88  90
ENDBRANCH  87  88
ENDBRANCH  80  83
ENDBRANCH  78  79
ENDBRANCH  77  78
ENDBRANCH  76  77
ENDBRANCH   1  76
TORSDOF 19
ENDMDL
