MODEL 1
REMARK VINA RESULT:     -12.0      0.000      0.000
REMARK SMILES COc1ccc(-c2cc([C@@H]3CC[N@@H+](CC(=O)NCCCCCCNC(=O)c4ccc(-c5c6nc(c(-c7c(F)cc(S(=O)(=O)[O-])cc7F)c7ccc([nH]7)c(-c7c(F)cc(S(=O)(=O)[O-])cc7F)c7nc(c(-c8c(F)cc(S(=O)(=O)[O-])cc8F)c8ccc5[nH]8)C=C7)C=C6)cc4)C3)ccn2)c2ccc(C)nc12
REMARK SMILES IDX 20 1 19 2 18 3 17 4 15 5 16 6 14 8 13 9 10 10 11 11 93 12
REMARK SMILES IDX 12 13 9 15 7 16 8 17 96 18 95 19 94 20 6 21 3 22 4 23 103 24
REMARK SMILES IDX 5 25 97 26 102 27 98 28 100 29 99 30 101 31 2 32 1 33 21 34
REMARK SMILES IDX 22 35 23 36 24 37 25 38 26 40 27 41 28 42 92 43 29 44 91 45
REMARK SMILES IDX 30 46 31 47 32 48 85 49 33 50 90 51 84 52 86 53 34 54 89 55
REMARK SMILES IDX 83 56 82 57 35 59 69 60 48 61 68 62 49 63 52 64 67 65 87 66
REMARK SMILES IDX 50 67 51 68 66 70 88 71 53 72 36 73 37 74 46 75 38 76 39 77
REMARK SMILES IDX 45 78 47 79 40 80 41 81 42 82 43 83 44 84 70 85 71 86 80 87
REMARK SMILES IDX 72 88 73 89 79 90 81 91 74 92 75 93 76 94 77 95 78 96 54 97
REMARK SMILES IDX 55 98 64 99 56 100 57 101 63 102 65 103 58 104 59 105 60 106
REMARK SMILES IDX 61 107 62 108
REMARK H PARENT 17 7 13 14 24 39 86 58 52 69
REMARK Flexibility Score: inf
ROOT
ATOM      1  C   UNL A   1      42.972  21.704  26.715  1.00  0.00     0.002 C 
ENDROOT
BRANCH   1   2
ATOM      2  C   UNL A   1      41.632  21.445  26.016  1.00  0.00     0.021 C 
BRANCH   2   3
ATOM      3  C   UNL A   1      40.652  20.519  26.757  1.00  0.00     0.116 C 
BRANCH   3   4
ATOM      4  N   UNL A   1      39.678  19.861  25.895  1.00  0.00    -0.351 N 
ATOM      5  C   UNL A   1      38.526  20.290  25.298  1.00  0.00     0.275 C 
ATOM      6  O   UNL A   1      37.882  19.455  24.653  1.00  0.00    -0.269 OA
ATOM      7  H   UNL A   1      39.894  18.920  25.705  1.00  0.00     0.163 HD
BRANCH   5   8
ATOM      8  C   UNL A   1      38.033  21.737  25.423  1.00  0.00     0.363 C 
BRANCH   8   9
ATOM      9  N   UNL A   1      36.616  21.972  25.056  1.00  0.00    -0.327 N 
ATOM     10  C   UNL A   1      35.080  23.113  26.584  1.00  0.00     0.080 C 
ATOM     11  C   UNL A   1      35.936  24.111  25.803  1.00  0.00     0.075 C 
ATOM     12  C   UNL A   1      35.622  21.739  26.124  1.00  0.00     0.271 C 
ATOM     13  C   UNL A   1      36.389  23.328  24.577  1.00  0.00     0.263 C 
ATOM     14  H   UNL A   1      36.471  21.274  24.326  1.00  0.00     0.348 HD
BRANCH  10  15
ATOM     15  C   UNL A   1      33.627  23.447  26.295  1.00  0.00    -0.035 A 
ATOM     16  C   UNL A   1      31.956  25.095  25.671  1.00  0.00     0.071 A 
ATOM     17  C   UNL A   1      33.277  24.648  25.677  1.00  0.00     0.033 A 
ATOM     18  N   UNL A   1      30.959  24.369  26.220  1.00  0.00    -0.256 NA
ATOM     19  C   UNL A   1      31.296  23.182  26.775  1.00  0.00     0.112 A 
ATOM     20  C   UNL A   1      32.593  22.687  26.840  1.00  0.00     0.024 A 
BRANCH  16  21
ATOM     21  C   UNL A   1      31.632  26.445  25.166  1.00  0.00     0.010 A 
ATOM     22  C   UNL A   1      30.741  28.975  24.374  1.00  0.00     0.145 A 
ATOM     23  C   UNL A   1      30.153  27.832  23.831  1.00  0.00     0.049 A 
ATOM     24  C   UNL A   1      31.755  28.906  25.343  1.00  0.00     0.113 A 
ATOM     25  C   UNL A   1      30.599  26.575  24.223  1.00  0.00     0.015 A 
ATOM     26  C   UNL A   1      32.233  27.626  25.705  1.00  0.00     0.013 A 
ATOM     27  N   UNL A   1      32.245  30.029  25.927  1.00  0.00    -0.249 NA
ATOM     28  C   UNL A   1      33.305  27.592  26.626  1.00  0.00     0.013 A 
ATOM     29  C   UNL A   1      33.214  29.946  26.865  1.00  0.00     0.038 A 
ATOM     30  C   UNL A   1      33.789  28.746  27.221  1.00  0.00     0.024 A 
ATOM     31  C   UNL A   1      33.672  31.229  27.485  1.00  0.00     0.067 C 
BRANCH  22  32
ATOM     32  O   UNL A   1      30.202  30.161  23.921  1.00  0.00    -0.494 OA
ATOM     33  C   UNL A   1      29.517  30.004  22.678  1.00  0.00     0.278 C 
ENDBRANCH  22  32
ENDBRANCH  16  21
ENDBRANCH  10  15
ENDBRANCH   8   9
ENDBRANCH   5   8
ENDBRANCH   3   4
ENDBRANCH   2   3
ENDBRANCH   1   2
BRANCH   1  34
ATOM     34  C   UNL A   1      44.070  22.221  25.788  1.00  0.00     0.002 C 
BRANCH  34  35
ATOM     35  C   UNL A   1      44.819  23.463  26.289  1.00  0.00     0.021 C 
BRANCH  35  36
ATOM     36  C   UNL A   1      43.931  24.628  26.721  1.00  0.00     0.116 C 
BRANCH  36  37
ATOM     37  N   UNL A   1      42.947  24.949  25.704  1.00  0.00    -0.352 N 
ATOM     38  C   UNL A   1      41.787  25.673  25.843  1.00  0.00     0.251 C 
ATOM     39  H   UNL A   1      43.134  24.605  24.800  1.00  0.00     0.163 HD
ATOM     40  O   UNL A   1      40.925  25.629  24.973  1.00  0.00    -0.269 OA
BRANCH  38  41
ATOM     41  C   UNL A   1      41.586  26.505  27.051  1.00  0.00     0.039 A 
ATOM     42  C   UNL A   1      40.701  26.069  28.040  1.00  0.00     0.014 A 
ATOM     43  C   UNL A   1      42.243  27.732  27.185  1.00  0.00     0.014 A 
ATOM     44  C   UNL A   1      40.489  26.856  29.175  1.00  0.00     0.010 A 
ATOM     45  C   UNL A   1      42.074  28.489  28.343  1.00  0.00     0.010 A 
ATOM     46  C   UNL A   1      41.176  28.071  29.337  1.00  0.00    -0.014 A 
BRANCH  46  47
ATOM     47  C   UNL A   1      40.914  28.945  30.510  1.00  0.00     0.031 A 
ATOM     48  C   UNL A   1      41.756  28.803  31.750  1.00  0.00     0.074 A 
ATOM     49  C   UNL A   1      39.908  29.841  30.474  1.00  0.00     0.049 A 
ATOM     50  N   UNL A   1      41.679  29.452  32.883  1.00  0.00    -0.248 NA
ATOM     51  C   UNL A   1      42.812  27.778  31.719  1.00  0.00     0.031 C 
ATOM     52  C   UNL A   1      38.996  30.045  29.348  1.00  0.00     0.029 A 
ATOM     53  N   UNL A   1      39.486  30.748  31.413  1.00  0.00    -0.354 N 
ATOM     54  C   UNL A   1      42.663  28.908  33.701  1.00  0.00     0.074 A 
ATOM     55  C   UNL A   1      43.287  27.838  32.954  1.00  0.00     0.031 C 
ATOM     56  C   UNL A   1      38.137  31.033  29.652  1.00  0.00     0.029 A 
ATOM     57  C   UNL A   1      38.423  31.516  31.000  1.00  0.00     0.049 A 
ATOM     58  H   UNL A   1      39.905  30.841  32.299  1.00  0.00     0.167 HD
ATOM     59  C   UNL A   1      43.033  29.281  34.949  1.00  0.00     0.037 A 
ATOM     60  C   UNL A   1      37.761  32.504  31.634  1.00  0.00     0.037 A 
ATOM     61  C   UNL A   1      42.428  30.365  35.678  1.00  0.00     0.049 A 
ATOM     62  C   UNL A   1      38.203  32.917  33.012  1.00  0.00     0.074 A 
ATOM     63  C   UNL A   1      42.754  30.850  36.933  1.00  0.00     0.029 A 
ATOM     64  N   UNL A   1      41.374  31.138  35.213  1.00  0.00    -0.354 N 
ATOM     65  N   UNL A   1      39.169  32.424  33.752  1.00  0.00    -0.248 NA
ATOM     66  C   UNL A   1      37.476  34.030  33.638  1.00  0.00     0.031 C 
ATOM     67  C   UNL A   1      41.879  31.900  37.237  1.00  0.00     0.029 A 
ATOM     68  C   UNL A   1      41.035  32.094  36.156  1.00  0.00     0.049 A 
ATOM     69  H   UNL A   1      40.932  31.024  34.341  1.00  0.00     0.167 HD
ATOM     70  C   UNL A   1      39.186  33.189  34.914  1.00  0.00     0.074 A 
ATOM     71  C   UNL A   1      38.139  34.180  34.776  1.00  0.00     0.031 C 
ATOM     72  C   UNL A   1      39.998  33.082  35.995  1.00  0.00     0.037 A 
BRANCH  59  73
ATOM     73  C   UNL A   1      44.152  28.513  35.598  1.00  0.00     0.058 A 
ATOM     74  C   UNL A   1      43.898  27.420  36.443  1.00  0.00     0.135 A 
ATOM     75  C   UNL A   1      45.491  28.865  35.370  1.00  0.00     0.135 A 
ATOM     76  F   UNL A   1      42.636  27.049  36.709  1.00  0.00    -0.206 F 
ATOM     77  C   UNL A   1      44.930  26.728  37.069  1.00  0.00     0.059 A 
ATOM     78  C   UNL A   1      46.541  28.170  35.965  1.00  0.00     0.059 A 
ATOM     79  F   UNL A   1      45.792  29.901  34.570  1.00  0.00    -0.206 F 
ATOM     80  C   UNL A   1      46.249  27.115  36.828  1.00  0.00     0.060 A 
BRANCH  80  81
ATOM     81  S   UNL A   1      47.578  26.217  37.657  1.00  0.00     0.124 S 
ATOM     82  O   UNL A   1      47.810  25.118  36.724  1.00  0.00    -0.237 OA
ATOM     83  O   UNL A   1      48.637  27.218  37.730  1.00  0.00    -0.237 OA
ATOM     84  O   UNL A   1      46.986  25.841  38.937  1.00  0.00    -0.744 OA
ENDBRANCH  80  81
ENDBRANCH  59  73
BRANCH  60  85
ATOM     85  C   UNL A   1      36.643  33.206  30.951  1.00  0.00     0.058 A 
ATOM     86  C   UNL A   1      36.897  34.169  29.962  1.00  0.00     0.135 A 
ATOM     87  C   UNL A   1      35.304  32.923  31.260  1.00  0.00     0.135 A 
ATOM     88  F   UNL A   1      38.161  34.476  29.635  1.00  0.00    -0.206 F 
ATOM     89  C   UNL A   1      35.865  34.839  29.315  1.00  0.00     0.059 A 
ATOM     90  C   UNL A   1      34.254  33.565  30.611  1.00  0.00     0.059 A 
ATOM     91  F   UNL A   1      35.009  31.999  32.187  1.00  0.00    -0.206 F 
ATOM     92  C   UNL A   1      34.545  34.529  29.646  1.00  0.00     0.060 A 
BRANCH  92  93
ATOM     93  S   UNL A   1      33.210  35.366  28.763  1.00  0.00     0.124 S 
ATOM     94  O   UNL A   1      33.955  36.239  27.864  1.00  0.00    -0.237 OA
ATOM     95  O   UNL A   1      32.508  34.251  28.135  1.00  0.00    -0.237 OA
ATOM     96  O   UNL A   1      32.473  36.037  29.830  1.00  0.00    -0.744 OA
ENDBRANCH  92  93
ENDBRANCH  60  85
BRANCH  72  97
ATOM     97  C   UNL A   1      39.819  34.093  37.092  1.00  0.00     0.058 A 
ATOM     98  C   UNL A   1      40.386  35.374  37.017  1.00  0.00     0.135 A 
ATOM     99  C   UNL A   1      39.037  33.785  38.217  1.00  0.00     0.135 A 
ATOM    100  F   UNL A   1      41.146  35.717  35.965  1.00  0.00    -0.206 F 
ATOM    101  C   UNL A   1      40.206  36.307  38.034  1.00  0.00     0.059 A 
ATOM    102  C   UNL A   1      38.824  34.710  39.233  1.00  0.00     0.059 A 
ATOM    103  F   UNL A   1      38.463  32.576  38.331  1.00  0.00    -0.206 F 
ATOM    104  C   UNL A   1      39.426  35.964  39.139  1.00  0.00     0.060 A 
BRANCH 104 105
ATOM    105  S   UNL A   1      39.182  37.189  40.444  1.00  0.00     0.124 S 
ATOM    106  O   UNL A   1      38.569  36.380  41.494  1.00  0.00    -0.237 OA
ATOM    107  O   UNL A   1      40.544  37.643  40.709  1.00  0.00    -0.237 OA
ATOM    108  O   UNL A   1      38.308  38.178  39.822  1.00  0.00    -0.744 OA
ENDBRANCH 104 105
ENDBRANCH  72  97
ENDBRANCH  46  47
ENDBRANCH  38  41
ENDBRANCH  36  37
ENDBRANCH  35  36
ENDBRANCH  34  35
ENDBRANCH   1  34
TORSDOF 20
ENDMDL
MODEL 2
REMARK VINA RESULT:     -11.3      4.799     13.260
REMARK SMILES COc1ccc(-c2cc([C@@H]3CC[N@@H+](CC(=O)NCCCCCCNC(=O)c4ccc(-c5c6nc(c(-c7c(F)cc(S(=O)(=O)[O-])cc7F)c7ccc([nH]7)c(-c7c(F)cc(S(=O)(=O)[O-])cc7F)c7nc(c(-c8c(F)cc(S(=O)(=O)[O-])cc8F)c8ccc5[nH]8)C=C7)C=C6)cc4)C3)ccn2)c2ccc(C)nc12
REMARK SMILES IDX 20 1 19 2 18 3 17 4 15 5 16 6 14 8 13 9 10 10 11 11 93 12
REMARK SMILES IDX 12 13 9 15 7 16 8 17 96 18 95 19 94 20 6 21 3 22 4 23 103 24
REMARK SMILES IDX 5 25 97 26 102 27 98 28 100 29 99 30 101 31 2 32 1 33 21 34
REMARK SMILES IDX 22 35 23 36 24 37 25 38 26 40 27 41 28 42 92 43 29 44 91 45
REMARK SMILES IDX 30 46 31 47 32 48 85 49 33 50 90 51 84 52 86 53 34 54 89 55
REMARK SMILES IDX 83 56 82 57 35 59 69 60 48 61 68 62 49 63 52 64 67 65 87 66
REMARK SMILES IDX 50 67 51 68 66 70 88 71 53 72 36 73 37 74 46 75 38 76 39 77
REMARK SMILES IDX 45 78 47 79 40 80 41 81 42 82 43 83 44 84 70 85 71 86 80 87
REMARK SMILES IDX 72 88 73 89 79 90 81 91 74 92 75 93 76 94 77 95 78 96 54 97
REMARK SMILES IDX 55 98 64 99 56 100 57 101 63 102 65 103 58 104 59 105 60 106
REMARK SMILES IDX 61 107 62 108
REMARK H PARENT 17 7 13 14 24 39 86 58 52 69
REMARK Flexibility Score: inf
ROOT
ATOM      1  C   UNL A   1      37.120  33.395  30.954  1.00  0.00     0.002 C 
ENDROOT
BRANCH   1   2
ATOM      2  C   UNL A   1      37.979  32.283  31.566  1.00  0.00     0.021 C 
BRANCH   2   3
ATOM      3  C   UNL A   1      37.590  31.831  32.984  1.00  0.00     0.116 C 
BRANCH   3   4
ATOM      4  N   UNL A   1      37.275  30.412  33.098  1.00  0.00    -0.351 N 
ATOM      5  C   UNL A   1      38.047  29.285  33.079  1.00  0.00     0.275 C 
ATOM      6  O   UNL A   1      37.460  28.200  33.150  1.00  0.00    -0.269 OA
ATOM      7  H   UNL A   1      36.314  30.231  33.211  1.00  0.00     0.163 HD
BRANCH   5   8
ATOM      8  C   UNL A   1      39.575  29.346  32.963  1.00  0.00     0.363 C 
BRANCH   8   9
ATOM      9  N   UNL A   1      40.333  28.942  34.171  1.00  0.00    -0.327 N 
ATOM     10  C   UNL A   1      42.360  27.577  34.003  1.00  0.00     0.080 C 
ATOM     11  C   UNL A   1      42.656  29.054  33.737  1.00  0.00     0.075 C 
ATOM     12  C   UNL A   1      40.825  27.549  34.193  1.00  0.00     0.271 C 
ATOM     13  C   UNL A   1      41.497  29.788  34.399  1.00  0.00     0.263 C 
ATOM     14  H   UNL A   1      39.630  29.045  34.902  1.00  0.00     0.348 HD
BRANCH  10  15
ATOM     15  C   UNL A   1      43.237  27.146  35.165  1.00  0.00    -0.035 A 
ATOM     16  C   UNL A   1      45.111  25.836  35.983  1.00  0.00     0.071 A 
ATOM     17  C   UNL A   1      44.448  26.489  34.944  1.00  0.00     0.033 A 
ATOM     18  N   UNL A   1      44.637  25.849  37.247  1.00  0.00    -0.256 NA
ATOM     19  C   UNL A   1      43.488  26.529  37.465  1.00  0.00     0.112 A 
ATOM     20  C   UNL A   1      42.761  27.180  36.475  1.00  0.00     0.024 A 
BRANCH  16  21
ATOM     21  C   UNL A   1      46.298  25.004  35.698  1.00  0.00     0.010 A 
ATOM     22  C   UNL A   1      48.603  23.435  35.476  1.00  0.00     0.145 A 
ATOM     23  C   UNL A   1      48.716  24.801  35.741  1.00  0.00     0.049 A 
ATOM     24  C   UNL A   1      47.358  22.799  35.348  1.00  0.00     0.113 A 
ATOM     25  C   UNL A   1      47.570  25.579  35.848  1.00  0.00     0.015 A 
ATOM     26  C   UNL A   1      46.198  23.604  35.416  1.00  0.00     0.013 A 
ATOM     27  N   UNL A   1      47.271  21.454  35.187  1.00  0.00    -0.249 NA
ATOM     28  C   UNL A   1      44.964  22.948  35.208  1.00  0.00     0.013 A 
ATOM     29  C   UNL A   1      46.065  20.856  35.075  1.00  0.00     0.038 A 
ATOM     30  C   UNL A   1      44.888  21.573  35.053  1.00  0.00     0.024 A 
ATOM     31  C   UNL A   1      46.056  19.365  34.936  1.00  0.00     0.067 C 
BRANCH  22  32
ATOM     32  O   UNL A   1      49.809  22.768  35.410  1.00  0.00    -0.494 OA
ATOM     33  C   UNL A   1      50.258  22.335  36.694  1.00  0.00     0.278 C 
ENDBRANCH  22  32
ENDBRANCH  16  21
ENDBRANCH  10  15
ENDBRANCH   8   9
ENDBRANCH   5   8
ENDBRANCH   3   4
ENDBRANCH   2   3
ENDBRANCH   1   2
BRANCH   1  34
ATOM     34  C   UNL A   1      37.118  33.415  29.427  1.00  0.00     0.002 C 
BRANCH  34  35
ATOM     35  C   UNL A   1      35.741  33.257  28.771  1.00  0.00     0.021 C 
BRANCH  35  36
ATOM     36  C   UNL A   1      34.721  32.460  29.582  1.00  0.00     0.116 C 
BRANCH  36  37
ATOM     37  N   UNL A   1      34.010  31.507  28.749  1.00  0.00    -0.352 N 
ATOM     38  C   UNL A   1      34.533  30.496  27.980  1.00  0.00     0.251 C 
ATOM     39  H   UNL A   1      33.030  31.597  28.733  1.00  0.00     0.163 HD
ATOM     40  O   UNL A   1      33.844  29.955  27.123  1.00  0.00    -0.269 OA
BRANCH  38  41
ATOM     41  C   UNL A   1      35.934  30.066  28.194  1.00  0.00     0.039 A 
ATOM     42  C   UNL A   1      36.305  29.544  29.435  1.00  0.00     0.014 A 
ATOM     43  C   UNL A   1      36.885  30.216  27.180  1.00  0.00     0.014 A 
ATOM     44  C   UNL A   1      37.629  29.153  29.654  1.00  0.00     0.010 A 
ATOM     45  C   UNL A   1      38.191  29.774  27.380  1.00  0.00     0.010 A 
ATOM     46  C   UNL A   1      38.582  29.263  28.627  1.00  0.00    -0.014 A 
BRANCH  46  47
ATOM     47  C   UNL A   1      40.005  28.906  28.867  1.00  0.00     0.031 A 
ATOM     48  C   UNL A   1      40.940  29.925  29.461  1.00  0.00     0.074 A 
ATOM     49  C   UNL A   1      40.461  27.685  28.529  1.00  0.00     0.049 A 
ATOM     50  N   UNL A   1      42.216  29.821  29.731  1.00  0.00    -0.248 NA
ATOM     51  C   UNL A   1      40.369  31.247  29.772  1.00  0.00     0.031 C 
ATOM     52  C   UNL A   1      39.665  26.625  27.908  1.00  0.00     0.029 A 
ATOM     53  N   UNL A   1      41.709  27.130  28.658  1.00  0.00    -0.354 N 
ATOM     54  C   UNL A   1      42.601  31.060  30.229  1.00  0.00     0.074 A 
ATOM     55  C   UNL A   1      41.438  31.918  30.172  1.00  0.00     0.031 C 
ATOM     56  C   UNL A   1      40.437  25.539  27.735  1.00  0.00     0.029 A 
ATOM     57  C   UNL A   1      41.786  25.832  28.210  1.00  0.00     0.049 A 
ATOM     58  H   UNL A   1      42.477  27.614  29.038  1.00  0.00     0.167 HD
ATOM     59  C   UNL A   1      43.807  31.444  30.715  1.00  0.00     0.037 A 
ATOM     60  C   UNL A   1      42.826  24.975  28.192  1.00  0.00     0.037 A 
ATOM     61  C   UNL A   1      44.954  30.578  30.797  1.00  0.00     0.049 A 
ATOM     62  C   UNL A   1      44.150  25.415  28.758  1.00  0.00     0.074 A 
ATOM     63  C   UNL A   1      46.210  30.856  31.308  1.00  0.00     0.029 A 
ATOM     64  N   UNL A   1      44.983  29.262  30.359  1.00  0.00    -0.354 N 
ATOM     65  N   UNL A   1      44.483  26.576  29.271  1.00  0.00    -0.248 NA
ATOM     66  C   UNL A   1      45.235  24.424  28.755  1.00  0.00     0.031 C 
ATOM     67  C   UNL A   1      47.006  29.714  31.156  1.00  0.00     0.029 A 
ATOM     68  C   UNL A   1      46.235  28.715  30.585  1.00  0.00     0.049 A 
ATOM     69  H   UNL A   1      44.225  28.787  29.948  1.00  0.00     0.167 HD
ATOM     70  C   UNL A   1      45.806  26.443  29.683  1.00  0.00     0.074 A 
ATOM     71  C   UNL A   1      46.207  25.088  29.364  1.00  0.00     0.031 C 
ATOM     72  C   UNL A   1      46.612  27.359  30.275  1.00  0.00     0.037 A 
BRANCH  59  73
ATOM     73  C   UNL A   1      43.936  32.860  31.205  1.00  0.00     0.058 A 
ATOM     74  C   UNL A   1      44.222  33.917  30.326  1.00  0.00     0.135 A 
ATOM     75  C   UNL A   1      43.768  33.168  32.564  1.00  0.00     0.135 A 
ATOM     76  F   UNL A   1      44.408  33.679  29.018  1.00  0.00    -0.206 F 
ATOM     77  C   UNL A   1      44.373  35.223  30.782  1.00  0.00     0.059 A 
ATOM     78  C   UNL A   1      43.889  34.471  33.039  1.00  0.00     0.059 A 
ATOM     79  F   UNL A   1      43.493  32.196  33.449  1.00  0.00    -0.206 F 
ATOM     80  C   UNL A   1      44.211  35.489  32.142  1.00  0.00     0.060 A 
BRANCH  80  81
ATOM     81  S   UNL A   1      44.423  37.185  32.722  1.00  0.00     0.124 S 
ATOM     82  O   UNL A   1      43.253  37.346  33.580  1.00  0.00    -0.237 OA
ATOM     83  O   UNL A   1      45.708  37.124  33.411  1.00  0.00    -0.237 OA
ATOM     84  O   UNL A   1      44.412  37.969  31.491  1.00  0.00    -0.744 OA
ENDBRANCH  80  81
ENDBRANCH  59  73
BRANCH  60  85
ATOM     85  C   UNL A   1      42.642  23.597  27.667  1.00  0.00     0.058 A 
ATOM     86  C   UNL A   1      42.648  23.347  26.287  1.00  0.00     0.135 A 
ATOM     87  C   UNL A   1      42.469  22.503  28.529  1.00  0.00     0.135 A 
ATOM     88  F   UNL A   1      42.806  24.361  25.423  1.00  0.00    -0.206 F 
ATOM     89  C   UNL A   1      42.474  22.065  25.776  1.00  0.00     0.059 A 
ATOM     90  C   UNL A   1      42.314  21.208  28.043  1.00  0.00     0.059 A 
ATOM     91  F   UNL A   1      42.471  22.687  29.858  1.00  0.00    -0.206 F 
ATOM     92  C   UNL A   1      42.308  21.001  26.664  1.00  0.00     0.060 A 
BRANCH  92  93
ATOM     93  S   UNL A   1      42.134  19.332  25.994  1.00  0.00     0.124 S 
ATOM     94  O   UNL A   1      40.707  19.281  25.700  1.00  0.00    -0.237 OA
ATOM     95  O   UNL A   1      43.024  19.369  24.838  1.00  0.00    -0.237 OA
ATOM     96  O   UNL A   1      42.584  18.483  27.093  1.00  0.00    -0.744 OA
ENDBRANCH  92  93
ENDBRANCH  60  85
BRANCH  72  97
ATOM     97  C   UNL A   1      47.994  26.912  30.661  1.00  0.00     0.058 A 
ATOM     98  C   UNL A   1      49.079  27.018  29.778  1.00  0.00     0.135 A 
ATOM     99  C   UNL A   1      48.240  26.404  31.947  1.00  0.00     0.135 A 
ATOM    100  F   UNL A   1      48.896  27.493  28.536  1.00  0.00    -0.206 F 
ATOM    101  C   UNL A   1      50.357  26.611  30.148  1.00  0.00     0.059 A 
ATOM    102  C   UNL A   1      49.513  26.014  32.346  1.00  0.00     0.059 A 
ATOM    103  F   UNL A   1      47.236  26.293  32.833  1.00  0.00    -0.206 F 
ATOM    104  C   UNL A   1      50.564  26.107  31.434  1.00  0.00     0.060 A 
BRANCH 104 105
ATOM    105  S   UNL A   1      52.230  25.600  31.912  1.00  0.00     0.124 S 
ATOM    106  O   UNL A   1      52.475  26.454  33.070  1.00  0.00    -0.237 OA
ATOM    107  O   UNL A   1      52.057  24.179  32.198  1.00  0.00    -0.237 OA
ATOM    108  O   UNL A   1      53.029  25.902  30.728  1.00  0.00    -0.744 OA
ENDBRANCH 104 105
ENDBRANCH  72  97
ENDBRANCH  46  47
ENDBRANCH  38  41
ENDBRANCH  36  37
ENDBRANCH  35  36
ENDBRANCH  34  35
ENDBRANCH   1  34
TORSDOF 20
ENDMDL
MODEL 3
REMARK VINA RESULT:     -10.6      4.720     13.214
REMARK SMILES COc1ccc(-c2cc([C@@H]3CC[N@@H+](CC(=O)NCCCCCCNC(=O)c4ccc(-c5c6nc(c(-c7c(F)cc(S(=O)(=O)[O-])cc7F)c7ccc([nH]7)c(-c7c(F)cc(S(=O)(=O)[O-])cc7F)c7nc(c(-c8c(F)cc(S(=O)(=O)[O-])cc8F)c8ccc5[nH]8)C=C7)C=C6)cc4)C3)ccn2)c2ccc(C)nc12
REMARK SMILES IDX 20 1 19 2 18 3 17 4 15 5 16 6 14 8 13 9 10 10 11 11 93 12
REMARK SMILES IDX 12 13 9 15 7 16 8 17 96 18 95 19 94 20 6 21 3 22 4 23 103 24
REMARK SMILES IDX 5 25 97 26 102 27 98 28 100 29 99 30 101 31 2 32 1 33 21 34
REMARK SMILES IDX 22 35 23 36 24 37 25 38 26 40 27 41 28 42 92 43 29 44 91 45
REMARK SMILES IDX 30 46 31 47 32 48 85 49 33 50 90 51 84 52 86 53 34 54 89 55
REMARK SMILES IDX 83 56 82 57 35 59 69 60 48 61 68 62 49 63 52 64 67 65 87 66
REMARK SMILES IDX 50 67 51 68 66 70 88 71 53 72 36 73 37 74 46 75 38 76 39 77
REMARK SMILES IDX 45 78 47 79 40 80 41 81 42 82 43 83 44 84 70 85 71 86 80 87
REMARK SMILES IDX 72 88 73 89 79 90 81 91 74 92 75 93 76 94 77 95 78 96 54 97
REMARK SMILES IDX 55 98 64 99 56 100 57 101 63 102 65 103 58 104 59 105 60 106
REMARK SMILES IDX 61 107 62 108
REMARK H PARENT 17 7 13 14 24 39 86 58 52 69
REMARK Flexibility Score: inf
ROOT
ATOM      1  C   UNL A   1      37.211  33.730  30.554  1.00  0.00     0.002 C 
ENDROOT
BRANCH   1   2
ATOM      2  C   UNL A   1      37.747  32.450  31.204  1.00  0.00     0.021 C 
BRANCH   2   3
ATOM      3  C   UNL A   1      37.250  32.157  32.630  1.00  0.00     0.116 C 
BRANCH   3   4
ATOM      4  N   UNL A   1      36.964  30.751  32.890  1.00  0.00    -0.351 N 
ATOM      5  C   UNL A   1      37.765  29.661  33.084  1.00  0.00     0.275 C 
ATOM      6  O   UNL A   1      37.204  28.570  33.234  1.00  0.00    -0.269 OA
ATOM      7  H   UNL A   1      36.002  30.547  32.935  1.00  0.00     0.163 HD
BRANCH   5   8
ATOM      8  C   UNL A   1      39.295  29.767  33.105  1.00  0.00     0.363 C 
BRANCH   8   9
ATOM      9  N   UNL A   1      39.993  28.876  34.063  1.00  0.00    -0.327 N 
ATOM     10  C   UNL A   1      42.213  27.967  33.567  1.00  0.00     0.080 C 
ATOM     11  C   UNL A   1      42.300  29.395  34.108  1.00  0.00     0.075 C 
ATOM     12  C   UNL A   1      40.689  27.712  33.476  1.00  0.00     0.271 C 
ATOM     13  C   UNL A   1      40.986  29.589  34.854  1.00  0.00     0.263 C 
ATOM     14  H   UNL A   1      39.218  28.533  34.630  1.00  0.00     0.348 HD
BRANCH  10  15
ATOM     15  C   UNL A   1      43.036  27.087  34.491  1.00  0.00    -0.035 A 
ATOM     16  C   UNL A   1      45.197  26.515  35.438  1.00  0.00     0.071 A 
ATOM     17  C   UNL A   1      44.340  27.439  34.843  1.00  0.00     0.033 A 
ATOM     18  N   UNL A   1      44.794  25.262  35.739  1.00  0.00    -0.256 NA
ATOM     19  C   UNL A   1      43.514  24.942  35.440  1.00  0.00     0.112 A 
ATOM     20  C   UNL A   1      42.612  25.801  34.824  1.00  0.00     0.024 A 
BRANCH  16  21
ATOM     21  C   UNL A   1      46.621  26.851  35.646  1.00  0.00     0.010 A 
ATOM     22  C   UNL A   1      49.374  27.332  35.761  1.00  0.00     0.145 A 
ATOM     23  C   UNL A   1      48.883  26.049  36.009  1.00  0.00     0.049 A 
ATOM     24  C   UNL A   1      48.531  28.401  35.416  1.00  0.00     0.113 A 
ATOM     25  C   UNL A   1      47.515  25.812  35.954  1.00  0.00     0.015 A 
ATOM     26  C   UNL A   1      47.138  28.163  35.405  1.00  0.00     0.013 A 
ATOM     27  N   UNL A   1      49.040  29.615  35.086  1.00  0.00    -0.249 NA
ATOM     28  C   UNL A   1      46.313  29.277  35.129  1.00  0.00     0.013 A 
ATOM     29  C   UNL A   1      48.216  30.632  34.747  1.00  0.00     0.038 A 
ATOM     30  C   UNL A   1      46.844  30.509  34.785  1.00  0.00     0.024 A 
ATOM     31  C   UNL A   1      48.859  31.927  34.361  1.00  0.00     0.067 C 
BRANCH  22  32
ATOM     32  O   UNL A   1      50.748  27.436  35.827  1.00  0.00    -0.494 OA
ATOM     33  C   UNL A   1      51.397  26.179  35.637  1.00  0.00     0.278 C 
ENDBRANCH  22  32
ENDBRANCH  16  21
ENDBRANCH  10  15
ENDBRANCH   8   9
ENDBRANCH   5   8
ENDBRANCH   3   4
ENDBRANCH   2   3
ENDBRANCH   1   2
BRANCH   1  34
ATOM     34  C   UNL A   1      37.036  33.637  29.040  1.00  0.00     0.002 C 
BRANCH  34  35
ATOM     35  C   UNL A   1      35.612  33.324  28.563  1.00  0.00     0.021 C 
BRANCH  35  36
ATOM     36  C   UNL A   1      34.785  32.455  29.509  1.00  0.00     0.116 C 
BRANCH  36  37
ATOM     37  N   UNL A   1      34.060  31.427  28.786  1.00  0.00    -0.352 N 
ATOM     38  C   UNL A   1      34.572  30.364  28.081  1.00  0.00     0.251 C 
ATOM     39  H   UNL A   1      33.078  31.499  28.803  1.00  0.00     0.163 HD
ATOM     40  O   UNL A   1      33.860  29.744  27.299  1.00  0.00    -0.269 OA
BRANCH  38  41
ATOM     41  C   UNL A   1      35.987  29.975  28.271  1.00  0.00     0.039 A 
ATOM     42  C   UNL A   1      36.388  29.435  29.496  1.00  0.00     0.014 A 
ATOM     43  C   UNL A   1      36.923  30.182  27.253  1.00  0.00     0.014 A 
ATOM     44  C   UNL A   1      37.725  29.082  29.692  1.00  0.00     0.010 A 
ATOM     45  C   UNL A   1      38.245  29.779  27.431  1.00  0.00     0.010 A 
ATOM     46  C   UNL A   1      38.664  29.249  28.661  1.00  0.00    -0.014 A 
BRANCH  46  47
ATOM     47  C   UNL A   1      40.100  28.934  28.879  1.00  0.00     0.031 A 
ATOM     48  C   UNL A   1      41.010  29.972  29.481  1.00  0.00     0.074 A 
ATOM     49  C   UNL A   1      40.591  27.734  28.514  1.00  0.00     0.049 A 
ATOM     50  N   UNL A   1      42.292  29.903  29.734  1.00  0.00    -0.248 NA
ATOM     51  C   UNL A   1      40.402  31.269  29.820  1.00  0.00     0.031 C 
ATOM     52  C   UNL A   1      39.822  26.660  27.883  1.00  0.00     0.029 A 
ATOM     53  N   UNL A   1      41.858  27.216  28.620  1.00  0.00    -0.354 N 
ATOM     54  C   UNL A   1      42.643  31.146  30.250  1.00  0.00     0.074 A 
ATOM     55  C   UNL A   1      41.453  31.967  30.221  1.00  0.00     0.031 C 
ATOM     56  C   UNL A   1      40.626  25.603  27.682  1.00  0.00     0.029 A 
ATOM     57  C   UNL A   1      41.971  25.930  28.149  1.00  0.00     0.049 A 
ATOM     58  H   UNL A   1      42.614  27.719  29.000  1.00  0.00     0.167 HD
ATOM     59  C   UNL A   1      43.841  31.559  30.730  1.00  0.00     0.037 A 
ATOM     60  C   UNL A   1      43.037  25.106  28.104  1.00  0.00     0.037 A 
ATOM     61  C   UNL A   1      45.016  30.729  30.784  1.00  0.00     0.049 A 
ATOM     62  C   UNL A   1      44.352  25.578  28.663  1.00  0.00     0.074 A 
ATOM     63  C   UNL A   1      46.269  31.038  31.286  1.00  0.00     0.029 A 
ATOM     64  N   UNL A   1      45.082  29.422  30.323  1.00  0.00    -0.354 N 
ATOM     65  N   UNL A   1      44.655  26.740  29.193  1.00  0.00    -0.248 NA
ATOM     66  C   UNL A   1      45.468  24.623  28.631  1.00  0.00     0.031 C 
ATOM     67  C   UNL A   1      47.099  29.925  31.105  1.00  0.00     0.029 A 
ATOM     68  C   UNL A   1      46.353  28.911  30.525  1.00  0.00     0.049 A 
ATOM     69  H   UNL A   1      44.335  28.931  29.911  1.00  0.00     0.167 HD
ATOM     70  C   UNL A   1      45.985  26.643  29.588  1.00  0.00     0.074 A 
ATOM     71  C   UNL A   1      46.426  25.307  29.241  1.00  0.00     0.031 C 
ATOM     72  C   UNL A   1      46.769  27.573  30.187  1.00  0.00     0.037 A 
BRANCH  59  73
ATOM     73  C   UNL A   1      43.931  32.970  31.243  1.00  0.00     0.058 A 
ATOM     74  C   UNL A   1      44.315  34.031  30.408  1.00  0.00     0.135 A 
ATOM     75  C   UNL A   1      43.627  33.268  32.580  1.00  0.00     0.135 A 
ATOM     76  F   UNL A   1      44.634  33.802  29.124  1.00  0.00    -0.206 F 
ATOM     77  C   UNL A   1      44.431  35.332  30.888  1.00  0.00     0.059 A 
ATOM     78  C   UNL A   1      43.709  34.566  33.076  1.00  0.00     0.059 A 
ATOM     79  F   UNL A   1      43.253  32.292  33.424  1.00  0.00    -0.206 F 
ATOM     80  C   UNL A   1      44.131  35.588  32.227  1.00  0.00     0.060 A 
BRANCH  80  81
ATOM     81  S   UNL A   1      44.297  37.278  32.841  1.00  0.00     0.124 S 
ATOM     82  O   UNL A   1      43.384  37.262  33.980  1.00  0.00    -0.237 OA
ATOM     83  O   UNL A   1      45.716  37.356  33.170  1.00  0.00    -0.237 OA
ATOM     84  O   UNL A   1      43.874  38.094  31.708  1.00  0.00    -0.744 OA
ENDBRANCH  80  81
ENDBRANCH  59  73
BRANCH  60  85
ATOM     85  C   UNL A   1      42.890  23.732  27.557  1.00  0.00     0.058 A 
ATOM     86  C   UNL A   1      42.629  22.645  28.405  1.00  0.00     0.135 A 
ATOM     87  C   UNL A   1      42.996  23.478  26.181  1.00  0.00     0.135 A 
ATOM     88  F   UNL A   1      42.524  22.838  29.729  1.00  0.00    -0.206 F 
ATOM     89  C   UNL A   1      42.493  21.352  27.912  1.00  0.00     0.059 A 
ATOM     90  C   UNL A   1      42.842  22.196  25.662  1.00  0.00     0.059 A 
ATOM     91  F   UNL A   1      43.229  24.486  25.327  1.00  0.00    -0.206 F 
ATOM     92  C   UNL A   1      42.601  21.138  26.537  1.00  0.00     0.060 A 
BRANCH  92  93
ATOM     93  S   UNL A   1      42.371  19.463  25.900  1.00  0.00     0.124 S 
ATOM     94  O   UNL A   1      42.629  18.659  27.089  1.00  0.00    -0.237 OA
ATOM     95  O   UNL A   1      40.987  19.495  25.438  1.00  0.00    -0.237 OA
ATOM     96  O   UNL A   1      43.373  19.367  24.843  1.00  0.00    -0.744 OA
ENDBRANCH  92  93
ENDBRANCH  60  85
BRANCH  72  97
ATOM     97  C   UNL A   1      48.168  27.163  30.551  1.00  0.00     0.058 A 
ATOM     98  C   UNL A   1      49.251  27.385  29.686  1.00  0.00     0.135 A 
ATOM     99  C   UNL A   1      48.432  26.575  31.798  1.00  0.00     0.135 A 
ATOM    100  F   UNL A   1      49.052  27.940  28.480  1.00  0.00    -0.206 F 
ATOM    101  C   UNL A   1      50.545  27.011  30.035  1.00  0.00     0.059 A 
ATOM    102  C   UNL A   1      49.721  26.217  32.178  1.00  0.00     0.059 A 
ATOM    103  F   UNL A   1      47.431  26.353  32.666  1.00  0.00    -0.206 F 
ATOM    104  C   UNL A   1      50.770  26.425  31.282  1.00  0.00     0.060 A 
BRANCH 104 105
ATOM    105  S   UNL A   1      52.455  25.962  31.735  1.00  0.00     0.124 S 
ATOM    106  O   UNL A   1      52.249  24.639  32.317  1.00  0.00    -0.237 OA
ATOM    107  O   UNL A   1      53.146  25.987  30.449  1.00  0.00    -0.237 OA
ATOM    108  O   UNL A   1      52.854  27.006  32.673  1.00  0.00    -0.744 OA
ENDBRANCH 104 105
ENDBRANCH  72  97
ENDBRANCH  46  47
ENDBRANCH  38  41
ENDBRANCH  36  37
ENDBRANCH  35  36
ENDBRANCH  34  35
ENDBRANCH   1  34
TORSDOF 20
ENDMDL
