MODEL 1
REMARK VINA RESULT:     -13.1      0.000      0.000
REMARK SMILES Cc1cccc(-c2cc(C[C@]3(C(=O)NCCCCCCNC(=O)c4ccc(-c5c6nc(c(-c7c(F)cc(S(=O)(=O)[O-])cc7F)c7ccc([nH]7)c(-c7c(F)cc(S(=O)(=O)[O-])cc7F)c7nc(c(-c8c(F)cc(S(=O)(=O)[O-])cc8F)c8ccc5[nH]8)C=C7)C=C6)cc4)CCCN(C(=O)C(C)C)C3)on2)c1
REMARK SMILES IDX 17 1 16 2 15 3 14 4 12 5 13 6 11 8 90 9 99 10 91 11 93 12
REMARK SMILES IDX 92 13 10 14 9 15 7 16 8 17 101 18 100 19 6 20 1 21 2 22 3 23
REMARK SMILES IDX 102 24 4 25 5 26 94 27 95 28 96 29 97 30 98 31 18 32 19 33
REMARK SMILES IDX 20 34 21 35 22 36 23 38 24 39 25 40 89 41 26 42 88 43 27 44
REMARK SMILES IDX 28 45 29 46 82 47 30 48 87 49 81 50 83 51 31 52 86 53 80 54
REMARK SMILES IDX 79 55 32 57 66 58 45 59 65 60 46 61 49 62 64 63 84 64 47 65
REMARK SMILES IDX 48 66 63 68 85 69 50 70 33 71 34 72 43 73 35 74 36 75 42 76
REMARK SMILES IDX 44 77 37 78 38 79 39 80 40 81 41 82 67 83 68 84 77 85 69 86
REMARK SMILES IDX 70 87 76 88 78 89 71 90 72 91 73 92 74 93 75 94 51 95 52 96
REMARK SMILES IDX 61 97 53 98 54 99 60 100 62 101 55 102 56 103 57 104 58 105
REMARK SMILES IDX 59 106
REMARK H PARENT 14 7 21 37 83 56 49 67
REMARK Flexibility Score: inf
ROOT
ATOM      1  C   UNL A   1      33.728  28.246  26.964  1.00  0.00     0.002 C 
ENDROOT
BRANCH   1   2
ATOM      2  C   UNL A   1      32.287  28.182  27.478  1.00  0.00     0.021 C 
BRANCH   2   3
ATOM      3  C   UNL A   1      31.210  27.900  26.432  1.00  0.00     0.116 C 
BRANCH   3   4
ATOM      4  N   UNL A   1      30.500  26.650  26.643  1.00  0.00    -0.356 N 
ATOM      5  C   UNL A   1      30.615  25.418  26.063  1.00  0.00     0.228 C 
ATOM      6  O   UNL A   1      29.934  24.525  26.581  1.00  0.00    -0.274 OA
ATOM      7  H   UNL A   1      29.803  26.699  27.336  1.00  0.00     0.163 HD
BRANCH   5   8
ATOM      8  C   UNL A   1      31.523  25.125  24.827  1.00  0.00     0.074 C 
ATOM      9  C   UNL A   1      31.536  26.394  23.922  1.00  0.00     0.021 C 
ATOM     10  C   UNL A   1      32.916  24.671  25.340  1.00  0.00     0.136 C 
ATOM     11  C   UNL A   1      32.827  26.650  23.143  1.00  0.00     0.023 C 
ATOM     12  N   UNL A   1      34.011  24.962  24.406  1.00  0.00    -0.341 N 
ATOM     13  C   UNL A   1      34.063  26.346  23.967  1.00  0.00     0.119 C 
BRANCH   8  14
ATOM     14  C   UNL A   1      30.830  23.932  24.074  1.00  0.00     0.097 C 
BRANCH  14  15
ATOM     15  C   UNL A   1      31.361  22.559  24.301  1.00  0.00     0.138 A 
ATOM     16  C   UNL A   1      32.283  20.544  24.343  1.00  0.00     0.114 A 
ATOM     17  C   UNL A   1      31.904  21.601  23.477  1.00  0.00     0.077 A 
ATOM     18  N   UNL A   1      32.003  20.859  25.617  1.00  0.00    -0.080 NA
ATOM     19  O   UNL A   1      31.448  22.127  25.588  1.00  0.00    -0.361 OA
BRANCH  16  20
ATOM     20  C   UNL A   1      32.865  19.261  23.978  1.00  0.00     0.004 A 
ATOM     21  C   UNL A   1      35.442  16.753  25.255  1.00  0.00     0.044 C 
ATOM     22  C   UNL A   1      34.408  17.425  24.402  1.00  0.00    -0.050 A 
ATOM     23  C   UNL A   1      33.996  16.813  23.211  1.00  0.00     0.003 A 
ATOM     24  C   UNL A   1      33.848  18.660  24.774  1.00  0.00     0.014 A 
ATOM     25  C   UNL A   1      33.017  17.405  22.418  1.00  0.00     0.001 A 
ATOM     26  C   UNL A   1      32.449  18.616  22.809  1.00  0.00     0.010 A 
ENDBRANCH  16  20
ENDBRANCH  14  15
ENDBRANCH   8  14
BRANCH  12  27
ATOM     27  C   UNL A   1      34.868  23.946  24.023  1.00  0.00     0.225 C 
ATOM     28  O   UNL A   1      35.192  23.807  22.835  1.00  0.00    -0.275 OA
BRANCH  27  29
ATOM     29  C   UNL A   1      35.414  22.923  25.031  1.00  0.00     0.072 C 
ATOM     30  C   UNL A   1      35.913  21.594  24.469  1.00  0.00     0.018 C 
ATOM     31  C   UNL A   1      36.411  23.559  25.989  1.00  0.00     0.018 C 
ENDBRANCH  27  29
ENDBRANCH  12  27
ENDBRANCH   5   8
ENDBRANCH   3   4
ENDBRANCH   2   3
ENDBRANCH   1   2
BRANCH   1  32
ATOM     32  C   UNL A   1      34.519  29.530  27.256  1.00  0.00     0.002 C 
BRANCH  32  33
ATOM     33  C   UNL A   1      33.708  30.813  27.458  1.00  0.00     0.021 C 
BRANCH  33  34
ATOM     34  C   UNL A   1      34.556  32.065  27.676  1.00  0.00     0.116 C 
BRANCH  34  35
ATOM     35  N   UNL A   1      34.510  32.548  29.048  1.00  0.00    -0.352 N 
ATOM     36  C   UNL A   1      35.229  32.092  30.148  1.00  0.00     0.251 C 
ATOM     37  H   UNL A   1      33.892  33.294  29.219  1.00  0.00     0.163 HD
ATOM     38  O   UNL A   1      35.013  32.493  31.264  1.00  0.00    -0.269 OA
BRANCH  36  39
ATOM     39  C   UNL A   1      36.333  31.142  29.878  1.00  0.00     0.039 A 
ATOM     40  C   UNL A   1      36.426  30.008  30.690  1.00  0.00     0.014 A 
ATOM     41  C   UNL A   1      37.359  31.488  29.004  1.00  0.00     0.014 A 
ATOM     42  C   UNL A   1      37.633  29.314  30.760  1.00  0.00     0.010 A 
ATOM     43  C   UNL A   1      38.576  30.840  29.123  1.00  0.00     0.010 A 
ATOM     44  C   UNL A   1      38.730  29.789  30.041  1.00  0.00    -0.014 A 
BRANCH  44  45
ATOM     45  C   UNL A   1      40.101  29.337  30.265  1.00  0.00     0.031 A 
ATOM     46  C   UNL A   1      40.598  28.080  29.656  1.00  0.00     0.074 A 
ATOM     47  C   UNL A   1      40.958  30.099  30.980  1.00  0.00     0.049 A 
ATOM     48  N   UNL A   1      41.693  27.484  30.003  1.00  0.00    -0.248 NA
ATOM     49  C   UNL A   1      39.841  27.329  28.660  1.00  0.00     0.031 C 
ATOM     50  C   UNL A   1      42.417  30.021  30.973  1.00  0.00     0.029 A 
ATOM     51  N   UNL A   1      40.684  30.982  32.013  1.00  0.00    -0.354 N 
ATOM     52  C   UNL A   1      41.940  26.485  29.091  1.00  0.00     0.074 A 
ATOM     53  C   UNL A   1      40.692  26.335  28.386  1.00  0.00     0.031 C 
ATOM     54  C   UNL A   1      42.895  30.625  32.071  1.00  0.00     0.029 A 
ATOM     55  C   UNL A   1      41.761  30.972  32.907  1.00  0.00     0.049 A 
ATOM     56  H   UNL A   1      39.867  31.523  32.104  1.00  0.00     0.167 HD
ATOM     57  C   UNL A   1      43.217  26.023  28.949  1.00  0.00     0.037 A 
ATOM     58  C   UNL A   1      41.623  30.586  34.211  1.00  0.00     0.037 A 
ATOM     59  C   UNL A   1      44.053  26.454  30.078  1.00  0.00     0.049 A 
ATOM     60  C   UNL A   1      42.448  29.378  34.599  1.00  0.00     0.074 A 
ATOM     61  C   UNL A   1      45.059  27.395  30.217  1.00  0.00     0.029 A 
ATOM     62  N   UNL A   1      43.733  26.031  31.367  1.00  0.00    -0.354 N 
ATOM     63  N   UNL A   1      43.040  28.592  33.744  1.00  0.00    -0.248 NA
ATOM     64  C   UNL A   1      42.647  28.940  35.979  1.00  0.00     0.031 C 
ATOM     65  C   UNL A   1      45.284  27.596  31.605  1.00  0.00     0.029 A 
ATOM     66  C   UNL A   1      44.439  26.753  32.309  1.00  0.00     0.049 A 
ATOM     67  H   UNL A   1      43.090  25.316  31.577  1.00  0.00     0.167 HD
ATOM     68  C   UNL A   1      43.626  27.544  34.405  1.00  0.00     0.074 A 
ATOM     69  C   UNL A   1      43.389  27.831  35.808  1.00  0.00     0.031 C 
ATOM     70  C   UNL A   1      44.234  26.519  33.734  1.00  0.00     0.037 A 
BRANCH  57  71
ATOM     71  C   UNL A   1      43.799  25.398  27.678  1.00  0.00     0.058 A 
ATOM     72  C   UNL A   1      43.526  24.044  27.359  1.00  0.00     0.135 A 
ATOM     73  C   UNL A   1      44.733  26.005  26.810  1.00  0.00     0.135 A 
ATOM     74  F   UNL A   1      42.628  23.330  28.052  1.00  0.00    -0.206 F 
ATOM     75  C   UNL A   1      44.178  23.344  26.332  1.00  0.00     0.059 A 
ATOM     76  C   UNL A   1      45.378  25.335  25.766  1.00  0.00     0.059 A 
ATOM     77  F   UNL A   1      45.114  27.276  26.929  1.00  0.00    -0.206 F 
ATOM     78  C   UNL A   1      45.121  23.996  25.552  1.00  0.00     0.060 A 
BRANCH  78  79
ATOM     79  S   UNL A   1      46.023  23.090  24.282  1.00  0.00     0.124 S 
ATOM     80  O   UNL A   1      46.518  21.938  25.028  1.00  0.00    -0.237 OA
ATOM     81  O   UNL A   1      44.984  22.815  23.297  1.00  0.00    -0.237 OA
ATOM     82  O   UNL A   1      47.050  24.038  23.853  1.00  0.00    -0.744 OA
ENDBRANCH  78  79
ENDBRANCH  57  71
BRANCH  58  83
ATOM     83  C   UNL A   1      40.305  30.947  34.797  1.00  0.00     0.058 A 
ATOM     84  C   UNL A   1      40.228  32.151  35.521  1.00  0.00     0.135 A 
ATOM     85  C   UNL A   1      39.113  30.407  34.296  1.00  0.00     0.135 A 
ATOM     86  F   UNL A   1      41.341  32.697  36.037  1.00  0.00    -0.206 F 
ATOM     87  C   UNL A   1      39.050  32.883  35.588  1.00  0.00     0.059 A 
ATOM     88  C   UNL A   1      37.916  31.121  34.361  1.00  0.00     0.059 A 
ATOM     89  F   UNL A   1      39.128  29.257  33.606  1.00  0.00    -0.206 F 
ATOM     90  C   UNL A   1      37.918  32.390  34.942  1.00  0.00     0.060 A 
BRANCH  90  91
ATOM     91  S   UNL A   1      36.534  33.528  34.697  1.00  0.00     0.124 S 
ATOM     92  O   UNL A   1      35.616  32.725  33.898  1.00  0.00    -0.237 OA
ATOM     93  O   UNL A   1      36.122  33.777  36.078  1.00  0.00    -0.237 OA
ATOM     94  O   UNL A   1      37.149  34.658  34.012  1.00  0.00    -0.744 OA
ENDBRANCH  90  91
ENDBRANCH  58  83
BRANCH  70  95
ATOM     95  C   UNL A   1      44.753  25.240  34.353  1.00  0.00     0.058 A 
ATOM     96  C   UNL A   1      46.112  24.973  34.599  1.00  0.00     0.135 A 
ATOM     97  C   UNL A   1      43.846  24.271  34.847  1.00  0.00     0.135 A 
ATOM     98  F   UNL A   1      47.065  25.861  34.283  1.00  0.00    -0.206 F 
ATOM     99  C   UNL A   1      46.546  23.800  35.225  1.00  0.00     0.059 A 
ATOM    100  C   UNL A   1      44.254  23.121  35.522  1.00  0.00     0.059 A 
ATOM    101  F   UNL A   1      42.521  24.418  34.699  1.00  0.00    -0.206 F 
ATOM    102  C   UNL A   1      45.610  22.879  35.684  1.00  0.00     0.060 A 
BRANCH 102 103
ATOM    103  S   UNL A   1      46.149  21.394  36.553  1.00  0.00     0.124 S 
ATOM    104  O   UNL A   1      47.598  21.475  36.400  1.00  0.00    -0.237 OA
ATOM    105  O   UNL A   1      45.647  21.604  37.908  1.00  0.00    -0.237 OA
ATOM    106  O   UNL A   1      45.492  20.322  35.811  1.00  0.00    -0.744 OA
ENDBRANCH 102 103
ENDBRANCH  70  95
ENDBRANCH  44  45
ENDBRANCH  36  39
ENDBRANCH  34  35
ENDBRANCH  33  34
ENDBRANCH  32  33
ENDBRANCH   1  32
TORSDOF 21
ENDMDL
MODEL 2
REMARK VINA RESULT:     -12.5      2.147      4.753
REMARK SMILES Cc1cccc(-c2cc(C[C@]3(C(=O)NCCCCCCNC(=O)c4ccc(-c5c6nc(c(-c7c(F)cc(S(=O)(=O)[O-])cc7F)c7ccc([nH]7)c(-c7c(F)cc(S(=O)(=O)[O-])cc7F)c7nc(c(-c8c(F)cc(S(=O)(=O)[O-])cc8F)c8ccc5[nH]8)C=C7)C=C6)cc4)CCCN(C(=O)C(C)C)C3)on2)c1
REMARK SMILES IDX 17 1 16 2 15 3 14 4 12 5 13 6 11 8 90 9 99 10 91 11 93 12
REMARK SMILES IDX 92 13 10 14 9 15 7 16 8 17 101 18 100 19 6 20 1 21 2 22 3 23
REMARK SMILES IDX 102 24 4 25 5 26 94 27 95 28 96 29 97 30 98 31 18 32 19 33
REMARK SMILES IDX 20 34 21 35 22 36 23 38 24 39 25 40 89 41 26 42 88 43 27 44
REMARK SMILES IDX 28 45 29 46 82 47 30 48 87 49 81 50 83 51 31 52 86 53 80 54
REMARK SMILES IDX 79 55 32 57 66 58 45 59 65 60 46 61 49 62 64 63 84 64 47 65
REMARK SMILES IDX 48 66 63 68 85 69 50 70 33 71 34 72 43 73 35 74 36 75 42 76
REMARK SMILES IDX 44 77 37 78 38 79 39 80 40 81 41 82 67 83 68 84 77 85 69 86
REMARK SMILES IDX 70 87 76 88 78 89 71 90 72 91 73 92 74 93 75 94 51 95 52 96
REMARK SMILES IDX 61 97 53 98 54 99 60 100 62 101 55 102 56 103 57 104 58 105
REMARK SMILES IDX 59 106
REMARK H PARENT 14 7 21 37 83 56 49 67
REMARK Flexibility Score: inf
ROOT
ATOM      1  C   UNL A   1      32.379  29.851  27.017  1.00  0.00     0.002 C 
ENDROOT
BRANCH   1   2
ATOM      2  C   UNL A   1      33.416  28.801  27.426  1.00  0.00     0.021 C 
BRANCH   2   3
ATOM      3  C   UNL A   1      33.508  27.562  26.536  1.00  0.00     0.116 C 
BRANCH   3   4
ATOM      4  N   UNL A   1      33.983  27.840  25.192  1.00  0.00    -0.356 N 
ATOM      5  C   UNL A   1      33.731  27.247  23.987  1.00  0.00     0.228 C 
ATOM      6  O   UNL A   1      34.205  27.829  23.003  1.00  0.00    -0.274 OA
ATOM      7  H   UNL A   1      34.606  28.600  25.138  1.00  0.00     0.163 HD
BRANCH   5   8
ATOM      8  C   UNL A   1      32.918  25.924  23.827  1.00  0.00     0.074 C 
ATOM      9  C   UNL A   1      32.625  25.715  22.310  1.00  0.00     0.021 C 
ATOM     10  C   UNL A   1      33.714  24.777  24.506  1.00  0.00     0.136 C 
ATOM     11  C   UNL A   1      32.548  24.262  21.835  1.00  0.00     0.023 C 
ATOM     12  N   UNL A   1      33.444  23.452  23.930  1.00  0.00    -0.341 N 
ATOM     13  C   UNL A   1      33.604  23.390  22.488  1.00  0.00     0.119 C 
BRANCH   8  14
ATOM     14  C   UNL A   1      31.575  26.162  24.609  1.00  0.00     0.097 C 
BRANCH  14  15
ATOM     15  C   UNL A   1      30.627  27.181  24.076  1.00  0.00     0.138 A 
ATOM     16  C   UNL A   1      29.481  28.883  23.241  1.00  0.00     0.114 A 
ATOM     17  C   UNL A   1      30.726  28.528  23.818  1.00  0.00     0.077 A 
ATOM     18  N   UNL A   1      28.688  27.806  23.138  1.00  0.00    -0.080 NA
ATOM     19  O   UNL A   1      29.417  26.741  23.641  1.00  0.00    -0.361 OA
BRANCH  16  20
ATOM     20  C   UNL A   1      29.038  30.206  22.824  1.00  0.00     0.004 A 
ATOM     21  C   UNL A   1      27.878  32.046  19.689  1.00  0.00     0.044 C 
ATOM     22  C   UNL A   1      28.278  31.753  21.105  1.00  0.00    -0.050 A 
ATOM     23  C   UNL A   1      28.239  32.781  22.056  1.00  0.00     0.003 A 
ATOM     24  C   UNL A   1      28.693  30.468  21.493  1.00  0.00     0.014 A 
ATOM     25  C   UNL A   1      28.579  32.526  23.382  1.00  0.00     0.001 A 
ATOM     26  C   UNL A   1      28.964  31.241  23.761  1.00  0.00     0.010 A 
ENDBRANCH  16  20
ENDBRANCH  14  15
ENDBRANCH   8  14
BRANCH  12  27
ATOM     27  C   UNL A   1      33.069  22.412  24.762  1.00  0.00     0.225 C 
ATOM     28  O   UNL A   1      31.939  22.387  25.268  1.00  0.00    -0.275 OA
BRANCH  27  29
ATOM     29  C   UNL A   1      34.038  21.280  25.132  1.00  0.00     0.072 C 
ATOM     30  C   UNL A   1      33.586  19.854  24.830  1.00  0.00     0.018 C 
ATOM     31  C   UNL A   1      35.447  21.562  24.627  1.00  0.00     0.018 C 
ENDBRANCH  27  29
ENDBRANCH  12  27
ENDBRANCH   5   8
ENDBRANCH   3   4
ENDBRANCH   2   3
ENDBRANCH   1   2
BRANCH   1  32
ATOM     32  C   UNL A   1      32.741  31.324  27.260  1.00  0.00     0.002 C 
BRANCH  32  33
ATOM     33  C   UNL A   1      34.218  31.644  27.509  1.00  0.00     0.021 C 
BRANCH  33  34
ATOM     34  C   UNL A   1      34.478  33.058  28.023  1.00  0.00     0.116 C 
BRANCH  34  35
ATOM     35  N   UNL A   1      34.327  33.173  29.465  1.00  0.00    -0.352 N 
ATOM     36  C   UNL A   1      34.990  32.465  30.463  1.00  0.00     0.251 C 
ATOM     37  H   UNL A   1      33.672  33.840  29.776  1.00  0.00     0.163 HD
ATOM     38  O   UNL A   1      34.687  32.563  31.625  1.00  0.00    -0.269 OA
BRANCH  36  39
ATOM     39  C   UNL A   1      36.142  31.636  30.039  1.00  0.00     0.039 A 
ATOM     40  C   UNL A   1      36.194  30.316  30.496  1.00  0.00     0.014 A 
ATOM     41  C   UNL A   1      37.234  32.223  29.406  1.00  0.00     0.014 A 
ATOM     42  C   UNL A   1      37.410  29.634  30.480  1.00  0.00     0.010 A 
ATOM     43  C   UNL A   1      38.453  31.570  29.453  1.00  0.00     0.010 A 
ATOM     44  C   UNL A   1      38.554  30.299  30.040  1.00  0.00    -0.014 A 
BRANCH  44  45
ATOM     45  C   UNL A   1      39.911  29.804  30.257  1.00  0.00     0.031 A 
ATOM     46  C   UNL A   1      40.337  28.488  29.723  1.00  0.00     0.074 A 
ATOM     47  C   UNL A   1      40.820  30.576  30.894  1.00  0.00     0.049 A 
ATOM     48  N   UNL A   1      41.416  27.871  30.081  1.00  0.00    -0.248 NA
ATOM     49  C   UNL A   1      39.520  27.705  28.802  1.00  0.00     0.031 C 
ATOM     50  C   UNL A   1      42.273  30.434  30.852  1.00  0.00     0.029 A 
ATOM     51  N   UNL A   1      40.613  31.537  31.870  1.00  0.00    -0.354 N 
ATOM     52  C   UNL A   1      41.594  26.802  29.233  1.00  0.00     0.074 A 
ATOM     53  C   UNL A   1      40.321  26.658  28.574  1.00  0.00     0.031 C 
ATOM     54  C   UNL A   1      42.809  31.090  31.892  1.00  0.00     0.029 A 
ATOM     55  C   UNL A   1      41.715  31.542  32.733  1.00  0.00     0.049 A 
ATOM     56  H   UNL A   1      39.823  32.119  31.946  1.00  0.00     0.167 HD
ATOM     57  C   UNL A   1      42.847  26.276  29.089  1.00  0.00     0.037 A 
ATOM     58  C   UNL A   1      41.601  31.252  34.064  1.00  0.00     0.037 A 
ATOM     59  C   UNL A   1      43.733  26.747  30.162  1.00  0.00     0.049 A 
ATOM     60  C   UNL A   1      42.387  30.039  34.512  1.00  0.00     0.074 A 
ATOM     61  C   UNL A   1      44.780  27.651  30.209  1.00  0.00     0.029 A 
ATOM     62  N   UNL A   1      43.434  26.427  31.486  1.00  0.00    -0.354 N 
ATOM     63  N   UNL A   1      42.920  29.171  33.698  1.00  0.00    -0.248 NA
ATOM     64  C   UNL A   1      42.609  29.687  35.913  1.00  0.00     0.031 C 
ATOM     65  C   UNL A   1      45.056  27.936  31.572  1.00  0.00     0.029 A 
ATOM     66  C   UNL A   1      44.198  27.180  32.356  1.00  0.00     0.049 A 
ATOM     67  H   UNL A   1      42.769  25.756  31.762  1.00  0.00     0.167 HD
ATOM     68  C   UNL A   1      43.482  28.147  34.413  1.00  0.00     0.074 A 
ATOM     69  C   UNL A   1      43.299  28.538  35.799  1.00  0.00     0.031 C 
ATOM     70  C   UNL A   1      44.027  27.053  33.799  1.00  0.00     0.037 A 
BRANCH  57  71
ATOM     71  C   UNL A   1      43.364  25.542  27.849  1.00  0.00     0.058 A 
ATOM     72  C   UNL A   1      43.148  24.148  27.703  1.00  0.00     0.135 A 
ATOM     73  C   UNL A   1      44.189  26.093  26.844  1.00  0.00     0.135 A 
ATOM     74  F   UNL A   1      42.352  23.473  28.544  1.00  0.00    -0.206 F 
ATOM     75  C   UNL A   1      43.759  23.371  26.708  1.00  0.00     0.059 A 
ATOM     76  C   UNL A   1      44.788  25.343  25.828  1.00  0.00     0.059 A 
ATOM     77  F   UNL A   1      44.500  27.388  26.791  1.00  0.00    -0.206 F 
ATOM     78  C   UNL A   1      44.597  23.977  25.784  1.00  0.00     0.060 A 
BRANCH  78  79
ATOM     79  S   UNL A   1      45.449  22.980  24.549  1.00  0.00     0.124 S 
ATOM     80  O   UNL A   1      44.347  22.555  23.693  1.00  0.00    -0.237 OA
ATOM     81  O   UNL A   1      46.381  23.937  23.963  1.00  0.00    -0.237 OA
ATOM     82  O   UNL A   1      46.067  21.916  25.338  1.00  0.00    -0.744 OA
ENDBRANCH  78  79
ENDBRANCH  57  71
BRANCH  58  83
ATOM     83  C   UNL A   1      40.317  31.708  34.659  1.00  0.00     0.058 A 
ATOM     84  C   UNL A   1      39.301  30.748  34.816  1.00  0.00     0.135 A 
ATOM     85  C   UNL A   1      40.250  32.867  35.445  1.00  0.00     0.135 A 
ATOM     86  F   UNL A   1      39.312  29.631  34.070  1.00  0.00    -0.206 F 
ATOM     87  C   UNL A   1      38.362  30.845  35.834  1.00  0.00     0.059 A 
ATOM     88  C   UNL A   1      39.309  32.989  36.468  1.00  0.00     0.059 A 
ATOM     89  F   UNL A   1      41.189  33.818  35.330  1.00  0.00    -0.206 F 
ATOM     90  C   UNL A   1      38.422  31.937  36.698  1.00  0.00     0.060 A 
BRANCH  90  91
ATOM     91  S   UNL A   1      37.471  31.840  38.233  1.00  0.00     0.124 S 
ATOM     92  O   UNL A   1      36.445  32.854  38.021  1.00  0.00    -0.237 OA
ATOM     93  O   UNL A   1      37.011  30.453  38.197  1.00  0.00    -0.237 OA
ATOM     94  O   UNL A   1      38.462  32.147  39.259  1.00  0.00    -0.744 OA
ENDBRANCH  90  91
ENDBRANCH  58  83
BRANCH  70  95
ATOM     95  C   UNL A   1      44.511  25.797  34.491  1.00  0.00     0.058 A 
ATOM     96  C   UNL A   1      43.673  24.740  34.890  1.00  0.00     0.135 A 
ATOM     97  C   UNL A   1      45.898  25.567  34.657  1.00  0.00     0.135 A 
ATOM     98  F   UNL A   1      42.350  24.783  34.684  1.00  0.00    -0.206 F 
ATOM     99  C   UNL A   1      44.167  23.571  35.476  1.00  0.00     0.059 A 
ATOM    100  C   UNL A   1      46.415  24.387  35.189  1.00  0.00     0.059 A 
ATOM    101  F   UNL A   1      46.805  26.487  34.294  1.00  0.00    -0.206 F 
ATOM    102  C   UNL A   1      45.540  23.401  35.622  1.00  0.00     0.060 A 
BRANCH 102 103
ATOM    103  S   UNL A   1      46.199  21.872  36.314  1.00  0.00     0.124 S 
ATOM    104  O   UNL A   1      45.810  21.994  37.715  1.00  0.00    -0.237 OA
ATOM    105  O   UNL A   1      45.499  20.839  35.555  1.00  0.00    -0.237 OA
ATOM    106  O   UNL A   1      47.629  21.976  36.042  1.00  0.00    -0.744 OA
ENDBRANCH 102 103
ENDBRANCH  70  95
ENDBRANCH  44  45
ENDBRANCH  36  39
ENDBRANCH  34  35
ENDBRANCH  33  34
ENDBRANCH  32  33
ENDBRANCH   1  32
TORSDOF 21
ENDMDL
MODEL 3
REMARK VINA RESULT:     -12.1      2.233      4.703
REMARK SMILES Cc1cccc(-c2cc(C[C@]3(C(=O)NCCCCCCNC(=O)c4ccc(-c5c6nc(c(-c7c(F)cc(S(=O)(=O)[O-])cc7F)c7ccc([nH]7)c(-c7c(F)cc(S(=O)(=O)[O-])cc7F)c7nc(c(-c8c(F)cc(S(=O)(=O)[O-])cc8F)c8ccc5[nH]8)C=C7)C=C6)cc4)CCCN(C(=O)C(C)C)C3)on2)c1
REMARK SMILES IDX 17 1 16 2 15 3 14 4 12 5 13 6 11 8 90 9 99 10 91 11 93 12
REMARK SMILES IDX 92 13 10 14 9 15 7 16 8 17 101 18 100 19 6 20 1 21 2 22 3 23
REMARK SMILES IDX 102 24 4 25 5 26 94 27 95 28 96 29 97 30 98 31 18 32 19 33
REMARK SMILES IDX 20 34 21 35 22 36 23 38 24 39 25 40 89 41 26 42 88 43 27 44
REMARK SMILES IDX 28 45 29 46 82 47 30 48 87 49 81 50 83 51 31 52 86 53 80 54
REMARK SMILES IDX 79 55 32 57 66 58 45 59 65 60 46 61 49 62 64 63 84 64 47 65
REMARK SMILES IDX 48 66 63 68 85 69 50 70 33 71 34 72 43 73 35 74 36 75 42 76
REMARK SMILES IDX 44 77 37 78 38 79 39 80 40 81 41 82 67 83 68 84 77 85 69 86
REMARK SMILES IDX 70 87 76 88 78 89 71 90 72 91 73 92 74 93 75 94 51 95 52 96
REMARK SMILES IDX 61 97 53 98 54 99 60 100 62 101 55 102 56 103 57 104 58 105
REMARK SMILES IDX 59 106
REMARK H PARENT 14 7 21 37 83 56 49 67
REMARK Flexibility Score: inf
ROOT
ATOM      1  C   UNL A   1      33.421  30.183  27.552  1.00  0.00     0.002 C 
ENDROOT
BRANCH   1   2
ATOM      2  C   UNL A   1      34.462  29.260  26.910  1.00  0.00     0.021 C 
BRANCH   2   3
ATOM      3  C   UNL A   1      33.913  28.079  26.111  1.00  0.00     0.116 C 
BRANCH   3   4
ATOM      4  N   UNL A   1      34.118  28.195  24.677  1.00  0.00    -0.356 N 
ATOM      5  C   UNL A   1      33.704  27.430  23.624  1.00  0.00     0.228 C 
ATOM      6  O   UNL A   1      33.946  27.896  22.505  1.00  0.00    -0.274 OA
ATOM      7  H   UNL A   1      34.657  28.975  24.414  1.00  0.00     0.163 HD
BRANCH   5   8
ATOM      8  C   UNL A   1      32.984  26.054  23.786  1.00  0.00     0.074 C 
ATOM      9  C   UNL A   1      32.606  25.534  22.365  1.00  0.00     0.021 C 
ATOM     10  C   UNL A   1      33.909  25.112  24.604  1.00  0.00     0.136 C 
ATOM     11  C   UNL A   1      32.607  24.015  22.184  1.00  0.00     0.023 C 
ATOM     12  N   UNL A   1      33.702  23.687  24.315  1.00  0.00    -0.341 N 
ATOM     13  C   UNL A   1      33.768  23.354  22.902  1.00  0.00     0.119 C 
BRANCH   8  14
ATOM     14  C   UNL A   1      31.684  26.357  24.614  1.00  0.00     0.097 C 
BRANCH  14  15
ATOM     15  C   UNL A   1      30.723  27.356  24.067  1.00  0.00     0.138 A 
ATOM     16  C   UNL A   1      29.555  29.032  23.208  1.00  0.00     0.114 A 
ATOM     17  C   UNL A   1      30.803  28.702  23.793  1.00  0.00     0.077 A 
ATOM     18  N   UNL A   1      28.778  27.942  23.114  1.00  0.00    -0.080 NA
ATOM     19  O   UNL A   1      29.521  26.893  23.631  1.00  0.00    -0.361 OA
BRANCH  16  20
ATOM     20  C   UNL A   1      29.095  30.343  22.774  1.00  0.00     0.004 A 
ATOM     21  C   UNL A   1      27.716  32.077  19.668  1.00  0.00     0.044 C 
ATOM     22  C   UNL A   1      28.221  31.833  21.059  1.00  0.00    -0.050 A 
ATOM     23  C   UNL A   1      28.265  32.897  21.970  1.00  0.00     0.003 A 
ATOM     24  C   UNL A   1      28.651  30.559  21.464  1.00  0.00     0.014 A 
ATOM     25  C   UNL A   1      28.703  32.688  23.275  1.00  0.00     0.001 A 
ATOM     26  C   UNL A   1      29.103  31.414  23.674  1.00  0.00     0.010 A 
ENDBRANCH  16  20
ENDBRANCH  14  15
ENDBRANCH   8  14
BRANCH  12  27
ATOM     27  C   UNL A   1      33.464  22.808  25.356  1.00  0.00     0.225 C 
ATOM     28  O   UNL A   1      32.385  22.206  25.439  1.00  0.00    -0.275 OA
BRANCH  27  29
ATOM     29  C   UNL A   1      34.492  22.579  26.475  1.00  0.00     0.072 C 
ATOM     30  C   UNL A   1      34.029  21.776  27.688  1.00  0.00     0.018 C 
ATOM     31  C   UNL A   1      35.819  22.078  25.920  1.00  0.00     0.018 C 
ENDBRANCH  27  29
ENDBRANCH  12  27
ENDBRANCH   5   8
ENDBRANCH   3   4
ENDBRANCH   2   3
ENDBRANCH   1   2
BRANCH   1  32
ATOM     32  C   UNL A   1      33.888  31.587  27.962  1.00  0.00     0.002 C 
BRANCH  32  33
ATOM     33  C   UNL A   1      35.350  31.942  27.677  1.00  0.00     0.021 C 
BRANCH  33  34
ATOM     34  C   UNL A   1      35.909  33.062  28.553  1.00  0.00     0.116 C 
BRANCH  34  35
ATOM     35  N   UNL A   1      35.618  32.874  29.966  1.00  0.00    -0.352 N 
ATOM     36  C   UNL A   1      36.026  31.838  30.802  1.00  0.00     0.251 C 
ATOM     37  H   UNL A   1      35.062  33.569  30.386  1.00  0.00     0.163 HD
ATOM     38  O   UNL A   1      35.616  31.728  31.929  1.00  0.00    -0.269 OA
BRANCH  36  39
ATOM     39  C   UNL A   1      37.052  30.914  30.267  1.00  0.00     0.039 A 
ATOM     40  C   UNL A   1      37.013  29.584  30.696  1.00  0.00     0.014 A 
ATOM     41  C   UNL A   1      38.139  31.408  29.551  1.00  0.00     0.014 A 
ATOM     42  C   UNL A   1      38.152  28.790  30.565  1.00  0.00     0.010 A 
ATOM     43  C   UNL A   1      39.288  30.642  29.482  1.00  0.00     0.010 A 
ATOM     44  C   UNL A   1      39.314  29.352  30.038  1.00  0.00    -0.014 A 
BRANCH  44  45
ATOM     45  C   UNL A   1      40.629  28.725  30.129  1.00  0.00     0.031 A 
ATOM     46  C   UNL A   1      40.871  27.375  29.565  1.00  0.00     0.074 A 
ATOM     47  C   UNL A   1      41.666  29.401  30.672  1.00  0.00     0.049 A 
ATOM     48  N   UNL A   1      41.913  26.653  29.823  1.00  0.00    -0.248 NA
ATOM     49  C   UNL A   1      39.897  26.679  28.730  1.00  0.00     0.031 C 
ATOM     50  C   UNL A   1      43.088  29.116  30.493  1.00  0.00     0.029 A 
ATOM     51  N   UNL A   1      41.650  30.375  31.657  1.00  0.00    -0.354 N 
ATOM     52  C   UNL A   1      41.903  25.574  28.969  1.00  0.00     0.074 A 
ATOM     53  C   UNL A   1      40.565  25.559  28.435  1.00  0.00     0.031 C 
ATOM     54  C   UNL A   1      43.782  29.712  31.474  1.00  0.00     0.029 A 
ATOM     55  C   UNL A   1      42.824  30.268  32.411  1.00  0.00     0.049 A 
ATOM     56  H   UNL A   1      40.931  31.032  31.803  1.00  0.00     0.167 HD
ATOM     57  C   UNL A   1      43.078  24.927  28.711  1.00  0.00     0.037 A 
ATOM     58  C   UNL A   1      42.808  29.987  33.749  1.00  0.00     0.037 A 
ATOM     59  C   UNL A   1      44.105  25.304  29.692  1.00  0.00     0.049 A 
ATOM     60  C   UNL A   1      43.509  28.700  34.129  1.00  0.00     0.074 A 
ATOM     61  C   UNL A   1      45.236  26.101  29.633  1.00  0.00     0.029 A 
ATOM     62  N   UNL A   1      43.902  25.011  31.040  1.00  0.00    -0.354 N 
ATOM     63  N   UNL A   1      43.874  27.787  33.273  1.00  0.00    -0.248 NA
ATOM     64  C   UNL A   1      43.827  28.324  35.505  1.00  0.00     0.031 C 
ATOM     65  C   UNL A   1      45.666  26.352  30.963  1.00  0.00     0.029 A 
ATOM     66  C   UNL A   1      44.816  25.683  31.829  1.00  0.00     0.049 A 
ATOM     67  H   UNL A   1      43.204  24.409  31.382  1.00  0.00     0.167 HD
ATOM     68  C   UNL A   1      44.398  26.709  33.939  1.00  0.00     0.074 A 
ATOM     69  C   UNL A   1      44.386  27.113  35.333  1.00  0.00     0.031 C 
ATOM     70  C   UNL A   1      44.770  25.569  33.283  1.00  0.00     0.037 A 
BRANCH  57  71
ATOM     71  C   UNL A   1      43.400  24.149  27.432  1.00  0.00     0.058 A 
ATOM     72  C   UNL A   1      42.972  22.805  27.288  1.00  0.00     0.135 A 
ATOM     73  C   UNL A   1      44.231  24.593  26.380  1.00  0.00     0.135 A 
ATOM     74  F   UNL A   1      42.141  22.238  28.173  1.00  0.00    -0.206 F 
ATOM     75  C   UNL A   1      43.396  21.966  26.246  1.00  0.00     0.059 A 
ATOM     76  C   UNL A   1      44.647  23.782  25.319  1.00  0.00     0.059 A 
ATOM     77  F   UNL A   1      44.727  25.828  26.319  1.00  0.00    -0.206 F 
ATOM     78  C   UNL A   1      44.254  22.460  25.275  1.00  0.00     0.060 A 
BRANCH  78  79
ATOM     79  S   UNL A   1      44.867  21.373  23.976  1.00  0.00     0.124 S 
ATOM     80  O   UNL A   1      44.393  22.046  22.771  1.00  0.00    -0.237 OA
ATOM     81  O   UNL A   1      46.308  21.402  24.198  1.00  0.00    -0.237 OA
ATOM     82  O   UNL A   1      44.220  20.095  24.268  1.00  0.00    -0.744 OA
ENDBRANCH  78  79
ENDBRANCH  57  71
BRANCH  58  83
ATOM     83  C   UNL A   1      41.638  30.567  34.460  1.00  0.00     0.058 A 
ATOM     84  C   UNL A   1      41.740  31.903  34.887  1.00  0.00     0.135 A 
ATOM     85  C   UNL A   1      40.355  30.020  34.317  1.00  0.00     0.135 A 
ATOM     86  F   UNL A   1      42.948  32.464  35.058  1.00  0.00    -0.206 F 
ATOM     87  C   UNL A   1      40.621  32.719  34.992  1.00  0.00     0.059 A 
ATOM     88  C   UNL A   1      39.217  30.819  34.427  1.00  0.00     0.059 A 
ATOM     89  F   UNL A   1      40.202  28.748  33.921  1.00  0.00    -0.206 F 
ATOM     90  C   UNL A   1      39.370  32.181  34.689  1.00  0.00     0.060 A 
BRANCH  90  91
ATOM     91  S   UNL A   1      38.003  33.337  34.437  1.00  0.00     0.124 S 
ATOM     92  O   UNL A   1      38.369  34.439  35.320  1.00  0.00    -0.237 OA
ATOM     93  O   UNL A   1      38.117  33.607  33.005  1.00  0.00    -0.237 OA
ATOM     94  O   UNL A   1      36.834  32.564  34.840  1.00  0.00    -0.744 OA
ENDBRANCH  90  91
ENDBRANCH  58  83
BRANCH  70  95
ATOM     95  C   UNL A   1      45.191  24.270  33.933  1.00  0.00     0.058 A 
ATOM     96  C   UNL A   1      46.503  23.981  34.352  1.00  0.00     0.135 A 
ATOM     97  C   UNL A   1      44.219  23.300  34.278  1.00  0.00     0.135 A 
ATOM     98  F   UNL A   1      47.497  24.866  34.189  1.00  0.00    -0.206 F 
ATOM     99  C   UNL A   1      46.840  22.790  35.001  1.00  0.00     0.059 A 
ATOM    100  C   UNL A   1      44.523  22.130  34.972  1.00  0.00     0.059 A 
ATOM    101  F   UNL A   1      42.927  23.465  33.958  1.00  0.00    -0.206 F 
ATOM    102  C   UNL A   1      45.844  21.869  35.308  1.00  0.00     0.060 A 
BRANCH 102 103
ATOM    103  S   UNL A   1      46.249  20.358  36.204  1.00  0.00     0.124 S 
ATOM    104  O   UNL A   1      45.788  20.683  37.551  1.00  0.00    -0.237 OA
ATOM    105  O   UNL A   1      45.470  19.340  35.503  1.00  0.00    -0.237 OA
ATOM    106  O   UNL A   1      47.695  20.252  36.037  1.00  0.00    -0.744 OA
ENDBRANCH 102 103
ENDBRANCH  70  95
ENDBRANCH  44  45
ENDBRANCH  36  39
ENDBRANCH  34  35
ENDBRANCH  33  34
ENDBRANCH  32  33
ENDBRANCH   1  32
TORSDOF 21
ENDMDL
