MODEL 1
REMARK VINA RESULT:     -12.3      0.000      0.000
REMARK SMILES COc1cccc(-c2c(C(=O)NCCCCCCNC(=O)c3ccc(-c4c5nc(c(-c6c(F)cc(S(=O)(=O)[O-])cc6F)c6ccc([nH]6)c(-c6c(F)cc(S(=O)(=O)[O-])cc6F)c6nc(c(-c7c(F)cc(S(=O)(=O)[O-])cc7F)c7ccc4[nH]7)C=C6)C=C5)cc3)nnn2-c2ccc(OC(F)(F)F)cc2)c1
REMARK SMILES IDX 15 1 14 2 13 3 12 4 10 5 11 6 9 8 8 9 90 10 88 11 89 12 7 13
REMARK SMILES IDX 3 14 4 15 102 16 5 17 6 18 2 19 1 20 91 21 92 22 101 23
REMARK SMILES IDX 93 24 100 25 94 26 95 27 96 28 97 29 98 30 99 31 16 32 17 33
REMARK SMILES IDX 18 34 19 35 20 36 21 38 22 39 23 40 87 41 24 42 86 43 25 44
REMARK SMILES IDX 26 45 27 46 80 47 28 48 85 49 79 50 81 51 29 52 84 53 78 54
REMARK SMILES IDX 77 55 30 57 64 58 43 59 63 60 44 61 47 62 62 63 82 64 45 65
REMARK SMILES IDX 46 66 61 68 83 69 48 70 31 71 32 72 41 73 33 74 34 75 40 76
REMARK SMILES IDX 42 77 35 78 36 79 37 80 38 81 39 82 65 83 66 84 75 85 67 86
REMARK SMILES IDX 68 87 74 88 76 89 69 90 70 91 71 92 72 93 73 94 49 95 50 96
REMARK SMILES IDX 59 97 51 98 52 99 58 100 60 101 53 102 54 103 55 104 56 105
REMARK SMILES IDX 57 106
REMARK H PARENT 12 7 19 37 81 56 47 67
REMARK Flexibility Score: inf
ROOT
ATOM      1  C   UNL A   1      32.359  27.393  26.432  1.00  0.00     0.002 C 
ENDROOT
BRANCH   1   2
ATOM      2  C   UNL A   1      31.000  26.785  26.757  1.00  0.00     0.021 C 
BRANCH   2   3
ATOM      3  C   UNL A   1      30.466  25.727  25.813  1.00  0.00     0.116 C 
BRANCH   3   4
ATOM      4  N   UNL A   1      29.771  24.608  26.380  1.00  0.00    -0.351 N 
ATOM      5  C   UNL A   1      30.287  23.438  26.901  1.00  0.00     0.274 C 
ATOM      6  O   UNL A   1      29.448  22.669  27.383  1.00  0.00    -0.267 OA
ATOM      7  H   UNL A   1      28.791  24.685  26.400  1.00  0.00     0.163 HD
BRANCH   5   8
ATOM      8  C   UNL A   1      31.714  23.060  26.873  1.00  0.00     0.178 A 
ATOM      9  C   UNL A   1      32.714  22.975  25.894  1.00  0.00     0.108 A 
ATOM     10  N   UNL A   1      33.832  22.526  26.601  1.00  0.00    -0.212 N 
ATOM     11  N   UNL A   1      32.270  22.657  28.077  1.00  0.00    -0.124 NA
ATOM     12  N   UNL A   1      33.508  22.246  27.876  1.00  0.00    -0.061 NA
BRANCH   9  13
ATOM     13  C   UNL A   1      32.737  23.080  24.431  1.00  0.00     0.006 A 
ATOM     14  C   UNL A   1      33.297  24.398  22.452  1.00  0.00     0.119 A 
ATOM     15  C   UNL A   1      32.920  23.317  21.656  1.00  0.00     0.046 A 
ATOM     16  C   UNL A   1      33.190  24.282  23.837  1.00  0.00     0.056 A 
ATOM     17  C   UNL A   1      32.450  22.132  22.228  1.00  0.00     0.005 A 
ATOM     18  C   UNL A   1      32.353  22.011  23.616  1.00  0.00     0.011 A 
BRANCH  14  19
ATOM     19  O   UNL A   1      33.729  25.495  21.763  1.00  0.00    -0.497 OA
ATOM     20  C   UNL A   1      33.328  26.779  22.232  1.00  0.00     0.278 C 
ENDBRANCH  14  19
ENDBRANCH   9  13
BRANCH  10  21
ATOM     21  C   UNL A   1      35.143  22.303  26.114  1.00  0.00     0.067 A 
ATOM     22  C   UNL A   1      36.101  23.313  26.221  1.00  0.00     0.032 A 
ATOM     23  C   UNL A   1      35.497  21.051  25.598  1.00  0.00     0.032 A 
ATOM     24  C   UNL A   1      37.430  23.028  25.894  1.00  0.00     0.049 A 
ATOM     25  C   UNL A   1      36.821  20.787  25.244  1.00  0.00     0.049 A 
ATOM     26  C   UNL A   1      37.801  21.765  25.414  1.00  0.00     0.129 A 
BRANCH  26  27
ATOM     27  O   UNL A   1      39.134  21.618  25.158  1.00  0.00    -0.406 OA
BRANCH  27  28
ATOM     28  C   UNL A   1      39.993  21.402  26.265  1.00  0.00     0.573 C 
ATOM     29  F   UNL A   1      39.632  22.149  27.328  1.00  0.00    -0.132 F 
ATOM     30  F   UNL A   1      39.998  20.096  26.619  1.00  0.00    -0.132 F 
ATOM     31  F   UNL A   1      41.254  21.739  25.915  1.00  0.00    -0.132 F 
ENDBRANCH  27  28
ENDBRANCH  26  27
ENDBRANCH  10  21
ENDBRANCH   5   8
ENDBRANCH   3   4
ENDBRANCH   2   3
ENDBRANCH   1   2
BRANCH   1  32
ATOM     32  C   UNL A   1      32.811  28.614  27.247  1.00  0.00     0.002 C 
BRANCH  32  33
ATOM     33  C   UNL A   1      33.595  29.721  26.529  1.00  0.00     0.021 C 
BRANCH  33  34
ATOM     34  C   UNL A   1      34.824  30.218  27.268  1.00  0.00     0.116 C 
BRANCH  34  35
ATOM     35  N   UNL A   1      34.551  31.336  28.170  1.00  0.00    -0.352 N 
ATOM     36  C   UNL A   1      35.153  31.604  29.383  1.00  0.00     0.251 C 
ATOM     37  H   UNL A   1      33.856  31.970  27.879  1.00  0.00     0.163 HD
ATOM     38  O   UNL A   1      34.619  32.367  30.194  1.00  0.00    -0.269 OA
BRANCH  36  39
ATOM     39  C   UNL A   1      36.443  30.965  29.694  1.00  0.00     0.039 A 
ATOM     40  C   UNL A   1      36.557  29.591  29.922  1.00  0.00     0.014 A 
ATOM     41  C   UNL A   1      37.570  31.781  29.722  1.00  0.00     0.014 A 
ATOM     42  C   UNL A   1      37.826  29.044  30.102  1.00  0.00     0.010 A 
ATOM     43  C   UNL A   1      38.819  31.221  29.703  1.00  0.00     0.010 A 
ATOM     44  C   UNL A   1      38.957  29.868  29.973  1.00  0.00    -0.014 A 
BRANCH  44  45
ATOM     45  C   UNL A   1      40.309  29.323  30.045  1.00  0.00     0.031 A 
ATOM     46  C   UNL A   1      40.830  29.121  31.427  1.00  0.00     0.074 A 
ATOM     47  C   UNL A   1      40.948  28.831  28.959  1.00  0.00     0.049 A 
ATOM     48  N   UNL A   1      41.830  29.712  31.993  1.00  0.00    -0.248 NA
ATOM     49  C   UNL A   1      40.064  28.252  32.337  1.00  0.00     0.031 C 
ATOM     50  C   UNL A   1      40.448  28.670  27.585  1.00  0.00     0.029 A 
ATOM     51  N   UNL A   1      42.182  28.268  28.882  1.00  0.00    -0.354 N 
ATOM     52  C   UNL A   1      41.952  29.142  33.258  1.00  0.00     0.074 A 
ATOM     53  C   UNL A   1      40.749  28.382  33.475  1.00  0.00     0.031 C 
ATOM     54  C   UNL A   1      41.266  27.847  26.892  1.00  0.00     0.029 A 
ATOM     55  C   UNL A   1      42.439  27.581  27.701  1.00  0.00     0.049 A 
ATOM     56  H   UNL A   1      42.844  28.343  29.607  1.00  0.00     0.167 HD
ATOM     57  C   UNL A   1      43.127  29.175  33.950  1.00  0.00     0.037 A 
ATOM     58  C   UNL A   1      43.537  26.834  27.419  1.00  0.00     0.037 A 
ATOM     59  C   UNL A   1      44.027  30.158  33.403  1.00  0.00     0.049 A 
ATOM     60  C   UNL A   1      44.603  27.276  28.357  1.00  0.00     0.074 A 
ATOM     61  C   UNL A   1      43.970  31.530  33.246  1.00  0.00     0.029 A 
ATOM     62  N   UNL A   1      45.002  29.728  32.534  1.00  0.00    -0.354 N 
ATOM     63  N   UNL A   1      45.126  28.473  28.342  1.00  0.00    -0.248 NA
ATOM     64  C   UNL A   1      44.727  26.557  29.615  1.00  0.00     0.031 C 
ATOM     65  C   UNL A   1      44.527  31.775  31.957  1.00  0.00     0.029 A 
ATOM     66  C   UNL A   1      44.967  30.557  31.438  1.00  0.00     0.049 A 
ATOM     67  H   UNL A   1      45.612  28.968  32.672  1.00  0.00     0.167 HD
ATOM     68  C   UNL A   1      45.267  28.821  29.678  1.00  0.00     0.074 A 
ATOM     69  C   UNL A   1      45.065  27.573  30.414  1.00  0.00     0.031 C 
ATOM     70  C   UNL A   1      45.250  30.126  30.084  1.00  0.00     0.037 A 
BRANCH  57  71
ATOM     71  C   UNL A   1      43.571  28.109  34.921  1.00  0.00     0.058 A 
ATOM     72  C   UNL A   1      43.872  28.448  36.255  1.00  0.00     0.135 A 
ATOM     73  C   UNL A   1      43.951  26.807  34.525  1.00  0.00     0.135 A 
ATOM     74  F   UNL A   1      43.580  29.668  36.734  1.00  0.00    -0.206 F 
ATOM     75  C   UNL A   1      44.536  27.572  37.118  1.00  0.00     0.059 A 
ATOM     76  C   UNL A   1      44.562  25.899  35.382  1.00  0.00     0.059 A 
ATOM     77  F   UNL A   1      43.832  26.387  33.258  1.00  0.00    -0.206 F 
ATOM     78  C   UNL A   1      44.883  26.301  36.667  1.00  0.00     0.060 A 
BRANCH  78  79
ATOM     79  S   UNL A   1      45.807  25.196  37.751  1.00  0.00     0.124 S 
ATOM     80  O   UNL A   1      47.124  25.209  37.126  1.00  0.00    -0.237 OA
ATOM     81  O   UNL A   1      45.701  25.875  39.038  1.00  0.00    -0.237 OA
ATOM     82  O   UNL A   1      45.073  23.938  37.651  1.00  0.00    -0.744 OA
ENDBRANCH  78  79
ENDBRANCH  57  71
BRANCH  58  83
ATOM     83  C   UNL A   1      43.592  25.540  26.687  1.00  0.00     0.058 A 
ATOM     84  C   UNL A   1      44.273  25.420  25.463  1.00  0.00     0.135 A 
ATOM     85  C   UNL A   1      43.228  24.331  27.315  1.00  0.00     0.135 A 
ATOM     86  F   UNL A   1      44.677  26.519  24.807  1.00  0.00    -0.206 F 
ATOM     87  C   UNL A   1      44.620  24.177  24.919  1.00  0.00     0.059 A 
ATOM     88  C   UNL A   1      43.556  23.081  26.789  1.00  0.00     0.059 A 
ATOM     89  F   UNL A   1      42.625  24.329  28.514  1.00  0.00    -0.206 F 
ATOM     90  C   UNL A   1      44.275  23.011  25.602  1.00  0.00     0.060 A 
BRANCH  90  91
ATOM     91  S   UNL A   1      44.879  21.413  25.005  1.00  0.00     0.124 S 
ATOM     92  O   UNL A   1      46.262  21.421  25.468  1.00  0.00    -0.237 OA
ATOM     93  O   UNL A   1      43.987  20.475  25.678  1.00  0.00    -0.237 OA
ATOM     94  O   UNL A   1      44.703  21.506  23.558  1.00  0.00    -0.744 OA
ENDBRANCH  90  91
ENDBRANCH  58  83
BRANCH  70  95
ATOM     95  C   UNL A   1      45.320  31.207  29.027  1.00  0.00     0.058 A 
ATOM     96  C   UNL A   1      46.509  31.669  28.430  1.00  0.00     0.135 A 
ATOM     97  C   UNL A   1      44.117  31.683  28.485  1.00  0.00     0.135 A 
ATOM     98  F   UNL A   1      47.702  31.195  28.811  1.00  0.00    -0.206 F 
ATOM     99  C   UNL A   1      46.502  32.588  27.376  1.00  0.00     0.059 A 
ATOM    100  C   UNL A   1      44.084  32.575  27.416  1.00  0.00     0.059 A 
ATOM    101  F   UNL A   1      42.944  31.238  28.965  1.00  0.00    -0.206 F 
ATOM    102  C   UNL A   1      45.282  33.035  26.874  1.00  0.00     0.060 A 
BRANCH 102 103
ATOM    103  S   UNL A   1      45.267  34.174  25.470  1.00  0.00     0.124 S 
ATOM    104  O   UNL A   1      44.534  35.315  26.008  1.00  0.00    -0.237 OA
ATOM    105  O   UNL A   1      46.689  34.394  25.224  1.00  0.00    -0.237 OA
ATOM    106  O   UNL A   1      44.573  33.421  24.427  1.00  0.00    -0.744 OA
ENDBRANCH 102 103
ENDBRANCH  70  95
ENDBRANCH  44  45
ENDBRANCH  36  39
ENDBRANCH  34  35
ENDBRANCH  33  34
ENDBRANCH  32  33
ENDBRANCH   1  32
TORSDOF 21
ENDMDL
MODEL 2
REMARK VINA RESULT:     -12.2      1.952      2.935
REMARK SMILES COc1cccc(-c2c(C(=O)NCCCCCCNC(=O)c3ccc(-c4c5nc(c(-c6c(F)cc(S(=O)(=O)[O-])cc6F)c6ccc([nH]6)c(-c6c(F)cc(S(=O)(=O)[O-])cc6F)c6nc(c(-c7c(F)cc(S(=O)(=O)[O-])cc7F)c7ccc4[nH]7)C=C6)C=C5)cc3)nnn2-c2ccc(OC(F)(F)F)cc2)c1
REMARK SMILES IDX 15 1 14 2 13 3 12 4 10 5 11 6 9 8 8 9 90 10 88 11 89 12 7 13
REMARK SMILES IDX 3 14 4 15 102 16 5 17 6 18 2 19 1 20 91 21 92 22 101 23
REMARK SMILES IDX 93 24 100 25 94 26 95 27 96 28 97 29 98 30 99 31 16 32 17 33
REMARK SMILES IDX 18 34 19 35 20 36 21 38 22 39 23 40 87 41 24 42 86 43 25 44
REMARK SMILES IDX 26 45 27 46 80 47 28 48 85 49 79 50 81 51 29 52 84 53 78 54
REMARK SMILES IDX 77 55 30 57 64 58 43 59 63 60 44 61 47 62 62 63 82 64 45 65
REMARK SMILES IDX 46 66 61 68 83 69 48 70 31 71 32 72 41 73 33 74 34 75 40 76
REMARK SMILES IDX 42 77 35 78 36 79 37 80 38 81 39 82 65 83 66 84 75 85 67 86
REMARK SMILES IDX 68 87 74 88 76 89 69 90 70 91 71 92 72 93 73 94 49 95 50 96
REMARK SMILES IDX 59 97 51 98 52 99 58 100 60 101 53 102 54 103 55 104 56 105
REMARK SMILES IDX 57 106
REMARK H PARENT 12 7 19 37 81 56 47 67
REMARK Flexibility Score: inf
ROOT
ATOM      1  C   UNL A   1      31.856  28.411  27.211  1.00  0.00     0.002 C 
ENDROOT
BRANCH   1   2
ATOM      2  C   UNL A   1      31.135  28.493  25.871  1.00  0.00     0.021 C 
BRANCH   2   3
ATOM      3  C   UNL A   1      31.233  27.293  24.951  1.00  0.00     0.116 C 
BRANCH   3   4
ATOM      4  N   UNL A   1      32.142  27.366  23.845  1.00  0.00    -0.351 N 
ATOM      5  C   UNL A   1      32.643  26.343  23.063  1.00  0.00     0.274 C 
ATOM      6  O   UNL A   1      33.366  26.709  22.130  1.00  0.00    -0.267 OA
ATOM      7  H   UNL A   1      32.452  28.270  23.611  1.00  0.00     0.163 HD
BRANCH   5   8
ATOM      8  C   UNL A   1      32.404  24.906  23.300  1.00  0.00     0.178 A 
ATOM      9  C   UNL A   1      33.180  23.809  23.699  1.00  0.00     0.108 A 
ATOM     10  N   UNL A   1      32.275  22.744  23.695  1.00  0.00    -0.212 N 
ATOM     11  N   UNL A   1      31.115  24.448  23.074  1.00  0.00    -0.124 NA
ATOM     12  N   UNL A   1      31.081  23.136  23.216  1.00  0.00    -0.061 NA
BRANCH   9  13
ATOM     13  C   UNL A   1      34.614  23.581  23.908  1.00  0.00     0.006 A 
ATOM     14  C   UNL A   1      36.537  23.691  25.411  1.00  0.00     0.119 A 
ATOM     15  C   UNL A   1      37.310  23.076  24.427  1.00  0.00     0.046 A 
ATOM     16  C   UNL A   1      35.195  23.956  25.144  1.00  0.00     0.056 A 
ATOM     17  C   UNL A   1      36.755  22.720  23.195  1.00  0.00     0.005 A 
ATOM     18  C   UNL A   1      35.408  22.975  22.930  1.00  0.00     0.011 A 
BRANCH  14  19
ATOM     19  O   UNL A   1      37.206  23.992  26.563  1.00  0.00    -0.497 OA
ATOM     20  C   UNL A   1      38.598  24.284  26.470  1.00  0.00     0.278 C 
ENDBRANCH  14  19
ENDBRANCH   9  13
BRANCH  10  21
ATOM     21  C   UNL A   1      32.510  21.396  24.058  1.00  0.00     0.067 A 
ATOM     22  C   UNL A   1      32.835  21.084  25.380  1.00  0.00     0.032 A 
ATOM     23  C   UNL A   1      32.342  20.374  23.117  1.00  0.00     0.032 A 
ATOM     24  C   UNL A   1      32.899  19.742  25.767  1.00  0.00     0.049 A 
ATOM     25  C   UNL A   1      32.440  19.038  23.506  1.00  0.00     0.049 A 
ATOM     26  C   UNL A   1      32.694  18.712  24.839  1.00  0.00     0.129 A 
BRANCH  26  27
ATOM     27  O   UNL A   1      32.761  17.452  25.358  1.00  0.00    -0.406 OA
BRANCH  27  28
ATOM     28  C   UNL A   1      33.757  16.583  24.843  1.00  0.00     0.573 C 
ATOM     29  F   UNL A   1      33.214  15.540  24.183  1.00  0.00    -0.132 F 
ATOM     30  F   UNL A   1      34.591  17.251  24.011  1.00  0.00    -0.132 F 
ATOM     31  F   UNL A   1      34.493  16.102  25.868  1.00  0.00    -0.132 F 
ENDBRANCH  27  28
ENDBRANCH  26  27
ENDBRANCH  10  21
ENDBRANCH   5   8
ENDBRANCH   3   4
ENDBRANCH   2   3
ENDBRANCH   1   2
BRANCH   1  32
ATOM     32  C   UNL A   1      33.324  28.858  27.263  1.00  0.00     0.002 C 
BRANCH  32  33
ATOM     33  C   UNL A   1      33.656  30.315  26.914  1.00  0.00     0.021 C 
BRANCH  33  34
ATOM     34  C   UNL A   1      34.876  30.881  27.618  1.00  0.00     0.116 C 
BRANCH  34  35
ATOM     35  N   UNL A   1      34.548  31.768  28.733  1.00  0.00    -0.352 N 
ATOM     36  C   UNL A   1      35.094  31.763  30.001  1.00  0.00     0.251 C 
ATOM     37  H   UNL A   1      33.857  32.448  28.559  1.00  0.00     0.163 HD
ATOM     38  O   UNL A   1      34.514  32.324  30.936  1.00  0.00    -0.269 OA
BRANCH  36  39
ATOM     39  C   UNL A   1      36.379  31.077  30.220  1.00  0.00     0.039 A 
ATOM     40  C   UNL A   1      36.467  29.689  30.358  1.00  0.00     0.014 A 
ATOM     41  C   UNL A   1      37.526  31.864  30.252  1.00  0.00     0.014 A 
ATOM     42  C   UNL A   1      37.728  29.104  30.453  1.00  0.00     0.010 A 
ATOM     43  C   UNL A   1      38.758  31.278  30.148  1.00  0.00     0.010 A 
ATOM     44  C   UNL A   1      38.874  29.908  30.330  1.00  0.00    -0.014 A 
BRANCH  44  45
ATOM     45  C   UNL A   1      40.213  29.330  30.313  1.00  0.00     0.031 A 
ATOM     46  C   UNL A   1      40.818  29.111  31.658  1.00  0.00     0.074 A 
ATOM     47  C   UNL A   1      40.767  28.824  29.188  1.00  0.00     0.049 A 
ATOM     48  N   UNL A   1      41.867  29.676  32.159  1.00  0.00    -0.248 NA
ATOM     49  C   UNL A   1      40.091  28.260  32.615  1.00  0.00     0.031 C 
ATOM     50  C   UNL A   1      40.176  28.679  27.849  1.00  0.00     0.029 A 
ATOM     51  N   UNL A   1      41.980  28.231  29.031  1.00  0.00    -0.354 N 
ATOM     52  C   UNL A   1      42.056  29.101  33.413  1.00  0.00     0.074 A 
ATOM     53  C   UNL A   1      40.850  28.371  33.707  1.00  0.00     0.031 C 
ATOM     54  C   UNL A   1      40.927  27.837  27.103  1.00  0.00     0.029 A 
ATOM     55  C   UNL A   1      42.142  27.540  27.835  1.00  0.00     0.049 A 
ATOM     56  H   UNL A   1      42.689  28.288  29.711  1.00  0.00     0.167 HD
ATOM     57  C   UNL A   1      43.273  29.103  34.027  1.00  0.00     0.037 A 
ATOM     58  C   UNL A   1      43.201  26.767  27.482  1.00  0.00     0.037 A 
ATOM     59  C   UNL A   1      44.160  30.065  33.423  1.00  0.00     0.049 A 
ATOM     60  C   UNL A   1      44.336  27.180  28.349  1.00  0.00     0.074 A 
ATOM     61  C   UNL A   1      44.128  31.437  33.272  1.00  0.00     0.029 A 
ATOM     62  N   UNL A   1      45.066  29.612  32.493  1.00  0.00    -0.354 N 
ATOM     63  N   UNL A   1      44.887  28.364  28.301  1.00  0.00    -0.248 NA
ATOM     64  C   UNL A   1      44.523  26.456  29.596  1.00  0.00     0.031 C 
ATOM     65  C   UNL A   1      44.606  31.672  31.949  1.00  0.00     0.029 A 
ATOM     66  C   UNL A   1      44.981  30.444  31.402  1.00  0.00     0.049 A 
ATOM     67  H   UNL A   1      45.665  28.837  32.590  1.00  0.00     0.167 HD
ATOM     68  C   UNL A   1      45.122  28.705  29.625  1.00  0.00     0.074 A 
ATOM     69  C   UNL A   1      44.938  27.461  30.372  1.00  0.00     0.031 C 
ATOM     70  C   UNL A   1      45.165  30.009  30.032  1.00  0.00     0.037 A 
BRANCH  57  71
ATOM     71  C   UNL A   1      43.753  28.024  34.966  1.00  0.00     0.058 A 
ATOM     72  C   UNL A   1      44.233  28.363  36.247  1.00  0.00     0.135 A 
ATOM     73  C   UNL A   1      43.990  26.691  34.562  1.00  0.00     0.135 A 
ATOM     74  F   UNL A   1      44.086  29.609  36.725  1.00  0.00    -0.206 F 
ATOM     75  C   UNL A   1      44.930  27.455  37.049  1.00  0.00     0.059 A 
ATOM     76  C   UNL A   1      44.633  25.756  35.366  1.00  0.00     0.059 A 
ATOM     77  F   UNL A   1      43.693  26.259  33.329  1.00  0.00    -0.206 F 
ATOM     78  C   UNL A   1      45.131  26.155  36.594  1.00  0.00     0.060 A 
BRANCH  78  79
ATOM     79  S   UNL A   1      46.096  25.004  37.590  1.00  0.00     0.124 S 
ATOM     80  O   UNL A   1      46.476  24.007  36.597  1.00  0.00    -0.237 OA
ATOM     81  O   UNL A   1      47.171  25.859  38.085  1.00  0.00    -0.237 OA
ATOM     82  O   UNL A   1      45.144  24.556  38.602  1.00  0.00    -0.744 OA
ENDBRANCH  78  79
ENDBRANCH  57  71
BRANCH  58  83
ATOM     83  C   UNL A   1      43.176  25.473  26.747  1.00  0.00     0.058 A 
ATOM     84  C   UNL A   1      43.739  25.349  25.465  1.00  0.00     0.135 A 
ATOM     85  C   UNL A   1      42.861  24.266  27.405  1.00  0.00     0.135 A 
ATOM     86  F   UNL A   1      44.091  26.446  24.775  1.00  0.00    -0.206 F 
ATOM     87  C   UNL A   1      44.023  24.104  24.890  1.00  0.00     0.059 A 
ATOM     88  C   UNL A   1      43.127  23.015  26.850  1.00  0.00     0.059 A 
ATOM     89  F   UNL A   1      42.371  24.268  28.655  1.00  0.00    -0.206 F 
ATOM     90  C   UNL A   1      43.732  22.940  25.602  1.00  0.00     0.060 A 
BRANCH  90  91
ATOM     91  S   UNL A   1      44.264  21.337  24.950  1.00  0.00     0.124 S 
ATOM     92  O   UNL A   1      45.455  21.068  25.748  1.00  0.00    -0.237 OA
ATOM     93  O   UNL A   1      43.106  20.493  25.226  1.00  0.00    -0.237 OA
ATOM     94  O   UNL A   1      44.506  21.613  23.537  1.00  0.00    -0.744 OA
ENDBRANCH  90  91
ENDBRANCH  58  83
BRANCH  70  95
ATOM     95  C   UNL A   1      45.193  31.090  28.973  1.00  0.00     0.058 A 
ATOM     96  C   UNL A   1      46.350  31.517  28.293  1.00  0.00     0.135 A 
ATOM     97  C   UNL A   1      43.970  31.606  28.519  1.00  0.00     0.135 A 
ATOM     98  F   UNL A   1      47.552  31.004  28.588  1.00  0.00    -0.206 F 
ATOM     99  C   UNL A   1      46.296  32.439  27.243  1.00  0.00     0.059 A 
ATOM    100  C   UNL A   1      43.888  32.501  27.455  1.00  0.00     0.059 A 
ATOM    101  F   UNL A   1      42.821  31.196  29.081  1.00  0.00    -0.206 F 
ATOM    102  C   UNL A   1      45.058  32.925  26.829  1.00  0.00     0.060 A 
BRANCH 102 103
ATOM    103  S   UNL A   1      44.980  34.067  25.431  1.00  0.00     0.124 S 
ATOM    104  O   UNL A   1      44.165  35.153  25.967  1.00  0.00    -0.237 OA
ATOM    105  O   UNL A   1      46.385  34.385  25.200  1.00  0.00    -0.237 OA
ATOM    106  O   UNL A   1      44.348  33.275  24.378  1.00  0.00    -0.744 OA
ENDBRANCH 102 103
ENDBRANCH  70  95
ENDBRANCH  44  45
ENDBRANCH  36  39
ENDBRANCH  34  35
ENDBRANCH  33  34
ENDBRANCH  32  33
ENDBRANCH   1  32
TORSDOF 21
ENDMDL
MODEL 3
REMARK VINA RESULT:     -12.1      3.787      9.783
REMARK SMILES COc1cccc(-c2c(C(=O)NCCCCCCNC(=O)c3ccc(-c4c5nc(c(-c6c(F)cc(S(=O)(=O)[O-])cc6F)c6ccc([nH]6)c(-c6c(F)cc(S(=O)(=O)[O-])cc6F)c6nc(c(-c7c(F)cc(S(=O)(=O)[O-])cc7F)c7ccc4[nH]7)C=C6)C=C5)cc3)nnn2-c2ccc(OC(F)(F)F)cc2)c1
REMARK SMILES IDX 15 1 14 2 13 3 12 4 10 5 11 6 9 8 8 9 90 10 88 11 89 12 7 13
REMARK SMILES IDX 3 14 4 15 102 16 5 17 6 18 2 19 1 20 91 21 92 22 101 23
REMARK SMILES IDX 93 24 100 25 94 26 95 27 96 28 97 29 98 30 99 31 16 32 17 33
REMARK SMILES IDX 18 34 19 35 20 36 21 38 22 39 23 40 87 41 24 42 86 43 25 44
REMARK SMILES IDX 26 45 27 46 80 47 28 48 85 49 79 50 81 51 29 52 84 53 78 54
REMARK SMILES IDX 77 55 30 57 64 58 43 59 63 60 44 61 47 62 62 63 82 64 45 65
REMARK SMILES IDX 46 66 61 68 83 69 48 70 31 71 32 72 41 73 33 74 34 75 40 76
REMARK SMILES IDX 42 77 35 78 36 79 37 80 38 81 39 82 65 83 66 84 75 85 67 86
REMARK SMILES IDX 68 87 74 88 76 89 69 90 70 91 71 92 72 93 73 94 49 95 50 96
REMARK SMILES IDX 59 97 51 98 52 99 58 100 60 101 53 102 54 103 55 104 56 105
REMARK SMILES IDX 57 106
REMARK H PARENT 12 7 19 37 81 56 47 67
REMARK Flexibility Score: inf
ROOT
ATOM      1  C   UNL A   1      36.714  21.963  25.053  1.00  0.00     0.002 C 
ENDROOT
BRANCH   1   2
ATOM      2  C   UNL A   1      36.467  23.459  25.202  1.00  0.00     0.021 C 
BRANCH   2   3
ATOM      3  C   UNL A   1      35.028  23.934  25.175  1.00  0.00     0.116 C 
BRANCH   3   4
ATOM      4  N   UNL A   1      34.069  23.219  25.963  1.00  0.00    -0.351 N 
ATOM      5  C   UNL A   1      32.689  23.266  25.908  1.00  0.00     0.274 C 
ATOM      6  O   UNL A   1      32.112  22.486  26.672  1.00  0.00    -0.267 OA
ATOM      7  H   UNL A   1      34.446  22.610  26.638  1.00  0.00     0.163 HD
BRANCH   5   8
ATOM      8  C   UNL A   1      31.911  24.186  25.054  1.00  0.00     0.178 A 
ATOM      9  C   UNL A   1      31.697  25.570  25.001  1.00  0.00     0.108 A 
ATOM     10  N   UNL A   1      30.821  25.728  23.924  1.00  0.00    -0.212 N 
ATOM     11  N   UNL A   1      31.164  23.605  24.041  1.00  0.00    -0.124 NA
ATOM     12  N   UNL A   1      30.440  24.532  23.441  1.00  0.00    -0.061 NA
BRANCH   9  13
ATOM     13  C   UNL A   1      32.035  26.701  25.872  1.00  0.00     0.006 A 
ATOM     14  C   UNL A   1      33.630  28.447  26.484  1.00  0.00     0.119 A 
ATOM     15  C   UNL A   1      32.708  28.930  27.412  1.00  0.00     0.046 A 
ATOM     16  C   UNL A   1      33.298  27.324  25.728  1.00  0.00     0.056 A 
ATOM     17  C   UNL A   1      31.466  28.311  27.580  1.00  0.00     0.005 A 
ATOM     18  C   UNL A   1      31.128  27.194  26.815  1.00  0.00     0.011 A 
BRANCH  14  19
ATOM     19  O   UNL A   1      34.806  29.140  26.428  1.00  0.00    -0.497 OA
ATOM     20  C   UNL A   1      35.422  29.510  27.658  1.00  0.00     0.278 C 
ENDBRANCH  14  19
ENDBRANCH   9  13
BRANCH  10  21
ATOM     21  C   UNL A   1      30.300  26.932  23.389  1.00  0.00     0.067 A 
ATOM     22  C   UNL A   1      28.942  27.222  23.538  1.00  0.00     0.032 A 
ATOM     23  C   UNL A   1      31.155  27.859  22.783  1.00  0.00     0.032 A 
ATOM     24  C   UNL A   1      28.471  28.483  23.159  1.00  0.00     0.049 A 
ATOM     25  C   UNL A   1      30.668  29.102  22.379  1.00  0.00     0.049 A 
ATOM     26  C   UNL A   1      29.328  29.432  22.587  1.00  0.00     0.129 A 
BRANCH  26  27
ATOM     27  O   UNL A   1      28.740  30.627  22.288  1.00  0.00    -0.406 OA
BRANCH  27  28
ATOM     28  C   UNL A   1      28.540  31.543  23.352  1.00  0.00     0.573 C 
ATOM     29  F   UNL A   1      27.318  31.403  23.906  1.00  0.00    -0.132 F 
ATOM     30  F   UNL A   1      29.484  31.380  24.308  1.00  0.00    -0.132 F 
ATOM     31  F   UNL A   1      28.649  32.802  22.874  1.00  0.00    -0.132 F 
ENDBRANCH  27  28
ENDBRANCH  26  27
ENDBRANCH  10  21
ENDBRANCH   5   8
ENDBRANCH   3   4
ENDBRANCH   2   3
ENDBRANCH   1   2
BRANCH   1  32
ATOM     32  C   UNL A   1      38.126  21.437  25.351  1.00  0.00     0.002 C 
BRANCH  32  33
ATOM     33  C   UNL A   1      39.109  22.361  26.084  1.00  0.00     0.021 C 
BRANCH  33  34
ATOM     34  C   UNL A   1      40.354  21.677  26.620  1.00  0.00     0.116 C 
BRANCH  34  35
ATOM     35  N   UNL A   1      41.523  21.831  25.754  1.00  0.00    -0.352 N 
ATOM     36  C   UNL A   1      42.261  22.976  25.534  1.00  0.00     0.251 C 
ATOM     37  H   UNL A   1      41.817  21.024  25.274  1.00  0.00     0.163 HD
ATOM     38  O   UNL A   1      43.001  23.066  24.549  1.00  0.00    -0.269 OA
BRANCH  36  39
ATOM     39  C   UNL A   1      42.151  24.090  26.491  1.00  0.00     0.039 A 
ATOM     40  C   UNL A   1      42.802  24.075  27.728  1.00  0.00     0.014 A 
ATOM     41  C   UNL A   1      41.394  25.191  26.107  1.00  0.00     0.014 A 
ATOM     42  C   UNL A   1      42.739  25.210  28.533  1.00  0.00     0.010 A 
ATOM     43  C   UNL A   1      41.494  26.366  26.802  1.00  0.00     0.010 A 
ATOM     44  C   UNL A   1      42.095  26.362  28.052  1.00  0.00    -0.014 A 
BRANCH  44  45
ATOM     45  C   UNL A   1      42.096  27.609  28.810  1.00  0.00     0.031 A 
ATOM     46  C   UNL A   1      43.126  28.600  28.384  1.00  0.00     0.074 A 
ATOM     47  C   UNL A   1      41.105  27.931  29.673  1.00  0.00     0.049 A 
ATOM     48  N   UNL A   1      44.131  29.044  29.064  1.00  0.00    -0.248 NA
ATOM     49  C   UNL A   1      43.113  29.053  26.983  1.00  0.00     0.031 C 
ATOM     50  C   UNL A   1      39.862  27.203  29.968  1.00  0.00     0.029 A 
ATOM     51  N   UNL A   1      40.959  29.060  30.415  1.00  0.00    -0.354 N 
ATOM     52  C   UNL A   1      44.760  29.988  28.256  1.00  0.00     0.074 A 
ATOM     53  C   UNL A   1      44.198  29.829  26.939  1.00  0.00     0.031 C 
ATOM     54  C   UNL A   1      39.000  28.012  30.625  1.00  0.00     0.029 A 
ATOM     55  C   UNL A   1      39.695  29.238  30.965  1.00  0.00     0.049 A 
ATOM     56  H   UNL A   1      41.693  29.701  30.553  1.00  0.00     0.167 HD
ATOM     57  C   UNL A   1      45.550  30.967  28.779  1.00  0.00     0.037 A 
ATOM     58  C   UNL A   1      39.250  30.327  31.642  1.00  0.00     0.037 A 
ATOM     59  C   UNL A   1      45.937  30.658  30.132  1.00  0.00     0.049 A 
ATOM     60  C   UNL A   1      40.459  31.055  32.114  1.00  0.00     0.074 A 
ATOM     61  C   UNL A   1      46.657  29.633  30.715  1.00  0.00     0.029 A 
ATOM     62  N   UNL A   1      45.219  31.233  31.155  1.00  0.00    -0.354 N 
ATOM     63  N   UNL A   1      41.300  30.567  32.987  1.00  0.00    -0.248 NA
ATOM     64  C   UNL A   1      40.989  32.099  31.253  1.00  0.00     0.031 C 
ATOM     65  C   UNL A   1      45.952  29.326  31.916  1.00  0.00     0.029 A 
ATOM     66  C   UNL A   1      44.897  30.232  32.041  1.00  0.00     0.049 A 
ATOM     67  H   UNL A   1      44.981  32.184  31.238  1.00  0.00     0.167 HD
ATOM     68  C   UNL A   1      42.554  30.928  32.517  1.00  0.00     0.074 A 
ATOM     69  C   UNL A   1      42.295  31.928  31.481  1.00  0.00     0.031 C 
ATOM     70  C   UNL A   1      43.667  30.187  32.804  1.00  0.00     0.037 A 
BRANCH  57  71
ATOM     71  C   UNL A   1      45.717  32.339  28.173  1.00  0.00     0.058 A 
ATOM     72  C   UNL A   1      46.907  32.674  27.497  1.00  0.00     0.135 A 
ATOM     73  C   UNL A   1      44.849  33.420  28.447  1.00  0.00     0.135 A 
ATOM     74  F   UNL A   1      47.818  31.732  27.207  1.00  0.00    -0.206 F 
ATOM     75  C   UNL A   1      47.228  33.991  27.154  1.00  0.00     0.059 A 
ATOM     76  C   UNL A   1      45.122  34.729  28.066  1.00  0.00     0.059 A 
ATOM     77  F   UNL A   1      43.739  33.271  29.181  1.00  0.00    -0.206 F 
ATOM     78  C   UNL A   1      46.329  35.012  27.450  1.00  0.00     0.060 A 
BRANCH  78  79
ATOM     79  S   UNL A   1      46.771  36.720  27.080  1.00  0.00     0.124 S 
ATOM     80  O   UNL A   1      47.777  36.541  26.041  1.00  0.00    -0.237 OA
ATOM     81  O   UNL A   1      45.494  37.277  26.648  1.00  0.00    -0.237 OA
ATOM     82  O   UNL A   1      47.266  37.222  28.359  1.00  0.00    -0.744 OA
ENDBRANCH  78  79
ENDBRANCH  57  71
BRANCH  58  83
ATOM     83  C   UNL A   1      37.906  30.961  31.563  1.00  0.00     0.058 A 
ATOM     84  C   UNL A   1      37.073  31.053  32.691  1.00  0.00     0.135 A 
ATOM     85  C   UNL A   1      37.536  31.747  30.452  1.00  0.00     0.135 A 
ATOM     86  F   UNL A   1      37.363  30.356  33.801  1.00  0.00    -0.206 F 
ATOM     87  C   UNL A   1      35.968  31.912  32.736  1.00  0.00     0.059 A 
ATOM     88  C   UNL A   1      36.435  32.604  30.471  1.00  0.00     0.059 A 
ATOM     89  F   UNL A   1      38.292  31.778  29.344  1.00  0.00    -0.206 F 
ATOM     90  C   UNL A   1      35.669  32.701  31.626  1.00  0.00     0.060 A 
BRANCH  90  91
ATOM     91  S   UNL A   1      34.360  33.946  31.739  1.00  0.00     0.124 S 
ATOM     92  O   UNL A   1      33.535  33.418  32.820  1.00  0.00    -0.237 OA
ATOM     93  O   UNL A   1      35.113  35.158  32.043  1.00  0.00    -0.237 OA
ATOM     94  O   UNL A   1      33.749  33.913  30.413  1.00  0.00    -0.744 OA
ENDBRANCH  90  91
ENDBRANCH  58  83
BRANCH  70  95
ATOM     95  C   UNL A   1      43.553  29.096  33.846  1.00  0.00     0.058 A 
ATOM     96  C   UNL A   1      43.122  27.780  33.587  1.00  0.00     0.135 A 
ATOM     97  C   UNL A   1      44.050  29.353  35.133  1.00  0.00     0.135 A 
ATOM     98  F   UNL A   1      42.726  27.413  32.362  1.00  0.00    -0.206 F 
ATOM     99  C   UNL A   1      43.147  26.784  34.568  1.00  0.00     0.059 A 
ATOM    100  C   UNL A   1      44.114  28.370  36.117  1.00  0.00     0.059 A 
ATOM    101  F   UNL A   1      44.535  30.570  35.432  1.00  0.00    -0.206 F 
ATOM    102  C   UNL A   1      43.648  27.088  35.832  1.00  0.00     0.060 A 
BRANCH 102 103
ATOM    103  S   UNL A   1      43.741  25.787  37.082  1.00  0.00     0.124 S 
ATOM    104  O   UNL A   1      45.118  25.908  37.550  1.00  0.00    -0.237 OA
ATOM    105  O   UNL A   1      42.711  26.187  38.036  1.00  0.00    -0.237 OA
ATOM    106  O   UNL A   1      43.442  24.570  36.331  1.00  0.00    -0.744 OA
ENDBRANCH 102 103
ENDBRANCH  70  95
ENDBRANCH  44  45
ENDBRANCH  36  39
ENDBRANCH  34  35
ENDBRANCH  33  34
ENDBRANCH  32  33
ENDBRANCH   1  32
TORSDOF 21
ENDMDL
