MODEL 1
REMARK VINA RESULT:     -11.6      0.000      0.000
REMARK SMILES Cc1ccc(C)c(S(=O)(=O)N[C@H](CC2=c3ccccc3=NC2)C(=O)NCCCCCCNC(=O)c2ccc(-c3c4nc(c(-c5c(F)cc(S(=O)(=O)[O-])cc5F)c5ccc([nH]5)c(-c5c(F)cc(S(=O)(=O)[O-])cc5F)c5nc(c(-c6c(F)cc(S(=O)(=O)[O-])cc6F)c6ccc3[nH]6)C=C5)C=C4)cc2)c1
REMARK SMILES IDX 28 1 27 2 26 3 25 4 23 5 24 6 12 8 11 9 8 11 9 12 10 13 7 14
REMARK SMILES IDX 1 15 2 16 3 17 101 18 4 19 5 20 6 21 13 22 14 23 15 24 22 25
REMARK SMILES IDX 16 26 20 27 21 28 17 29 19 30 18 31 29 32 30 33 31 34 32 35
REMARK SMILES IDX 33 36 34 38 35 39 36 40 100 41 37 42 99 43 38 44 39 45 40 46
REMARK SMILES IDX 93 47 41 48 98 49 92 50 94 51 42 52 97 53 91 54 90 55 43 57
REMARK SMILES IDX 77 58 56 59 76 60 57 61 60 62 75 63 95 64 58 65 59 66 74 68
REMARK SMILES IDX 96 69 61 70 44 71 45 72 54 73 46 74 47 75 53 76 55 77 48 78
REMARK SMILES IDX 49 79 50 80 51 81 52 82 78 83 79 84 88 85 80 86 81 87 87 88
REMARK SMILES IDX 89 89 82 90 83 91 84 92 85 93 86 94 62 95 63 96 72 97 64 98
REMARK SMILES IDX 65 99 71 100 73 101 66 102 67 103 68 104 69 105 70 106
REMARK H PARENT 25 7 11 10 32 37 94 56 60 67
REMARK Flexibility Score: inf
ROOT
ATOM      1  C   UNL A   1      39.997  23.973  27.658  1.00  0.00     0.002 C 
ENDROOT
BRANCH   1   2
ATOM      2  C   UNL A   1      39.105  24.276  26.452  1.00  0.00     0.021 C 
BRANCH   2   3
ATOM      3  C   UNL A   1      37.665  23.728  26.475  1.00  0.00     0.116 C 
BRANCH   3   4
ATOM      4  N   UNL A   1      37.499  22.333  26.079  1.00  0.00    -0.355 N 
ATOM      5  C   UNL A   1      36.545  21.620  25.405  1.00  0.00     0.238 C 
ATOM      6  O   UNL A   1      36.748  20.401  25.326  1.00  0.00    -0.273 OA
ATOM      7  H   UNL A   1      38.253  21.770  26.368  1.00  0.00     0.163 HD
BRANCH   5   8
ATOM      8  C   UNL A   1      35.284  22.238  24.769  1.00  0.00     0.163 C 
BRANCH   8   9
ATOM      9  N   UNL A   1      34.240  21.186  24.622  1.00  0.00    -0.198 NA
ATOM     10  H   UNL A   1      33.946  21.199  23.644  1.00  0.00     0.142 HD
BRANCH   9  11
ATOM     11  S   UNL A   1      32.844  21.249  25.545  1.00  0.00     0.241 S 
ATOM     12  O   UNL A   1      33.206  21.558  26.902  1.00  0.00    -0.207 OA
ATOM     13  O   UNL A   1      32.127  20.028  25.207  1.00  0.00    -0.207 OA
BRANCH  11  14
ATOM     14  C   UNL A   1      31.908  22.597  24.863  1.00  0.00     0.085 A 
ATOM     15  C   UNL A   1      30.233  25.745  26.206  1.00  0.00     0.044 C 
ATOM     16  C   UNL A   1      30.692  24.669  25.262  1.00  0.00    -0.050 A 
ATOM     17  C   UNL A   1      30.254  24.647  23.939  1.00  0.00     0.004 A 
ATOM     18  C   UNL A   1      31.533  23.650  25.710  1.00  0.00     0.025 A 
ATOM     19  C   UNL A   1      30.670  23.631  23.073  1.00  0.00     0.005 A 
ATOM     20  C   UNL A   1      31.508  22.592  23.516  1.00  0.00    -0.031 A 
ATOM     21  C   UNL A   1      31.924  21.558  22.506  1.00  0.00     0.046 C 
ENDBRANCH  11  14
ENDBRANCH   9  11
ENDBRANCH   8   9
BRANCH   8  22
ATOM     22  C   UNL A   1      35.452  23.041  23.441  1.00  0.00     0.063 C 
BRANCH  22  23
ATOM     23  C   UNL A   1      34.626  24.280  23.246  1.00  0.00    -0.037 C 
ATOM     24  C   UNL A   1      34.267  25.263  24.073  1.00  0.00     0.001 A 
ATOM     25  C   UNL A   1      33.934  24.474  21.941  1.00  0.00     0.174 C 
ATOM     26  C   UNL A   1      34.389  25.561  25.463  1.00  0.00     0.010 A 
ATOM     27  C   UNL A   1      33.525  26.175  23.180  1.00  0.00     0.065 A 
ATOM     28  N   UNL A   1      33.288  25.788  21.966  1.00  0.00    -0.280 NA
ATOM     29  C   UNL A   1      33.828  26.690  25.934  1.00  0.00     0.001 A 
ATOM     30  C   UNL A   1      33.116  27.475  23.731  1.00  0.00     0.028 A 
ATOM     31  C   UNL A   1      33.228  27.674  25.052  1.00  0.00     0.002 A 
ENDBRANCH  22  23
ENDBRANCH   8  22
ENDBRANCH   5   8
ENDBRANCH   3   4
ENDBRANCH   2   3
ENDBRANCH   1   2
BRANCH   1  32
ATOM     32  C   UNL A   1      40.333  22.500  27.886  1.00  0.00     0.002 C 
BRANCH  32  33
ATOM     33  C   UNL A   1      41.639  21.966  27.274  1.00  0.00     0.021 C 
BRANCH  33  34
ATOM     34  C   UNL A   1      41.715  21.880  25.748  1.00  0.00     0.116 C 
BRANCH  34  35
ATOM     35  N   UNL A   1      43.001  22.336  25.214  1.00  0.00    -0.352 N 
ATOM     36  C   UNL A   1      43.575  23.588  25.079  1.00  0.00     0.251 C 
ATOM     37  H   UNL A   1      43.573  21.605  24.885  1.00  0.00     0.163 HD
ATOM     38  O   UNL A   1      44.449  23.738  24.227  1.00  0.00    -0.269 OA
BRANCH  36  39
ATOM     39  C   UNL A   1      43.190  24.733  25.938  1.00  0.00     0.039 A 
ATOM     40  C   UNL A   1      42.328  25.746  25.487  1.00  0.00     0.014 A 
ATOM     41  C   UNL A   1      43.767  24.863  27.188  1.00  0.00     0.014 A 
ATOM     42  C   UNL A   1      42.095  26.865  26.299  1.00  0.00     0.010 A 
ATOM     43  C   UNL A   1      43.376  25.829  28.069  1.00  0.00     0.010 A 
ATOM     44  C   UNL A   1      42.645  26.897  27.583  1.00  0.00    -0.014 A 
BRANCH  44  45
ATOM     45  C   UNL A   1      42.506  28.005  28.512  1.00  0.00     0.031 A 
ATOM     46  C   UNL A   1      43.543  29.042  28.411  1.00  0.00     0.074 A 
ATOM     47  C   UNL A   1      41.338  28.267  29.137  1.00  0.00     0.049 A 
ATOM     48  N   UNL A   1      44.420  29.345  29.306  1.00  0.00    -0.248 NA
ATOM     49  C   UNL A   1      43.705  29.753  27.134  1.00  0.00     0.031 C 
ATOM     50  C   UNL A   1      40.103  27.483  29.066  1.00  0.00     0.029 A 
ATOM     51  N   UNL A   1      40.966  29.364  29.861  1.00  0.00    -0.354 N 
ATOM     52  C   UNL A   1      45.080  30.452  28.801  1.00  0.00     0.074 A 
ATOM     53  C   UNL A   1      44.786  30.491  27.391  1.00  0.00     0.031 C 
ATOM     54  C   UNL A   1      39.087  28.226  29.551  1.00  0.00     0.029 A 
ATOM     55  C   UNL A   1      39.596  29.477  30.056  1.00  0.00     0.049 A 
ATOM     56  H   UNL A   1      41.614  30.017  30.213  1.00  0.00     0.167 HD
ATOM     57  C   UNL A   1      45.565  31.418  29.625  1.00  0.00     0.037 A 
ATOM     58  C   UNL A   1      38.896  30.513  30.586  1.00  0.00     0.037 A 
ATOM     59  C   UNL A   1      45.563  30.995  31.007  1.00  0.00     0.049 A 
ATOM     60  C   UNL A   1      39.834  31.286  31.425  1.00  0.00     0.074 A 
ATOM     61  C   UNL A   1      46.077  29.905  31.686  1.00  0.00     0.029 A 
ATOM     62  N   UNL A   1      44.621  31.541  31.848  1.00  0.00    -0.354 N 
ATOM     63  N   UNL A   1      40.367  30.820  32.520  1.00  0.00    -0.248 NA
ATOM     64  C   UNL A   1      40.549  32.386  30.798  1.00  0.00     0.031 C 
ATOM     65  C   UNL A   1      45.096  29.577  32.667  1.00  0.00     0.029 A 
ATOM     66  C   UNL A   1      44.069  30.515  32.575  1.00  0.00     0.049 A 
ATOM     67  H   UNL A   1      44.385  32.494  31.915  1.00  0.00     0.167 HD
ATOM     68  C   UNL A   1      41.691  31.225  32.454  1.00  0.00     0.074 A 
ATOM     69  C   UNL A   1      41.716  32.278  31.441  1.00  0.00     0.031 C 
ATOM     70  C   UNL A   1      42.687  30.471  33.006  1.00  0.00     0.037 A 
BRANCH  57  71
ATOM     71  C   UNL A   1      45.712  32.858  29.216  1.00  0.00     0.058 A 
ATOM     72  C   UNL A   1      44.578  33.571  28.791  1.00  0.00     0.135 A 
ATOM     73  C   UNL A   1      46.955  33.500  29.012  1.00  0.00     0.135 A 
ATOM     74  F   UNL A   1      43.352  33.032  28.901  1.00  0.00    -0.206 F 
ATOM     75  C   UNL A   1      44.672  34.820  28.181  1.00  0.00     0.059 A 
ATOM     76  C   UNL A   1      47.068  34.774  28.475  1.00  0.00     0.059 A 
ATOM     77  F   UNL A   1      48.123  32.882  29.230  1.00  0.00    -0.206 F 
ATOM     78  C   UNL A   1      45.924  35.410  28.025  1.00  0.00     0.060 A 
BRANCH  78  79
ATOM     79  S   UNL A   1      46.060  36.981  27.158  1.00  0.00     0.124 S 
ATOM     80  O   UNL A   1      44.668  37.413  27.127  1.00  0.00    -0.237 OA
ATOM     81  O   UNL A   1      46.947  37.737  28.035  1.00  0.00    -0.237 OA
ATOM     82  O   UNL A   1      46.633  36.604  25.869  1.00  0.00    -0.744 OA
ENDBRANCH  78  79
ENDBRANCH  57  71
BRANCH  58  83
ATOM     83  C   UNL A   1      37.612  31.062  30.081  1.00  0.00     0.058 A 
ATOM     84  C   UNL A   1      36.643  31.640  30.917  1.00  0.00     0.135 A 
ATOM     85  C   UNL A   1      37.424  31.242  28.696  1.00  0.00     0.135 A 
ATOM     86  F   UNL A   1      36.776  31.568  32.251  1.00  0.00    -0.206 F 
ATOM     87  C   UNL A   1      35.533  32.332  30.408  1.00  0.00     0.059 A 
ATOM     88  C   UNL A   1      36.338  31.936  28.168  1.00  0.00     0.059 A 
ATOM     89  F   UNL A   1      38.340  30.798  27.819  1.00  0.00    -0.206 F 
ATOM     90  C   UNL A   1      35.392  32.481  29.028  1.00  0.00     0.060 A 
BRANCH  90  91
ATOM     91  S   UNL A   1      33.947  33.310  28.322  1.00  0.00     0.124 S 
ATOM     92  O   UNL A   1      33.206  32.214  27.706  1.00  0.00    -0.237 OA
ATOM     93  O   UNL A   1      33.335  33.915  29.498  1.00  0.00    -0.237 OA
ATOM     94  O   UNL A   1      34.543  34.252  27.376  1.00  0.00    -0.744 OA
ENDBRANCH  90  91
ENDBRANCH  58  83
BRANCH  70  95
ATOM     95  C   UNL A   1      42.304  29.344  33.936  1.00  0.00     0.058 A 
ATOM     96  C   UNL A   1      42.189  27.997  33.544  1.00  0.00     0.135 A 
ATOM     97  C   UNL A   1      42.232  29.612  35.311  1.00  0.00     0.135 A 
ATOM     98  F   UNL A   1      42.329  27.637  32.263  1.00  0.00    -0.206 F 
ATOM     99  C   UNL A   1      42.000  26.969  34.469  1.00  0.00     0.059 A 
ATOM    100  C   UNL A   1      42.071  28.599  36.255  1.00  0.00     0.059 A 
ATOM    101  F   UNL A   1      42.385  30.869  35.757  1.00  0.00    -0.206 F 
ATOM    102  C   UNL A   1      41.954  27.278  35.826  1.00  0.00     0.060 A 
BRANCH 102 103
ATOM    103  S   UNL A   1      41.833  25.934  37.028  1.00  0.00     0.124 S 
ATOM    104  O   UNL A   1      42.876  26.283  37.987  1.00  0.00    -0.237 OA
ATOM    105  O   UNL A   1      40.460  26.061  37.510  1.00  0.00    -0.237 OA
ATOM    106  O   UNL A   1      42.095  24.738  36.231  1.00  0.00    -0.744 OA
ENDBRANCH 102 103
ENDBRANCH  70  95
ENDBRANCH  44  45
ENDBRANCH  36  39
ENDBRANCH  34  35
ENDBRANCH  33  34
ENDBRANCH  32  33
ENDBRANCH   1  32
TORSDOF 21
ENDMDL
MODEL 2
REMARK VINA RESULT:     -11.6      2.623      4.638
REMARK SMILES Cc1ccc(C)c(S(=O)(=O)N[C@H](CC2=c3ccccc3=NC2)C(=O)NCCCCCCNC(=O)c2ccc(-c3c4nc(c(-c5c(F)cc(S(=O)(=O)[O-])cc5F)c5ccc([nH]5)c(-c5c(F)cc(S(=O)(=O)[O-])cc5F)c5nc(c(-c6c(F)cc(S(=O)(=O)[O-])cc6F)c6ccc3[nH]6)C=C5)C=C4)cc2)c1
REMARK SMILES IDX 28 1 27 2 26 3 25 4 23 5 24 6 12 8 11 9 8 11 9 12 10 13 7 14
REMARK SMILES IDX 1 15 2 16 3 17 101 18 4 19 5 20 6 21 13 22 14 23 15 24 22 25
REMARK SMILES IDX 16 26 20 27 21 28 17 29 19 30 18 31 29 32 30 33 31 34 32 35
REMARK SMILES IDX 33 36 34 38 35 39 36 40 100 41 37 42 99 43 38 44 39 45 40 46
REMARK SMILES IDX 93 47 41 48 98 49 92 50 94 51 42 52 97 53 91 54 90 55 43 57
REMARK SMILES IDX 77 58 56 59 76 60 57 61 60 62 75 63 95 64 58 65 59 66 74 68
REMARK SMILES IDX 96 69 61 70 44 71 45 72 54 73 46 74 47 75 53 76 55 77 48 78
REMARK SMILES IDX 49 79 50 80 51 81 52 82 78 83 79 84 88 85 80 86 81 87 87 88
REMARK SMILES IDX 89 89 82 90 83 91 84 92 85 93 86 94 62 95 63 96 72 97 64 98
REMARK SMILES IDX 65 99 71 100 73 101 66 102 67 103 68 104 69 105 70 106
REMARK H PARENT 25 7 11 10 32 37 94 56 60 67
REMARK Flexibility Score: inf
ROOT
ATOM      1  C   UNL A   1      33.308  22.319  25.551  1.00  0.00     0.002 C 
ENDROOT
BRANCH   1   2
ATOM      2  C   UNL A   1      32.850  22.448  24.097  1.00  0.00     0.021 C 
BRANCH   2   3
ATOM      3  C   UNL A   1      31.696  23.422  23.795  1.00  0.00     0.116 C 
BRANCH   3   4
ATOM      4  N   UNL A   1      30.893  23.845  24.939  1.00  0.00    -0.355 N 
ATOM      5  C   UNL A   1      30.407  25.040  25.397  1.00  0.00     0.238 C 
ATOM      6  O   UNL A   1      29.802  24.990  26.476  1.00  0.00    -0.273 OA
ATOM      7  H   UNL A   1      30.643  23.091  25.520  1.00  0.00     0.163 HD
BRANCH   5   8
ATOM      8  C   UNL A   1      30.573  26.386  24.664  1.00  0.00     0.163 C 
BRANCH   8   9
ATOM      9  N   UNL A   1      31.409  27.299  25.491  1.00  0.00    -0.198 NA
ATOM     10  H   UNL A   1      31.001  28.230  25.405  1.00  0.00     0.142 HD
BRANCH   9  11
ATOM     11  S   UNL A   1      33.047  27.459  25.175  1.00  0.00     0.241 S 
ATOM     12  O   UNL A   1      33.216  27.777  23.784  1.00  0.00    -0.207 OA
ATOM     13  O   UNL A   1      33.650  26.273  25.765  1.00  0.00    -0.207 OA
BRANCH  11  14
ATOM     14  C   UNL A   1      33.567  28.841  26.164  1.00  0.00     0.085 A 
ATOM     15  C   UNL A   1      36.394  29.564  28.615  1.00  0.00     0.044 C 
ATOM     16  C   UNL A   1      35.155  29.733  27.782  1.00  0.00    -0.050 A 
ATOM     17  C   UNL A   1      34.357  30.869  27.913  1.00  0.00     0.004 A 
ATOM     18  C   UNL A   1      34.762  28.734  26.892  1.00  0.00     0.025 A 
ATOM     19  C   UNL A   1      33.195  31.009  27.148  1.00  0.00     0.005 A 
ATOM     20  C   UNL A   1      32.782  30.003  26.256  1.00  0.00    -0.031 A 
ATOM     21  C   UNL A   1      31.534  30.253  25.457  1.00  0.00     0.046 C 
ENDBRANCH  11  14
ENDBRANCH   9  11
ENDBRANCH   8   9
BRANCH   8  22
ATOM     22  C   UNL A   1      29.284  27.113  24.167  1.00  0.00     0.063 C 
BRANCH  22  23
ATOM     23  C   UNL A   1      29.437  28.301  23.262  1.00  0.00    -0.037 C 
ATOM     24  C   UNL A   1      28.782  29.460  23.179  1.00  0.00     0.001 A 
ATOM     25  C   UNL A   1      30.401  28.212  22.130  1.00  0.00     0.174 C 
ATOM     26  C   UNL A   1      27.643  30.067  23.787  1.00  0.00     0.010 A 
ATOM     27  C   UNL A   1      29.520  30.167  22.114  1.00  0.00     0.065 A 
ATOM     28  N   UNL A   1      30.438  29.518  21.468  1.00  0.00    -0.280 NA
ATOM     29  C   UNL A   1      27.268  31.294  23.379  1.00  0.00     0.001 A 
ATOM     30  C   UNL A   1      29.168  31.573  21.866  1.00  0.00     0.028 A 
ATOM     31  C   UNL A   1      28.065  32.068  22.444  1.00  0.00     0.002 A 
ENDBRANCH  22  23
ENDBRANCH   8  22
ENDBRANCH   5   8
ENDBRANCH   3   4
ENDBRANCH   2   3
ENDBRANCH   1   2
BRANCH   1  32
ATOM     32  C   UNL A   1      34.722  22.813  25.853  1.00  0.00     0.002 C 
BRANCH  32  33
ATOM     33  C   UNL A   1      35.711  22.895  24.677  1.00  0.00     0.021 C 
BRANCH  33  34
ATOM     34  C   UNL A   1      37.088  23.501  24.959  1.00  0.00     0.116 C 
BRANCH  34  35
ATOM     35  N   UNL A   1      38.048  22.520  25.474  1.00  0.00    -0.352 N 
ATOM     36  C   UNL A   1      39.257  22.643  26.135  1.00  0.00     0.251 C 
ATOM     37  H   UNL A   1      37.778  21.586  25.319  1.00  0.00     0.163 HD
ATOM     38  O   UNL A   1      40.052  21.707  26.070  1.00  0.00    -0.269 OA
BRANCH  36  39
ATOM     39  C   UNL A   1      39.607  23.844  26.929  1.00  0.00     0.039 A 
ATOM     40  C   UNL A   1      38.788  24.983  26.960  1.00  0.00     0.014 A 
ATOM     41  C   UNL A   1      40.824  23.887  27.586  1.00  0.00     0.014 A 
ATOM     42  C   UNL A   1      39.228  26.133  27.630  1.00  0.00     0.010 A 
ATOM     43  C   UNL A   1      41.161  24.913  28.420  1.00  0.00     0.010 A 
ATOM     44  C   UNL A   1      40.430  26.084  28.340  1.00  0.00    -0.014 A 
BRANCH  44  45
ATOM     45  C   UNL A   1      41.015  27.208  29.051  1.00  0.00     0.031 A 
ATOM     46  C   UNL A   1      42.145  27.860  28.374  1.00  0.00     0.074 A 
ATOM     47  C   UNL A   1      40.352  27.847  30.040  1.00  0.00     0.049 A 
ATOM     48  N   UNL A   1      43.368  27.898  28.779  1.00  0.00    -0.248 NA
ATOM     49  C   UNL A   1      41.926  28.441  27.041  1.00  0.00     0.031 C 
ATOM     50  C   UNL A   1      39.047  27.492  30.600  1.00  0.00     0.029 A 
ATOM     51  N   UNL A   1      40.645  29.027  30.661  1.00  0.00    -0.354 N 
ATOM     52  C   UNL A   1      44.019  28.722  27.877  1.00  0.00     0.074 A 
ATOM     53  C   UNL A   1      43.167  28.807  26.718  1.00  0.00     0.031 C 
ATOM     54  C   UNL A   1      38.585  28.534  31.323  1.00  0.00     0.029 A 
ATOM     55  C   UNL A   1      39.582  29.574  31.368  1.00  0.00     0.049 A 
ATOM     56  H   UNL A   1      41.531  29.453  30.611  1.00  0.00     0.167 HD
ATOM     57  C   UNL A   1      45.056  29.511  28.266  1.00  0.00     0.037 A 
ATOM     58  C   UNL A   1      39.492  30.795  31.955  1.00  0.00     0.037 A 
ATOM     59  C   UNL A   1      45.536  29.155  29.582  1.00  0.00     0.049 A 
ATOM     60  C   UNL A   1      40.871  31.258  32.208  1.00  0.00     0.074 A 
ATOM     61  C   UNL A   1      45.974  27.981  30.167  1.00  0.00     0.029 A 
ATOM     62  N   UNL A   1      45.238  29.998  30.628  1.00  0.00    -0.354 N 
ATOM     63  N   UNL A   1      41.676  30.682  33.058  1.00  0.00    -0.248 NA
ATOM     64  C   UNL A   1      41.515  32.054  31.176  1.00  0.00     0.031 C 
ATOM     65  C   UNL A   1      45.465  28.011  31.499  1.00  0.00     0.029 A 
ATOM     66  C   UNL A   1      44.798  29.223  31.673  1.00  0.00     0.049 A 
ATOM     67  H   UNL A   1      45.324  30.978  30.626  1.00  0.00     0.167 HD
ATOM     68  C   UNL A   1      42.895  30.645  32.401  1.00  0.00     0.074 A 
ATOM     69  C   UNL A   1      42.766  31.603  31.305  1.00  0.00     0.031 C 
ATOM     70  C   UNL A   1      43.785  29.633  32.623  1.00  0.00     0.037 A 
BRANCH  57  71
ATOM     71  C   UNL A   1      45.397  30.816  27.602  1.00  0.00     0.058 A 
ATOM     72  C   UNL A   1      46.666  30.983  27.022  1.00  0.00     0.135 A 
ATOM     73  C   UNL A   1      44.609  31.986  27.704  1.00  0.00     0.135 A 
ATOM     74  F   UNL A   1      47.509  29.942  26.915  1.00  0.00    -0.206 F 
ATOM     75  C   UNL A   1      47.132  32.226  26.600  1.00  0.00     0.059 A 
ATOM     76  C   UNL A   1      45.022  33.220  27.225  1.00  0.00     0.059 A 
ATOM     77  F   UNL A   1      43.444  32.007  28.366  1.00  0.00    -0.206 F 
ATOM     78  C   UNL A   1      46.302  33.339  26.711  1.00  0.00     0.060 A 
BRANCH  78  79
ATOM     79  S   UNL A   1      46.932  34.961  26.253  1.00  0.00     0.124 S 
ATOM     80  O   UNL A   1      45.694  35.719  26.109  1.00  0.00    -0.237 OA
ATOM     81  O   UNL A   1      47.762  35.301  27.403  1.00  0.00    -0.237 OA
ATOM     82  O   UNL A   1      47.660  34.701  25.015  1.00  0.00    -0.744 OA
ENDBRANCH  78  79
ENDBRANCH  57  71
BRANCH  58  83
ATOM     83  C   UNL A   1      38.319  31.706  31.926  1.00  0.00     0.058 A 
ATOM     84  C   UNL A   1      37.867  32.337  30.756  1.00  0.00     0.135 A 
ATOM     85  C   UNL A   1      37.462  31.779  33.042  1.00  0.00     0.135 A 
ATOM     86  F   UNL A   1      38.593  32.266  29.630  1.00  0.00    -0.206 F 
ATOM     87  C   UNL A   1      36.646  33.028  30.703  1.00  0.00     0.059 A 
ATOM     88  C   UNL A   1      36.240  32.448  33.010  1.00  0.00     0.059 A 
ATOM     89  F   UNL A   1      37.767  31.136  34.181  1.00  0.00    -0.206 F 
ATOM     90  C   UNL A   1      35.835  33.073  31.837  1.00  0.00     0.060 A 
BRANCH  90  91
ATOM     91  S   UNL A   1      34.283  34.003  31.837  1.00  0.00     0.124 S 
ATOM     92  O   UNL A   1      33.477  33.302  32.830  1.00  0.00    -0.237 OA
ATOM     93  O   UNL A   1      34.727  35.343  32.203  1.00  0.00    -0.237 OA
ATOM     94  O   UNL A   1      33.817  33.858  30.459  1.00  0.00    -0.744 OA
ENDBRANCH  90  91
ENDBRANCH  58  83
BRANCH  70  95
ATOM     95  C   UNL A   1      43.551  28.715  33.800  1.00  0.00     0.058 A 
ATOM     96  C   UNL A   1      43.884  29.030  35.130  1.00  0.00     0.135 A 
ATOM     97  C   UNL A   1      42.793  27.552  33.595  1.00  0.00     0.135 A 
ATOM     98  F   UNL A   1      44.532  30.162  35.430  1.00  0.00    -0.206 F 
ATOM     99  C   UNL A   1      43.495  28.225  36.203  1.00  0.00     0.059 A 
ATOM    100  C   UNL A   1      42.371  26.748  34.653  1.00  0.00     0.059 A 
ATOM    101  F   UNL A   1      42.398  27.221  32.355  1.00  0.00    -0.206 F 
ATOM    102  C   UNL A   1      42.727  27.090  35.955  1.00  0.00     0.060 A 
BRANCH 102 103
ATOM    103  S   UNL A   1      42.122  26.119  37.354  1.00  0.00     0.124 S 
ATOM    104  O   UNL A   1      43.111  26.415  38.385  1.00  0.00    -0.237 OA
ATOM    105  O   UNL A   1      40.790  26.676  37.575  1.00  0.00    -0.237 OA
ATOM    106  O   UNL A   1      42.139  24.748  36.851  1.00  0.00    -0.744 OA
ENDBRANCH 102 103
ENDBRANCH  70  95
ENDBRANCH  44  45
ENDBRANCH  36  39
ENDBRANCH  34  35
ENDBRANCH  33  34
ENDBRANCH  32  33
ENDBRANCH   1  32
TORSDOF 21
ENDMDL
MODEL 3
REMARK VINA RESULT:     -11.4      2.010      2.849
REMARK SMILES Cc1ccc(C)c(S(=O)(=O)N[C@H](CC2=c3ccccc3=NC2)C(=O)NCCCCCCNC(=O)c2ccc(-c3c4nc(c(-c5c(F)cc(S(=O)(=O)[O-])cc5F)c5ccc([nH]5)c(-c5c(F)cc(S(=O)(=O)[O-])cc5F)c5nc(c(-c6c(F)cc(S(=O)(=O)[O-])cc6F)c6ccc3[nH]6)C=C5)C=C4)cc2)c1
REMARK SMILES IDX 28 1 27 2 26 3 25 4 23 5 24 6 12 8 11 9 8 11 9 12 10 13 7 14
REMARK SMILES IDX 1 15 2 16 3 17 101 18 4 19 5 20 6 21 13 22 14 23 15 24 22 25
REMARK SMILES IDX 16 26 20 27 21 28 17 29 19 30 18 31 29 32 30 33 31 34 32 35
REMARK SMILES IDX 33 36 34 38 35 39 36 40 100 41 37 42 99 43 38 44 39 45 40 46
REMARK SMILES IDX 93 47 41 48 98 49 92 50 94 51 42 52 97 53 91 54 90 55 43 57
REMARK SMILES IDX 77 58 56 59 76 60 57 61 60 62 75 63 95 64 58 65 59 66 74 68
REMARK SMILES IDX 96 69 61 70 44 71 45 72 54 73 46 74 47 75 53 76 55 77 48 78
REMARK SMILES IDX 49 79 50 80 51 81 52 82 78 83 79 84 88 85 80 86 81 87 87 88
REMARK SMILES IDX 89 89 82 90 83 91 84 92 85 93 86 94 62 95 63 96 72 97 64 98
REMARK SMILES IDX 65 99 71 100 73 101 66 102 67 103 68 104 69 105 70 106
REMARK H PARENT 25 7 11 10 32 37 94 56 60 67
REMARK Flexibility Score: inf
ROOT
ATOM      1  C   UNL A   1      40.040  21.564  26.182  1.00  0.00     0.002 C 
ENDROOT
BRANCH   1   2
ATOM      2  C   UNL A   1      38.756  20.812  25.824  1.00  0.00     0.021 C 
BRANCH   2   3
ATOM      3  C   UNL A   1      37.504  21.651  25.505  1.00  0.00     0.116 C 
BRANCH   3   4
ATOM      4  N   UNL A   1      36.305  20.906  25.132  1.00  0.00    -0.355 N 
ATOM      5  C   UNL A   1      34.959  21.149  25.169  1.00  0.00     0.238 C 
ATOM      6  O   UNL A   1      34.238  20.209  24.810  1.00  0.00    -0.273 OA
ATOM      7  H   UNL A   1      36.515  20.016  24.770  1.00  0.00     0.163 HD
BRANCH   5   8
ATOM      8  C   UNL A   1      34.326  22.482  25.618  1.00  0.00     0.163 C 
BRANCH   8   9
ATOM      9  N   UNL A   1      32.895  22.511  25.206  1.00  0.00    -0.198 NA
ATOM     10  H   UNL A   1      32.834  23.134  24.400  1.00  0.00     0.142 HD
BRANCH   9  11
ATOM     11  S   UNL A   1      31.717  23.009  26.289  1.00  0.00     0.241 S 
ATOM     12  O   UNL A   1      32.286  23.025  27.609  1.00  0.00    -0.207 OA
ATOM     13  O   UNL A   1      30.558  22.190  25.968  1.00  0.00    -0.207 OA
BRANCH  11  14
ATOM     14  C   UNL A   1      31.320  24.670  25.797  1.00  0.00     0.085 A 
ATOM     15  C   UNL A   1      31.368  28.112  27.432  1.00  0.00     0.044 C 
ATOM     16  C   UNL A   1      31.165  27.020  26.420  1.00  0.00    -0.050 A 
ATOM     17  C   UNL A   1      30.532  27.282  25.206  1.00  0.00     0.004 A 
ATOM     18  C   UNL A   1      31.572  25.715  26.698  1.00  0.00     0.025 A 
ATOM     19  C   UNL A   1      30.328  26.256  24.278  1.00  0.00     0.005 A 
ATOM     20  C   UNL A   1      30.724  24.934  24.553  1.00  0.00    -0.031 A 
ATOM     21  C   UNL A   1      30.488  23.903  23.484  1.00  0.00     0.046 C 
ENDBRANCH  11  14
ENDBRANCH   9  11
ENDBRANCH   8   9
BRANCH   8  22
ATOM     22  C   UNL A   1      35.046  23.807  25.215  1.00  0.00     0.063 C 
BRANCH  22  23
ATOM     23  C   UNL A   1      34.466  24.625  24.097  1.00  0.00    -0.037 C 
ATOM     24  C   UNL A   1      34.180  25.923  23.986  1.00  0.00     0.001 A 
ATOM     25  C   UNL A   1      33.972  23.919  22.882  1.00  0.00     0.174 C 
ATOM     26  C   UNL A   1      34.187  27.075  24.828  1.00  0.00     0.010 A 
ATOM     27  C   UNL A   1      33.710  26.027  22.591  1.00  0.00     0.065 A 
ATOM     28  N   UNL A   1      33.555  24.933  21.912  1.00  0.00    -0.280 NA
ATOM     29  C   UNL A   1      33.771  28.250  24.321  1.00  0.00     0.001 A 
ATOM     30  C   UNL A   1      33.461  27.375  22.060  1.00  0.00     0.028 A 
ATOM     31  C   UNL A   1      33.449  28.407  22.914  1.00  0.00     0.002 A 
ENDBRANCH  22  23
ENDBRANCH   8  22
ENDBRANCH   5   8
ENDBRANCH   3   4
ENDBRANCH   2   3
ENDBRANCH   1   2
BRANCH   1  32
ATOM     32  C   UNL A   1      40.792  21.052  27.411  1.00  0.00     0.002 C 
BRANCH  32  33
ATOM     33  C   UNL A   1      41.977  20.101  27.173  1.00  0.00     0.021 C 
BRANCH  33  34
ATOM     34  C   UNL A   1      42.084  19.445  25.795  1.00  0.00     0.116 C 
BRANCH  34  35
ATOM     35  N   UNL A   1      43.367  19.704  25.137  1.00  0.00    -0.352 N 
ATOM     36  C   UNL A   1      44.039  20.867  24.807  1.00  0.00     0.251 C 
ATOM     37  H   UNL A   1      43.850  18.885  24.879  1.00  0.00     0.163 HD
ATOM     38  O   UNL A   1      44.865  20.823  23.897  1.00  0.00    -0.269 OA
BRANCH  36  39
ATOM     39  C   UNL A   1      43.812  22.144  25.524  1.00  0.00     0.039 A 
ATOM     40  C   UNL A   1      42.979  23.151  25.010  1.00  0.00     0.014 A 
ATOM     41  C   UNL A   1      44.513  22.398  26.690  1.00  0.00     0.014 A 
ATOM     42  C   UNL A   1      42.896  24.383  25.672  1.00  0.00     0.010 A 
ATOM     43  C   UNL A   1      44.271  23.501  27.455  1.00  0.00     0.010 A 
ATOM     44  C   UNL A   1      43.568  24.546  26.886  1.00  0.00    -0.014 A 
BRANCH  44  45
ATOM     45  C   UNL A   1      43.590  25.777  27.658  1.00  0.00     0.031 A 
ATOM     46  C   UNL A   1      44.624  26.746  27.264  1.00  0.00     0.074 A 
ATOM     47  C   UNL A   1      42.532  26.173  28.398  1.00  0.00     0.049 A 
ATOM     48  N   UNL A   1      45.628  27.132  27.973  1.00  0.00    -0.248 NA
ATOM     49  C   UNL A   1      44.613  27.265  25.889  1.00  0.00     0.031 C 
ATOM     50  C   UNL A   1      41.283  25.440  28.615  1.00  0.00     0.029 A 
ATOM     51  N   UNL A   1      42.294  27.374  29.002  1.00  0.00    -0.354 N 
ATOM     52  C   UNL A   1      46.232  28.129  27.227  1.00  0.00     0.074 A 
ATOM     53  C   UNL A   1      45.736  27.986  25.882  1.00  0.00     0.031 C 
ATOM     54  C   UNL A   1      40.365  26.285  29.127  1.00  0.00     0.029 A 
ATOM     55  C   UNL A   1      40.969  27.571  29.371  1.00  0.00     0.049 A 
ATOM     56  H   UNL A   1      43.000  28.042  29.162  1.00  0.00     0.167 HD
ATOM     57  C   UNL A   1      46.853  29.179  27.828  1.00  0.00     0.037 A 
ATOM     58  C   UNL A   1      40.377  28.699  29.840  1.00  0.00     0.037 A 
ATOM     59  C   UNL A   1      47.043  28.952  29.242  1.00  0.00     0.049 A 
ATOM     60  C   UNL A   1      41.444  29.541  30.419  1.00  0.00     0.074 A 
ATOM     61  C   UNL A   1      47.627  27.946  29.991  1.00  0.00     0.029 A 
ATOM     62  N   UNL A   1      46.246  29.649  30.121  1.00  0.00    -0.354 N 
ATOM     63  N   UNL A   1      42.121  29.208  31.483  1.00  0.00    -0.248 NA
ATOM     64  C   UNL A   1      42.084  30.512  29.547  1.00  0.00     0.031 C 
ATOM     65  C   UNL A   1      46.792  27.799  31.138  1.00  0.00     0.029 A 
ATOM     66  C   UNL A   1      45.783  28.758  31.058  1.00  0.00     0.049 A 
ATOM     67  H   UNL A   1      46.043  30.611  30.083  1.00  0.00     0.167 HD
ATOM     68  C   UNL A   1      43.429  29.544  31.174  1.00  0.00     0.074 A 
ATOM     69  C   UNL A   1      43.329  30.444  30.027  1.00  0.00     0.031 C 
ATOM     70  C   UNL A   1      44.478  28.832  31.682  1.00  0.00     0.037 A 
BRANCH  57  71
ATOM     71  C   UNL A   1      46.970  30.541  27.200  1.00  0.00     0.058 A 
ATOM     72  C   UNL A   1      48.230  31.160  27.127  1.00  0.00     0.135 A 
ATOM     73  C   UNL A   1      45.864  31.356  26.867  1.00  0.00     0.135 A 
ATOM     74  F   UNL A   1      49.341  30.484  27.462  1.00  0.00    -0.206 F 
ATOM     75  C   UNL A   1      48.379  32.500  26.776  1.00  0.00     0.059 A 
ATOM     76  C   UNL A   1      45.993  32.671  26.445  1.00  0.00     0.059 A 
ATOM     77  F   UNL A   1      44.599  30.947  27.034  1.00  0.00    -0.206 F 
ATOM     78  C   UNL A   1      47.252  33.247  26.441  1.00  0.00     0.060 A 
BRANCH  78  79
ATOM     79  S   UNL A   1      47.429  35.000  26.076  1.00  0.00     0.124 S 
ATOM     80  O   UNL A   1      48.145  35.467  27.258  1.00  0.00    -0.237 OA
ATOM     81  O   UNL A   1      48.190  34.976  24.832  1.00  0.00    -0.237 OA
ATOM     82  O   UNL A   1      46.048  35.457  25.953  1.00  0.00    -0.744 OA
ENDBRANCH  78  79
ENDBRANCH  57  71
BRANCH  58  83
ATOM     83  C   UNL A   1      39.046  29.227  29.449  1.00  0.00     0.058 A 
ATOM     84  C   UNL A   1      38.052  29.570  30.379  1.00  0.00     0.135 A 
ATOM     85  C   UNL A   1      38.818  29.634  28.119  1.00  0.00     0.135 A 
ATOM     86  F   UNL A   1      38.215  29.272  31.678  1.00  0.00    -0.206 F 
ATOM     87  C   UNL A   1      36.882  30.252  30.008  1.00  0.00     0.059 A 
ATOM     88  C   UNL A   1      37.672  30.324  27.729  1.00  0.00     0.059 A 
ATOM     89  F   UNL A   1      39.747  29.427  27.172  1.00  0.00    -0.206 F 
ATOM     90  C   UNL A   1      36.705  30.632  28.677  1.00  0.00     0.060 A 
BRANCH  90  91
ATOM     91  S   UNL A   1      35.187  31.457  28.139  1.00  0.00     0.124 S 
ATOM     92  O   UNL A   1      34.508  31.752  29.397  1.00  0.00    -0.237 OA
ATOM     93  O   UNL A   1      35.705  32.607  27.407  1.00  0.00    -0.237 OA
ATOM     94  O   UNL A   1      34.536  30.438  27.317  1.00  0.00    -0.744 OA
ENDBRANCH  90  91
ENDBRANCH  58  83
BRANCH  70  95
ATOM     95  C   UNL A   1      44.210  27.862  32.808  1.00  0.00     0.058 A 
ATOM     96  C   UNL A   1      44.021  28.238  34.151  1.00  0.00     0.135 A 
ATOM     97  C   UNL A   1      43.954  26.522  32.483  1.00  0.00     0.135 A 
ATOM     98  F   UNL A   1      44.160  29.511  34.537  1.00  0.00    -0.206 F 
ATOM     99  C   UNL A   1      43.608  27.326  35.125  1.00  0.00     0.059 A 
ATOM    100  C   UNL A   1      43.516  25.600  33.433  1.00  0.00     0.059 A 
ATOM    101  F   UNL A   1      44.066  26.108  31.210  1.00  0.00    -0.206 F 
ATOM    102  C   UNL A   1      43.346  26.010  34.754  1.00  0.00     0.060 A 
BRANCH 102 103
ATOM    103  S   UNL A   1      42.696  24.864  35.990  1.00  0.00     0.124 S 
ATOM    104  O   UNL A   1      43.460  23.651  35.719  1.00  0.00    -0.237 OA
ATOM    105  O   UNL A   1      43.007  25.541  37.246  1.00  0.00    -0.237 OA
ATOM    106  O   UNL A   1      41.273  24.787  35.670  1.00  0.00    -0.744 OA
ENDBRANCH 102 103
ENDBRANCH  70  95
ENDBRANCH  44  45
ENDBRANCH  36  39
ENDBRANCH  34  35
ENDBRANCH  33  34
ENDBRANCH  32  33
ENDBRANCH   1  32
TORSDOF 21
ENDMDL
