MODEL 1
REMARK VINA RESULT:     -11.1      0.000      0.000
REMARK SMILES C[C@H](CNc1cccc(F)c1C(=O)NCCCCCCNC(=O)c1ccc(-c2c3nc(c(-c4c(F)cc(S(=O)(=O)[O-])cc4F)c4ccc([nH]4)c(-c4c(F)cc(S(=O)(=O)[O-])cc4F)c4nc(c(-c5c(F)cc(S(=O)(=O)[O-])cc5F)c5ccc2[nH]5)C=C4)C=C3)cc1)C[NH+]1CCCC1
REMARK SMILES IDX 16 1 15 2 14 3 12 4 13 5 11 7 5 8 6 9 7 10 9 11 8 12 10 13
REMARK SMILES IDX 4 14 3 16 2 17 1 18 90 19 91 20 92 21 95 22 93 24 94 25
REMARK SMILES IDX 17 26 18 27 19 28 20 29 21 30 22 31 23 33 24 34 25 35 89 36
REMARK SMILES IDX 26 37 88 38 27 39 28 40 29 41 82 42 30 43 87 44 81 45 83 46
REMARK SMILES IDX 31 47 86 48 80 49 79 50 32 52 66 53 45 54 65 55 46 56 49 57
REMARK SMILES IDX 64 58 84 59 47 60 48 61 63 63 85 64 50 65 33 66 34 67 43 68
REMARK SMILES IDX 35 69 36 70 42 71 44 72 37 73 38 74 39 75 40 76 41 77 67 78
REMARK SMILES IDX 68 79 77 80 69 81 70 82 76 83 78 84 71 85 72 86 73 87 74 88
REMARK SMILES IDX 75 89 51 90 52 91 61 92 53 93 54 94 60 95 62 96 55 97 56 98
REMARK SMILES IDX 57 99 58 100 59 101
REMARK H PARENT 14 6 4 15 91 23 21 32 83 51 49 62
REMARK Flexibility Score: inf
ROOT
ATOM      1  C   UNL A   1      38.791  23.403  26.383  1.00  0.00     0.021 C 
ENDROOT
BRANCH   1   2
ATOM      2  C   UNL A   1      37.346  23.586  25.935  1.00  0.00     0.116 C 
BRANCH   2   3
ATOM      3  N   UNL A   1      37.213  23.573  24.496  1.00  0.00    -0.352 N 
ATOM      4  C   UNL A   1      36.363  22.907  23.655  1.00  0.00     0.256 C 
ATOM      5  O   UNL A   1      36.667  22.963  22.461  1.00  0.00    -0.269 OA
ATOM      6  H   UNL A   1      37.858  24.154  24.032  1.00  0.00     0.163 HD
BRANCH   4   7
ATOM      7  C   UNL A   1      35.190  22.088  24.095  1.00  0.00     0.098 A 
ATOM      8  C   UNL A   1      33.876  22.564  23.842  1.00  0.00     0.050 A 
ATOM      9  C   UNL A   1      32.771  21.728  24.112  1.00  0.00     0.027 A 
ATOM     10  C   UNL A   1      32.938  20.481  24.707  1.00  0.00     0.005 A 
ATOM     11  C   UNL A   1      35.313  20.896  24.815  1.00  0.00     0.138 A 
ATOM     12  C   UNL A   1      34.210  20.086  25.097  1.00  0.00     0.040 A 
ATOM     13  F   UNL A   1      36.481  20.518  25.352  1.00  0.00    -0.206 F 
BRANCH   8  14
ATOM     14  N   UNL A   1      33.619  23.935  23.567  1.00  0.00    -0.384 N 
ATOM     15  H   UNL A   1      33.525  24.305  22.660  1.00  0.00     0.160 HD
BRANCH  14  16
ATOM     16  C   UNL A   1      33.509  24.738  24.793  1.00  0.00     0.122 C 
BRANCH  16  17
ATOM     17  C   UNL A   1      32.380  25.786  24.809  1.00  0.00     0.060 C 
ATOM     18  C   UNL A   1      31.762  25.939  26.205  1.00  0.00     0.015 C 
BRANCH  17  19
ATOM     19  C   UNL A   1      32.779  27.170  24.254  1.00  0.00     0.267 C 
BRANCH  19  20
ATOM     20  N   UNL A   1      32.204  27.543  22.938  1.00  0.00    -0.335 N 
ATOM     21  C   UNL A   1      31.804  28.946  22.788  1.00  0.00     0.262 C 
ATOM     22  C   UNL A   1      30.936  26.811  22.732  1.00  0.00     0.262 C 
ATOM     23  H   UNL A   1      32.957  27.328  22.283  1.00  0.00     0.348 HD
ATOM     24  C   UNL A   1      30.508  29.046  23.565  1.00  0.00     0.067 C 
ATOM     25  C   UNL A   1      29.819  27.731  23.229  1.00  0.00     0.067 C 
ENDBRANCH  19  20
ENDBRANCH  17  19
ENDBRANCH  16  17
ENDBRANCH  14  16
ENDBRANCH   8  14
ENDBRANCH   4   7
ENDBRANCH   2   3
ENDBRANCH   1   2
BRANCH   1  26
ATOM     26  C   UNL A   1      39.306  21.963  26.443  1.00  0.00     0.002 C 
BRANCH  26  27
ATOM     27  C   UNL A   1      40.810  21.765  26.235  1.00  0.00     0.002 C 
BRANCH  27  28
ATOM     28  C   UNL A   1      41.684  21.897  27.482  1.00  0.00     0.021 C 
BRANCH  28  29
ATOM     29  C   UNL A   1      42.465  23.199  27.600  1.00  0.00     0.116 C 
BRANCH  29  30
ATOM     30  N   UNL A   1      42.497  23.946  26.358  1.00  0.00    -0.352 N 
ATOM     31  C   UNL A   1      42.135  25.250  26.126  1.00  0.00     0.251 C 
ATOM     32  H   UNL A   1      42.823  23.450  25.574  1.00  0.00     0.163 HD
ATOM     33  O   UNL A   1      42.068  25.666  24.973  1.00  0.00    -0.269 OA
BRANCH  31  34
ATOM     34  C   UNL A   1      41.810  26.143  27.260  1.00  0.00     0.039 A 
ATOM     35  C   UNL A   1      42.547  27.318  27.423  1.00  0.00     0.014 A 
ATOM     36  C   UNL A   1      40.806  25.814  28.178  1.00  0.00     0.014 A 
ATOM     37  C   UNL A   1      42.263  28.173  28.490  1.00  0.00     0.010 A 
ATOM     38  C   UNL A   1      40.467  26.708  29.190  1.00  0.00     0.010 A 
ATOM     39  C   UNL A   1      41.212  27.881  29.377  1.00  0.00    -0.014 A 
BRANCH  39  40
ATOM     40  C   UNL A   1      40.921  28.765  30.534  1.00  0.00     0.031 A 
ATOM     41  C   UNL A   1      41.756  28.662  31.784  1.00  0.00     0.074 A 
ATOM     42  C   UNL A   1      39.898  29.640  30.474  1.00  0.00     0.049 A 
ATOM     43  N   UNL A   1      41.651  29.328  32.904  1.00  0.00    -0.248 NA
ATOM     44  C   UNL A   1      42.834  27.659  31.784  1.00  0.00     0.031 C 
ATOM     45  C   UNL A   1      38.992  29.801  29.334  1.00  0.00     0.029 A 
ATOM     46  N   UNL A   1      39.449  30.558  31.388  1.00  0.00    -0.354 N 
ATOM     47  C   UNL A   1      42.638  28.820  33.741  1.00  0.00     0.074 A 
ATOM     48  C   UNL A   1      43.287  27.745  33.026  1.00  0.00     0.031 C 
ATOM     49  C   UNL A   1      38.121  30.787  29.603  1.00  0.00     0.029 A 
ATOM     50  C   UNL A   1      38.381  31.303  30.944  1.00  0.00     0.049 A 
ATOM     51  H   UNL A   1      39.852  30.674  32.278  1.00  0.00     0.167 HD
ATOM     52  C   UNL A   1      42.994  29.233  34.981  1.00  0.00     0.037 A 
ATOM     53  C   UNL A   1      37.695  32.295  31.546  1.00  0.00     0.037 A 
ATOM     54  C   UNL A   1      42.361  30.323  35.675  1.00  0.00     0.049 A 
ATOM     55  C   UNL A   1      38.114  32.746  32.918  1.00  0.00     0.074 A 
ATOM     56  C   UNL A   1      42.671  30.847  36.917  1.00  0.00     0.029 A 
ATOM     57  N   UNL A   1      41.294  31.062  35.185  1.00  0.00    -0.354 N 
ATOM     58  N   UNL A   1      39.075  32.281  33.681  1.00  0.00    -0.248 NA
ATOM     59  C   UNL A   1      37.367  33.866  33.507  1.00  0.00     0.031 C 
ATOM     60  C   UNL A   1      41.763  31.873  37.198  1.00  0.00     0.029 A 
ATOM     61  C   UNL A   1      40.926  32.030  36.105  1.00  0.00     0.049 A 
ATOM     62  H   UNL A   1      40.863  30.920  34.311  1.00  0.00     0.167 HD
ATOM     63  C   UNL A   1      39.072  33.073  34.824  1.00  0.00     0.074 A 
ATOM     64  C   UNL A   1      38.014  34.048  34.651  1.00  0.00     0.031 C 
ATOM     65  C   UNL A   1      39.877  33.003  35.914  1.00  0.00     0.037 A 
BRANCH  52  66
ATOM     66  C   UNL A   1      44.125  28.509  35.662  1.00  0.00     0.058 A 
ATOM     67  C   UNL A   1      45.458  28.878  35.422  1.00  0.00     0.135 A 
ATOM     68  C   UNL A   1      43.895  27.424  36.526  1.00  0.00     0.135 A 
ATOM     69  F   UNL A   1      45.739  29.910  34.611  1.00  0.00    -0.206 F 
ATOM     70  C   UNL A   1      46.521  28.196  36.006  1.00  0.00     0.059 A 
ATOM     71  C   UNL A   1      44.941  26.748  37.147  1.00  0.00     0.059 A 
ATOM     72  F   UNL A   1      42.640  27.041  36.809  1.00  0.00    -0.206 F 
ATOM     73  C   UNL A   1      46.252  27.134  36.871  1.00  0.00     0.060 A 
BRANCH  73  74
ATOM     74  S   UNL A   1      47.641  26.293  37.662  1.00  0.00     0.124 S 
ATOM     75  O   UNL A   1      47.677  25.028  36.938  1.00  0.00    -0.237 OA
ATOM     76  O   UNL A   1      48.744  27.212  37.397  1.00  0.00    -0.237 OA
ATOM     77  O   UNL A   1      47.231  26.208  39.061  1.00  0.00    -0.744 OA
ENDBRANCH  73  74
ENDBRANCH  52  66
BRANCH  53  78
ATOM     78  C   UNL A   1      36.583  32.960  30.817  1.00  0.00     0.058 A 
ATOM     79  C   UNL A   1      36.831  33.846  29.757  1.00  0.00     0.135 A 
ATOM     80  C   UNL A   1      35.249  32.771  31.209  1.00  0.00     0.135 A 
ATOM     81  F   UNL A   1      38.090  34.072  29.350  1.00  0.00    -0.206 F 
ATOM     82  C   UNL A   1      35.802  34.542  29.133  1.00  0.00     0.059 A 
ATOM     83  C   UNL A   1      34.199  33.435  30.584  1.00  0.00     0.059 A 
ATOM     84  F   UNL A   1      34.960  31.925  32.211  1.00  0.00    -0.206 F 
ATOM     85  C   UNL A   1      34.489  34.336  29.559  1.00  0.00     0.060 A 
BRANCH  85  86
ATOM     86  S   UNL A   1      33.173  35.281  28.761  1.00  0.00     0.124 S 
ATOM     87  O   UNL A   1      32.365  35.683  29.907  1.00  0.00    -0.237 OA
ATOM     88  O   UNL A   1      33.920  36.349  28.104  1.00  0.00    -0.237 OA
ATOM     89  O   UNL A   1      32.553  34.308  27.866  1.00  0.00    -0.744 OA
ENDBRANCH  85  86
ENDBRANCH  53  78
BRANCH  65  90
ATOM     90  C   UNL A   1      39.687  34.035  36.992  1.00  0.00     0.058 A 
ATOM     91  C   UNL A   1      40.264  35.308  36.857  1.00  0.00     0.135 A 
ATOM     92  C   UNL A   1      39.002  33.749  38.183  1.00  0.00     0.135 A 
ATOM     93  F   UNL A   1      40.938  35.632  35.742  1.00  0.00    -0.206 F 
ATOM     94  C   UNL A   1      40.176  36.258  37.868  1.00  0.00     0.059 A 
ATOM     95  C   UNL A   1      38.876  34.696  39.196  1.00  0.00     0.059 A 
ATOM     96  F   UNL A   1      38.427  32.548  38.360  1.00  0.00    -0.206 F 
ATOM     97  C   UNL A   1      39.481  35.943  39.035  1.00  0.00     0.060 A 
BRANCH  97  98
ATOM     98  S   UNL A   1      39.350  37.201  40.323  1.00  0.00     0.124 S 
ATOM     99  O   UNL A   1      38.672  38.282  39.617  1.00  0.00    -0.237 OA
ATOM    100  O   UNL A   1      38.563  36.516  41.344  1.00  0.00    -0.237 OA
ATOM    101  O   UNL A   1      40.740  37.460  40.684  1.00  0.00    -0.744 OA
ENDBRANCH  97  98
ENDBRANCH  65  90
ENDBRANCH  39  40
ENDBRANCH  31  34
ENDBRANCH  29  30
ENDBRANCH  28  29
ENDBRANCH  27  28
ENDBRANCH  26  27
ENDBRANCH   1  26
TORSDOF 21
ENDMDL
MODEL 2
REMARK VINA RESULT:     -10.9      1.556      2.530
REMARK SMILES C[C@H](CNc1cccc(F)c1C(=O)NCCCCCCNC(=O)c1ccc(-c2c3nc(c(-c4c(F)cc(S(=O)(=O)[O-])cc4F)c4ccc([nH]4)c(-c4c(F)cc(S(=O)(=O)[O-])cc4F)c4nc(c(-c5c(F)cc(S(=O)(=O)[O-])cc5F)c5ccc2[nH]5)C=C4)C=C3)cc1)C[NH+]1CCCC1
REMARK SMILES IDX 16 1 15 2 14 3 12 4 13 5 11 7 5 8 6 9 7 10 9 11 8 12 10 13
REMARK SMILES IDX 4 14 3 16 2 17 1 18 90 19 91 20 92 21 95 22 93 24 94 25
REMARK SMILES IDX 17 26 18 27 19 28 20 29 21 30 22 31 23 33 24 34 25 35 89 36
REMARK SMILES IDX 26 37 88 38 27 39 28 40 29 41 82 42 30 43 87 44 81 45 83 46
REMARK SMILES IDX 31 47 86 48 80 49 79 50 32 52 66 53 45 54 65 55 46 56 49 57
REMARK SMILES IDX 64 58 84 59 47 60 48 61 63 63 85 64 50 65 33 66 34 67 43 68
REMARK SMILES IDX 35 69 36 70 42 71 44 72 37 73 38 74 39 75 40 76 41 77 67 78
REMARK SMILES IDX 68 79 77 80 69 81 70 82 76 83 78 84 71 85 72 86 73 87 74 88
REMARK SMILES IDX 75 89 51 90 52 91 61 92 53 93 54 94 60 95 62 96 55 97 56 98
REMARK SMILES IDX 57 99 58 100 59 101
REMARK H PARENT 14 6 4 15 91 23 21 32 83 51 49 62
REMARK Flexibility Score: inf
ROOT
ATOM      1  C   UNL A   1      35.535  23.318  26.249  1.00  0.00     0.021 C 
ENDROOT
BRANCH   1   2
ATOM      2  C   UNL A   1      34.782  22.391  27.196  1.00  0.00     0.116 C 
BRANCH   2   3
ATOM      3  N   UNL A   1      33.446  22.866  27.479  1.00  0.00    -0.352 N 
ATOM      4  C   UNL A   1      32.398  23.208  26.668  1.00  0.00     0.256 C 
ATOM      5  O   UNL A   1      31.467  23.780  27.240  1.00  0.00    -0.269 OA
ATOM      6  H   UNL A   1      33.254  22.962  28.440  1.00  0.00     0.163 HD
BRANCH   4   7
ATOM      7  C   UNL A   1      32.362  23.008  25.185  1.00  0.00     0.098 A 
ATOM      8  C   UNL A   1      32.453  24.137  24.329  1.00  0.00     0.050 A 
ATOM      9  C   UNL A   1      32.576  23.945  22.936  1.00  0.00     0.027 A 
ATOM     10  C   UNL A   1      32.518  22.672  22.376  1.00  0.00     0.005 A 
ATOM     11  C   UNL A   1      32.169  21.761  24.584  1.00  0.00     0.138 A 
ATOM     12  C   UNL A   1      32.271  21.584  23.201  1.00  0.00     0.040 A 
ATOM     13  F   UNL A   1      31.783  20.692  25.293  1.00  0.00    -0.206 F 
BRANCH   8  14
ATOM     14  N   UNL A   1      32.171  25.451  24.794  1.00  0.00    -0.384 N 
ATOM     15  H   UNL A   1      31.456  25.665  25.436  1.00  0.00     0.160 HD
BRANCH  14  16
ATOM     16  C   UNL A   1      33.070  26.454  24.206  1.00  0.00     0.122 C 
BRANCH  16  17
ATOM     17  C   UNL A   1      32.622  27.922  24.350  1.00  0.00     0.060 C 
ATOM     18  C   UNL A   1      31.190  28.032  24.889  1.00  0.00     0.015 C 
BRANCH  17  19
ATOM     19  C   UNL A   1      33.571  28.805  25.188  1.00  0.00     0.267 C 
BRANCH  19  20
ATOM     20  N   UNL A   1      33.436  28.703  26.662  1.00  0.00    -0.335 N 
ATOM     21  C   UNL A   1      32.547  29.686  27.292  1.00  0.00     0.262 C 
ATOM     22  C   UNL A   1      34.743  28.982  27.295  1.00  0.00     0.262 C 
ATOM     23  H   UNL A   1      33.063  27.764  26.800  1.00  0.00     0.348 HD
ATOM     24  C   UNL A   1      33.354  30.968  27.292  1.00  0.00     0.067 C 
ATOM     25  C   UNL A   1      34.756  30.476  27.623  1.00  0.00     0.067 C 
ENDBRANCH  19  20
ENDBRANCH  17  19
ENDBRANCH  16  17
ENDBRANCH  14  16
ENDBRANCH   8  14
ENDBRANCH   4   7
ENDBRANCH   2   3
ENDBRANCH   1   2
BRANCH   1  26
ATOM     26  C   UNL A   1      36.853  22.784  25.683  1.00  0.00     0.002 C 
BRANCH  26  27
ATOM     27  C   UNL A   1      38.134  23.465  26.173  1.00  0.00     0.002 C 
BRANCH  27  28
ATOM     28  C   UNL A   1      39.312  22.541  26.482  1.00  0.00     0.021 C 
BRANCH  28  29
ATOM     29  C   UNL A   1      40.553  23.225  27.039  1.00  0.00     0.116 C 
BRANCH  29  30
ATOM     30  N   UNL A   1      41.321  23.907  26.016  1.00  0.00    -0.352 N 
ATOM     31  C   UNL A   1      41.706  25.224  25.959  1.00  0.00     0.251 C 
ATOM     32  H   UNL A   1      41.605  23.348  25.257  1.00  0.00     0.163 HD
ATOM     33  O   UNL A   1      42.210  25.666  24.931  1.00  0.00    -0.269 OA
BRANCH  31  34
ATOM     34  C   UNL A   1      41.497  26.108  27.127  1.00  0.00     0.039 A 
ATOM     35  C   UNL A   1      40.430  25.843  27.988  1.00  0.00     0.014 A 
ATOM     36  C   UNL A   1      42.327  27.211  27.360  1.00  0.00     0.014 A 
ATOM     37  C   UNL A   1      40.209  26.668  29.093  1.00  0.00     0.010 A 
ATOM     38  C   UNL A   1      42.156  27.980  28.507  1.00  0.00     0.010 A 
ATOM     39  C   UNL A   1      41.078  27.737  29.370  1.00  0.00    -0.014 A 
BRANCH  39  40
ATOM     40  C   UNL A   1      40.834  28.642  30.522  1.00  0.00     0.031 A 
ATOM     41  C   UNL A   1      41.689  28.528  31.757  1.00  0.00     0.074 A 
ATOM     42  C   UNL A   1      39.835  29.544  30.471  1.00  0.00     0.049 A 
ATOM     43  N   UNL A   1      41.625  29.209  32.872  1.00  0.00    -0.248 NA
ATOM     44  C   UNL A   1      42.738  27.495  31.749  1.00  0.00     0.031 C 
ATOM     45  C   UNL A   1      38.913  29.719  29.347  1.00  0.00     0.029 A 
ATOM     46  N   UNL A   1      39.430  30.485  31.383  1.00  0.00    -0.354 N 
ATOM     47  C   UNL A   1      42.612  28.682  33.696  1.00  0.00     0.074 A 
ATOM     48  C   UNL A   1      43.217  27.581  32.981  1.00  0.00     0.031 C 
ATOM     49  C   UNL A   1      38.076  30.732  29.620  1.00  0.00     0.029 A 
ATOM     50  C   UNL A   1      38.375  31.255  30.950  1.00  0.00     0.049 A 
ATOM     51  H   UNL A   1      39.853  30.599  32.264  1.00  0.00     0.167 HD
ATOM     52  C   UNL A   1      43.003  29.098  34.925  1.00  0.00     0.037 A 
ATOM     53  C   UNL A   1      37.729  32.273  31.553  1.00  0.00     0.037 A 
ATOM     54  C   UNL A   1      42.415  30.213  35.618  1.00  0.00     0.049 A 
ATOM     55  C   UNL A   1      38.186  32.727  32.912  1.00  0.00     0.074 A 
ATOM     56  C   UNL A   1      42.762  30.741  36.848  1.00  0.00     0.029 A 
ATOM     57  N   UNL A   1      41.360  30.977  35.139  1.00  0.00    -0.354 N 
ATOM     58  N   UNL A   1      39.148  32.243  33.662  1.00  0.00    -0.248 NA
ATOM     59  C   UNL A   1      37.483  33.874  33.503  1.00  0.00     0.031 C 
ATOM     60  C   UNL A   1      41.890  31.797  37.134  1.00  0.00     0.029 A 
ATOM     61  C   UNL A   1      41.037  31.966  36.054  1.00  0.00     0.049 A 
ATOM     62  H   UNL A   1      40.908  30.837  34.275  1.00  0.00     0.167 HD
ATOM     63  C   UNL A   1      39.189  33.047  34.797  1.00  0.00     0.074 A 
ATOM     64  C   UNL A   1      38.157  34.050  34.632  1.00  0.00     0.031 C 
ATOM     65  C   UNL A   1      40.012  32.965  35.872  1.00  0.00     0.037 A 
BRANCH  52  66
ATOM     66  C   UNL A   1      44.126  28.350  35.592  1.00  0.00     0.058 A 
ATOM     67  C   UNL A   1      43.855  27.302  36.487  1.00  0.00     0.135 A 
ATOM     68  C   UNL A   1      45.473  28.690  35.376  1.00  0.00     0.135 A 
ATOM     69  F   UNL A   1      42.589  26.928  36.728  1.00  0.00    -0.206 F 
ATOM     70  C   UNL A   1      44.875  26.625  37.148  1.00  0.00     0.059 A 
ATOM     71  C   UNL A   1      46.511  28.005  36.001  1.00  0.00     0.059 A 
ATOM     72  F   UNL A   1      45.792  29.668  34.514  1.00  0.00    -0.206 F 
ATOM     73  C   UNL A   1      46.201  26.981  36.895  1.00  0.00     0.060 A 
BRANCH  73  74
ATOM     74  S   UNL A   1      47.515  26.057  37.720  1.00  0.00     0.124 S 
ATOM     75  O   UNL A   1      47.590  26.732  39.011  1.00  0.00    -0.237 OA
ATOM     76  O   UNL A   1      46.969  24.703  37.740  1.00  0.00    -0.237 OA
ATOM     77  O   UNL A   1      48.664  26.247  36.841  1.00  0.00    -0.744 OA
ENDBRANCH  73  74
ENDBRANCH  52  66
BRANCH  53  78
ATOM     78  C   UNL A   1      36.623  32.961  30.838  1.00  0.00     0.058 A 
ATOM     79  C   UNL A   1      36.880  33.909  29.836  1.00  0.00     0.135 A 
ATOM     80  C   UNL A   1      35.284  32.730  31.188  1.00  0.00     0.135 A 
ATOM     81  F   UNL A   1      38.144  34.177  29.471  1.00  0.00    -0.206 F 
ATOM     82  C   UNL A   1      35.853  34.624  29.228  1.00  0.00     0.059 A 
ATOM     83  C   UNL A   1      34.237  33.413  30.577  1.00  0.00     0.059 A 
ATOM     84  F   UNL A   1      34.987  31.825  32.133  1.00  0.00    -0.206 F 
ATOM     85  C   UNL A   1      34.535  34.375  29.612  1.00  0.00     0.060 A 
BRANCH  85  86
ATOM     86  S   UNL A   1      33.222  35.344  28.838  1.00  0.00     0.124 S 
ATOM     87  O   UNL A   1      32.514  35.861  30.005  1.00  0.00    -0.237 OA
ATOM     88  O   UNL A   1      33.980  36.325  28.068  1.00  0.00    -0.237 OA
ATOM     89  O   UNL A   1      32.493  34.356  28.049  1.00  0.00    -0.744 OA
ENDBRANCH  85  86
ENDBRANCH  53  78
BRANCH  65  90
ATOM     90  C   UNL A   1      39.873  34.014  36.941  1.00  0.00     0.058 A 
ATOM     91  C   UNL A   1      39.091  33.759  38.080  1.00  0.00     0.135 A 
ATOM     92  C   UNL A   1      40.447  35.288  36.813  1.00  0.00     0.135 A 
ATOM     93  F   UNL A   1      38.511  32.561  38.249  1.00  0.00    -0.206 F 
ATOM     94  C   UNL A   1      38.876  34.733  39.048  1.00  0.00     0.059 A 
ATOM     95  C   UNL A   1      40.270  36.269  37.785  1.00  0.00     0.059 A 
ATOM     96  F   UNL A   1      41.209  35.581  35.746  1.00  0.00    -0.206 F 
ATOM     97  C   UNL A   1      39.469  35.986  38.892  1.00  0.00     0.060 A 
BRANCH  97  98
ATOM     98  S   UNL A   1      39.205  37.227  40.176  1.00  0.00     0.124 S 
ATOM     99  O   UNL A   1      38.437  36.476  41.164  1.00  0.00    -0.237 OA
ATOM    100  O   UNL A   1      40.571  37.570  40.559  1.00  0.00    -0.237 OA
ATOM    101  O   UNL A   1      38.474  38.282  39.480  1.00  0.00    -0.744 OA
ENDBRANCH  97  98
ENDBRANCH  65  90
ENDBRANCH  39  40
ENDBRANCH  31  34
ENDBRANCH  29  30
ENDBRANCH  28  29
ENDBRANCH  27  28
ENDBRANCH  26  27
ENDBRANCH   1  26
TORSDOF 21
ENDMDL
MODEL 3
REMARK VINA RESULT:     -10.8      1.369      3.410
REMARK SMILES C[C@H](CNc1cccc(F)c1C(=O)NCCCCCCNC(=O)c1ccc(-c2c3nc(c(-c4c(F)cc(S(=O)(=O)[O-])cc4F)c4ccc([nH]4)c(-c4c(F)cc(S(=O)(=O)[O-])cc4F)c4nc(c(-c5c(F)cc(S(=O)(=O)[O-])cc5F)c5ccc2[nH]5)C=C4)C=C3)cc1)C[NH+]1CCCC1
REMARK SMILES IDX 16 1 15 2 14 3 12 4 13 5 11 7 5 8 6 9 7 10 9 11 8 12 10 13
REMARK SMILES IDX 4 14 3 16 2 17 1 18 90 19 91 20 92 21 95 22 93 24 94 25
REMARK SMILES IDX 17 26 18 27 19 28 20 29 21 30 22 31 23 33 24 34 25 35 89 36
REMARK SMILES IDX 26 37 88 38 27 39 28 40 29 41 82 42 30 43 87 44 81 45 83 46
REMARK SMILES IDX 31 47 86 48 80 49 79 50 32 52 66 53 45 54 65 55 46 56 49 57
REMARK SMILES IDX 64 58 84 59 47 60 48 61 63 63 85 64 50 65 33 66 34 67 43 68
REMARK SMILES IDX 35 69 36 70 42 71 44 72 37 73 38 74 39 75 40 76 41 77 67 78
REMARK SMILES IDX 68 79 77 80 69 81 70 82 76 83 78 84 71 85 72 86 73 87 74 88
REMARK SMILES IDX 75 89 51 90 52 91 61 92 53 93 54 94 60 95 62 96 55 97 56 98
REMARK SMILES IDX 57 99 58 100 59 101
REMARK H PARENT 14 6 4 15 91 23 21 32 83 51 49 62
REMARK Flexibility Score: inf
ROOT
ATOM      1  C   UNL A   1      38.767  23.668  26.201  1.00  0.00     0.021 C 
ENDROOT
BRANCH   1   2
ATOM      2  C   UNL A   1      37.248  23.665  26.076  1.00  0.00     0.116 C 
BRANCH   2   3
ATOM      3  N   UNL A   1      36.812  23.491  24.709  1.00  0.00    -0.352 N 
ATOM      4  C   UNL A   1      35.602  23.675  24.097  1.00  0.00     0.256 C 
ATOM      5  O   UNL A   1      35.528  23.225  22.950  1.00  0.00    -0.269 OA
ATOM      6  H   UNL A   1      37.522  23.181  24.101  1.00  0.00     0.163 HD
BRANCH   4   7
ATOM      7  C   UNL A   1      34.400  24.289  24.743  1.00  0.00     0.098 A 
ATOM      8  C   UNL A   1      33.714  23.571  25.759  1.00  0.00     0.050 A 
ATOM      9  C   UNL A   1      32.679  24.205  26.479  1.00  0.00     0.027 A 
ATOM     10  C   UNL A   1      32.254  25.489  26.151  1.00  0.00     0.005 A 
ATOM     11  C   UNL A   1      33.860  25.516  24.350  1.00  0.00     0.138 A 
ATOM     12  C   UNL A   1      32.819  26.126  25.056  1.00  0.00     0.040 A 
ATOM     13  F   UNL A   1      34.249  26.125  23.222  1.00  0.00    -0.206 F 
BRANCH   8  14
ATOM     14  N   UNL A   1      33.859  22.164  25.907  1.00  0.00    -0.384 N 
ATOM     15  H   UNL A   1      34.722  21.714  26.055  1.00  0.00     0.160 HD
BRANCH  14  16
ATOM     16  C   UNL A   1      32.574  21.459  25.812  1.00  0.00     0.122 C 
BRANCH  16  17
ATOM     17  C   UNL A   1      32.496  20.347  24.748  1.00  0.00     0.060 C 
ATOM     18  C   UNL A   1      32.333  20.920  23.334  1.00  0.00     0.015 C 
BRANCH  17  19
ATOM     19  C   UNL A   1      33.667  19.343  24.780  1.00  0.00     0.267 C 
BRANCH  19  20
ATOM     20  N   UNL A   1      33.512  18.124  23.948  1.00  0.00    -0.335 N 
ATOM     21  C   UNL A   1      32.451  17.199  24.360  1.00  0.00     0.262 C 
ATOM     22  C   UNL A   1      34.735  17.298  24.056  1.00  0.00     0.262 C 
ATOM     23  H   UNL A   1      33.303  18.496  23.021  1.00  0.00     0.348 HD
ATOM     24  C   UNL A   1      33.024  16.495  25.574  1.00  0.00     0.067 C 
ATOM     25  C   UNL A   1      34.481  16.292  25.181  1.00  0.00     0.067 C 
ENDBRANCH  19  20
ENDBRANCH  17  19
ENDBRANCH  16  17
ENDBRANCH  14  16
ENDBRANCH   8  14
ENDBRANCH   4   7
ENDBRANCH   2   3
ENDBRANCH   1   2
BRANCH   1  26
ATOM     26  C   UNL A   1      39.428  22.314  26.468  1.00  0.00     0.002 C 
BRANCH  26  27
ATOM     27  C   UNL A   1      40.388  22.244  27.659  1.00  0.00     0.002 C 
BRANCH  27  28
ATOM     28  C   UNL A   1      41.866  22.050  27.321  1.00  0.00     0.021 C 
BRANCH  28  29
ATOM     29  C   UNL A   1      42.717  23.312  27.354  1.00  0.00     0.116 C 
BRANCH  29  30
ATOM     30  N   UNL A   1      42.627  24.079  26.127  1.00  0.00    -0.352 N 
ATOM     31  C   UNL A   1      42.218  25.378  25.949  1.00  0.00     0.251 C 
ATOM     32  H   UNL A   1      42.894  23.602  25.309  1.00  0.00     0.163 HD
ATOM     33  O   UNL A   1      42.044  25.810  24.814  1.00  0.00    -0.269 OA
BRANCH  31  34
ATOM     34  C   UNL A   1      41.973  26.245  27.123  1.00  0.00     0.039 A 
ATOM     35  C   UNL A   1      40.954  25.898  28.013  1.00  0.00     0.014 A 
ATOM     36  C   UNL A   1      42.718  27.410  27.333  1.00  0.00     0.014 A 
ATOM     37  C   UNL A   1      40.700  26.704  29.124  1.00  0.00     0.010 A 
ATOM     38  C   UNL A   1      42.520  28.166  28.485  1.00  0.00     0.010 A 
ATOM     39  C   UNL A   1      41.489  27.840  29.377  1.00  0.00    -0.014 A 
BRANCH  39  40
ATOM     40  C   UNL A   1      41.207  28.724  30.537  1.00  0.00     0.031 A 
ATOM     41  C   UNL A   1      42.071  28.644  31.767  1.00  0.00     0.074 A 
ATOM     42  C   UNL A   1      40.165  29.578  30.495  1.00  0.00     0.049 A 
ATOM     43  N   UNL A   1      41.979  29.314  32.887  1.00  0.00    -0.248 NA
ATOM     44  C   UNL A   1      43.169  27.663  31.748  1.00  0.00     0.031 C 
ATOM     45  C   UNL A   1      39.231  29.715  29.375  1.00  0.00     0.029 A 
ATOM     46  N   UNL A   1      39.719  30.492  31.414  1.00  0.00    -0.354 N 
ATOM     47  C   UNL A   1      42.994  28.831  33.703  1.00  0.00     0.074 A 
ATOM     48  C   UNL A   1      43.648  27.765  32.979  1.00  0.00     0.031 C 
ATOM     49  C   UNL A   1      38.347  30.685  29.659  1.00  0.00     0.029 A 
ATOM     50  C   UNL A   1      38.626  31.213  30.991  1.00  0.00     0.049 A 
ATOM     51  H   UNL A   1      40.140  30.621  32.295  1.00  0.00     0.167 HD
ATOM     52  C   UNL A   1      43.369  29.257  34.933  1.00  0.00     0.037 A 
ATOM     53  C   UNL A   1      37.935  32.195  31.603  1.00  0.00     0.037 A 
ATOM     54  C   UNL A   1      42.731  30.338  35.636  1.00  0.00     0.049 A 
ATOM     55  C   UNL A   1      38.375  32.662  32.964  1.00  0.00     0.074 A 
ATOM     56  C   UNL A   1      43.058  30.875  36.868  1.00  0.00     0.029 A 
ATOM     57  N   UNL A   1      41.639  31.053  35.166  1.00  0.00    -0.354 N 
ATOM     58  N   UNL A   1      39.362  32.220  33.707  1.00  0.00    -0.248 NA
ATOM     59  C   UNL A   1      37.620  33.770  33.564  1.00  0.00     0.031 C 
ATOM     60  C   UNL A   1      42.137  31.885  37.164  1.00  0.00     0.029 A 
ATOM     61  C   UNL A   1      41.272  32.019  36.089  1.00  0.00     0.049 A 
ATOM     62  H   UNL A   1      41.190  30.897  34.303  1.00  0.00     0.167 HD
ATOM     63  C   UNL A   1      39.369  33.018  34.846  1.00  0.00     0.074 A 
ATOM     64  C   UNL A   1      38.289  33.971  34.692  1.00  0.00     0.031 C 
ATOM     65  C   UNL A   1      40.200  32.969  35.918  1.00  0.00     0.037 A 
BRANCH  52  66
ATOM     66  C   UNL A   1      44.530  28.559  35.592  1.00  0.00     0.058 A 
ATOM     67  C   UNL A   1      45.849  28.961  35.329  1.00  0.00     0.135 A 
ATOM     68  C   UNL A   1      44.342  27.467  36.457  1.00  0.00     0.135 A 
ATOM     69  F   UNL A   1      46.090  30.002  34.516  1.00  0.00    -0.206 F 
ATOM     70  C   UNL A   1      46.938  28.304  35.892  1.00  0.00     0.059 A 
ATOM     71  C   UNL A   1      45.414  26.815  37.057  1.00  0.00     0.059 A 
ATOM     72  F   UNL A   1      43.102  27.053  36.761  1.00  0.00    -0.206 F 
ATOM     73  C   UNL A   1      46.711  27.234  36.759  1.00  0.00     0.060 A 
BRANCH  73  74
ATOM     74  S   UNL A   1      48.133  26.425  37.523  1.00  0.00     0.124 S 
ATOM     75  O   UNL A   1      48.588  25.545  36.453  1.00  0.00    -0.237 OA
ATOM     76  O   UNL A   1      49.001  27.559  37.828  1.00  0.00    -0.237 OA
ATOM     77  O   UNL A   1      47.557  25.759  38.687  1.00  0.00    -0.744 OA
ENDBRANCH  73  74
ENDBRANCH  52  66
BRANCH  53  78
ATOM     78  C   UNL A   1      36.793  32.834  30.897  1.00  0.00     0.058 A 
ATOM     79  C   UNL A   1      37.000  33.809  29.909  1.00  0.00     0.135 A 
ATOM     80  C   UNL A   1      35.468  32.526  31.241  1.00  0.00     0.135 A 
ATOM     81  F   UNL A   1      38.248  34.149  29.549  1.00  0.00    -0.206 F 
ATOM     82  C   UNL A   1      35.937  34.477  29.311  1.00  0.00     0.059 A 
ATOM     83  C   UNL A   1      34.387  33.162  30.639  1.00  0.00     0.059 A 
ATOM     84  F   UNL A   1      35.220  31.593  32.174  1.00  0.00    -0.206 F 
ATOM     85  C   UNL A   1      34.633  34.152  29.689  1.00  0.00     0.060 A 
BRANCH  85  86
ATOM     86  S   UNL A   1      33.271  35.061  28.927  1.00  0.00     0.124 S 
ATOM     87  O   UNL A   1      33.968  36.212  28.364  1.00  0.00    -0.237 OA
ATOM     88  O   UNL A   1      32.760  34.093  27.963  1.00  0.00    -0.237 OA
ATOM     89  O   UNL A   1      32.387  35.351  30.052  1.00  0.00    -0.744 OA
ENDBRANCH  85  86
ENDBRANCH  53  78
BRANCH  65  90
ATOM     90  C   UNL A   1      40.014  34.003  36.994  1.00  0.00     0.058 A 
ATOM     91  C   UNL A   1      39.090  33.785  38.029  1.00  0.00     0.135 A 
ATOM     92  C   UNL A   1      40.690  35.233  36.968  1.00  0.00     0.135 A 
ATOM     93  F   UNL A   1      38.410  32.630  38.097  1.00  0.00    -0.206 F 
ATOM     94  C   UNL A   1      38.836  34.752  38.995  1.00  0.00     0.059 A 
ATOM     95  C   UNL A   1      40.473  36.204  37.943  1.00  0.00     0.059 A 
ATOM     96  F   UNL A   1      41.588  35.490  36.004  1.00  0.00    -0.206 F 
ATOM     97  C   UNL A   1      39.533  35.960  38.943  1.00  0.00     0.060 A 
BRANCH  97  98
ATOM     98  S   UNL A   1      39.213  37.190  40.224  1.00  0.00     0.124 S 
ATOM     99  O   UNL A   1      40.564  37.605  40.584  1.00  0.00    -0.237 OA
ATOM    100  O   UNL A   1      38.412  38.179  39.509  1.00  0.00    -0.237 OA
ATOM    101  O   UNL A   1      38.494  36.435  41.246  1.00  0.00    -0.744 OA
ENDBRANCH  97  98
ENDBRANCH  65  90
ENDBRANCH  39  40
ENDBRANCH  31  34
ENDBRANCH  29  30
ENDBRANCH  28  29
ENDBRANCH  27  28
ENDBRANCH  26  27
ENDBRANCH   1  26
TORSDOF 21
ENDMDL
