MODEL 1
REMARK VINA RESULT:     -11.2      0.000      0.000
REMARK SMILES C/C(=C(\C#N)C(=O)NCCCCCCNC(=O)c1ccc(-c2c3nc(c(-c4c(F)cc(S(=O)(=O)[O-])cc4F)c4ccc([nH]4)c(-c4c(F)cc(S(=O)(=O)[O-])cc4F)c4nc(c(-c5c(F)cc(S(=O)(=O)[O-])cc5F)c5ccc2[nH]5)C=C4)C=C3)cc1)c1cccc2ccccc12
REMARK SMILES IDX 12 1 11 2 10 3 9 4 8 5 6 6 7 7 3 9 1 10 2 11 84 12 85 13
REMARK SMILES IDX 93 14 86 15 88 16 92 17 87 18 89 19 91 20 90 21 4 22 5 23
REMARK SMILES IDX 13 24 14 25 15 26 16 27 17 29 18 30 19 31 83 32 20 33 82 34
REMARK SMILES IDX 21 35 22 36 23 37 76 38 24 39 81 40 75 41 77 42 25 43 80 44
REMARK SMILES IDX 74 45 73 46 26 48 60 49 39 50 59 51 40 52 43 53 58 54 78 55
REMARK SMILES IDX 41 56 42 57 57 59 79 60 44 61 27 62 28 63 37 64 29 65 30 66
REMARK SMILES IDX 36 67 38 68 31 69 32 70 33 71 34 72 35 73 61 74 62 75 71 76
REMARK SMILES IDX 63 77 64 78 70 79 72 80 65 81 66 82 67 83 68 84 69 85 45 86
REMARK SMILES IDX 46 87 55 88 47 89 48 90 54 91 56 92 49 93 50 94 51 95 52 96
REMARK SMILES IDX 53 97
REMARK H PARENT 8 8 15 28 77 47 43 58
REMARK Flexibility Score: inf
ROOT
ATOM      1  C   UNL A   1      36.032  23.286  25.980  1.00  0.00     0.002 C 
ENDROOT
BRANCH   1   2
ATOM      2  C   UNL A   1      34.823  23.596  25.085  1.00  0.00     0.002 C 
BRANCH   2   3
ATOM      3  C   UNL A   1      33.476  23.635  25.816  1.00  0.00     0.021 C 
BRANCH   3   4
ATOM      4  C   UNL A   1      33.131  25.018  26.351  1.00  0.00     0.116 C 
BRANCH   4   5
ATOM      5  N   UNL A   1      31.938  25.567  25.734  1.00  0.00    -0.351 N 
ATOM      6  C   UNL A   1      31.660  26.261  24.598  1.00  0.00     0.262 C 
ATOM      7  O   UNL A   1      30.455  26.315  24.340  1.00  0.00    -0.268 OA
ATOM      8  H   UNL A   1      31.131  25.395  26.270  1.00  0.00     0.163 HD
BRANCH   6   9
ATOM      9  C   UNL A   1      32.710  26.876  23.682  1.00  0.00     0.120 C 
ATOM     10  C   UNL A   1      33.864  28.857  22.639  1.00  0.00     0.046 C 
ATOM     11  C   UNL A   1      33.041  28.205  23.721  1.00  0.00    -0.020 C 
BRANCH  11  12
ATOM     12  C   UNL A   1      32.630  29.098  24.873  1.00  0.00    -0.013 A 
ATOM     13  C   UNL A   1      31.340  29.660  24.751  1.00  0.00     0.009 A 
ATOM     14  C   UNL A   1      33.438  29.491  25.999  1.00  0.00    -0.011 A 
ATOM     15  C   UNL A   1      30.940  30.741  25.528  1.00  0.00     0.001 A 
ATOM     16  C   UNL A   1      33.024  30.629  26.751  1.00  0.00    -0.018 A 
ATOM     17  C   UNL A   1      34.617  28.848  26.465  1.00  0.00     0.009 A 
ATOM     18  C   UNL A   1      31.808  31.261  26.476  1.00  0.00     0.009 A 
ATOM     19  C   UNL A   1      33.811  31.138  27.799  1.00  0.00     0.009 A 
ATOM     20  C   UNL A   1      35.336  29.308  27.580  1.00  0.00     0.001 A 
ATOM     21  C   UNL A   1      34.954  30.473  28.225  1.00  0.00     0.001 A 
ENDBRANCH  11  12
BRANCH   9  22
ATOM     22  C   UNL A   1      33.243  25.945  22.606  1.00  0.00     0.105 C 
ATOM     23  N   UNL A   1      33.685  25.172  21.713  1.00  0.00    -0.192 NA
ENDBRANCH   9  22
ENDBRANCH   6   9
ENDBRANCH   4   5
ENDBRANCH   3   4
ENDBRANCH   2   3
ENDBRANCH   1   2
BRANCH   1  24
ATOM     24  C   UNL A   1      37.375  23.802  25.452  1.00  0.00     0.021 C 
BRANCH  24  25
ATOM     25  C   UNL A   1      38.312  24.314  26.539  1.00  0.00     0.116 C 
BRANCH  25  26
ATOM     26  N   UNL A   1      39.701  24.238  26.116  1.00  0.00    -0.352 N 
ATOM     27  C   UNL A   1      40.745  25.069  26.430  1.00  0.00     0.251 C 
ATOM     28  H   UNL A   1      39.921  23.486  25.522  1.00  0.00     0.163 HD
ATOM     29  O   UNL A   1      41.783  25.024  25.779  1.00  0.00    -0.269 OA
BRANCH  27  30
ATOM     30  C   UNL A   1      40.606  26.020  27.552  1.00  0.00     0.039 A 
ATOM     31  C   UNL A   1      39.666  25.759  28.550  1.00  0.00     0.014 A 
ATOM     32  C   UNL A   1      41.397  27.173  27.608  1.00  0.00     0.014 A 
ATOM     33  C   UNL A   1      39.550  26.636  29.630  1.00  0.00     0.010 A 
ATOM     34  C   UNL A   1      41.332  28.002  28.721  1.00  0.00     0.010 A 
ATOM     35  C   UNL A   1      40.400  27.749  29.738  1.00  0.00    -0.014 A 
BRANCH  35  36
ATOM     36  C   UNL A   1      40.322  28.664  30.903  1.00  0.00     0.031 A 
ATOM     37  C   UNL A   1      39.331  29.797  30.907  1.00  0.00     0.074 A 
ATOM     38  C   UNL A   1      41.182  28.508  31.928  1.00  0.00     0.049 A 
ATOM     39  N   UNL A   1      39.150  30.731  31.805  1.00  0.00    -0.248 NA
ATOM     40  C   UNL A   1      38.446  29.911  29.737  1.00  0.00     0.031 C 
ATOM     41  C   UNL A   1      42.218  27.476  32.011  1.00  0.00     0.029 A 
ATOM     42  N   UNL A   1      41.329  29.219  33.091  1.00  0.00    -0.354 N 
ATOM     43  C   UNL A   1      38.141  31.546  31.305  1.00  0.00     0.074 A 
ATOM     44  C   UNL A   1      37.791  31.032  29.999  1.00  0.00     0.031 C 
ATOM     45  C   UNL A   1      42.876  27.606  33.174  1.00  0.00     0.029 A 
ATOM     46  C   UNL A   1      42.339  28.754  33.900  1.00  0.00     0.049 A 
ATOM     47  H   UNL A   1      40.765  29.992  33.325  1.00  0.00     0.167 HD
ATOM     48  C   UNL A   1      37.546  32.613  31.891  1.00  0.00     0.037 A 
ATOM     49  C   UNL A   1      42.787  29.204  35.087  1.00  0.00     0.037 A 
ATOM     50  C   UNL A   1      37.891  33.104  33.199  1.00  0.00     0.049 A 
ATOM     51  C   UNL A   1      42.116  30.397  35.715  1.00  0.00     0.074 A 
ATOM     52  C   UNL A   1      37.310  34.141  33.910  1.00  0.00     0.029 A 
ATOM     53  N   UNL A   1      38.911  32.599  33.994  1.00  0.00    -0.354 N 
ATOM     54  N   UNL A   1      41.117  31.115  35.259  1.00  0.00    -0.248 NA
ATOM     55  C   UNL A   1      42.629  30.837  37.019  1.00  0.00     0.031 C 
ATOM     56  C   UNL A   1      38.011  34.295  35.110  1.00  0.00     0.029 A 
ATOM     57  C   UNL A   1      38.994  33.318  35.175  1.00  0.00     0.049 A 
ATOM     58  H   UNL A   1      39.491  31.840  33.753  1.00  0.00     0.167 HD
ATOM     59  C   UNL A   1      40.865  32.076  36.232  1.00  0.00     0.074 A 
ATOM     60  C   UNL A   1      41.807  31.837  37.307  1.00  0.00     0.031 C 
ATOM     61  C   UNL A   1      39.937  33.066  36.236  1.00  0.00     0.037 A 
BRANCH  48  62
ATOM     62  C   UNL A   1      36.462  33.317  31.122  1.00  0.00     0.058 A 
ATOM     63  C   UNL A   1      36.752  34.138  30.019  1.00  0.00     0.135 A 
ATOM     64  C   UNL A   1      35.112  33.148  31.472  1.00  0.00     0.135 A 
ATOM     65  F   UNL A   1      38.025  34.348  29.647  1.00  0.00    -0.206 F 
ATOM     66  C   UNL A   1      35.747  34.791  29.313  1.00  0.00     0.059 A 
ATOM     67  C   UNL A   1      34.089  33.768  30.760  1.00  0.00     0.059 A 
ATOM     68  F   UNL A   1      34.776  32.375  32.516  1.00  0.00    -0.206 F 
ATOM     69  C   UNL A   1      34.418  34.601  29.691  1.00  0.00     0.060 A 
BRANCH  69  70
ATOM     70  S   UNL A   1      33.127  35.456  28.763  1.00  0.00     0.124 S 
ATOM     71  O   UNL A   1      33.918  36.345  27.918  1.00  0.00    -0.237 OA
ATOM     72  O   UNL A   1      32.458  34.356  28.074  1.00  0.00    -0.237 OA
ATOM     73  O   UNL A   1      32.340  36.114  29.801  1.00  0.00    -0.744 OA
ENDBRANCH  69  70
ENDBRANCH  48  62
BRANCH  49  74
ATOM     74  C   UNL A   1      43.913  28.512  35.767  1.00  0.00     0.058 A 
ATOM     75  C   UNL A   1      43.676  27.478  36.685  1.00  0.00     0.135 A 
ATOM     76  C   UNL A   1      45.248  28.853  35.500  1.00  0.00     0.135 A 
ATOM     77  F   UNL A   1      42.418  27.118  36.979  1.00  0.00    -0.206 F 
ATOM     78  C   UNL A   1      44.719  26.818  37.325  1.00  0.00     0.059 A 
ATOM     79  C   UNL A   1      46.310  28.190  36.107  1.00  0.00     0.059 A 
ATOM     80  F   UNL A   1      45.530  29.823  34.616  1.00  0.00    -0.206 F 
ATOM     81  C   UNL A   1      46.034  27.179  37.026  1.00  0.00     0.060 A 
BRANCH  81  82
ATOM     82  S   UNL A   1      47.381  26.280  37.826  1.00  0.00     0.124 S 
ATOM     83  O   UNL A   1      46.820  24.938  37.927  1.00  0.00    -0.237 OA
ATOM     84  O   UNL A   1      48.470  26.447  36.868  1.00  0.00    -0.237 OA
ATOM     85  O   UNL A   1      47.554  26.990  39.090  1.00  0.00    -0.744 OA
ENDBRANCH  81  82
ENDBRANCH  49  74
BRANCH  61  86
ATOM     86  C   UNL A   1      39.873  33.950  37.451  1.00  0.00     0.058 A 
ATOM     87  C   UNL A   1      40.625  35.131  37.545  1.00  0.00     0.135 A 
ATOM     88  C   UNL A   1      39.007  33.637  38.512  1.00  0.00     0.135 A 
ATOM     89  F   UNL A   1      41.473  35.473  36.563  1.00  0.00    -0.206 F 
ATOM     90  C   UNL A   1      40.537  35.961  38.659  1.00  0.00     0.059 A 
ATOM     91  C   UNL A   1      38.881  34.468  39.621  1.00  0.00     0.059 A 
ATOM     92  F   UNL A   1      38.258  32.523  38.469  1.00  0.00    -0.206 F 
ATOM     93  C   UNL A   1      39.659  35.622  39.691  1.00  0.00     0.060 A 
BRANCH  93  94
ATOM     94  S   UNL A   1      39.527  36.728  41.111  1.00  0.00     0.124 S 
ATOM     95  O   UNL A   1      40.925  36.866  41.507  1.00  0.00    -0.237 OA
ATOM     96  O   UNL A   1      38.913  37.915  40.527  1.00  0.00    -0.237 OA
ATOM     97  O   UNL A   1      38.682  35.985  42.042  1.00  0.00    -0.744 OA
ENDBRANCH  93  94
ENDBRANCH  61  86
ENDBRANCH  35  36
ENDBRANCH  27  30
ENDBRANCH  25  26
ENDBRANCH  24  25
ENDBRANCH   1  24
TORSDOF 18
ENDMDL
MODEL 2
REMARK VINA RESULT:     -11.1      1.188      8.455
REMARK SMILES C/C(=C(\C#N)C(=O)NCCCCCCNC(=O)c1ccc(-c2c3nc(c(-c4c(F)cc(S(=O)(=O)[O-])cc4F)c4ccc([nH]4)c(-c4c(F)cc(S(=O)(=O)[O-])cc4F)c4nc(c(-c5c(F)cc(S(=O)(=O)[O-])cc5F)c5ccc2[nH]5)C=C4)C=C3)cc1)c1cccc2ccccc12
REMARK SMILES IDX 12 1 11 2 10 3 9 4 8 5 6 6 7 7 3 9 1 10 2 11 84 12 85 13
REMARK SMILES IDX 93 14 86 15 88 16 92 17 87 18 89 19 91 20 90 21 4 22 5 23
REMARK SMILES IDX 13 24 14 25 15 26 16 27 17 29 18 30 19 31 83 32 20 33 82 34
REMARK SMILES IDX 21 35 22 36 23 37 76 38 24 39 81 40 75 41 77 42 25 43 80 44
REMARK SMILES IDX 74 45 73 46 26 48 60 49 39 50 59 51 40 52 43 53 58 54 78 55
REMARK SMILES IDX 41 56 42 57 57 59 79 60 44 61 27 62 28 63 37 64 29 65 30 66
REMARK SMILES IDX 36 67 38 68 31 69 32 70 33 71 34 72 35 73 61 74 62 75 71 76
REMARK SMILES IDX 63 77 64 78 70 79 72 80 65 81 66 82 67 83 68 84 69 85 45 86
REMARK SMILES IDX 46 87 55 88 47 89 48 90 54 91 56 92 49 93 50 94 51 95 52 96
REMARK SMILES IDX 53 97
REMARK H PARENT 8 8 15 28 77 47 43 58
REMARK Flexibility Score: inf
ROOT
ATOM      1  C   UNL A   1      37.925  23.922  26.313  1.00  0.00     0.002 C 
ENDROOT
BRANCH   1   2
ATOM      2  C   UNL A   1      36.859  23.546  25.273  1.00  0.00     0.002 C 
BRANCH   2   3
ATOM      3  C   UNL A   1      35.415  23.616  25.780  1.00  0.00     0.021 C 
BRANCH   3   4
ATOM      4  C   UNL A   1      34.678  24.861  25.305  1.00  0.00     0.116 C 
BRANCH   4   5
ATOM      5  N   UNL A   1      33.951  24.635  24.069  1.00  0.00    -0.351 N 
ATOM      6  C   UNL A   1      32.697  24.228  23.737  1.00  0.00     0.262 C 
ATOM      7  O   UNL A   1      32.420  24.414  22.550  1.00  0.00    -0.268 OA
ATOM      8  H   UNL A   1      34.502  24.823  23.276  1.00  0.00     0.163 HD
BRANCH   6   9
ATOM      9  C   UNL A   1      31.687  23.648  24.720  1.00  0.00     0.120 C 
ATOM     10  C   UNL A   1      30.028  23.883  26.601  1.00  0.00     0.046 C 
ATOM     11  C   UNL A   1      30.820  24.428  25.439  1.00  0.00    -0.020 C 
BRANCH  11  12
ATOM     12  C   UNL A   1      30.573  25.881  25.090  1.00  0.00    -0.013 A 
ATOM     13  C   UNL A   1      29.642  26.085  24.048  1.00  0.00     0.009 A 
ATOM     14  C   UNL A   1      31.246  27.031  25.636  1.00  0.00    -0.011 A 
ATOM     15  C   UNL A   1      29.546  27.303  23.385  1.00  0.00     0.001 A 
ATOM     16  C   UNL A   1      31.164  28.257  24.911  1.00  0.00    -0.018 A 
ATOM     17  C   UNL A   1      31.982  27.090  26.849  1.00  0.00     0.009 A 
ATOM     18  C   UNL A   1      30.354  28.360  23.776  1.00  0.00     0.009 A 
ATOM     19  C   UNL A   1      31.875  29.397  25.322  1.00  0.00     0.009 A 
ATOM     20  C   UNL A   1      32.601  28.267  27.301  1.00  0.00     0.001 A 
ATOM     21  C   UNL A   1      32.578  29.410  26.519  1.00  0.00     0.001 A 
ENDBRANCH  11  12
BRANCH   9  22
ATOM     22  C   UNL A   1      31.828  22.156  24.973  1.00  0.00     0.105 C 
ATOM     23  N   UNL A   1      31.945  20.918  25.183  1.00  0.00    -0.192 NA
ENDBRANCH   9  22
ENDBRANCH   6   9
ENDBRANCH   4   5
ENDBRANCH   3   4
ENDBRANCH   2   3
ENDBRANCH   1   2
BRANCH   1  24
ATOM     24  C   UNL A   1      38.988  22.847  26.567  1.00  0.00     0.021 C 
BRANCH  24  25
ATOM     25  C   UNL A   1      40.286  23.387  27.153  1.00  0.00     0.116 C 
BRANCH  25  26
ATOM     26  N   UNL A   1      41.090  24.045  26.136  1.00  0.00    -0.352 N 
ATOM     27  C   UNL A   1      41.480  25.357  26.059  1.00  0.00     0.251 C 
ATOM     28  H   UNL A   1      41.396  23.468  25.400  1.00  0.00     0.163 HD
ATOM     29  O   UNL A   1      41.922  25.805  25.007  1.00  0.00    -0.269 OA
BRANCH  27  30
ATOM     30  C   UNL A   1      41.359  26.222  27.250  1.00  0.00     0.039 A 
ATOM     31  C   UNL A   1      42.292  27.241  27.448  1.00  0.00     0.014 A 
ATOM     32  C   UNL A   1      40.329  26.016  28.174  1.00  0.00     0.014 A 
ATOM     33  C   UNL A   1      42.166  28.083  28.554  1.00  0.00     0.010 A 
ATOM     34  C   UNL A   1      40.162  26.902  29.232  1.00  0.00     0.010 A 
ATOM     35  C   UNL A   1      41.085  27.937  29.439  1.00  0.00    -0.014 A 
BRANCH  35  36
ATOM     36  C   UNL A   1      40.909  28.854  30.593  1.00  0.00     0.031 A 
ATOM     37  C   UNL A   1      41.771  28.699  31.816  1.00  0.00     0.074 A 
ATOM     38  C   UNL A   1      39.936  29.784  30.559  1.00  0.00     0.049 A 
ATOM     39  N   UNL A   1      41.733  29.364  32.942  1.00  0.00    -0.248 NA
ATOM     40  C   UNL A   1      42.793  27.640  31.781  1.00  0.00     0.031 C 
ATOM     41  C   UNL A   1      39.007  29.994  29.445  1.00  0.00     0.029 A 
ATOM     42  N   UNL A   1      39.559  30.722  31.485  1.00  0.00    -0.354 N 
ATOM     43  C   UNL A   1      42.713  28.800  33.749  1.00  0.00     0.074 A 
ATOM     44  C   UNL A   1      43.290  27.701  33.007  1.00  0.00     0.031 C 
ATOM     45  C   UNL A   1      38.185  31.013  29.745  1.00  0.00     0.029 A 
ATOM     46  C   UNL A   1      38.500  31.501  31.085  1.00  0.00     0.049 A 
ATOM     47  H   UNL A   1      40.005  30.828  32.357  1.00  0.00     0.167 HD
ATOM     48  C   UNL A   1      43.112  29.179  34.987  1.00  0.00     0.037 A 
ATOM     49  C   UNL A   1      37.850  32.490  31.726  1.00  0.00     0.037 A 
ATOM     50  C   UNL A   1      42.543  30.287  35.709  1.00  0.00     0.049 A 
ATOM     51  C   UNL A   1      38.304  32.888  33.105  1.00  0.00     0.074 A 
ATOM     52  C   UNL A   1      42.914  30.791  36.943  1.00  0.00     0.029 A 
ATOM     53  N   UNL A   1      41.479  31.060  35.265  1.00  0.00    -0.354 N 
ATOM     54  N   UNL A   1      39.280  32.389  33.827  1.00  0.00    -0.248 NA
ATOM     55  C   UNL A   1      37.576  33.986  33.754  1.00  0.00     0.031 C 
ATOM     56  C   UNL A   1      42.042  31.835  37.268  1.00  0.00     0.029 A 
ATOM     57  C   UNL A   1      41.163  32.020  36.212  1.00  0.00     0.049 A 
ATOM     58  H   UNL A   1      41.017  30.943  34.403  1.00  0.00     0.167 HD
ATOM     59  C   UNL A   1      39.298  33.128  35.004  1.00  0.00     0.074 A 
ATOM     60  C   UNL A   1      38.246  34.117  34.891  1.00  0.00     0.031 C 
ATOM     61  C   UNL A   1      40.112  33.000  36.082  1.00  0.00     0.037 A 
BRANCH  48  62
ATOM     62  C   UNL A   1      44.216  28.390  35.637  1.00  0.00     0.058 A 
ATOM     63  C   UNL A   1      43.947  27.297  36.478  1.00  0.00     0.135 A 
ATOM     64  C   UNL A   1      45.562  28.710  35.395  1.00  0.00     0.135 A 
ATOM     65  F   UNL A   1      42.679  26.954  36.758  1.00  0.00    -0.206 F 
ATOM     66  C   UNL A   1      44.970  26.573  37.081  1.00  0.00     0.059 A 
ATOM     67  C   UNL A   1      46.602  27.979  35.963  1.00  0.00     0.059 A 
ATOM     68  F   UNL A   1      45.879  29.743  34.599  1.00  0.00    -0.206 F 
ATOM     69  C   UNL A   1      46.295  26.921  36.818  1.00  0.00     0.060 A 
BRANCH  69  70
ATOM     70  S   UNL A   1      47.609  25.970  37.608  1.00  0.00     0.124 S 
ATOM     71  O   UNL A   1      47.217  26.042  39.013  1.00  0.00    -0.237 OA
ATOM     72  O   UNL A   1      47.470  24.661  36.978  1.00  0.00    -0.237 OA
ATOM     73  O   UNL A   1      48.821  26.705  37.259  1.00  0.00    -0.744 OA
ENDBRANCH  69  70
ENDBRANCH  48  62
BRANCH  49  74
ATOM     74  C   UNL A   1      36.716  33.186  31.062  1.00  0.00     0.058 A 
ATOM     75  C   UNL A   1      36.939  34.116  30.036  1.00  0.00     0.135 A 
ATOM     76  C   UNL A   1      35.385  32.922  31.425  1.00  0.00     0.135 A 
ATOM     77  F   UNL A   1      38.193  34.406  29.658  1.00  0.00    -0.206 F 
ATOM     78  C   UNL A   1      35.889  34.771  29.403  1.00  0.00     0.059 A 
ATOM     79  C   UNL A   1      34.315  33.545  30.788  1.00  0.00     0.059 A 
ATOM     80  F   UNL A   1      35.115  32.029  32.389  1.00  0.00    -0.206 F 
ATOM     81  C   UNL A   1      34.579  34.475  29.784  1.00  0.00     0.060 A 
BRANCH  81  82
ATOM     82  S   UNL A   1      33.221  35.294  28.920  1.00  0.00     0.124 S 
ATOM     83  O   UNL A   1      32.424  35.795  30.033  1.00  0.00    -0.237 OA
ATOM     84  O   UNL A   1      33.924  36.302  28.132  1.00  0.00    -0.237 OA
ATOM     85  O   UNL A   1      32.616  34.215  28.145  1.00  0.00    -0.744 OA
ENDBRANCH  81  82
ENDBRANCH  49  74
BRANCH  61  86
ATOM     86  C   UNL A   1      39.919  33.971  37.215  1.00  0.00     0.058 A 
ATOM     87  C   UNL A   1      40.590  35.203  37.254  1.00  0.00     0.135 A 
ATOM     88  C   UNL A   1      39.010  33.685  38.247  1.00  0.00     0.135 A 
ATOM     89  F   UNL A   1      41.475  35.522  36.296  1.00  0.00    -0.206 F 
ATOM     90  C   UNL A   1      40.383  36.109  38.289  1.00  0.00     0.059 A 
ATOM     91  C   UNL A   1      38.766  34.591  39.276  1.00  0.00     0.059 A 
ATOM     92  F   UNL A   1      38.335  32.525  38.254  1.00  0.00    -0.206 F 
ATOM     93  C   UNL A   1      39.466  35.796  39.294  1.00  0.00     0.060 A 
BRANCH  93  94
ATOM     94  S   UNL A   1      39.179  36.998  40.609  1.00  0.00     0.124 S 
ATOM     95  O   UNL A   1      40.529  37.501  40.845  1.00  0.00    -0.237 OA
ATOM     96  O   UNL A   1      38.255  37.935  39.979  1.00  0.00    -0.237 OA
ATOM     97  O   UNL A   1      38.612  36.194  41.687  1.00  0.00    -0.744 OA
ENDBRANCH  93  94
ENDBRANCH  61  86
ENDBRANCH  35  36
ENDBRANCH  27  30
ENDBRANCH  25  26
ENDBRANCH  24  25
ENDBRANCH   1  24
TORSDOF 18
ENDMDL
MODEL 3
REMARK VINA RESULT:     -11.1      4.884      9.724
REMARK SMILES C/C(=C(\C#N)C(=O)NCCCCCCNC(=O)c1ccc(-c2c3nc(c(-c4c(F)cc(S(=O)(=O)[O-])cc4F)c4ccc([nH]4)c(-c4c(F)cc(S(=O)(=O)[O-])cc4F)c4nc(c(-c5c(F)cc(S(=O)(=O)[O-])cc5F)c5ccc2[nH]5)C=C4)C=C3)cc1)c1cccc2ccccc12
REMARK SMILES IDX 12 1 11 2 10 3 9 4 8 5 6 6 7 7 3 9 1 10 2 11 84 12 85 13
REMARK SMILES IDX 93 14 86 15 88 16 92 17 87 18 89 19 91 20 90 21 4 22 5 23
REMARK SMILES IDX 13 24 14 25 15 26 16 27 17 29 18 30 19 31 83 32 20 33 82 34
REMARK SMILES IDX 21 35 22 36 23 37 76 38 24 39 81 40 75 41 77 42 25 43 80 44
REMARK SMILES IDX 74 45 73 46 26 48 60 49 39 50 59 51 40 52 43 53 58 54 78 55
REMARK SMILES IDX 41 56 42 57 57 59 79 60 44 61 27 62 28 63 37 64 29 65 30 66
REMARK SMILES IDX 36 67 38 68 31 69 32 70 33 71 34 72 35 73 61 74 62 75 71 76
REMARK SMILES IDX 63 77 64 78 70 79 72 80 65 81 66 82 67 83 68 84 69 85 45 86
REMARK SMILES IDX 46 87 55 88 47 89 48 90 54 91 56 92 49 93 50 94 51 95 52 96
REMARK SMILES IDX 53 97
REMARK H PARENT 8 8 15 28 77 47 43 58
REMARK Flexibility Score: inf
ROOT
ATOM      1  C   UNL A   1      31.591  27.784  26.240  1.00  0.00     0.002 C 
ENDROOT
BRANCH   1   2
ATOM      2  C   UNL A   1      30.688  27.061  25.230  1.00  0.00     0.002 C 
BRANCH   2   3
ATOM      3  C   UNL A   1      30.133  27.952  24.113  1.00  0.00     0.021 C 
BRANCH   3   4
ATOM      4  C   UNL A   1      30.671  27.584  22.737  1.00  0.00     0.116 C 
BRANCH   4   5
ATOM      5  N   UNL A   1      32.121  27.607  22.687  1.00  0.00    -0.351 N 
ATOM      6  C   UNL A   1      33.090  26.821  22.146  1.00  0.00     0.262 C 
ATOM      7  O   UNL A   1      34.203  27.352  22.135  1.00  0.00    -0.268 OA
ATOM      8  H   UNL A   1      32.495  28.383  23.162  1.00  0.00     0.163 HD
BRANCH   6   9
ATOM      9  C   UNL A   1      32.850  25.438  21.553  1.00  0.00     0.120 C 
ATOM     10  C   UNL A   1      33.165  22.939  21.541  1.00  0.00     0.046 C 
ATOM     11  C   UNL A   1      33.140  24.281  22.227  1.00  0.00    -0.020 C 
BRANCH  11  12
ATOM     12  C   UNL A   1      33.419  24.272  23.716  1.00  0.00    -0.013 A 
ATOM     13  C   UNL A   1      34.741  24.622  24.068  1.00  0.00     0.009 A 
ATOM     14  C   UNL A   1      32.522  23.863  24.765  1.00  0.00    -0.011 A 
ATOM     15  C   UNL A   1      35.255  24.348  25.330  1.00  0.00     0.001 A 
ATOM     16  C   UNL A   1      33.084  23.549  26.038  1.00  0.00    -0.018 A 
ATOM     17  C   UNL A   1      31.108  23.753  24.680  1.00  0.00     0.009 A 
ATOM     18  C   UNL A   1      34.444  23.753  26.285  1.00  0.00     0.009 A 
ATOM     19  C   UNL A   1      32.291  23.045  27.082  1.00  0.00     0.009 A 
ATOM     20  C   UNL A   1      30.316  23.347  25.767  1.00  0.00     0.001 A 
ATOM     21  C   UNL A   1      30.910  22.958  26.956  1.00  0.00     0.001 A 
ENDBRANCH  11  12
BRANCH   9  22
ATOM     22  C   UNL A   1      32.425  25.434  20.094  1.00  0.00     0.105 C 
ATOM     23  N   UNL A   1      32.072  25.431  18.883  1.00  0.00    -0.192 NA
ENDBRANCH   9  22
ENDBRANCH   6   9
ENDBRANCH   4   5
ENDBRANCH   3   4
ENDBRANCH   2   3
ENDBRANCH   1   2
BRANCH   1  24
ATOM     24  C   UNL A   1      32.950  27.117  26.484  1.00  0.00     0.021 C 
BRANCH  24  25
ATOM     25  C   UNL A   1      34.130  28.077  26.420  1.00  0.00     0.116 C 
BRANCH  25  26
ATOM     26  N   UNL A   1      33.757  29.403  26.887  1.00  0.00    -0.352 N 
ATOM     27  C   UNL A   1      34.426  30.235  27.748  1.00  0.00     0.251 C 
ATOM     28  H   UNL A   1      32.907  29.751  26.537  1.00  0.00     0.163 HD
ATOM     29  O   UNL A   1      33.849  31.194  28.247  1.00  0.00    -0.269 OA
BRANCH  27  30
ATOM     30  C   UNL A   1      35.841  29.961  28.071  1.00  0.00     0.039 A 
ATOM     31  C   UNL A   1      36.173  29.526  29.355  1.00  0.00     0.014 A 
ATOM     32  C   UNL A   1      36.838  30.146  27.107  1.00  0.00     0.014 A 
ATOM     33  C   UNL A   1      37.503  29.235  29.660  1.00  0.00     0.010 A 
ATOM     34  C   UNL A   1      38.149  29.782  27.390  1.00  0.00     0.010 A 
ATOM     35  C   UNL A   1      38.498  29.335  28.672  1.00  0.00    -0.014 A 
BRANCH  35  36
ATOM     36  C   UNL A   1      39.909  28.983  28.966  1.00  0.00     0.031 A 
ATOM     37  C   UNL A   1      40.834  30.010  29.559  1.00  0.00     0.074 A 
ATOM     38  C   UNL A   1      40.368  27.758  28.644  1.00  0.00     0.049 A 
ATOM     39  N   UNL A   1      42.108  29.910  29.835  1.00  0.00    -0.248 NA
ATOM     40  C   UNL A   1      40.258  31.331  29.857  1.00  0.00     0.031 C 
ATOM     41  C   UNL A   1      39.575  26.696  28.019  1.00  0.00     0.029 A 
ATOM     42  N   UNL A   1      41.612  27.200  28.789  1.00  0.00    -0.354 N 
ATOM     43  C   UNL A   1      42.488  31.154  30.327  1.00  0.00     0.074 A 
ATOM     44  C   UNL A   1      41.323  32.009  30.257  1.00  0.00     0.031 C 
ATOM     45  C   UNL A   1      40.346  25.609  27.858  1.00  0.00     0.029 A 
ATOM     46  C   UNL A   1      41.696  25.908  28.328  1.00  0.00     0.049 A 
ATOM     47  H   UNL A   1      42.375  27.681  29.185  1.00  0.00     0.167 HD
ATOM     48  C   UNL A   1      43.691  31.541  30.815  1.00  0.00     0.037 A 
ATOM     49  C   UNL A   1      42.742  25.061  28.282  1.00  0.00     0.037 A 
ATOM     50  C   UNL A   1      44.839  30.675  30.897  1.00  0.00     0.049 A 
ATOM     51  C   UNL A   1      44.073  25.516  28.820  1.00  0.00     0.074 A 
ATOM     52  C   UNL A   1      46.087  30.949  31.428  1.00  0.00     0.029 A 
ATOM     53  N   UNL A   1      44.881  29.368  30.431  1.00  0.00    -0.354 N 
ATOM     54  N   UNL A   1      44.396  26.674  29.346  1.00  0.00    -0.248 NA
ATOM     55  C   UNL A   1      45.177  24.550  28.765  1.00  0.00     0.031 C 
ATOM     56  C   UNL A   1      46.899  29.827  31.236  1.00  0.00     0.029 A 
ATOM     57  C   UNL A   1      46.142  28.832  30.638  1.00  0.00     0.049 A 
ATOM     58  H   UNL A   1      44.126  28.892  30.015  1.00  0.00     0.167 HD
ATOM     59  C   UNL A   1      45.734  26.566  29.707  1.00  0.00     0.074 A 
ATOM     60  C   UNL A   1      46.155  25.226  29.353  1.00  0.00     0.031 C 
ATOM     61  C   UNL A   1      46.543  27.493  30.281  1.00  0.00     0.037 A 
BRANCH  48  62
ATOM     62  C   UNL A   1      43.826  32.959  31.297  1.00  0.00     0.058 A 
ATOM     63  C   UNL A   1      43.544  33.317  32.626  1.00  0.00     0.135 A 
ATOM     64  C   UNL A   1      44.271  33.971  30.430  1.00  0.00     0.135 A 
ATOM     65  F   UNL A   1      43.102  32.396  33.497  1.00  0.00    -0.206 F 
ATOM     66  C   UNL A   1      43.666  34.631  33.068  1.00  0.00     0.059 A 
ATOM     67  C   UNL A   1      44.429  35.285  30.859  1.00  0.00     0.059 A 
ATOM     68  F   UNL A   1      44.555  33.686  29.150  1.00  0.00    -0.206 F 
ATOM     69  C   UNL A   1      44.108  35.608  32.177  1.00  0.00     0.060 A 
BRANCH  69  70
ATOM     70  S   UNL A   1      44.261  37.307  32.768  1.00  0.00     0.124 S 
ATOM     71  O   UNL A   1      44.023  38.064  31.542  1.00  0.00    -0.237 OA
ATOM     72  O   UNL A   1      43.206  37.384  33.774  1.00  0.00    -0.237 OA
ATOM     73  O   UNL A   1      45.624  37.368  33.286  1.00  0.00    -0.744 OA
ENDBRANCH  69  70
ENDBRANCH  48  62
BRANCH  49  74
ATOM     74  C   UNL A   1      42.568  23.694  27.725  1.00  0.00     0.058 A 
ATOM     75  C   UNL A   1      42.594  23.469  26.340  1.00  0.00     0.135 A 
ATOM     76  C   UNL A   1      42.392  22.582  28.563  1.00  0.00     0.135 A 
ATOM     77  F   UNL A   1      42.753  24.500  25.498  1.00  0.00    -0.206 F 
ATOM     78  C   UNL A   1      42.437  22.196  25.805  1.00  0.00     0.059 A 
ATOM     79  C   UNL A   1      42.259  21.293  28.053  1.00  0.00     0.059 A 
ATOM     80  F   UNL A   1      42.377  22.739  29.896  1.00  0.00    -0.206 F 
ATOM     81  C   UNL A   1      42.274  21.113  26.671  1.00  0.00     0.060 A 
BRANCH  81  82
ATOM     82  S   UNL A   1      42.122  19.457  25.966  1.00  0.00     0.124 S 
ATOM     83  O   UNL A   1      40.683  19.361  25.750  1.00  0.00    -0.237 OA
ATOM     84  O   UNL A   1      42.944  19.559  24.764  1.00  0.00    -0.237 OA
ATOM     85  O   UNL A   1      42.662  18.595  27.014  1.00  0.00    -0.744 OA
ENDBRANCH  81  82
ENDBRANCH  49  74
BRANCH  61  86
ATOM     86  C   UNL A   1      47.957  27.082  30.590  1.00  0.00     0.058 A 
ATOM     87  C   UNL A   1      49.018  27.378  29.720  1.00  0.00     0.135 A 
ATOM     88  C   UNL A   1      48.259  26.432  31.797  1.00  0.00     0.135 A 
ATOM     89  F   UNL A   1      48.782  27.992  28.550  1.00  0.00    -0.206 F 
ATOM     90  C   UNL A   1      50.328  27.023  30.027  1.00  0.00     0.059 A 
ATOM     91  C   UNL A   1      49.566  26.096  32.138  1.00  0.00     0.059 A 
ATOM     92  F   UNL A   1      47.283  26.134  32.669  1.00  0.00    -0.206 F 
ATOM     93  C   UNL A   1      50.592  26.385  31.240  1.00  0.00     0.060 A 
BRANCH  93  94
ATOM     94  S   UNL A   1      52.302  25.966  31.642  1.00  0.00     0.124 S 
ATOM     95  O   UNL A   1      52.633  26.996  32.621  1.00  0.00    -0.237 OA
ATOM     96  O   UNL A   1      52.176  24.610  32.165  1.00  0.00    -0.237 OA
ATOM     97  O   UNL A   1      52.989  26.076  30.359  1.00  0.00    -0.744 OA
ENDBRANCH  93  94
ENDBRANCH  61  86
ENDBRANCH  35  36
ENDBRANCH  27  30
ENDBRANCH  25  26
ENDBRANCH  24  25
ENDBRANCH   1  24
TORSDOF 18
ENDMDL
