MODEL 1
REMARK VINA RESULT:     -12.0      0.000      0.000
REMARK SMILES Cc1cc(Br)cc2c1O[C@H](C(F)(F)F)C(C(=O)NCCCCCCNC(=O)c1ccc(-c3c4nc(c(-c5c(F)cc(S(=O)(=O)[O-])cc5F)c5ccc([nH]5)c(-c5c(F)cc(S(=O)(=O)[O-])cc5F)c5nc(c(-c6c(F)cc(S(=O)(=O)[O-])cc6F)c6ccc3[nH]6)C=C5)C=C4)cc1)=C2
REMARK SMILES IDX 22 1 21 2 20 3 19 4 18 5 16 6 17 7 15 9 1 10 2 11 3 12 8 13
REMARK SMILES IDX 4 14 7 15 9 16 5 17 6 18 94 19 10 20 11 21 12 22 13 23 14 24
REMARK SMILES IDX 23 25 24 26 25 27 26 28 27 30 28 31 29 32 93 33 30 34 92 35
REMARK SMILES IDX 31 36 32 37 33 38 86 39 34 40 91 41 85 42 87 43 35 44 90 45
REMARK SMILES IDX 84 46 83 47 36 49 70 50 49 51 69 52 50 53 53 54 68 55 88 56
REMARK SMILES IDX 51 57 52 58 67 60 89 61 54 62 37 63 38 64 47 65 39 66 40 67
REMARK SMILES IDX 46 68 48 69 41 70 42 71 43 72 44 73 45 74 71 75 72 76 81 77
REMARK SMILES IDX 73 78 74 79 80 80 82 81 75 82 76 83 77 84 78 85 79 86 55 87
REMARK SMILES IDX 56 88 65 89 57 90 58 91 64 92 66 93 59 94 60 95 61 96 62 97
REMARK SMILES IDX 63 98
REMARK H PARENT 18 8 25 29 87 48 53 59
REMARK Flexibility Score: inf
ROOT
ATOM      1  C   UNL A   1      40.952  22.123  28.000  1.00  0.00     0.002 C 
ENDROOT
BRANCH   1   2
ATOM      2  C   UNL A   1      40.066  21.762  26.800  1.00  0.00     0.002 C 
BRANCH   2   3
ATOM      3  C   UNL A   1      38.976  22.784  26.458  1.00  0.00     0.021 C 
BRANCH   3   4
ATOM      4  C   UNL A   1      37.940  22.273  25.463  1.00  0.00     0.116 C 
BRANCH   4   5
ATOM      5  N   UNL A   1      36.717  21.857  26.126  1.00  0.00    -0.352 N 
ATOM      6  C   UNL A   1      35.395  22.128  26.030  1.00  0.00     0.251 C 
ATOM      7  O   UNL A   1      34.674  21.507  26.820  1.00  0.00    -0.270 OA
ATOM      8  H   UNL A   1      36.898  21.200  26.837  1.00  0.00     0.163 HD
BRANCH   6   9
ATOM      9  C   UNL A   1      34.774  23.091  25.070  1.00  0.00     0.067 C 
ATOM     10  C   UNL A   1      32.904  25.659  21.034  1.00  0.00     0.048 C 
ATOM     11  C   UNL A   1      33.174  25.996  22.474  1.00  0.00    -0.007 A 
ATOM     12  C   UNL A   1      32.834  27.254  22.986  1.00  0.00     0.023 A 
ATOM     13  C   UNL A   1      33.741  25.047  23.336  1.00  0.00     0.130 A 
ATOM     14  C   UNL A   1      33.078  27.552  24.327  1.00  0.00     0.019 A 
ATOM     15  C   UNL A   1      33.989  25.345  24.678  1.00  0.00     0.019 A 
ATOM     16  O   UNL A   1      34.082  23.845  22.788  1.00  0.00    -0.475 OA
ATOM     17  Br  UNL A   1      32.625  29.260  25.001  1.00  0.00    -0.051 Br
ATOM     18  C   UNL A   1      33.655  26.607  25.175  1.00  0.00     0.027 A 
ATOM     19  C   UNL A   1      34.622  24.347  25.532  1.00  0.00     0.025 C 
ATOM     20  C   UNL A   1      34.289  22.730  23.694  1.00  0.00     0.314 C 
BRANCH  20  21
ATOM     21  C   UNL A   1      33.018  21.863  23.715  1.00  0.00     0.429 C 
ATOM     22  F   UNL A   1      32.357  21.959  22.537  1.00  0.00    -0.167 F 
ATOM     23  F   UNL A   1      33.289  20.548  23.896  1.00  0.00    -0.167 F 
ATOM     24  F   UNL A   1      32.162  22.227  24.696  1.00  0.00    -0.167 F 
ENDBRANCH  20  21
ENDBRANCH   6   9
ENDBRANCH   4   5
ENDBRANCH   3   4
ENDBRANCH   2   3
ENDBRANCH   1   2
BRANCH   1  25
ATOM     25  C   UNL A   1      42.439  22.317  27.689  1.00  0.00     0.021 C 
BRANCH  25  26
ATOM     26  C   UNL A   1      42.877  23.771  27.553  1.00  0.00     0.116 C 
BRANCH  26  27
ATOM     27  N   UNL A   1      42.405  24.365  26.315  1.00  0.00    -0.352 N 
ATOM     28  C   UNL A   1      41.620  25.476  26.134  1.00  0.00     0.251 C 
ATOM     29  H   UNL A   1      42.690  23.910  25.490  1.00  0.00     0.163 HD
ATOM     30  O   UNL A   1      41.144  25.720  25.029  1.00  0.00    -0.269 OA
BRANCH  28  31
ATOM     31  C   UNL A   1      41.337  26.362  27.282  1.00  0.00     0.039 A 
ATOM     32  C   UNL A   1      40.290  26.037  28.146  1.00  0.00     0.014 A 
ATOM     33  C   UNL A   1      42.104  27.512  27.501  1.00  0.00     0.014 A 
ATOM     34  C   UNL A   1      40.038  26.844  29.255  1.00  0.00     0.010 A 
ATOM     35  C   UNL A   1      41.897  28.275  28.646  1.00  0.00     0.010 A 
ATOM     36  C   UNL A   1      40.852  27.958  29.525  1.00  0.00    -0.014 A 
BRANCH  36  37
ATOM     37  C   UNL A   1      40.585  28.820  30.702  1.00  0.00     0.031 A 
ATOM     38  C   UNL A   1      41.425  28.675  31.942  1.00  0.00     0.074 A 
ATOM     39  C   UNL A   1      39.588  29.725  30.657  1.00  0.00     0.049 A 
ATOM     40  N   UNL A   1      41.368  29.352  33.058  1.00  0.00    -0.248 NA
ATOM     41  C   UNL A   1      42.450  27.618  31.935  1.00  0.00     0.031 C 
ATOM     42  C   UNL A   1      38.679  29.924  29.525  1.00  0.00     0.029 A 
ATOM     43  N   UNL A   1      39.176  30.655  31.579  1.00  0.00    -0.354 N 
ATOM     44  C   UNL A   1      42.349  28.811  33.879  1.00  0.00     0.074 A 
ATOM     45  C   UNL A   1      42.939  27.702  33.164  1.00  0.00     0.031 C 
ATOM     46  C   UNL A   1      37.847  30.942  29.804  1.00  0.00     0.029 A 
ATOM     47  C   UNL A   1      38.144  31.451  31.139  1.00  0.00     0.049 A 
ATOM     48  H   UNL A   1      39.583  30.743  32.471  1.00  0.00     0.167 HD
ATOM     49  C   UNL A   1      42.753  29.226  35.102  1.00  0.00     0.037 A 
ATOM     50  C   UNL A   1      37.519  32.481  31.742  1.00  0.00     0.037 A 
ATOM     51  C   UNL A   1      42.185  30.351  35.795  1.00  0.00     0.049 A 
ATOM     52  C   UNL A   1      37.965  32.906  33.115  1.00  0.00     0.074 A 
ATOM     53  C   UNL A   1      42.563  30.889  37.012  1.00  0.00     0.029 A 
ATOM     54  N   UNL A   1      41.123  31.112  35.329  1.00  0.00    -0.354 N 
ATOM     55  N   UNL A   1      38.943  32.426  33.846  1.00  0.00    -0.248 NA
ATOM     56  C   UNL A   1      37.223  34.005  33.750  1.00  0.00     0.031 C 
ATOM     57  C   UNL A   1      41.703  31.953  37.300  1.00  0.00     0.029 A 
ATOM     58  C   UNL A   1      40.813  32.098  36.247  1.00  0.00     0.049 A 
ATOM     59  H   UNL A   1      40.659  30.970  34.473  1.00  0.00     0.167 HD
ATOM     60  C   UNL A   1      38.942  33.172  35.019  1.00  0.00     0.074 A 
ATOM     61  C   UNL A   1      37.876  34.146  34.895  1.00  0.00     0.031 C 
ATOM     62  C   UNL A   1      39.749  33.059  36.102  1.00  0.00     0.037 A 
BRANCH  49  63
ATOM     63  C   UNL A   1      43.884  28.483  35.753  1.00  0.00     0.058 A 
ATOM     64  C   UNL A   1      45.220  28.850  35.526  1.00  0.00     0.135 A 
ATOM     65  C   UNL A   1      43.635  27.428  36.645  1.00  0.00     0.135 A 
ATOM     66  F   UNL A   1      45.513  29.841  34.669  1.00  0.00    -0.206 F 
ATOM     67  C   UNL A   1      46.272  28.183  36.142  1.00  0.00     0.059 A 
ATOM     68  C   UNL A   1      44.672  26.763  37.293  1.00  0.00     0.059 A 
ATOM     69  F   UNL A   1      42.376  27.036  36.895  1.00  0.00    -0.206 F 
ATOM     70  C   UNL A   1      45.988  27.141  37.026  1.00  0.00     0.060 A 
BRANCH  70  71
ATOM     71  S   UNL A   1      47.367  26.296  37.826  1.00  0.00     0.124 S 
ATOM     72  O   UNL A   1      47.229  24.944  37.295  1.00  0.00    -0.237 OA
ATOM     73  O   UNL A   1      48.518  27.052  37.342  1.00  0.00    -0.237 OA
ATOM     74  O   UNL A   1      47.078  26.443  39.249  1.00  0.00    -0.744 OA
ENDBRANCH  70  71
ENDBRANCH  49  63
BRANCH  50  75
ATOM     75  C   UNL A   1      36.433  33.208  31.034  1.00  0.00     0.058 A 
ATOM     76  C   UNL A   1      35.102  33.104  31.463  1.00  0.00     0.135 A 
ATOM     77  C   UNL A   1      36.701  34.032  29.931  1.00  0.00     0.135 A 
ATOM     78  F   UNL A   1      34.794  32.323  32.510  1.00  0.00    -0.206 F 
ATOM     79  C   UNL A   1      34.073  33.782  30.820  1.00  0.00     0.059 A 
ATOM     80  C   UNL A   1      35.692  34.738  29.282  1.00  0.00     0.059 A 
ATOM     81  F   UNL A   1      37.961  34.178  29.490  1.00  0.00    -0.206 F 
ATOM     82  C   UNL A   1      34.379  34.600  29.731  1.00  0.00     0.060 A 
BRANCH  82  83
ATOM     83  S   UNL A   1      33.040  35.513  28.931  1.00  0.00     0.124 S 
ATOM     84  O   UNL A   1      32.525  34.520  27.994  1.00  0.00    -0.237 OA
ATOM     85  O   UNL A   1      32.173  35.834  30.062  1.00  0.00    -0.237 OA
ATOM     86  O   UNL A   1      33.723  36.654  28.330  1.00  0.00    -0.744 OA
ENDBRANCH  82  83
ENDBRANCH  50  75
BRANCH  62  87
ATOM     87  C   UNL A   1      39.515  33.995  37.253  1.00  0.00     0.058 A 
ATOM     88  C   UNL A   1      38.742  33.604  38.355  1.00  0.00     0.135 A 
ATOM     89  C   UNL A   1      40.175  35.234  37.313  1.00  0.00     0.135 A 
ATOM     90  F   UNL A   1      38.086  32.433  38.340  1.00  0.00    -0.206 F 
ATOM     91  C   UNL A   1      38.640  34.404  39.487  1.00  0.00     0.059 A 
ATOM     92  C   UNL A   1      40.103  36.040  38.444  1.00  0.00     0.059 A 
ATOM     93  F   UNL A   1      40.932  35.646  36.285  1.00  0.00    -0.206 F 
ATOM     94  C   UNL A   1      39.336  35.614  39.528  1.00  0.00     0.060 A 
BRANCH  94  95
ATOM     95  S   UNL A   1      39.273  36.591  41.045  1.00  0.00     0.124 S 
ATOM     96  O   UNL A   1      38.809  37.881  40.545  1.00  0.00    -0.237 OA
ATOM     97  O   UNL A   1      38.317  35.844  41.856  1.00  0.00    -0.237 OA
ATOM     98  O   UNL A   1      40.651  36.564  41.526  1.00  0.00    -0.744 OA
ENDBRANCH  94  95
ENDBRANCH  62  87
ENDBRANCH  36  37
ENDBRANCH  28  31
ENDBRANCH  26  27
ENDBRANCH  25  26
ENDBRANCH   1  25
TORSDOF 17
ENDMDL
MODEL 2
REMARK VINA RESULT:     -11.9      4.844     10.390
REMARK SMILES Cc1cc(Br)cc2c1O[C@H](C(F)(F)F)C(C(=O)NCCCCCCNC(=O)c1ccc(-c3c4nc(c(-c5c(F)cc(S(=O)(=O)[O-])cc5F)c5ccc([nH]5)c(-c5c(F)cc(S(=O)(=O)[O-])cc5F)c5nc(c(-c6c(F)cc(S(=O)(=O)[O-])cc6F)c6ccc3[nH]6)C=C5)C=C4)cc1)=C2
REMARK SMILES IDX 22 1 21 2 20 3 19 4 18 5 16 6 17 7 15 9 1 10 2 11 3 12 8 13
REMARK SMILES IDX 4 14 7 15 9 16 5 17 6 18 94 19 10 20 11 21 12 22 13 23 14 24
REMARK SMILES IDX 23 25 24 26 25 27 26 28 27 30 28 31 29 32 93 33 30 34 92 35
REMARK SMILES IDX 31 36 32 37 33 38 86 39 34 40 91 41 85 42 87 43 35 44 90 45
REMARK SMILES IDX 84 46 83 47 36 49 70 50 49 51 69 52 50 53 53 54 68 55 88 56
REMARK SMILES IDX 51 57 52 58 67 60 89 61 54 62 37 63 38 64 47 65 39 66 40 67
REMARK SMILES IDX 46 68 48 69 41 70 42 71 43 72 44 73 45 74 71 75 72 76 81 77
REMARK SMILES IDX 73 78 74 79 80 80 82 81 75 82 76 83 77 84 78 85 79 86 55 87
REMARK SMILES IDX 56 88 65 89 57 90 58 91 64 92 66 93 59 94 60 95 61 96 62 97
REMARK SMILES IDX 63 98
REMARK H PARENT 18 8 25 29 87 48 53 59
REMARK Flexibility Score: inf
ROOT
ATOM      1  C   UNL A   1      33.569  28.669  24.598  1.00  0.00     0.002 C 
ENDROOT
BRANCH   1   2
ATOM      2  C   UNL A   1      32.452  28.963  23.588  1.00  0.00     0.002 C 
BRANCH   2   3
ATOM      3  C   UNL A   1      31.095  28.324  23.904  1.00  0.00     0.021 C 
BRANCH   3   4
ATOM      4  C   UNL A   1      30.551  27.444  22.784  1.00  0.00     0.116 C 
BRANCH   4   5
ATOM      5  N   UNL A   1      31.611  26.961  21.916  1.00  0.00    -0.352 N 
ATOM      6  C   UNL A   1      32.627  26.070  21.993  1.00  0.00     0.251 C 
ATOM      7  O   UNL A   1      33.306  25.962  20.965  1.00  0.00    -0.270 OA
ATOM      8  H   UNL A   1      31.583  27.400  21.035  1.00  0.00     0.163 HD
BRANCH   6   9
ATOM      9  C   UNL A   1      32.967  25.243  23.190  1.00  0.00     0.067 C 
ATOM     10  C   UNL A   1      33.158  22.697  27.646  1.00  0.00     0.048 C 
ATOM     11  C   UNL A   1      34.158  23.042  26.578  1.00  0.00    -0.007 A 
ATOM     12  C   UNL A   1      35.477  22.580  26.661  1.00  0.00     0.023 A 
ATOM     13  C   UNL A   1      33.779  23.807  25.465  1.00  0.00     0.130 A 
ATOM     14  C   UNL A   1      36.393  22.897  25.658  1.00  0.00     0.019 A 
ATOM     15  C   UNL A   1      34.696  24.128  24.462  1.00  0.00     0.019 A 
ATOM     16  O   UNL A   1      32.492  24.258  25.439  1.00  0.00    -0.475 OA
ATOM     17  Br  UNL A   1      38.175  22.278  25.791  1.00  0.00    -0.051 Br
ATOM     18  C   UNL A   1      36.012  23.670  24.561  1.00  0.00     0.027 A 
ATOM     19  C   UNL A   1      34.275  24.962  23.343  1.00  0.00     0.025 C 
ATOM     20  C   UNL A   1      31.960  24.693  24.161  1.00  0.00     0.314 C 
BRANCH  20  21
ATOM     21  C   UNL A   1      31.109  23.559  23.563  1.00  0.00     0.429 C 
ATOM     22  F   UNL A   1      30.698  22.710  24.536  1.00  0.00    -0.167 F 
ATOM     23  F   UNL A   1      29.988  24.015  22.955  1.00  0.00    -0.167 F 
ATOM     24  F   UNL A   1      31.788  22.834  22.647  1.00  0.00    -0.167 F 
ENDBRANCH  20  21
ENDBRANCH   6   9
ENDBRANCH   4   5
ENDBRANCH   3   4
ENDBRANCH   2   3
ENDBRANCH   1   2
BRANCH   1  25
ATOM     25  C   UNL A   1      33.185  27.745  25.757  1.00  0.00     0.021 C 
BRANCH  25  26
ATOM     26  C   UNL A   1      33.803  28.118  27.100  1.00  0.00     0.116 C 
BRANCH  26  27
ATOM     27  N   UNL A   1      33.590  29.517  27.425  1.00  0.00    -0.352 N 
ATOM     28  C   UNL A   1      34.437  30.397  28.050  1.00  0.00     0.251 C 
ATOM     29  H   UNL A   1      32.717  29.887  27.159  1.00  0.00     0.163 HD
ATOM     30  O   UNL A   1      34.020  31.487  28.431  1.00  0.00    -0.269 OA
BRANCH  28  31
ATOM     31  C   UNL A   1      35.846  30.016  28.275  1.00  0.00     0.039 A 
ATOM     32  C   UNL A   1      36.747  30.099  27.212  1.00  0.00     0.014 A 
ATOM     33  C   UNL A   1      36.273  29.575  29.532  1.00  0.00     0.014 A 
ATOM     34  C   UNL A   1      38.089  29.779  27.422  1.00  0.00     0.010 A 
ATOM     35  C   UNL A   1      37.624  29.325  29.756  1.00  0.00     0.010 A 
ATOM     36  C   UNL A   1      38.541  29.409  28.699  1.00  0.00    -0.014 A 
BRANCH  36  37
ATOM     37  C   UNL A   1      39.966  29.065  28.925  1.00  0.00     0.031 A 
ATOM     38  C   UNL A   1      40.885  30.068  29.568  1.00  0.00     0.074 A 
ATOM     39  C   UNL A   1      40.432  27.858  28.548  1.00  0.00     0.049 A 
ATOM     40  N   UNL A   1      42.150  29.946  29.875  1.00  0.00    -0.248 NA
ATOM     41  C   UNL A   1      40.316  31.387  29.889  1.00  0.00     0.031 C 
ATOM     42  C   UNL A   1      39.644  26.822  27.875  1.00  0.00     0.029 A 
ATOM     43  N   UNL A   1      41.675  27.292  28.685  1.00  0.00    -0.354 N 
ATOM     44  C   UNL A   1      42.523  31.164  30.430  1.00  0.00     0.074 A 
ATOM     45  C   UNL A   1      41.374  32.037  30.351  1.00  0.00     0.031 C 
ATOM     46  C   UNL A   1      40.411  25.732  27.699  1.00  0.00     0.029 A 
ATOM     47  C   UNL A   1      41.748  25.999  28.220  1.00  0.00     0.049 A 
ATOM     48  H   UNL A   1      42.441  27.767  29.079  1.00  0.00     0.167 HD
ATOM     49  C   UNL A   1      43.703  31.511  30.993  1.00  0.00     0.037 A 
ATOM     50  C   UNL A   1      42.775  25.126  28.227  1.00  0.00     0.037 A 
ATOM     51  C   UNL A   1      44.832  30.627  31.099  1.00  0.00     0.049 A 
ATOM     52  C   UNL A   1      44.088  25.545  28.832  1.00  0.00     0.074 A 
ATOM     53  C   UNL A   1      46.053  30.862  31.704  1.00  0.00     0.029 A 
ATOM     54  N   UNL A   1      44.875  29.337  30.590  1.00  0.00    -0.354 N 
ATOM     55  N   UNL A   1      44.399  26.677  29.417  1.00  0.00    -0.248 NA
ATOM     56  C   UNL A   1      45.190  24.575  28.775  1.00  0.00     0.031 C 
ATOM     57  C   UNL A   1      46.850  29.728  31.529  1.00  0.00     0.029 A 
ATOM     58  C   UNL A   1      46.113  28.773  30.843  1.00  0.00     0.049 A 
ATOM     59  H   UNL A   1      44.137  28.890  30.119  1.00  0.00     0.167 HD
ATOM     60  C   UNL A   1      45.726  26.551  29.808  1.00  0.00     0.074 A 
ATOM     61  C   UNL A   1      46.156  25.226  29.408  1.00  0.00     0.031 C 
ATOM     62  C   UNL A   1      46.519  27.451  30.439  1.00  0.00     0.037 A 
BRANCH  49  63
ATOM     63  C   UNL A   1      43.821  32.892  31.570  1.00  0.00     0.058 A 
ATOM     64  C   UNL A   1      43.504  33.149  32.914  1.00  0.00     0.135 A 
ATOM     65  C   UNL A   1      44.298  33.960  30.794  1.00  0.00     0.135 A 
ATOM     66  F   UNL A   1      43.027  32.165  33.695  1.00  0.00    -0.206 F 
ATOM     67  C   UNL A   1      43.633  34.418  33.462  1.00  0.00     0.059 A 
ATOM     68  C   UNL A   1      44.459  35.235  31.329  1.00  0.00     0.059 A 
ATOM     69  F   UNL A   1      44.614  33.770  29.503  1.00  0.00    -0.206 F 
ATOM     70  C   UNL A   1      44.113  35.456  32.662  1.00  0.00     0.060 A 
BRANCH  70  71
ATOM     71  S   UNL A   1      44.285  37.095  33.396  1.00  0.00     0.124 S 
ATOM     72  O   UNL A   1      45.388  36.882  34.329  1.00  0.00    -0.237 OA
ATOM     73  O   UNL A   1      44.589  37.927  32.236  1.00  0.00    -0.237 OA
ATOM     74  O   UNL A   1      42.983  37.332  34.011  1.00  0.00    -0.744 OA
ENDBRANCH  70  71
ENDBRANCH  49  63
BRANCH  50  75
ATOM     75  C   UNL A   1      42.589  23.756  27.680  1.00  0.00     0.058 A 
ATOM     76  C   UNL A   1      42.387  22.664  28.536  1.00  0.00     0.135 A 
ATOM     77  C   UNL A   1      42.593  23.513  26.299  1.00  0.00     0.135 A 
ATOM     78  F   UNL A   1      42.382  22.846  29.865  1.00  0.00    -0.206 F 
ATOM     79  C   UNL A   1      42.205  21.376  28.044  1.00  0.00     0.059 A 
ATOM     80  C   UNL A   1      42.393  22.237  25.780  1.00  0.00     0.059 A 
ATOM     81  F   UNL A   1      42.769  24.528  25.436  1.00  0.00    -0.206 F 
ATOM     82  C   UNL A   1      42.206  21.173  26.663  1.00  0.00     0.060 A 
BRANCH  82  83
ATOM     83  S   UNL A   1      41.921  19.503  26.034  1.00  0.00     0.124 S 
ATOM     84  O   UNL A   1      42.319  18.688  27.176  1.00  0.00    -0.237 OA
ATOM     85  O   UNL A   1      40.492  19.530  25.735  1.00  0.00    -0.237 OA
ATOM     86  O   UNL A   1      42.797  19.429  24.868  1.00  0.00    -0.744 OA
ENDBRANCH  82  83
ENDBRANCH  50  75
BRANCH  62  87
ATOM     87  C   UNL A   1      47.938  27.056  30.731  1.00  0.00     0.058 A 
ATOM     88  C   UNL A   1      48.976  27.392  29.851  1.00  0.00     0.135 A 
ATOM     89  C   UNL A   1      48.275  26.456  31.955  1.00  0.00     0.135 A 
ATOM     90  F   UNL A   1      48.702  27.958  28.666  1.00  0.00    -0.206 F 
ATOM     91  C   UNL A   1      50.307  27.160  30.181  1.00  0.00     0.059 A 
ATOM     92  C   UNL A   1      49.601  26.234  32.314  1.00  0.00     0.059 A 
ATOM     93  F   UNL A   1      47.315  26.124  32.832  1.00  0.00    -0.206 F 
ATOM     94  C   UNL A   1      50.610  26.594  31.421  1.00  0.00     0.060 A 
BRANCH  94  95
ATOM     95  S   UNL A   1      52.346  26.393  31.873  1.00  0.00     0.124 S 
ATOM     96  O   UNL A   1      53.021  26.980  30.720  1.00  0.00    -0.237 OA
ATOM     97  O   UNL A   1      52.433  27.156  33.115  1.00  0.00    -0.237 OA
ATOM     98  O   UNL A   1      52.496  24.949  32.019  1.00  0.00    -0.744 OA
ENDBRANCH  94  95
ENDBRANCH  62  87
ENDBRANCH  36  37
ENDBRANCH  28  31
ENDBRANCH  26  27
ENDBRANCH  25  26
ENDBRANCH   1  25
TORSDOF 17
ENDMDL
MODEL 3
REMARK VINA RESULT:     -11.9      6.763     12.132
REMARK SMILES Cc1cc(Br)cc2c1O[C@H](C(F)(F)F)C(C(=O)NCCCCCCNC(=O)c1ccc(-c3c4nc(c(-c5c(F)cc(S(=O)(=O)[O-])cc5F)c5ccc([nH]5)c(-c5c(F)cc(S(=O)(=O)[O-])cc5F)c5nc(c(-c6c(F)cc(S(=O)(=O)[O-])cc6F)c6ccc3[nH]6)C=C5)C=C4)cc1)=C2
REMARK SMILES IDX 22 1 21 2 20 3 19 4 18 5 16 6 17 7 15 9 1 10 2 11 3 12 8 13
REMARK SMILES IDX 4 14 7 15 9 16 5 17 6 18 94 19 10 20 11 21 12 22 13 23 14 24
REMARK SMILES IDX 23 25 24 26 25 27 26 28 27 30 28 31 29 32 93 33 30 34 92 35
REMARK SMILES IDX 31 36 32 37 33 38 86 39 34 40 91 41 85 42 87 43 35 44 90 45
REMARK SMILES IDX 84 46 83 47 36 49 70 50 49 51 69 52 50 53 53 54 68 55 88 56
REMARK SMILES IDX 51 57 52 58 67 60 89 61 54 62 37 63 38 64 47 65 39 66 40 67
REMARK SMILES IDX 46 68 48 69 41 70 42 71 43 72 44 73 45 74 71 75 72 76 81 77
REMARK SMILES IDX 73 78 74 79 80 80 82 81 75 82 76 83 77 84 78 85 79 86 55 87
REMARK SMILES IDX 56 88 65 89 57 90 58 91 64 92 66 93 59 94 60 95 61 96 62 97
REMARK SMILES IDX 63 98
REMARK H PARENT 18 8 25 29 87 48 53 59
REMARK Flexibility Score: inf
ROOT
ATOM      1  C   UNL A   1      33.391  29.009  25.890  1.00  0.00     0.002 C 
ENDROOT
BRANCH   1   2
ATOM      2  C   UNL A   1      33.806  28.127  24.705  1.00  0.00     0.002 C 
BRANCH   2   3
ATOM      3  C   UNL A   1      33.403  28.653  23.323  1.00  0.00     0.021 C 
BRANCH   3   4
ATOM      4  C   UNL A   1      32.153  27.994  22.750  1.00  0.00     0.116 C 
BRANCH   4   5
ATOM      5  N   UNL A   1      32.484  27.002  21.741  1.00  0.00    -0.352 N 
ATOM      6  C   UNL A   1      32.901  25.715  21.715  1.00  0.00     0.251 C 
ATOM      7  O   UNL A   1      33.050  25.236  20.585  1.00  0.00    -0.270 OA
ATOM      8  H   UNL A   1      32.374  27.363  20.832  1.00  0.00     0.163 HD
BRANCH   6   9
ATOM      9  C   UNL A   1      33.184  24.870  22.915  1.00  0.00     0.067 C 
ATOM     10  C   UNL A   1      33.356  22.536  27.486  1.00  0.00     0.048 C 
ATOM     11  C   UNL A   1      34.236  22.548  26.268  1.00  0.00    -0.007 A 
ATOM     12  C   UNL A   1      35.376  21.738  26.205  1.00  0.00     0.023 A 
ATOM     13  C   UNL A   1      33.913  23.347  25.162  1.00  0.00     0.130 A 
ATOM     14  C   UNL A   1      36.179  21.748  25.064  1.00  0.00     0.019 A 
ATOM     15  C   UNL A   1      34.717  23.362  24.020  1.00  0.00     0.019 A 
ATOM     16  O   UNL A   1      32.809  24.141  25.278  1.00  0.00    -0.475 OA
ATOM     17  Br  UNL A   1      37.723  20.659  24.999  1.00  0.00    -0.051 Br
ATOM     18  C   UNL A   1      35.858  22.556  23.973  1.00  0.00     0.027 A 
ATOM     19  C   UNL A   1      34.373  24.239  22.908  1.00  0.00     0.025 C 
ATOM     20  C   UNL A   1      32.226  24.661  24.055  1.00  0.00     0.314 C 
BRANCH  20  21
ATOM     21  C   UNL A   1      31.017  23.790  23.670  1.00  0.00     0.429 C 
ATOM     22  F   UNL A   1      30.538  23.135  24.755  1.00  0.00    -0.167 F 
ATOM     23  F   UNL A   1      29.988  24.518  23.176  1.00  0.00    -0.167 F 
ATOM     24  F   UNL A   1      31.327  22.862  22.737  1.00  0.00    -0.167 F 
ENDBRANCH  20  21
ENDBRANCH   6   9
ENDBRANCH   4   5
ENDBRANCH   3   4
ENDBRANCH   2   3
ENDBRANCH   1   2
BRANCH   1  25
ATOM     25  C   UNL A   1      33.996  28.625  27.244  1.00  0.00     0.021 C 
BRANCH  25  26
ATOM     26  C   UNL A   1      35.274  29.373  27.605  1.00  0.00     0.116 C 
BRANCH  26  27
ATOM     27  N   UNL A   1      35.240  29.878  28.967  1.00  0.00    -0.352 N 
ATOM     28  C   UNL A   1      36.248  29.923  29.896  1.00  0.00     0.251 C 
ATOM     29  H   UNL A   1      34.373  30.239  29.264  1.00  0.00     0.163 HD
ATOM     30  O   UNL A   1      35.994  30.192  31.067  1.00  0.00    -0.269 OA
BRANCH  28  31
ATOM     31  C   UNL A   1      37.634  29.629  29.481  1.00  0.00     0.039 A 
ATOM     32  C   UNL A   1      38.558  29.224  30.447  1.00  0.00     0.014 A 
ATOM     33  C   UNL A   1      38.020  29.757  28.142  1.00  0.00     0.014 A 
ATOM     34  C   UNL A   1      39.860  28.906  30.061  1.00  0.00     0.010 A 
ATOM     35  C   UNL A   1      39.298  29.371  27.750  1.00  0.00     0.010 A 
ATOM     36  C   UNL A   1      40.235  28.957  28.707  1.00  0.00    -0.014 A 
BRANCH  36  37
ATOM     37  C   UNL A   1      41.620  28.623  28.294  1.00  0.00     0.031 A 
ATOM     38  C   UNL A   1      42.684  29.687  28.313  1.00  0.00     0.074 A 
ATOM     39  C   UNL A   1      41.917  27.369  27.900  1.00  0.00     0.049 A 
ATOM     40  N   UNL A   1      43.953  29.586  28.018  1.00  0.00    -0.248 NA
ATOM     41  C   UNL A   1      42.264  31.046  28.692  1.00  0.00     0.031 C 
ATOM     42  C   UNL A   1      40.958  26.266  27.798  1.00  0.00     0.029 A 
ATOM     43  N   UNL A   1      43.110  26.806  27.520  1.00  0.00    -0.354 N 
ATOM     44  C   UNL A   1      44.482  30.860  28.183  1.00  0.00     0.074 A 
ATOM     45  C   UNL A   1      43.385  31.734  28.533  1.00  0.00     0.031 C 
ATOM     46  C   UNL A   1      41.608  25.151  27.427  1.00  0.00     0.029 A 
ATOM     47  C   UNL A   1      43.022  25.462  27.239  1.00  0.00     0.049 A 
ATOM     48  H   UNL A   1      43.949  27.317  27.455  1.00  0.00     0.167 HD
ATOM     49  C   UNL A   1      45.771  31.259  28.094  1.00  0.00     0.037 A 
ATOM     50  C   UNL A   1      43.977  24.582  26.882  1.00  0.00     0.037 A 
ATOM     51  C   UNL A   1      46.863  30.379  27.778  1.00  0.00     0.049 A 
ATOM     52  C   UNL A   1      45.401  25.055  26.759  1.00  0.00     0.074 A 
ATOM     53  C   UNL A   1      48.214  30.672  27.721  1.00  0.00     0.029 A 
ATOM     54  N   UNL A   1      46.729  29.032  27.472  1.00  0.00    -0.354 N 
ATOM     55  N   UNL A   1      45.892  26.249  26.990  1.00  0.00    -0.248 NA
ATOM     56  C   UNL A   1      46.399  24.068  26.324  1.00  0.00     0.031 C 
ATOM     57  C   UNL A   1      48.894  29.511  27.342  1.00  0.00     0.029 A 
ATOM     58  C   UNL A   1      47.970  28.487  27.196  1.00  0.00     0.049 A 
ATOM     59  H   UNL A   1      45.878  28.539  27.452  1.00  0.00     0.167 HD
ATOM     60  C   UNL A   1      47.256  26.154  26.740  1.00  0.00     0.074 A 
ATOM     61  C   UNL A   1      47.516  24.781  26.356  1.00  0.00     0.031 C 
ATOM     62  C   UNL A   1      48.207  27.117  26.819  1.00  0.00     0.037 A 
BRANCH  49  63
ATOM     63  C   UNL A   1      46.076  32.703  28.375  1.00  0.00     0.058 A 
ATOM     64  C   UNL A   1      46.387  33.140  29.672  1.00  0.00     0.135 A 
ATOM     65  C   UNL A   1      46.105  33.649  27.339  1.00  0.00     0.135 A 
ATOM     66  F   UNL A   1      46.357  32.278  30.702  1.00  0.00    -0.206 F 
ATOM     67  C   UNL A   1      46.694  34.469  29.937  1.00  0.00     0.059 A 
ATOM     68  C   UNL A   1      46.434  34.980  27.577  1.00  0.00     0.059 A 
ATOM     69  F   UNL A   1      45.814  33.283  26.080  1.00  0.00    -0.206 F 
ATOM     70  C   UNL A   1      46.716  35.383  28.882  1.00  0.00     0.060 A 
BRANCH  70  71
ATOM     71  S   UNL A   1      47.129  37.101  29.246  1.00  0.00     0.124 S 
ATOM     72  O   UNL A   1      47.266  37.067  30.698  1.00  0.00    -0.237 OA
ATOM     73  O   UNL A   1      48.367  37.289  28.497  1.00  0.00    -0.237 OA
ATOM     74  O   UNL A   1      45.977  37.842  28.742  1.00  0.00    -0.744 OA
ENDBRANCH  70  71
ENDBRANCH  49  63
BRANCH  50  75
ATOM     75  C   UNL A   1      43.626  23.155  26.657  1.00  0.00     0.058 A 
ATOM     76  C   UNL A   1      43.312  22.315  27.734  1.00  0.00     0.135 A 
ATOM     77  C   UNL A   1      43.580  22.607  25.366  1.00  0.00     0.135 A 
ATOM     78  F   UNL A   1      43.349  22.791  28.988  1.00  0.00    -0.206 F 
ATOM     79  C   UNL A   1      42.974  20.979  27.544  1.00  0.00     0.059 A 
ATOM     80  C   UNL A   1      43.225  21.279  25.146  1.00  0.00     0.059 A 
ATOM     81  F   UNL A   1      43.858  23.374  24.299  1.00  0.00    -0.206 F 
ATOM     82  C   UNL A   1      42.930  20.471  26.244  1.00  0.00     0.060 A 
BRANCH  82  83
ATOM     83  S   UNL A   1      42.444  18.747  26.006  1.00  0.00     0.124 S 
ATOM     84  O   UNL A   1      43.340  18.335  24.931  1.00  0.00    -0.237 OA
ATOM     85  O   UNL A   1      42.715  18.171  27.320  1.00  0.00    -0.237 OA
ATOM     86  O   UNL A   1      41.032  18.842  25.650  1.00  0.00    -0.744 OA
ENDBRANCH  82  83
ENDBRANCH  50  75
BRANCH  62  87
ATOM     87  C   UNL A   1      49.619  26.740  26.474  1.00  0.00     0.058 A 
ATOM     88  C   UNL A   1      50.440  26.091  27.406  1.00  0.00     0.135 A 
ATOM     89  C   UNL A   1      50.106  26.910  25.168  1.00  0.00     0.135 A 
ATOM     90  F   UNL A   1      50.022  25.913  28.669  1.00  0.00    -0.206 F 
ATOM     91  C   UNL A   1      51.695  25.608  27.052  1.00  0.00     0.059 A 
ATOM     92  C   UNL A   1      51.350  26.417  24.786  1.00  0.00     0.059 A 
ATOM     93  F   UNL A   1      49.352  27.519  24.240  1.00  0.00    -0.206 F 
ATOM     94  C   UNL A   1      52.135  25.763  25.736  1.00  0.00     0.060 A 
BRANCH  94  95
ATOM     95  S   UNL A   1      53.722  25.042  25.269  1.00  0.00     0.124 S 
ATOM     96  O   UNL A   1      53.889  25.547  23.911  1.00  0.00    -0.237 OA
ATOM     97  O   UNL A   1      54.625  25.604  26.270  1.00  0.00    -0.237 OA
ATOM     98  O   UNL A   1      53.491  23.605  25.380  1.00  0.00    -0.744 OA
ENDBRANCH  94  95
ENDBRANCH  62  87
ENDBRANCH  36  37
ENDBRANCH  28  31
ENDBRANCH  26  27
ENDBRANCH  25  26
ENDBRANCH   1  25
TORSDOF 17
ENDMDL
