MODEL 1
REMARK VINA RESULT:     -12.7      0.000      0.000
REMARK SMILES Cc1cc(=O)c(Oc2ccc(C(=O)NCCCCCCNC(=O)c3ccc(-c4c5nc(c(-c6c(F)cc(S(=O)(=O)[O-])cc6F)c6ccc([nH]6)c(-c6c(F)cc(S(=O)(=O)[O-])cc6F)c6nc(c(-c7c(F)cc(S(=O)(=O)[O-])cc7F)c7ccc4[nH]7)C=C6)C=C5)cc3)cc2)c(-c2ccc(S(C)(=O)=O)cc2)o1
REMARK SMILES IDX 17 1 16 2 15 3 14 4 12 5 13 6 11 8 8 9 9 10 91 11 10 12
REMARK SMILES IDX 90 13 7 14 6 15 1 16 2 17 3 18 103 19 4 20 92 21 5 22 93 23
REMARK SMILES IDX 94 24 102 25 95 26 101 27 96 28 97 29 98 30 99 31 100 32
REMARK SMILES IDX 18 33 19 34 20 35 21 36 22 37 23 39 24 40 25 41 89 42 26 43
REMARK SMILES IDX 88 44 27 45 28 46 29 47 82 48 30 49 87 50 81 51 83 52 31 53
REMARK SMILES IDX 86 54 80 55 79 56 32 58 66 59 45 60 65 61 46 62 49 63 64 64
REMARK SMILES IDX 84 65 47 66 48 67 63 69 85 70 50 71 33 72 34 73 43 74 35 75
REMARK SMILES IDX 36 76 42 77 44 78 37 79 38 80 39 81 40 82 41 83 67 84 68 85
REMARK SMILES IDX 77 86 69 87 70 88 76 89 78 90 71 91 72 92 73 93 74 94 75 95
REMARK SMILES IDX 51 96 52 97 61 98 53 99 54 100 60 101 62 102 55 103 56 104
REMARK SMILES IDX 57 105 58 106 59 107
REMARK H PARENT 14 7 21 38 83 57 49 68
REMARK Flexibility Score: inf
ROOT
ATOM      1  C   UNL A   1      33.327  29.123  24.927  1.00  0.00     0.002 C 
ENDROOT
BRANCH   1   2
ATOM      2  C   UNL A   1      31.895  28.615  24.769  1.00  0.00     0.021 C 
BRANCH   2   3
ATOM      3  C   UNL A   1      31.410  28.298  23.356  1.00  0.00     0.116 C 
BRANCH   3   4
ATOM      4  N   UNL A   1      29.985  28.075  23.213  1.00  0.00    -0.352 N 
ATOM      5  C   UNL A   1      29.180  27.066  23.695  1.00  0.00     0.251 C 
ATOM      6  O   UNL A   1      27.963  27.146  23.538  1.00  0.00    -0.269 OA
ATOM      7  H   UNL A   1      29.514  28.758  22.684  1.00  0.00     0.163 HD
BRANCH   5   8
ATOM      8  C   UNL A   1      29.750  25.824  24.289  1.00  0.00     0.040 A 
ATOM      9  C   UNL A   1      31.387  23.816  25.307  1.00  0.00     0.127 A 
ATOM     10  C   UNL A   1      31.191  23.900  23.934  1.00  0.00     0.048 A 
ATOM     11  C   UNL A   1      30.586  24.563  26.169  1.00  0.00     0.048 A 
ATOM     12  C   UNL A   1      30.402  24.934  23.422  1.00  0.00     0.017 A 
ATOM     13  C   UNL A   1      29.736  25.544  25.655  1.00  0.00     0.017 A 
BRANCH   9  14
ATOM     14  O   UNL A   1      32.283  22.968  25.884  1.00  0.00    -0.449 OA
BRANCH  14  15
ATOM     15  C   UNL A   1      33.661  23.075  25.743  1.00  0.00     0.217 A 
ATOM     16  C   UNL A   1      37.905  23.904  25.714  1.00  0.00     0.088 C 
ATOM     17  C   UNL A   1      36.419  23.734  25.690  1.00  0.00     0.105 A 
ATOM     18  C   UNL A   1      35.584  24.739  25.957  1.00  0.00     0.098 A 
ATOM     19  O   UNL A   1      35.979  22.465  25.385  1.00  0.00    -0.457 OA
ATOM     20  C   UNL A   1      34.140  24.478  25.965  1.00  0.00     0.228 A 
ATOM     21  C   UNL A   1      34.618  22.163  25.415  1.00  0.00     0.180 A 
ATOM     22  O   UNL A   1      33.369  25.412  26.168  1.00  0.00    -0.285 OA
BRANCH  21  23
ATOM     23  C   UNL A   1      34.428  20.737  25.081  1.00  0.00     0.021 A 
ATOM     24  C   UNL A   1      35.553  19.905  24.946  1.00  0.00     0.013 A 
ATOM     25  C   UNL A   1      33.151  20.191  24.888  1.00  0.00     0.013 A 
ATOM     26  C   UNL A   1      35.404  18.535  24.712  1.00  0.00     0.021 A 
ATOM     27  C   UNL A   1      32.995  18.821  24.642  1.00  0.00     0.021 A 
ATOM     28  C   UNL A   1      34.123  17.998  24.571  1.00  0.00     0.067 A 
BRANCH  28  29
ATOM     29  S   UNL A   1      33.942  16.236  24.405  1.00  0.00     0.175 S 
ATOM     30  C   UNL A   1      32.619  15.843  25.513  1.00  0.00     0.163 C 
ATOM     31  O   UNL A   1      33.474  15.973  23.059  1.00  0.00    -0.224 OA
ATOM     32  O   UNL A   1      35.141  15.607  24.927  1.00  0.00    -0.224 OA
ENDBRANCH  28  29
ENDBRANCH  21  23
ENDBRANCH  14  15
ENDBRANCH   9  14
ENDBRANCH   5   8
ENDBRANCH   3   4
ENDBRANCH   2   3
ENDBRANCH   1   2
BRANCH   1  33
ATOM     33  C   UNL A   1      34.098  28.652  26.161  1.00  0.00     0.002 C 
BRANCH  33  34
ATOM     34  C   UNL A   1      34.336  29.690  27.255  1.00  0.00     0.021 C 
BRANCH  34  35
ATOM     35  C   UNL A   1      35.657  29.580  28.002  1.00  0.00     0.116 C 
BRANCH  35  36
ATOM     36  N   UNL A   1      35.536  29.778  29.439  1.00  0.00    -0.352 N 
ATOM     37  C   UNL A   1      36.526  29.818  30.398  1.00  0.00     0.251 C 
ATOM     38  H   UNL A   1      34.618  29.900  29.773  1.00  0.00     0.163 HD
ATOM     39  O   UNL A   1      36.232  29.889  31.587  1.00  0.00    -0.269 OA
BRANCH  37  40
ATOM     40  C   UNL A   1      37.946  29.734  29.985  1.00  0.00     0.039 A 
ATOM     41  C   UNL A   1      38.325  30.069  28.686  1.00  0.00     0.014 A 
ATOM     42  C   UNL A   1      38.900  29.259  30.890  1.00  0.00     0.014 A 
ATOM     43  C   UNL A   1      39.594  29.728  28.232  1.00  0.00     0.010 A 
ATOM     44  C   UNL A   1      40.210  29.022  30.459  1.00  0.00     0.010 A 
ATOM     45  C   UNL A   1      40.554  29.191  29.108  1.00  0.00    -0.014 A 
BRANCH  45  46
ATOM     46  C   UNL A   1      41.889  28.815  28.568  1.00  0.00     0.031 A 
ATOM     47  C   UNL A   1      43.036  29.795  28.564  1.00  0.00     0.074 A 
ATOM     48  C   UNL A   1      42.091  27.549  28.149  1.00  0.00     0.049 A 
ATOM     49  N   UNL A   1      44.285  29.595  28.224  1.00  0.00    -0.248 NA
ATOM     50  C   UNL A   1      42.749  31.174  28.987  1.00  0.00     0.031 C 
ATOM     51  C   UNL A   1      41.058  26.513  28.091  1.00  0.00     0.029 A 
ATOM     52  N   UNL A   1      43.228  26.906  27.728  1.00  0.00    -0.354 N 
ATOM     53  C   UNL A   1      44.924  30.822  28.370  1.00  0.00     0.074 A 
ATOM     54  C   UNL A   1      43.918  31.769  28.797  1.00  0.00     0.031 C 
ATOM     55  C   UNL A   1      41.620  25.350  27.730  1.00  0.00     0.029 A 
ATOM     56  C   UNL A   1      43.037  25.570  27.461  1.00  0.00     0.049 A 
ATOM     57  H   UNL A   1      44.098  27.357  27.628  1.00  0.00     0.167 HD
ATOM     58  C   UNL A   1      46.231  31.127  28.183  1.00  0.00     0.037 A 
ATOM     59  C   UNL A   1      43.896  24.623  27.036  1.00  0.00     0.037 A 
ATOM     60  C   UNL A   1      47.231  30.172  27.782  1.00  0.00     0.049 A 
ATOM     61  C   UNL A   1      45.335  24.986  26.810  1.00  0.00     0.074 A 
ATOM     62  C   UNL A   1      48.591  30.372  27.619  1.00  0.00     0.029 A 
ATOM     63  N   UNL A   1      46.984  28.842  27.468  1.00  0.00    -0.354 N 
ATOM     64  N   UNL A   1      45.929  26.138  27.008  1.00  0.00    -0.248 NA
ATOM     65  C   UNL A   1      46.220  23.932  26.299  1.00  0.00     0.031 C 
ATOM     66  C   UNL A   1      49.154  29.183  27.146  1.00  0.00     0.029 A 
ATOM     67  C   UNL A   1      48.159  28.222  27.074  1.00  0.00     0.049 A 
ATOM     68  H   UNL A   1      46.103  28.405  27.519  1.00  0.00     0.167 HD
ATOM     69  C   UNL A   1      47.258  25.948  26.652  1.00  0.00     0.074 A 
ATOM     70  C   UNL A   1      47.386  24.565  26.242  1.00  0.00     0.031 C 
ATOM     71  C   UNL A   1      48.276  26.843  26.665  1.00  0.00     0.037 A 
BRANCH  58  72
ATOM     72  C   UNL A   1      46.660  32.557  28.388  1.00  0.00     0.058 A 
ATOM     73  C   UNL A   1      46.626  33.500  27.348  1.00  0.00     0.135 A 
ATOM     74  C   UNL A   1      47.067  33.001  29.657  1.00  0.00     0.135 A 
ATOM     75  F   UNL A   1      46.252  33.131  26.112  1.00  0.00    -0.206 F 
ATOM     76  C   UNL A   1      47.014  34.821  27.551  1.00  0.00     0.059 A 
ATOM     77  C   UNL A   1      47.430  34.325  29.889  1.00  0.00     0.059 A 
ATOM     78  F   UNL A   1      47.112  32.145  30.690  1.00  0.00    -0.206 F 
ATOM     79  C   UNL A   1      47.417  35.224  28.825  1.00  0.00     0.060 A 
BRANCH  79  80
ATOM     80  S   UNL A   1      47.931  36.937  29.063  1.00  0.00     0.124 S 
ATOM     81  O   UNL A   1      46.943  37.406  30.031  1.00  0.00    -0.237 OA
ATOM     82  O   UNL A   1      49.291  36.785  29.572  1.00  0.00    -0.237 OA
ATOM     83  O   UNL A   1      47.824  37.516  27.728  1.00  0.00    -0.744 OA
ENDBRANCH  79  80
ENDBRANCH  58  72
BRANCH  59  84
ATOM     84  C   UNL A   1      43.390  23.244  26.808  1.00  0.00     0.058 A 
ATOM     85  C   UNL A   1      43.263  22.721  25.513  1.00  0.00     0.135 A 
ATOM     86  C   UNL A   1      43.124  22.386  27.889  1.00  0.00     0.135 A 
ATOM     87  F   UNL A   1      43.499  23.503  24.449  1.00  0.00    -0.206 F 
ATOM     88  C   UNL A   1      42.910  21.393  25.297  1.00  0.00     0.059 A 
ATOM     89  C   UNL A   1      42.796  21.049  27.699  1.00  0.00     0.059 A 
ATOM     90  F   UNL A   1      43.248  22.834  29.149  1.00  0.00    -0.206 F 
ATOM     91  C   UNL A   1      42.696  20.560  26.398  1.00  0.00     0.060 A 
BRANCH  91  92
ATOM     92  S   UNL A   1      42.350  18.812  26.103  1.00  0.00     0.124 S 
ATOM     93  O   UNL A   1      40.944  18.850  25.720  1.00  0.00    -0.237 OA
ATOM     94  O   UNL A   1      43.294  18.493  25.036  1.00  0.00    -0.237 OA
ATOM     95  O   UNL A   1      42.637  18.189  27.391  1.00  0.00    -0.744 OA
ENDBRANCH  91  92
ENDBRANCH  59  84
BRANCH  71  96
ATOM     96  C   UNL A   1      49.636  26.376  26.223  1.00  0.00     0.058 A 
ATOM     97  C   UNL A   1      50.091  26.589  24.913  1.00  0.00     0.135 A 
ATOM     98  C   UNL A   1      50.538  25.837  27.154  1.00  0.00     0.135 A 
ATOM     99  F   UNL A   1      49.265  27.091  23.983  1.00  0.00    -0.206 F 
ATOM    100  C   UNL A   1      51.401  26.297  24.546  1.00  0.00     0.059 A 
ATOM    101  C   UNL A   1      51.859  25.560  26.815  1.00  0.00     0.059 A 
ATOM    102  F   UNL A   1      50.152  25.618  28.421  1.00  0.00    -0.206 F 
ATOM    103  C   UNL A   1      52.282  25.799  25.508  1.00  0.00     0.060 A 
BRANCH 103 104
ATOM    104  S   UNL A   1      54.002  25.520  25.037  1.00  0.00     0.124 S 
ATOM    105  O   UNL A   1      54.029  26.055  23.680  1.00  0.00    -0.237 OA
ATOM    106  O   UNL A   1      54.727  26.295  26.040  1.00  0.00    -0.237 OA
ATOM    107  O   UNL A   1      54.156  24.071  25.141  1.00  0.00    -0.744 OA
ENDBRANCH 103 104
ENDBRANCH  71  96
ENDBRANCH  45  46
ENDBRANCH  37  40
ENDBRANCH  35  36
ENDBRANCH  34  35
ENDBRANCH  33  34
ENDBRANCH   1  33
TORSDOF 20
ENDMDL
MODEL 2
REMARK VINA RESULT:     -12.6      3.211      9.436
REMARK SMILES Cc1cc(=O)c(Oc2ccc(C(=O)NCCCCCCNC(=O)c3ccc(-c4c5nc(c(-c6c(F)cc(S(=O)(=O)[O-])cc6F)c6ccc([nH]6)c(-c6c(F)cc(S(=O)(=O)[O-])cc6F)c6nc(c(-c7c(F)cc(S(=O)(=O)[O-])cc7F)c7ccc4[nH]7)C=C6)C=C5)cc3)cc2)c(-c2ccc(S(C)(=O)=O)cc2)o1
REMARK SMILES IDX 17 1 16 2 15 3 14 4 12 5 13 6 11 8 8 9 9 10 91 11 10 12
REMARK SMILES IDX 90 13 7 14 6 15 1 16 2 17 3 18 103 19 4 20 92 21 5 22 93 23
REMARK SMILES IDX 94 24 102 25 95 26 101 27 96 28 97 29 98 30 99 31 100 32
REMARK SMILES IDX 18 33 19 34 20 35 21 36 22 37 23 39 24 40 25 41 89 42 26 43
REMARK SMILES IDX 88 44 27 45 28 46 29 47 82 48 30 49 87 50 81 51 83 52 31 53
REMARK SMILES IDX 86 54 80 55 79 56 32 58 66 59 45 60 65 61 46 62 49 63 64 64
REMARK SMILES IDX 84 65 47 66 48 67 63 69 85 70 50 71 33 72 34 73 43 74 35 75
REMARK SMILES IDX 36 76 42 77 44 78 37 79 38 80 39 81 40 82 41 83 67 84 68 85
REMARK SMILES IDX 77 86 69 87 70 88 76 89 78 90 71 91 72 92 73 93 74 94 75 95
REMARK SMILES IDX 51 96 52 97 61 98 53 99 54 100 60 101 62 102 55 103 56 104
REMARK SMILES IDX 57 105 58 106 59 107
REMARK H PARENT 14 7 21 38 83 57 49 68
REMARK Flexibility Score: inf
ROOT
ATOM      1  C   UNL A   1      39.366  23.925  27.312  1.00  0.00     0.002 C 
ENDROOT
BRANCH   1   2
ATOM      2  C   UNL A   1      38.544  24.003  26.026  1.00  0.00     0.021 C 
BRANCH   2   3
ATOM      3  C   UNL A   1      37.024  24.009  26.158  1.00  0.00     0.116 C 
BRANCH   3   4
ATOM      4  N   UNL A   1      36.404  22.718  26.380  1.00  0.00    -0.352 N 
ATOM      5  C   UNL A   1      35.095  22.312  26.237  1.00  0.00     0.251 C 
ATOM      6  O   UNL A   1      34.820  21.122  26.377  1.00  0.00    -0.269 OA
ATOM      7  H   UNL A   1      37.021  22.012  26.681  1.00  0.00     0.163 HD
BRANCH   5   8
ATOM      8  C   UNL A   1      33.987  23.290  26.044  1.00  0.00     0.040 A 
ATOM      9  C   UNL A   1      32.104  25.326  26.281  1.00  0.00     0.127 A 
ATOM     10  C   UNL A   1      31.842  24.090  26.858  1.00  0.00     0.048 A 
ATOM     11  C   UNL A   1      33.170  25.465  25.394  1.00  0.00     0.048 A 
ATOM     12  C   UNL A   1      32.807  23.082  26.774  1.00  0.00     0.017 A 
ATOM     13  C   UNL A   1      34.093  24.429  25.247  1.00  0.00     0.017 A 
BRANCH   9  14
ATOM     14  O   UNL A   1      31.317  26.421  26.470  1.00  0.00    -0.449 OA
BRANCH  14  15
ATOM     15  C   UNL A   1      31.010  27.342  25.476  1.00  0.00     0.217 A 
ATOM     16  C   UNL A   1      29.496  29.883  22.322  1.00  0.00     0.088 C 
ATOM     17  C   UNL A   1      30.003  28.908  23.336  1.00  0.00     0.105 A 
ATOM     18  C   UNL A   1      29.568  27.649  23.392  1.00  0.00     0.098 A 
ATOM     19  O   UNL A   1      30.939  29.410  24.215  1.00  0.00    -0.457 OA
ATOM     20  C   UNL A   1      30.076  26.769  24.452  1.00  0.00     0.228 A 
ATOM     21  C   UNL A   1      31.422  28.621  25.258  1.00  0.00     0.180 A 
ATOM     22  O   UNL A   1      29.709  25.598  24.478  1.00  0.00    -0.285 OA
BRANCH  21  23
ATOM     23  C   UNL A   1      32.381  29.408  26.060  1.00  0.00     0.021 A 
ATOM     24  C   UNL A   1      33.657  28.877  26.325  1.00  0.00     0.013 A 
ATOM     25  C   UNL A   1      32.050  30.670  26.573  1.00  0.00     0.013 A 
ATOM     26  C   UNL A   1      34.615  29.629  27.010  1.00  0.00     0.021 A 
ATOM     27  C   UNL A   1      33.002  31.424  27.270  1.00  0.00     0.021 A 
ATOM     28  C   UNL A   1      34.284  30.905  27.471  1.00  0.00     0.067 A 
BRANCH  28  29
ATOM     29  S   UNL A   1      35.551  31.902  28.224  1.00  0.00     0.175 S 
ATOM     30  C   UNL A   1      34.967  32.146  29.877  1.00  0.00     0.163 C 
ATOM     31  O   UNL A   1      36.750  31.093  28.302  1.00  0.00    -0.224 OA
ATOM     32  O   UNL A   1      35.553  33.199  27.574  1.00  0.00    -0.224 OA
ENDBRANCH  28  29
ENDBRANCH  21  23
ENDBRANCH  14  15
ENDBRANCH   9  14
ENDBRANCH   5   8
ENDBRANCH   3   4
ENDBRANCH   2   3
ENDBRANCH   1   2
BRANCH   1  33
ATOM     33  C   UNL A   1      40.488  22.887  27.357  1.00  0.00     0.002 C 
BRANCH  33  34
ATOM     34  C   UNL A   1      40.126  21.472  26.914  1.00  0.00     0.021 C 
BRANCH  34  35
ATOM     35  C   UNL A   1      40.996  20.356  27.472  1.00  0.00     0.116 C 
BRANCH  35  36
ATOM     36  N   UNL A   1      41.632  19.540  26.448  1.00  0.00    -0.352 N 
ATOM     37  C   UNL A   1      42.677  19.858  25.606  1.00  0.00     0.251 C 
ATOM     38  H   UNL A   1      41.263  18.633  26.340  1.00  0.00     0.163 HD
ATOM     39  O   UNL A   1      43.018  19.078  24.722  1.00  0.00    -0.269 OA
BRANCH  37  40
ATOM     40  C   UNL A   1      43.357  21.166  25.749  1.00  0.00     0.039 A 
ATOM     41  C   UNL A   1      44.277  21.375  26.776  1.00  0.00     0.014 A 
ATOM     42  C   UNL A   1      43.029  22.213  24.883  1.00  0.00     0.014 A 
ATOM     43  C   UNL A   1      44.697  22.667  27.068  1.00  0.00     0.010 A 
ATOM     44  C   UNL A   1      43.544  23.494  25.113  1.00  0.00     0.010 A 
ATOM     45  C   UNL A   1      44.331  23.748  26.248  1.00  0.00    -0.014 A 
BRANCH  45  46
ATOM     46  C   UNL A   1      44.781  25.118  26.620  1.00  0.00     0.031 A 
ATOM     47  C   UNL A   1      43.947  25.999  27.514  1.00  0.00     0.074 A 
ATOM     48  C   UNL A   1      45.995  25.540  26.209  1.00  0.00     0.049 A 
ATOM     49  N   UNL A   1      44.240  27.174  28.014  1.00  0.00    -0.248 NA
ATOM     50  C   UNL A   1      42.613  25.509  27.894  1.00  0.00     0.031 C 
ATOM     51  C   UNL A   1      46.889  24.785  25.330  1.00  0.00     0.029 A 
ATOM     52  N   UNL A   1      46.701  26.681  26.499  1.00  0.00    -0.354 N 
ATOM     53  C   UNL A   1      43.125  27.571  28.745  1.00  0.00     0.074 A 
ATOM     54  C   UNL A   1      42.135  26.527  28.596  1.00  0.00     0.031 C 
ATOM     55  C   UNL A   1      48.049  25.446  25.210  1.00  0.00     0.029 A 
ATOM     56  C   UNL A   1      47.958  26.704  25.942  1.00  0.00     0.049 A 
ATOM     57  H   UNL A   1      46.342  27.411  27.054  1.00  0.00     0.167 HD
ATOM     58  C   UNL A   1      42.948  28.693  29.484  1.00  0.00     0.037 A 
ATOM     59  C   UNL A   1      48.931  27.634  25.999  1.00  0.00     0.037 A 
ATOM     60  C   UNL A   1      43.949  29.715  29.647  1.00  0.00     0.049 A 
ATOM     61  C   UNL A   1      48.708  28.882  26.804  1.00  0.00     0.074 A 
ATOM     62  C   UNL A   1      43.885  30.862  30.420  1.00  0.00     0.029 A 
ATOM     63  N   UNL A   1      45.188  29.726  29.021  1.00  0.00    -0.354 N 
ATOM     64  N   UNL A   1      47.668  29.211  27.532  1.00  0.00    -0.248 NA
ATOM     65  C   UNL A   1      49.778  29.887  26.793  1.00  0.00     0.031 C 
ATOM     66  C   UNL A   1      45.056  31.595  30.211  1.00  0.00     0.029 A 
ATOM     67  C   UNL A   1      45.879  30.878  29.358  1.00  0.00     0.049 A 
ATOM     68  H   UNL A   1      45.525  29.018  28.424  1.00  0.00     0.167 HD
ATOM     69  C   UNL A   1      47.959  30.457  28.071  1.00  0.00     0.074 A 
ATOM     70  C   UNL A   1      49.281  30.818  27.600  1.00  0.00     0.031 C 
ATOM     71  C   UNL A   1      47.196  31.230  28.882  1.00  0.00     0.037 A 
BRANCH  58  72
ATOM     72  C   UNL A   1      41.617  28.891  30.161  1.00  0.00     0.058 A 
ATOM     73  C   UNL A   1      40.507  29.418  29.481  1.00  0.00     0.135 A 
ATOM     74  C   UNL A   1      41.436  28.504  31.500  1.00  0.00     0.135 A 
ATOM     75  F   UNL A   1      40.622  29.813  28.202  1.00  0.00    -0.206 F 
ATOM     76  C   UNL A   1      39.279  29.587  30.113  1.00  0.00     0.059 A 
ATOM     77  C   UNL A   1      40.208  28.636  32.142  1.00  0.00     0.059 A 
ATOM     78  F   UNL A   1      42.460  27.987  32.197  1.00  0.00    -0.206 F 
ATOM     79  C   UNL A   1      39.139  29.194  31.445  1.00  0.00     0.060 A 
BRANCH  79  80
ATOM     80  S   UNL A   1      37.543  29.437  32.251  1.00  0.00     0.124 S 
ATOM     81  O   UNL A   1      37.537  28.343  33.219  1.00  0.00    -0.237 OA
ATOM     82  O   UNL A   1      37.679  30.777  32.812  1.00  0.00    -0.237 OA
ATOM     83  O   UNL A   1      36.584  29.311  31.157  1.00  0.00    -0.744 OA
ENDBRANCH  79  80
ENDBRANCH  58  72
BRANCH  59  84
ATOM     84  C   UNL A   1      50.202  27.392  25.265  1.00  0.00     0.058 A 
ATOM     85  C   UNL A   1      50.301  27.629  23.887  1.00  0.00     0.135 A 
ATOM     86  C   UNL A   1      51.370  27.018  25.950  1.00  0.00     0.135 A 
ATOM     87  F   UNL A   1      49.211  27.981  23.187  1.00  0.00    -0.206 F 
ATOM     88  C   UNL A   1      51.515  27.524  23.217  1.00  0.00     0.059 A 
ATOM     89  C   UNL A   1      52.600  26.933  25.308  1.00  0.00     0.059 A 
ATOM     90  F   UNL A   1      51.331  26.796  27.274  1.00  0.00    -0.206 F 
ATOM     91  C   UNL A   1      52.663  27.193  23.941  1.00  0.00     0.060 A 
BRANCH  91  92
ATOM     92  S   UNL A   1      54.250  27.171  23.080  1.00  0.00     0.124 S 
ATOM     93  O   UNL A   1      54.545  28.595  22.969  1.00  0.00    -0.237 OA
ATOM     94  O   UNL A   1      55.088  26.416  24.008  1.00  0.00    -0.237 OA
ATOM     95  O   UNL A   1      53.945  26.490  21.826  1.00  0.00    -0.744 OA
ENDBRANCH  91  92
ENDBRANCH  59  84
BRANCH  71  96
ATOM     96  C   UNL A   1      47.752  32.554  29.328  1.00  0.00     0.058 A 
ATOM     97  C   UNL A   1      48.527  32.665  30.492  1.00  0.00     0.135 A 
ATOM     98  C   UNL A   1      47.623  33.689  28.512  1.00  0.00     0.135 A 
ATOM     99  F   UNL A   1      48.672  31.613  31.312  1.00  0.00    -0.206 F 
ATOM    100  C   UNL A   1      49.169  33.854  30.824  1.00  0.00     0.059 A 
ATOM    101  C   UNL A   1      48.275  34.882  28.812  1.00  0.00     0.059 A 
ATOM    102  F   UNL A   1      46.896  33.633  27.385  1.00  0.00    -0.206 F 
ATOM    103  C   UNL A   1      49.051  34.952  29.969  1.00  0.00     0.060 A 
BRANCH 103 104
ATOM    104  S   UNL A   1      49.970  36.454  30.365  1.00  0.00     0.124 S 
ATOM    105  O   UNL A   1      49.402  37.407  29.418  1.00  0.00    -0.237 OA
ATOM    106  O   UNL A   1      49.622  36.669  31.766  1.00  0.00    -0.237 OA
ATOM    107  O   UNL A   1      51.360  36.080  30.119  1.00  0.00    -0.744 OA
ENDBRANCH 103 104
ENDBRANCH  71  96
ENDBRANCH  45  46
ENDBRANCH  37  40
ENDBRANCH  35  36
ENDBRANCH  34  35
ENDBRANCH  33  34
ENDBRANCH   1  33
TORSDOF 20
ENDMDL
MODEL 3
REMARK VINA RESULT:     -12.6      6.165      8.595
REMARK SMILES Cc1cc(=O)c(Oc2ccc(C(=O)NCCCCCCNC(=O)c3ccc(-c4c5nc(c(-c6c(F)cc(S(=O)(=O)[O-])cc6F)c6ccc([nH]6)c(-c6c(F)cc(S(=O)(=O)[O-])cc6F)c6nc(c(-c7c(F)cc(S(=O)(=O)[O-])cc7F)c7ccc4[nH]7)C=C6)C=C5)cc3)cc2)c(-c2ccc(S(C)(=O)=O)cc2)o1
REMARK SMILES IDX 17 1 16 2 15 3 14 4 12 5 13 6 11 8 8 9 9 10 91 11 10 12
REMARK SMILES IDX 90 13 7 14 6 15 1 16 2 17 3 18 103 19 4 20 92 21 5 22 93 23
REMARK SMILES IDX 94 24 102 25 95 26 101 27 96 28 97 29 98 30 99 31 100 32
REMARK SMILES IDX 18 33 19 34 20 35 21 36 22 37 23 39 24 40 25 41 89 42 26 43
REMARK SMILES IDX 88 44 27 45 28 46 29 47 82 48 30 49 87 50 81 51 83 52 31 53
REMARK SMILES IDX 86 54 80 55 79 56 32 58 66 59 45 60 65 61 46 62 49 63 64 64
REMARK SMILES IDX 84 65 47 66 48 67 63 69 85 70 50 71 33 72 34 73 43 74 35 75
REMARK SMILES IDX 36 76 42 77 44 78 37 79 38 80 39 81 40 82 41 83 67 84 68 85
REMARK SMILES IDX 77 86 69 87 70 88 76 89 78 90 71 91 72 92 73 93 74 94 75 95
REMARK SMILES IDX 51 96 52 97 61 98 53 99 54 100 60 101 62 102 55 103 56 104
REMARK SMILES IDX 57 105 58 106 59 107
REMARK H PARENT 14 7 21 38 83 57 49 68
REMARK Flexibility Score: inf
ROOT
ATOM      1  C   UNL A   1      33.567  28.671  27.511  1.00  0.00     0.002 C 
ENDROOT
BRANCH   1   2
ATOM      2  C   UNL A   1      32.059  28.606  27.270  1.00  0.00     0.021 C 
BRANCH   2   3
ATOM      3  C   UNL A   1      31.504  27.352  26.600  1.00  0.00     0.116 C 
BRANCH   3   4
ATOM      4  N   UNL A   1      30.624  27.576  25.471  1.00  0.00    -0.352 N 
ATOM      5  C   UNL A   1      29.931  26.685  24.681  1.00  0.00     0.251 C 
ATOM      6  O   UNL A   1      29.148  27.119  23.838  1.00  0.00    -0.269 OA
ATOM      7  H   UNL A   1      30.501  28.522  25.228  1.00  0.00     0.163 HD
BRANCH   5   8
ATOM      8  C   UNL A   1      30.195  25.220  24.732  1.00  0.00     0.040 A 
ATOM      9  C   UNL A   1      31.295  22.664  24.639  1.00  0.00     0.127 A 
ATOM     10  C   UNL A   1      30.818  23.240  23.468  1.00  0.00     0.048 A 
ATOM     11  C   UNL A   1      31.003  23.251  25.869  1.00  0.00     0.048 A 
ATOM     12  C   UNL A   1      30.305  24.539  23.510  1.00  0.00     0.017 A 
ATOM     13  C   UNL A   1      30.417  24.516  25.916  1.00  0.00     0.017 A 
BRANCH   9  14
ATOM     14  O   UNL A   1      31.982  21.489  24.668  1.00  0.00    -0.449 OA
BRANCH  14  15
ATOM     15  C   UNL A   1      33.367  21.395  24.715  1.00  0.00     0.217 A 
ATOM     16  C   UNL A   1      37.591  20.469  24.767  1.00  0.00     0.088 C 
ATOM     17  C   UNL A   1      36.116  20.707  24.839  1.00  0.00     0.105 A 
ATOM     18  C   UNL A   1      35.258  19.750  25.199  1.00  0.00     0.098 A 
ATOM     19  O   UNL A   1      35.710  21.978  24.496  1.00  0.00    -0.457 OA
ATOM     20  C   UNL A   1      33.821  20.049  25.193  1.00  0.00     0.228 A 
ATOM     21  C   UNL A   1      34.353  22.295  24.444  1.00  0.00     0.180 A 
ATOM     22  O   UNL A   1      33.034  19.182  25.565  1.00  0.00    -0.285 OA
BRANCH  21  23
ATOM     23  C   UNL A   1      34.197  23.702  24.022  1.00  0.00     0.021 A 
ATOM     24  C   UNL A   1      34.011  23.996  22.659  1.00  0.00     0.013 A 
ATOM     25  C   UNL A   1      34.238  24.756  24.946  1.00  0.00     0.013 A 
ATOM     26  C   UNL A   1      33.779  25.308  22.237  1.00  0.00     0.021 A 
ATOM     27  C   UNL A   1      34.018  26.074  24.528  1.00  0.00     0.021 A 
ATOM     28  C   UNL A   1      33.775  26.341  23.178  1.00  0.00     0.067 A 
BRANCH  28  29
ATOM     29  S   UNL A   1      33.349  27.985  22.648  1.00  0.00     0.175 S 
ATOM     30  C   UNL A   1      33.738  28.993  24.050  1.00  0.00     0.163 C 
ATOM     31  O   UNL A   1      34.264  28.348  21.585  1.00  0.00    -0.224 OA
ATOM     32  O   UNL A   1      31.911  28.043  22.462  1.00  0.00    -0.224 OA
ENDBRANCH  28  29
ENDBRANCH  21  23
ENDBRANCH  14  15
ENDBRANCH   9  14
ENDBRANCH   5   8
ENDBRANCH   3   4
ENDBRANCH   2   3
ENDBRANCH   1   2
BRANCH   1  33
ATOM     33  C   UNL A   1      34.196  30.062  27.604  1.00  0.00     0.002 C 
BRANCH  33  34
ATOM     34  C   UNL A   1      33.232  31.245  27.631  1.00  0.00     0.021 C 
BRANCH  34  35
ATOM     35  C   UNL A   1      33.788  32.569  27.128  1.00  0.00     0.116 C 
BRANCH  35  36
ATOM     36  N   UNL A   1      33.069  33.733  27.624  1.00  0.00    -0.352 N 
ATOM     37  C   UNL A   1      33.295  34.476  28.764  1.00  0.00     0.251 C 
ATOM     38  H   UNL A   1      32.314  34.033  27.067  1.00  0.00     0.163 HD
ATOM     39  O   UNL A   1      32.517  35.369  29.085  1.00  0.00    -0.269 OA
BRANCH  37  40
ATOM     40  C   UNL A   1      34.461  34.160  29.622  1.00  0.00     0.039 A 
ATOM     41  C   UNL A   1      35.745  34.545  29.238  1.00  0.00     0.014 A 
ATOM     42  C   UNL A   1      34.275  33.420  30.793  1.00  0.00     0.014 A 
ATOM     43  C   UNL A   1      36.846  34.012  29.897  1.00  0.00     0.010 A 
ATOM     44  C   UNL A   1      35.386  32.978  31.520  1.00  0.00     0.010 A 
ATOM     45  C   UNL A   1      36.685  33.213  31.043  1.00  0.00    -0.014 A 
BRANCH  45  46
ATOM     46  C   UNL A   1      37.895  32.641  31.696  1.00  0.00     0.031 A 
ATOM     47  C   UNL A   1      38.338  33.103  33.062  1.00  0.00     0.074 A 
ATOM     48  C   UNL A   1      38.555  31.638  31.084  1.00  0.00     0.049 A 
ATOM     49  N   UNL A   1      39.306  32.638  33.812  1.00  0.00    -0.248 NA
ATOM     50  C   UNL A   1      37.611  34.232  33.664  1.00  0.00     0.031 C 
ATOM     51  C   UNL A   1      38.232  31.112  29.756  1.00  0.00     0.029 A 
ATOM     52  N   UNL A   1      39.604  30.858  31.502  1.00  0.00    -0.354 N 
ATOM     53  C   UNL A   1      39.318  33.427  34.957  1.00  0.00     0.074 A 
ATOM     54  C   UNL A   1      38.283  34.423  34.790  1.00  0.00     0.031 C 
ATOM     55  C   UNL A   1      39.015  30.055  29.499  1.00  0.00     0.029 A 
ATOM     56  C   UNL A   1      39.944  29.869  30.608  1.00  0.00     0.049 A 
ATOM     57  H   UNL A   1      40.068  30.992  32.360  1.00  0.00     0.167 HD
ATOM     58  C   UNL A   1      40.107  33.321  36.054  1.00  0.00     0.037 A 
ATOM     59  C   UNL A   1      40.901  28.922  30.661  1.00  0.00     0.037 A 
ATOM     60  C   UNL A   1      41.118  32.310  36.223  1.00  0.00     0.049 A 
ATOM     61  C   UNL A   1      41.781  28.835  31.874  1.00  0.00     0.074 A 
ATOM     62  C   UNL A   1      41.932  32.086  37.321  1.00  0.00     0.029 A 
ATOM     63  N   UNL A   1      41.467  31.363  35.270  1.00  0.00    -0.354 N 
ATOM     64  N   UNL A   1      41.739  29.556  32.969  1.00  0.00    -0.248 NA
ATOM     65  C   UNL A   1      42.841  27.819  31.862  1.00  0.00     0.031 C 
ATOM     66  C   UNL A   1      42.813  31.048  37.007  1.00  0.00     0.029 A 
ATOM     67  C   UNL A   1      42.510  30.580  35.739  1.00  0.00     0.049 A 
ATOM     68  H   UNL A   1      41.036  31.263  34.390  1.00  0.00     0.167 HD
ATOM     69  C   UNL A   1      42.761  29.078  33.779  1.00  0.00     0.074 A 
ATOM     70  C   UNL A   1      43.395  27.995  33.056  1.00  0.00     0.031 C 
ATOM     71  C   UNL A   1      43.136  29.503  35.010  1.00  0.00     0.037 A 
BRANCH  58  72
ATOM     72  C   UNL A   1      39.928  34.334  37.155  1.00  0.00     0.058 A 
ATOM     73  C   UNL A   1      40.625  35.554  37.164  1.00  0.00     0.135 A 
ATOM     74  C   UNL A   1      39.010  34.101  38.193  1.00  0.00     0.135 A 
ATOM     75  F   UNL A   1      41.521  35.829  36.202  1.00  0.00    -0.206 F 
ATOM     76  C   UNL A   1      40.444  36.488  38.180  1.00  0.00     0.059 A 
ATOM     77  C   UNL A   1      38.791  35.034  39.202  1.00  0.00     0.059 A 
ATOM     78  F   UNL A   1      38.311  32.956  38.231  1.00  0.00    -0.206 F 
ATOM     79  C   UNL A   1      39.526  36.218  39.196  1.00  0.00     0.060 A 
BRANCH  79  80
ATOM     80  S   UNL A   1      39.318  37.435  40.513  1.00  0.00     0.124 S 
ATOM     81  O   UNL A   1      38.963  36.581  41.644  1.00  0.00    -0.237 OA
ATOM     82  O   UNL A   1      40.639  38.052  40.576  1.00  0.00    -0.237 OA
ATOM     83  O   UNL A   1      38.248  38.296  40.018  1.00  0.00    -0.744 OA
ENDBRANCH  79  80
ENDBRANCH  58  72
BRANCH  59  84
ATOM     84  C   UNL A   1      41.051  27.986  29.515  1.00  0.00     0.058 A 
ATOM     85  C   UNL A   1      42.107  28.118  28.604  1.00  0.00     0.135 A 
ATOM     86  C   UNL A   1      40.197  26.879  29.372  1.00  0.00     0.135 A 
ATOM     87  F   UNL A   1      42.945  29.163  28.694  1.00  0.00    -0.206 F 
ATOM     88  C   UNL A   1      42.326  27.176  27.603  1.00  0.00     0.059 A 
ATOM     89  C   UNL A   1      40.411  25.910  28.399  1.00  0.00     0.059 A 
ATOM     90  F   UNL A   1      39.180  26.699  30.230  1.00  0.00    -0.206 F 
ATOM     91  C   UNL A   1      41.482  26.066  27.521  1.00  0.00     0.060 A 
BRANCH  91  92
ATOM     92  S   UNL A   1      41.846  24.795  26.291  1.00  0.00     0.124 S 
ATOM     93  O   UNL A   1      41.895  25.578  25.062  1.00  0.00    -0.237 OA
ATOM     94  O   UNL A   1      43.124  24.271  26.766  1.00  0.00    -0.237 OA
ATOM     95  O   UNL A   1      40.718  23.877  26.410  1.00  0.00    -0.744 OA
ENDBRANCH  91  92
ENDBRANCH  59  84
BRANCH  71  96
ATOM     96  C   UNL A   1      44.290  28.808  35.679  1.00  0.00     0.058 A 
ATOM     97  C   UNL A   1      45.606  29.273  35.533  1.00  0.00     0.135 A 
ATOM     98  C   UNL A   1      44.060  27.756  36.580  1.00  0.00     0.135 A 
ATOM     99  F   UNL A   1      45.881  30.268  34.676  1.00  0.00    -0.206 F 
ATOM    100  C   UNL A   1      46.653  28.727  36.270  1.00  0.00     0.059 A 
ATOM    101  C   UNL A   1      45.087  27.212  37.345  1.00  0.00     0.059 A 
ATOM    102  F   UNL A   1      42.818  27.279  36.758  1.00  0.00    -0.206 F 
ATOM    103  C   UNL A   1      46.381  27.709  37.186  1.00  0.00     0.060 A 
BRANCH 103 104
ATOM    104  S   UNL A   1      47.733  27.082  38.203  1.00  0.00     0.124 S 
ATOM    105  O   UNL A   1      48.767  26.837  37.204  1.00  0.00    -0.237 OA
ATOM    106  O   UNL A   1      47.980  28.198  39.111  1.00  0.00    -0.237 OA
ATOM    107  O   UNL A   1      47.169  25.887  38.825  1.00  0.00    -0.744 OA
ENDBRANCH 103 104
ENDBRANCH  71  96
ENDBRANCH  45  46
ENDBRANCH  37  40
ENDBRANCH  35  36
ENDBRANCH  34  35
ENDBRANCH  33  34
ENDBRANCH   1  33
TORSDOF 20
ENDMDL
