MODEL 1
REMARK VINA RESULT:     -11.4      0.000      0.000
REMARK SMILES O=C(C[NH+]1CC[NH+](Cc2cc(Cl)ccc2[N+](=O)[O-])CC1)NCCCCCCNC(=O)c1ccc(-c2c3nc(c(-c4c(F)cc(S(=O)(=O)[O-])cc4F)c4ccc([nH]4)c(-c4c(F)cc(S(=O)(=O)[O-])cc4F)c4nc(c(-c5c(F)cc(S(=O)(=O)[O-])cc5F)c5ccc2[nH]5)C=C4)C=C3)cc1
REMARK SMILES IDX 24 1 23 2 22 3 21 4 1 5 2 6 3 8 4 9 5 10 20 11 6 13 19 14
REMARK SMILES IDX 7 15 8 17 9 18 10 19 15 20 11 21 14 22 12 23 13 24 16 25
REMARK SMILES IDX 17 26 18 27 25 28 26 29 27 30 28 31 29 32 30 34 31 35 32 36
REMARK SMILES IDX 96 37 33 38 95 39 34 40 35 41 36 42 89 43 37 44 94 45 88 46
REMARK SMILES IDX 90 47 38 48 93 49 87 50 86 51 39 53 73 54 52 55 72 56 53 57
REMARK SMILES IDX 56 58 71 59 91 60 54 61 55 62 70 64 92 65 57 66 40 67 41 68
REMARK SMILES IDX 50 69 42 70 43 71 49 72 51 73 44 74 45 75 46 76 47 77 48 78
REMARK SMILES IDX 74 79 75 80 84 81 76 82 77 83 83 84 85 85 78 86 79 87 80 88
REMARK SMILES IDX 81 89 82 90 58 91 59 92 68 93 60 94 61 95 67 96 69 97 62 98
REMARK SMILES IDX 63 99 64 100 65 101 66 102
REMARK H PARENT 21 7 4 12 7 16 28 33 90 52 56 63
REMARK Flexibility Score: inf
ROOT
ATOM      1  C   UNL A   1      36.978  23.183  24.726  1.00  0.00     0.002 C 
ENDROOT
BRANCH   1   2
ATOM      2  C   UNL A   1      36.547  21.714  24.639  1.00  0.00     0.021 C 
BRANCH   2   3
ATOM      3  C   UNL A   1      35.450  21.319  25.624  1.00  0.00     0.116 C 
BRANCH   3   4
ATOM      4  N   UNL A   1      34.235  22.066  25.392  1.00  0.00    -0.351 N 
ATOM      5  O   UNL A   1      33.997  22.874  27.533  1.00  0.00    -0.269 OA
ATOM      6  C   UNL A   1      33.609  22.806  26.370  1.00  0.00     0.275 C 
ATOM      7  H   UNL A   1      33.838  22.046  24.491  1.00  0.00     0.163 HD
BRANCH   6   8
ATOM      8  C   UNL A   1      32.321  23.499  25.910  1.00  0.00     0.363 C 
BRANCH   8   9
ATOM      9  N   UNL A   1      32.497  24.960  25.738  1.00  0.00    -0.318 N 
ATOM     10  C   UNL A   1      33.766  25.231  25.033  1.00  0.00     0.325 C 
ATOM     11  C   UNL A   1      31.360  25.592  25.032  1.00  0.00     0.325 C 
ATOM     12  H   UNL A   1      32.526  25.376  26.668  1.00  0.00     0.348 HD
ATOM     13  C   UNL A   1      33.734  25.165  23.484  1.00  0.00     0.324 C 
ATOM     14  C   UNL A   1      31.339  25.465  23.492  1.00  0.00     0.324 C 
ATOM     15  N   UNL A   1      32.597  25.815  22.830  1.00  0.00    -0.322 N 
ATOM     16  H   UNL A   1      32.553  25.406  21.896  1.00  0.00     0.348 HD
BRANCH  15  17
ATOM     17  C   UNL A   1      32.758  27.216  22.414  1.00  0.00     0.306 C 
BRANCH  17  18
ATOM     18  C   UNL A   1      32.465  28.282  23.455  1.00  0.00     0.085 A 
ATOM     19  C   UNL A   1      33.500  28.551  24.380  1.00  0.00     0.037 A 
ATOM     20  C   UNL A   1      31.234  28.951  23.653  1.00  0.00     0.278 A 
ATOM     21  C   UNL A   1      33.274  29.291  25.541  1.00  0.00     0.042 A 
ATOM     22  C   UNL A   1      31.020  29.709  24.827  1.00  0.00     0.088 A 
ATOM     23  Cl  UNL A   1      34.528  29.447  26.706  1.00  0.00    -0.084 Cl
ATOM     24  C   UNL A   1      32.027  29.845  25.784  1.00  0.00     0.027 A 
BRANCH  20  25
ATOM     25  N   UNL A   1      30.120  28.916  22.682  1.00  0.00     0.063 N 
ATOM     26  O   UNL A   1      30.244  29.587  21.648  1.00  0.00    -0.258 OA
ATOM     27  O   UNL A   1      29.148  28.191  22.917  1.00  0.00    -0.258 OA
ENDBRANCH  20  25
ENDBRANCH  17  18
ENDBRANCH  15  17
ENDBRANCH   8   9
ENDBRANCH   6   8
ENDBRANCH   3   4
ENDBRANCH   2   3
ENDBRANCH   1   2
BRANCH   1  28
ATOM     28  C   UNL A   1      37.749  23.571  25.993  1.00  0.00     0.002 C 
BRANCH  28  29
ATOM     29  C   UNL A   1      38.926  22.659  26.350  1.00  0.00     0.021 C 
BRANCH  29  30
ATOM     30  C   UNL A   1      40.074  23.347  27.080  1.00  0.00     0.116 C 
BRANCH  30  31
ATOM     31  N   UNL A   1      41.083  23.858  26.166  1.00  0.00    -0.352 N 
ATOM     32  C   UNL A   1      41.665  25.100  26.127  1.00  0.00     0.251 C 
ATOM     33  H   UNL A   1      41.392  23.224  25.480  1.00  0.00     0.163 HD
ATOM     34  O   UNL A   1      42.367  25.414  25.165  1.00  0.00    -0.269 OA
BRANCH  32  35
ATOM     35  C   UNL A   1      41.435  26.066  27.224  1.00  0.00     0.039 A 
ATOM     36  C   UNL A   1      40.483  25.767  28.203  1.00  0.00     0.014 A 
ATOM     37  C   UNL A   1      42.140  27.272  27.282  1.00  0.00     0.014 A 
ATOM     38  C   UNL A   1      40.271  26.656  29.259  1.00  0.00     0.010 A 
ATOM     39  C   UNL A   1      41.985  28.117  28.377  1.00  0.00     0.010 A 
ATOM     40  C   UNL A   1      41.037  27.828  29.370  1.00  0.00    -0.014 A 
BRANCH  40  41
ATOM     41  C   UNL A   1      40.832  28.782  30.494  1.00  0.00     0.031 A 
ATOM     42  C   UNL A   1      41.670  28.663  31.740  1.00  0.00     0.074 A 
ATOM     43  C   UNL A   1      39.873  29.726  30.411  1.00  0.00     0.049 A 
ATOM     44  N   UNL A   1      41.596  29.345  32.855  1.00  0.00    -0.248 NA
ATOM     45  C   UNL A   1      42.712  27.623  31.746  1.00  0.00     0.031 C 
ATOM     46  C   UNL A   1      38.967  29.918  29.275  1.00  0.00     0.029 A 
ATOM     47  N   UNL A   1      39.491  30.697  31.303  1.00  0.00    -0.354 N 
ATOM     48  C   UNL A   1      42.578  28.820  33.687  1.00  0.00     0.074 A 
ATOM     49  C   UNL A   1      43.186  27.715  32.979  1.00  0.00     0.031 C 
ATOM     50  C   UNL A   1      38.147  30.950  29.534  1.00  0.00     0.029 A 
ATOM     51  C   UNL A   1      38.440  31.471  30.866  1.00  0.00     0.049 A 
ATOM     52  H   UNL A   1      39.929  30.828  32.175  1.00  0.00     0.167 HD
ATOM     53  C   UNL A   1      42.965  29.241  34.915  1.00  0.00     0.037 A 
ATOM     54  C   UNL A   1      37.780  32.477  31.474  1.00  0.00     0.037 A 
ATOM     55  C   UNL A   1      42.371  30.352  35.610  1.00  0.00     0.049 A 
ATOM     56  C   UNL A   1      38.221  32.914  32.847  1.00  0.00     0.074 A 
ATOM     57  C   UNL A   1      42.698  30.866  36.853  1.00  0.00     0.029 A 
ATOM     58  N   UNL A   1      41.334  31.131  35.117  1.00  0.00    -0.354 N 
ATOM     59  N   UNL A   1      39.176  32.427  33.604  1.00  0.00    -0.248 NA
ATOM     60  C   UNL A   1      37.505  34.051  33.445  1.00  0.00     0.031 C 
ATOM     61  C   UNL A   1      41.837  31.933  37.127  1.00  0.00     0.029 A 
ATOM     62  C   UNL A   1      41.012  32.120  36.031  1.00  0.00     0.049 A 
ATOM     63  H   UNL A   1      40.894  31.001  34.247  1.00  0.00     0.167 HD
ATOM     64  C   UNL A   1      39.203  33.225  34.744  1.00  0.00     0.074 A 
ATOM     65  C   UNL A   1      38.176  34.231  34.573  1.00  0.00     0.031 C 
ATOM     66  C   UNL A   1      40.006  33.135  35.833  1.00  0.00     0.037 A 
BRANCH  53  67
ATOM     67  C   UNL A   1      44.106  28.515  35.578  1.00  0.00     0.058 A 
ATOM     68  C   UNL A   1      43.887  27.360  36.346  1.00  0.00     0.135 A 
ATOM     69  C   UNL A   1      45.432  28.937  35.395  1.00  0.00     0.135 A 
ATOM     70  F   UNL A   1      42.637  26.923  36.572  1.00  0.00    -0.206 F 
ATOM     71  C   UNL A   1      44.940  26.659  36.924  1.00  0.00     0.059 A 
ATOM     72  C   UNL A   1      46.504  28.232  35.937  1.00  0.00     0.059 A 
ATOM     73  F   UNL A   1      45.699  30.036  34.672  1.00  0.00    -0.206 F 
ATOM     74  C   UNL A   1      46.246  27.099  36.707  1.00  0.00     0.060 A 
BRANCH  74  75
ATOM     75  S   UNL A   1      47.601  26.153  37.433  1.00  0.00     0.124 S 
ATOM     76  O   UNL A   1      46.878  25.221  38.294  1.00  0.00    -0.237 OA
ATOM     77  O   UNL A   1      48.236  25.567  36.257  1.00  0.00    -0.237 OA
ATOM     78  O   UNL A   1      48.389  27.165  38.128  1.00  0.00    -0.744 OA
ENDBRANCH  74  75
ENDBRANCH  53  67
BRANCH  54  79
ATOM     79  C   UNL A   1      36.636  33.149  30.797  1.00  0.00     0.058 A 
ATOM     80  C   UNL A   1      36.840  34.038  29.731  1.00  0.00     0.135 A 
ATOM     81  C   UNL A   1      35.317  32.942  31.229  1.00  0.00     0.135 A 
ATOM     82  F   UNL A   1      38.083  34.272  29.281  1.00  0.00    -0.206 F 
ATOM     83  C   UNL A   1      35.786  34.735  29.149  1.00  0.00     0.059 A 
ATOM     84  C   UNL A   1      34.242  33.602  30.641  1.00  0.00     0.059 A 
ATOM     85  F   UNL A   1      35.061  32.084  32.228  1.00  0.00    -0.206 F 
ATOM     86  C   UNL A   1      34.489  34.515  29.616  1.00  0.00     0.060 A 
BRANCH  86  87
ATOM     87  S   UNL A   1      33.127  35.429  28.860  1.00  0.00     0.124 S 
ATOM     88  O   UNL A   1      32.462  34.381  28.096  1.00  0.00    -0.237 OA
ATOM     89  O   UNL A   1      32.405  35.925  30.027  1.00  0.00    -0.237 OA
ATOM     90  O   UNL A   1      33.808  36.451  28.071  1.00  0.00    -0.744 OA
ENDBRANCH  86  87
ENDBRANCH  54  79
BRANCH  66  91
ATOM     91  C   UNL A   1      39.863  34.193  36.892  1.00  0.00     0.058 A 
ATOM     92  C   UNL A   1      40.447  35.462  36.767  1.00  0.00     0.135 A 
ATOM     93  C   UNL A   1      39.090  33.940  38.039  1.00  0.00     0.135 A 
ATOM     94  F   UNL A   1      41.199  35.756  35.694  1.00  0.00    -0.206 F 
ATOM     95  C   UNL A   1      40.302  36.430  37.755  1.00  0.00     0.059 A 
ATOM     96  C   UNL A   1      38.903  34.903  39.023  1.00  0.00     0.059 A 
ATOM     97  F   UNL A   1      38.494  32.747  38.203  1.00  0.00    -0.206 F 
ATOM     98  C   UNL A   1      39.528  36.142  38.880  1.00  0.00     0.060 A 
BRANCH  98  99
ATOM     99  S   UNL A   1      39.332  37.412  40.147  1.00  0.00     0.124 S 
ATOM    100  O   UNL A   1      38.376  38.314  39.513  1.00  0.00    -0.237 OA
ATOM    101  O   UNL A   1      38.824  36.646  41.282  1.00  0.00    -0.237 OA
ATOM    102  O   UNL A   1      40.682  37.942  40.310  1.00  0.00    -0.744 OA
ENDBRANCH  98  99
ENDBRANCH  66  91
ENDBRANCH  40  41
ENDBRANCH  32  35
ENDBRANCH  30  31
ENDBRANCH  29  30
ENDBRANCH  28  29
ENDBRANCH   1  28
TORSDOF 20
ENDMDL
MODEL 2
REMARK VINA RESULT:     -10.9      6.459      8.624
REMARK SMILES O=C(C[NH+]1CC[NH+](Cc2cc(Cl)ccc2[N+](=O)[O-])CC1)NCCCCCCNC(=O)c1ccc(-c2c3nc(c(-c4c(F)cc(S(=O)(=O)[O-])cc4F)c4ccc([nH]4)c(-c4c(F)cc(S(=O)(=O)[O-])cc4F)c4nc(c(-c5c(F)cc(S(=O)(=O)[O-])cc5F)c5ccc2[nH]5)C=C4)C=C3)cc1
REMARK SMILES IDX 24 1 23 2 22 3 21 4 1 5 2 6 3 8 4 9 5 10 20 11 6 13 19 14
REMARK SMILES IDX 7 15 8 17 9 18 10 19 15 20 11 21 14 22 12 23 13 24 16 25
REMARK SMILES IDX 17 26 18 27 25 28 26 29 27 30 28 31 29 32 30 34 31 35 32 36
REMARK SMILES IDX 96 37 33 38 95 39 34 40 35 41 36 42 89 43 37 44 94 45 88 46
REMARK SMILES IDX 90 47 38 48 93 49 87 50 86 51 39 53 73 54 52 55 72 56 53 57
REMARK SMILES IDX 56 58 71 59 91 60 54 61 55 62 70 64 92 65 57 66 40 67 41 68
REMARK SMILES IDX 50 69 42 70 43 71 49 72 51 73 44 74 45 75 46 76 47 77 48 78
REMARK SMILES IDX 74 79 75 80 84 81 76 82 77 83 83 84 85 85 78 86 79 87 80 88
REMARK SMILES IDX 81 89 82 90 58 91 59 92 68 93 60 94 61 95 67 96 69 97 62 98
REMARK SMILES IDX 63 99 64 100 65 101 66 102
REMARK H PARENT 21 7 4 12 7 16 28 33 90 52 56 63
REMARK Flexibility Score: inf
ROOT
ATOM      1  C   UNL A   1      40.648  22.048  27.388  1.00  0.00     0.002 C 
ENDROOT
BRANCH   1   2
ATOM      2  C   UNL A   1      39.654  23.214  27.338  1.00  0.00     0.021 C 
BRANCH   2   3
ATOM      3  C   UNL A   1      38.762  23.230  26.100  1.00  0.00     0.116 C 
BRANCH   3   4
ATOM      4  N   UNL A   1      37.418  22.799  26.411  1.00  0.00    -0.351 N 
ATOM      5  O   UNL A   1      37.276  21.163  24.799  1.00  0.00    -0.269 OA
ATOM      6  C   UNL A   1      36.782  21.777  25.740  1.00  0.00     0.275 C 
ATOM      7  H   UNL A   1      36.935  23.256  27.136  1.00  0.00     0.163 HD
BRANCH   6   8
ATOM      8  C   UNL A   1      35.352  21.502  26.219  1.00  0.00     0.363 C 
BRANCH   8   9
ATOM      9  N   UNL A   1      34.333  21.991  25.261  1.00  0.00    -0.318 N 
ATOM     10  C   UNL A   1      32.989  21.890  25.867  1.00  0.00     0.325 C 
ATOM     11  C   UNL A   1      34.597  23.373  24.802  1.00  0.00     0.325 C 
ATOM     12  H   UNL A   1      34.381  21.398  24.434  1.00  0.00     0.348 HD
ATOM     13  C   UNL A   1      32.540  23.065  26.773  1.00  0.00     0.324 C 
ATOM     14  C   UNL A   1      34.177  24.516  25.753  1.00  0.00     0.324 C 
ATOM     15  N   UNL A   1      32.812  24.413  26.271  1.00  0.00    -0.322 N 
ATOM     16  H   UNL A   1      32.769  25.020  27.090  1.00  0.00     0.348 HD
BRANCH  15  17
ATOM     17  C   UNL A   1      31.757  25.077  25.490  1.00  0.00     0.306 C 
BRANCH  17  18
ATOM     18  C   UNL A   1      32.204  26.054  24.417  1.00  0.00     0.085 A 
ATOM     19  C   UNL A   1      32.114  25.598  23.082  1.00  0.00     0.037 A 
ATOM     20  C   UNL A   1      32.794  27.324  24.627  1.00  0.00     0.278 A 
ATOM     21  C   UNL A   1      32.739  26.272  22.032  1.00  0.00     0.042 A 
ATOM     22  C   UNL A   1      33.413  28.003  23.553  1.00  0.00     0.088 A 
ATOM     23  Cl  UNL A   1      32.732  25.583  20.457  1.00  0.00    -0.084 Cl
ATOM     24  C   UNL A   1      33.416  27.458  22.268  1.00  0.00     0.027 A 
BRANCH  20  25
ATOM     25  N   UNL A   1      32.802  28.015  25.933  1.00  0.00     0.063 N 
ATOM     26  O   UNL A   1      33.831  27.927  26.619  1.00  0.00    -0.258 OA
ATOM     27  O   UNL A   1      31.816  28.684  26.260  1.00  0.00    -0.258 OA
ENDBRANCH  20  25
ENDBRANCH  17  18
ENDBRANCH  15  17
ENDBRANCH   8   9
ENDBRANCH   6   8
ENDBRANCH   3   4
ENDBRANCH   2   3
ENDBRANCH   1   2
BRANCH   1  28
ATOM     28  C   UNL A   1      40.886  21.326  26.057  1.00  0.00     0.002 C 
BRANCH  28  29
ATOM     29  C   UNL A   1      40.970  19.800  26.144  1.00  0.00     0.021 C 
BRANCH  29  30
ATOM     30  C   UNL A   1      42.319  19.255  26.602  1.00  0.00     0.116 C 
BRANCH  30  31
ATOM     31  N   UNL A   1      43.184  18.912  25.484  1.00  0.00    -0.352 N 
ATOM     32  C   UNL A   1      43.983  19.730  24.726  1.00  0.00     0.251 C 
ATOM     33  H   UNL A   1      43.198  17.960  25.237  1.00  0.00     0.163 HD
ATOM     34  O   UNL A   1      44.503  19.292  23.699  1.00  0.00    -0.269 OA
BRANCH  32  35
ATOM     35  C   UNL A   1      44.202  21.138  25.127  1.00  0.00     0.039 A 
ATOM     36  C   UNL A   1      44.648  21.413  26.422  1.00  0.00     0.014 A 
ATOM     37  C   UNL A   1      43.952  22.187  24.237  1.00  0.00     0.014 A 
ATOM     38  C   UNL A   1      44.885  22.734  26.808  1.00  0.00     0.010 A 
ATOM     39  C   UNL A   1      44.265  23.495  24.598  1.00  0.00     0.010 A 
ATOM     40  C   UNL A   1      44.719  23.786  25.893  1.00  0.00    -0.014 A 
BRANCH  40  41
ATOM     41  C   UNL A   1      44.975  25.198  26.284  1.00  0.00     0.031 A 
ATOM     42  C   UNL A   1      46.370  25.760  26.193  1.00  0.00     0.074 A 
ATOM     43  C   UNL A   1      43.968  25.962  26.755  1.00  0.00     0.049 A 
ATOM     44  N   UNL A   1      46.814  26.938  26.554  1.00  0.00    -0.248 NA
ATOM     45  C   UNL A   1      47.412  24.873  25.647  1.00  0.00     0.031 C 
ATOM     46  C   UNL A   1      42.582  25.522  26.931  1.00  0.00     0.029 A 
ATOM     47  N   UNL A   1      43.956  27.266  27.182  1.00  0.00    -0.354 N 
ATOM     48  C   UNL A   1      48.176  26.932  26.278  1.00  0.00     0.074 A 
ATOM     49  C   UNL A   1      48.503  25.611  25.788  1.00  0.00     0.031 C 
ATOM     50  C   UNL A   1      41.853  26.543  27.415  1.00  0.00     0.029 A 
ATOM     51  C   UNL A   1      42.724  27.696  27.619  1.00  0.00     0.049 A 
ATOM     52  H   UNL A   1      44.755  27.842  27.176  1.00  0.00     0.167 HD
ATOM     53  C   UNL A   1      49.070  27.944  26.388  1.00  0.00     0.037 A 
ATOM     54  C   UNL A   1      42.342  28.880  28.138  1.00  0.00     0.037 A 
ATOM     55  C   UNL A   1      48.739  29.263  26.859  1.00  0.00     0.049 A 
ATOM     56  C   UNL A   1      43.361  29.985  28.264  1.00  0.00     0.074 A 
ATOM     57  C   UNL A   1      49.569  30.362  26.996  1.00  0.00     0.029 A 
ATOM     58  N   UNL A   1      47.473  29.667  27.257  1.00  0.00    -0.354 N 
ATOM     59  N   UNL A   1      44.638  29.970  27.964  1.00  0.00    -0.248 NA
ATOM     60  C   UNL A   1      42.883  31.274  28.785  1.00  0.00     0.031 C 
ATOM     61  C   UNL A   1      48.814  31.420  27.511  1.00  0.00     0.029 A 
ATOM     62  C   UNL A   1      47.501  30.997  27.640  1.00  0.00     0.049 A 
ATOM     63  H   UNL A   1      46.673  29.093  27.266  1.00  0.00     0.167 HD
ATOM     64  C   UNL A   1      45.103  31.257  28.218  1.00  0.00     0.074 A 
ATOM     65  C   UNL A   1      43.970  32.026  28.686  1.00  0.00     0.031 C 
ATOM     66  C   UNL A   1      46.355  31.758  28.074  1.00  0.00     0.037 A 
BRANCH  53  67
ATOM     67  C   UNL A   1      50.489  27.675  25.964  1.00  0.00     0.058 A 
ATOM     68  C   UNL A   1      50.871  27.735  24.614  1.00  0.00     0.135 A 
ATOM     69  C   UNL A   1      51.490  27.419  26.915  1.00  0.00     0.135 A 
ATOM     70  F   UNL A   1      49.952  27.956  23.660  1.00  0.00    -0.206 F 
ATOM     71  C   UNL A   1      52.189  27.532  24.220  1.00  0.00     0.059 A 
ATOM     72  C   UNL A   1      52.821  27.244  26.546  1.00  0.00     0.059 A 
ATOM     73  F   UNL A   1      51.181  27.348  28.220  1.00  0.00    -0.206 F 
ATOM     74  C   UNL A   1      53.159  27.295  25.194  1.00  0.00     0.060 A 
BRANCH  74  75
ATOM     75  S   UNL A   1      54.870  27.074  24.665  1.00  0.00     0.124 S 
ATOM     76  O   UNL A   1      55.312  26.000  25.548  1.00  0.00    -0.237 OA
ATOM     77  O   UNL A   1      54.716  26.715  23.258  1.00  0.00    -0.237 OA
ATOM     78  O   UNL A   1      55.475  28.378  24.913  1.00  0.00    -0.744 OA
ENDBRANCH  74  75
ENDBRANCH  53  67
BRANCH  54  79
ATOM     79  C   UNL A   1      40.935  29.096  28.574  1.00  0.00     0.058 A 
ATOM     80  C   UNL A   1      39.908  29.318  27.644  1.00  0.00     0.135 A 
ATOM     81  C   UNL A   1      40.595  29.122  29.936  1.00  0.00     0.135 A 
ATOM     82  F   UNL A   1      40.181  29.305  26.329  1.00  0.00    -0.206 F 
ATOM     83  C   UNL A   1      38.608  29.606  28.045  1.00  0.00     0.059 A 
ATOM     84  C   UNL A   1      39.295  29.374  30.362  1.00  0.00     0.059 A 
ATOM     85  F   UNL A   1      41.532  28.893  30.869  1.00  0.00    -0.206 F 
ATOM     86  C   UNL A   1      38.312  29.638  29.409  1.00  0.00     0.060 A 
BRANCH  86  87
ATOM     87  S   UNL A   1      36.622  30.018  29.922  1.00  0.00     0.124 S 
ATOM     88  O   UNL A   1      35.853  29.511  28.793  1.00  0.00    -0.237 OA
ATOM     89  O   UNL A   1      36.503  29.266  31.167  1.00  0.00    -0.237 OA
ATOM     90  O   UNL A   1      36.638  31.471  30.074  1.00  0.00    -0.744 OA
ENDBRANCH  86  87
ENDBRANCH  54  79
BRANCH  66  91
ATOM     91  C   UNL A   1      46.554  33.223  28.353  1.00  0.00     0.058 A 
ATOM     92  C   UNL A   1      46.403  34.201  27.358  1.00  0.00     0.135 A 
ATOM     93  C   UNL A   1      46.865  33.655  29.653  1.00  0.00     0.135 A 
ATOM     94  F   UNL A   1      46.111  33.843  26.098  1.00  0.00    -0.206 F 
ATOM     95  C   UNL A   1      46.588  35.551  27.633  1.00  0.00     0.059 A 
ATOM     96  C   UNL A   1      47.021  35.003  29.959  1.00  0.00     0.059 A 
ATOM     97  F   UNL A   1      47.006  32.764  30.647  1.00  0.00    -0.206 F 
ATOM     98  C   UNL A   1      46.897  35.943  28.938  1.00  0.00     0.060 A 
BRANCH  98  99
ATOM     99  S   UNL A   1      47.116  37.700  29.286  1.00  0.00     0.124 S 
ATOM    100  O   UNL A   1      46.749  37.769  30.697  1.00  0.00    -0.237 OA
ATOM    101  O   UNL A   1      48.531  37.904  28.988  1.00  0.00    -0.237 OA
ATOM    102  O   UNL A   1      46.188  38.350  28.364  1.00  0.00    -0.744 OA
ENDBRANCH  98  99
ENDBRANCH  66  91
ENDBRANCH  40  41
ENDBRANCH  32  35
ENDBRANCH  30  31
ENDBRANCH  29  30
ENDBRANCH  28  29
ENDBRANCH   1  28
TORSDOF 20
ENDMDL
MODEL 3
REMARK VINA RESULT:     -10.7      6.522      8.644
REMARK SMILES O=C(C[NH+]1CC[NH+](Cc2cc(Cl)ccc2[N+](=O)[O-])CC1)NCCCCCCNC(=O)c1ccc(-c2c3nc(c(-c4c(F)cc(S(=O)(=O)[O-])cc4F)c4ccc([nH]4)c(-c4c(F)cc(S(=O)(=O)[O-])cc4F)c4nc(c(-c5c(F)cc(S(=O)(=O)[O-])cc5F)c5ccc2[nH]5)C=C4)C=C3)cc1
REMARK SMILES IDX 24 1 23 2 22 3 21 4 1 5 2 6 3 8 4 9 5 10 20 11 6 13 19 14
REMARK SMILES IDX 7 15 8 17 9 18 10 19 15 20 11 21 14 22 12 23 13 24 16 25
REMARK SMILES IDX 17 26 18 27 25 28 26 29 27 30 28 31 29 32 30 34 31 35 32 36
REMARK SMILES IDX 96 37 33 38 95 39 34 40 35 41 36 42 89 43 37 44 94 45 88 46
REMARK SMILES IDX 90 47 38 48 93 49 87 50 86 51 39 53 73 54 52 55 72 56 53 57
REMARK SMILES IDX 56 58 71 59 91 60 54 61 55 62 70 64 92 65 57 66 40 67 41 68
REMARK SMILES IDX 50 69 42 70 43 71 49 72 51 73 44 74 45 75 46 76 47 77 48 78
REMARK SMILES IDX 74 79 75 80 84 81 76 82 77 83 83 84 85 85 78 86 79 87 80 88
REMARK SMILES IDX 81 89 82 90 58 91 59 92 68 93 60 94 61 95 67 96 69 97 62 98
REMARK SMILES IDX 63 99 64 100 65 101 66 102
REMARK H PARENT 21 7 4 12 7 16 28 33 90 52 56 63
REMARK Flexibility Score: inf
ROOT
ATOM      1  C   UNL A   1      40.835  22.416  27.062  1.00  0.00     0.002 C 
ENDROOT
BRANCH   1   2
ATOM      2  C   UNL A   1      39.447  23.039  27.255  1.00  0.00     0.021 C 
BRANCH   2   3
ATOM      3  C   UNL A   1      38.592  23.079  25.992  1.00  0.00     0.116 C 
BRANCH   3   4
ATOM      4  N   UNL A   1      37.194  23.271  26.305  1.00  0.00    -0.351 N 
ATOM      5  O   UNL A   1      36.453  21.246  25.501  1.00  0.00    -0.269 OA
ATOM      6  C   UNL A   1      36.228  22.322  26.048  1.00  0.00     0.275 C 
ATOM      7  H   UNL A   1      36.919  24.119  26.722  1.00  0.00     0.163 HD
BRANCH   6   8
ATOM      8  C   UNL A   1      34.808  22.744  26.440  1.00  0.00     0.363 C 
BRANCH   8   9
ATOM      9  N   UNL A   1      33.862  22.665  25.303  1.00  0.00    -0.318 N 
ATOM     10  C   UNL A   1      32.517  23.088  25.742  1.00  0.00     0.325 C 
ATOM     11  C   UNL A   1      34.305  23.459  24.135  1.00  0.00     0.325 C 
ATOM     12  H   UNL A   1      33.832  21.693  24.996  1.00  0.00     0.348 HD
ATOM     13  C   UNL A   1      32.224  24.611  25.733  1.00  0.00     0.324 C 
ATOM     14  C   UNL A   1      34.038  24.980  24.184  1.00  0.00     0.324 C 
ATOM     15  N   UNL A   1      32.671  25.352  24.552  1.00  0.00    -0.322 N 
ATOM     16  H   UNL A   1      32.708  26.329  24.844  1.00  0.00     0.348 HD
BRANCH  15  17
ATOM     17  C   UNL A   1      31.712  25.521  23.450  1.00  0.00     0.306 C 
BRANCH  17  18
ATOM     18  C   UNL A   1      31.142  26.912  23.239  1.00  0.00     0.085 A 
ATOM     19  C   UNL A   1      29.767  27.072  23.527  1.00  0.00     0.037 A 
ATOM     20  C   UNL A   1      31.820  28.026  22.689  1.00  0.00     0.278 A 
ATOM     21  C   UNL A   1      29.059  28.204  23.121  1.00  0.00     0.042 A 
ATOM     22  C   UNL A   1      31.094  29.173  22.293  1.00  0.00     0.088 A 
ATOM     23  Cl  UNL A   1      27.357  28.270  23.355  1.00  0.00    -0.084 Cl
ATOM     24  C   UNL A   1      29.711  29.242  22.476  1.00  0.00     0.027 A 
BRANCH  20  25
ATOM     25  N   UNL A   1      33.284  28.079  22.499  1.00  0.00     0.063 N 
ATOM     26  O   UNL A   1      33.778  27.316  21.657  1.00  0.00    -0.258 OA
ATOM     27  O   UNL A   1      33.939  28.905  23.142  1.00  0.00    -0.258 OA
ENDBRANCH  20  25
ENDBRANCH  17  18
ENDBRANCH  15  17
ENDBRANCH   8   9
ENDBRANCH   6   8
ENDBRANCH   3   4
ENDBRANCH   2   3
ENDBRANCH   1   2
BRANCH   1  28
ATOM     28  C   UNL A   1      40.960  21.432  25.894  1.00  0.00     0.002 C 
BRANCH  28  29
ATOM     29  C   UNL A   1      40.979  19.952  26.282  1.00  0.00     0.021 C 
BRANCH  29  30
ATOM     30  C   UNL A   1      42.340  19.418  26.714  1.00  0.00     0.116 C 
BRANCH  30  31
ATOM     31  N   UNL A   1      43.179  19.062  25.581  1.00  0.00    -0.352 N 
ATOM     32  C   UNL A   1      43.968  19.870  24.802  1.00  0.00     0.251 C 
ATOM     33  H   UNL A   1      43.180  18.109  25.338  1.00  0.00     0.163 HD
ATOM     34  O   UNL A   1      44.464  19.423  23.768  1.00  0.00    -0.269 OA
BRANCH  32  35
ATOM     35  C   UNL A   1      44.207  21.278  25.192  1.00  0.00     0.039 A 
ATOM     36  C   UNL A   1      44.654  21.558  26.486  1.00  0.00     0.014 A 
ATOM     37  C   UNL A   1      43.975  22.323  24.292  1.00  0.00     0.014 A 
ATOM     38  C   UNL A   1      44.909  22.879  26.861  1.00  0.00     0.010 A 
ATOM     39  C   UNL A   1      44.306  23.629  24.643  1.00  0.00     0.010 A 
ATOM     40  C   UNL A   1      44.761  23.925  25.937  1.00  0.00    -0.014 A 
BRANCH  40  41
ATOM     41  C   UNL A   1      45.037  25.337  26.316  1.00  0.00     0.031 A 
ATOM     42  C   UNL A   1      46.443  25.873  26.238  1.00  0.00     0.074 A 
ATOM     43  C   UNL A   1      44.037  26.123  26.764  1.00  0.00     0.049 A 
ATOM     44  N   UNL A   1      46.902  27.046  26.593  1.00  0.00    -0.248 NA
ATOM     45  C   UNL A   1      47.476  24.962  25.717  1.00  0.00     0.031 C 
ATOM     46  C   UNL A   1      42.641  25.710  26.926  1.00  0.00     0.029 A 
ATOM     47  N   UNL A   1      44.042  27.432  27.178  1.00  0.00    -0.354 N 
ATOM     48  C   UNL A   1      48.268  27.013  26.337  1.00  0.00     0.074 A 
ATOM     49  C   UNL A   1      48.578  25.681  25.865  1.00  0.00     0.031 C 
ATOM     50  C   UNL A   1      41.924  26.748  27.389  1.00  0.00     0.029 A 
ATOM     51  C   UNL A   1      42.812  27.888  27.593  1.00  0.00     0.049 A 
ATOM     52  H   UNL A   1      44.852  27.993  27.176  1.00  0.00     0.167 HD
ATOM     53  C   UNL A   1      49.178  28.010  26.448  1.00  0.00     0.037 A 
ATOM     54  C   UNL A   1      42.444  29.085  28.093  1.00  0.00     0.037 A 
ATOM     55  C   UNL A   1      48.864  29.340  26.901  1.00  0.00     0.049 A 
ATOM     56  C   UNL A   1      43.480  30.172  28.222  1.00  0.00     0.074 A 
ATOM     57  C   UNL A   1      49.711  30.426  27.038  1.00  0.00     0.029 A 
ATOM     58  N   UNL A   1      47.600  29.771  27.277  1.00  0.00    -0.354 N 
ATOM     59  N   UNL A   1      44.762  30.131  27.940  1.00  0.00    -0.248 NA
ATOM     60  C   UNL A   1      43.019  31.475  28.722  1.00  0.00     0.031 C 
ATOM     61  C   UNL A   1      48.968  31.503  27.530  1.00  0.00     0.029 A 
ATOM     62  C   UNL A   1      47.646  31.105  27.645  1.00  0.00     0.049 A 
ATOM     63  H   UNL A   1      46.790  29.211  27.280  1.00  0.00     0.167 HD
ATOM     64  C   UNL A   1      45.246  31.413  28.187  1.00  0.00     0.074 A 
ATOM     65  C   UNL A   1      44.120  32.207  28.631  1.00  0.00     0.031 C 
ATOM     66  C   UNL A   1      46.509  31.890  28.056  1.00  0.00     0.037 A 
BRANCH  53  67
ATOM     67  C   UNL A   1      50.598  27.712  26.047  1.00  0.00     0.058 A 
ATOM     68  C   UNL A   1      51.576  27.398  27.006  1.00  0.00     0.135 A 
ATOM     69  C   UNL A   1      50.973  27.677  24.695  1.00  0.00     0.135 A 
ATOM     70  F   UNL A   1      51.278  27.437  28.315  1.00  0.00    -0.206 F 
ATOM     71  C   UNL A   1      52.878  27.078  26.639  1.00  0.00     0.059 A 
ATOM     72  C   UNL A   1      52.263  27.327  24.304  1.00  0.00     0.059 A 
ATOM     73  F   UNL A   1      50.080  27.970  23.737  1.00  0.00    -0.206 F 
ATOM     74  C   UNL A   1      53.211  27.037  25.285  1.00  0.00     0.060 A 
BRANCH  74  75
ATOM     75  S   UNL A   1      54.896  26.581  24.829  1.00  0.00     0.124 S 
ATOM     76  O   UNL A   1      55.094  27.369  23.617  1.00  0.00    -0.237 OA
ATOM     77  O   UNL A   1      55.661  27.009  25.996  1.00  0.00    -0.237 OA
ATOM     78  O   UNL A   1      54.817  25.137  24.630  1.00  0.00    -0.744 OA
ENDBRANCH  74  75
ENDBRANCH  53  67
BRANCH  54  79
ATOM     79  C   UNL A   1      41.035  29.330  28.508  1.00  0.00     0.058 A 
ATOM     80  C   UNL A   1      40.676  29.406  29.862  1.00  0.00     0.135 A 
ATOM     81  C   UNL A   1      40.012  29.456  27.556  1.00  0.00     0.135 A 
ATOM     82  F   UNL A   1      41.617  29.291  30.813  1.00  0.00    -0.206 F 
ATOM     83  C   UNL A   1      39.351  29.550  30.260  1.00  0.00     0.059 A 
ATOM     84  C   UNL A   1      38.683  29.633  27.928  1.00  0.00     0.059 A 
ATOM     85  F   UNL A   1      40.300  29.414  26.246  1.00  0.00    -0.206 F 
ATOM     86  C   UNL A   1      38.359  29.656  29.284  1.00  0.00     0.060 A 
BRANCH  86  87
ATOM     87  S   UNL A   1      36.640  29.835  29.808  1.00  0.00     0.124 S 
ATOM     88  O   UNL A   1      36.615  29.014  31.012  1.00  0.00    -0.237 OA
ATOM     89  O   UNL A   1      36.531  31.275  30.014  1.00  0.00    -0.237 OA
ATOM     90  O   UNL A   1      35.887  29.312  28.671  1.00  0.00    -0.744 OA
ENDBRANCH  86  87
ENDBRANCH  54  79
BRANCH  66  91
ATOM     91  C   UNL A   1      46.730  33.354  28.321  1.00  0.00     0.058 A 
ATOM     92  C   UNL A   1      47.092  33.838  29.588  1.00  0.00     0.135 A 
ATOM     93  C   UNL A   1      46.614  34.284  27.274  1.00  0.00     0.135 A 
ATOM     94  F   UNL A   1      47.212  32.994  30.624  1.00  0.00    -0.206 F 
ATOM     95  C   UNL A   1      47.295  35.195  29.815  1.00  0.00     0.059 A 
ATOM     96  C   UNL A   1      46.846  35.641  27.471  1.00  0.00     0.059 A 
ATOM     97  F   UNL A   1      46.285  33.874  26.039  1.00  0.00    -0.206 F 
ATOM     98  C   UNL A   1      47.170  36.090  28.751  1.00  0.00     0.060 A 
BRANCH  98  99
ATOM     99  S   UNL A   1      47.455  37.845  29.055  1.00  0.00     0.124 S 
ATOM    100  O   UNL A   1      47.513  37.886  30.512  1.00  0.00    -0.237 OA
ATOM    101  O   UNL A   1      48.719  38.081  28.363  1.00  0.00    -0.237 OA
ATOM    102  O   UNL A   1      46.290  38.489  28.454  1.00  0.00    -0.744 OA
ENDBRANCH  98  99
ENDBRANCH  66  91
ENDBRANCH  40  41
ENDBRANCH  32  35
ENDBRANCH  30  31
ENDBRANCH  29  30
ENDBRANCH  28  29
ENDBRANCH   1  28
TORSDOF 20
ENDMDL
