MODEL 1
REMARK VINA RESULT:     -13.1      0.000      0.000
REMARK SMILES Cc1ccccc1NC(=O)C[NH+]1CCC(CC(=O)NCCCCCCNC(=O)c2ccc(-c3c4nc(c(-c5c(F)cc(S(=O)(=O)[O-])cc5F)c5ccc([nH]5)c(-c5c(F)cc(S(=O)(=O)[O-])cc5F)c5nc(c(-c6c(F)cc(S(=O)(=O)[O-])cc6F)c6ccc3[nH]6)C=C5)C=C4)cc2)CC1
REMARK SMILES IDX 22 1 21 2 20 3 19 4 17 5 18 6 16 8 15 9 12 10 13 11 96 12
REMARK SMILES IDX 14 14 95 15 11 16 9 17 8 18 10 20 7 21 1 22 2 23 3 24 4 25
REMARK SMILES IDX 6 26 5 27 23 28 24 29 25 30 26 31 27 32 28 34 29 35 30 36
REMARK SMILES IDX 94 37 31 38 93 39 32 40 33 41 34 42 87 43 35 44 92 45 86 46
REMARK SMILES IDX 88 47 36 48 91 49 85 50 84 51 37 53 71 54 50 55 70 56 51 57
REMARK SMILES IDX 54 58 69 59 89 60 52 61 53 62 68 64 90 65 55 66 38 67 39 68
REMARK SMILES IDX 48 69 40 70 41 71 47 72 49 73 42 74 43 75 44 76 45 77 46 78
REMARK SMILES IDX 72 79 73 80 82 81 74 82 75 83 81 84 83 85 76 86 77 87 78 88
REMARK SMILES IDX 79 89 80 90 56 91 57 92 66 93 58 94 59 95 65 96 67 97 60 98
REMARK SMILES IDX 61 99 62 100 63 101 64 102
REMARK H PARENT 19 7 12 13 8 19 26 33 88 52 54 63
REMARK Flexibility Score: inf
ROOT
ATOM      1  C   UNL A   1      33.695  28.015  23.948  1.00  0.00     0.002 C 
ENDROOT
BRANCH   1   2
ATOM      2  C   UNL A   1      32.536  28.842  23.387  1.00  0.00     0.021 C 
BRANCH   2   3
ATOM      3  C   UNL A   1      31.145  28.216  23.532  1.00  0.00     0.116 C 
BRANCH   3   4
ATOM      4  N   UNL A   1      30.898  27.745  24.887  1.00  0.00    -0.356 N 
ATOM      5  C   UNL A   1      30.520  26.512  25.333  1.00  0.00     0.220 C 
ATOM      6  O   UNL A   1      30.344  26.342  26.541  1.00  0.00    -0.275 OA
ATOM      7  H   UNL A   1      31.023  28.422  25.593  1.00  0.00     0.163 HD
BRANCH   5   8
ATOM      8  C   UNL A   1      30.324  25.370  24.353  1.00  0.00     0.104 C 
BRANCH   8   9
ATOM      9  C   UNL A   1      31.326  24.219  24.532  1.00  0.00     0.009 C 
ATOM     10  N   UNL A   1      32.140  21.459  23.928  1.00  0.00    -0.327 N 
ATOM     11  C   UNL A   1      31.676  21.796  25.274  1.00  0.00     0.262 C 
ATOM     12  C   UNL A   1      32.802  22.593  23.289  1.00  0.00     0.262 C 
ATOM     13  H   UNL A   1      31.315  21.264  23.361  1.00  0.00     0.348 HD
ATOM     14  C   UNL A   1      30.730  22.994  25.233  1.00  0.00     0.066 C 
ATOM     15  C   UNL A   1      31.869  23.794  23.161  1.00  0.00     0.066 C 
BRANCH  10  16
ATOM     16  C   UNL A   1      32.924  20.198  23.889  1.00  0.00     0.363 C 
BRANCH  16  17
ATOM     17  C   UNL A   1      33.454  19.690  25.239  1.00  0.00     0.279 C 
ATOM     18  N   UNL A   1      34.491  20.269  25.914  1.00  0.00    -0.321 N 
ATOM     19  H   UNL A   1      34.713  19.840  26.771  1.00  0.00     0.170 HD
ATOM     20  O   UNL A   1      32.870  18.764  25.817  1.00  0.00    -0.268 OA
BRANCH  18  21
ATOM     21  C   UNL A   1      35.291  21.372  25.590  1.00  0.00     0.044 A 
ATOM     22  C   UNL A   1      34.259  22.705  27.533  1.00  0.00     0.046 C 
ATOM     23  C   UNL A   1      35.144  22.567  26.322  1.00  0.00    -0.027 A 
ATOM     24  C   UNL A   1      35.823  23.718  25.882  1.00  0.00     0.005 A 
ATOM     25  C   UNL A   1      36.649  23.679  24.761  1.00  0.00     0.000 A 
ATOM     26  C   UNL A   1      36.193  21.324  24.522  1.00  0.00     0.026 A 
ATOM     27  C   UNL A   1      36.856  22.476  24.096  1.00  0.00     0.002 A 
ENDBRANCH  18  21
ENDBRANCH  16  17
ENDBRANCH  10  16
ENDBRANCH   8   9
ENDBRANCH   5   8
ENDBRANCH   3   4
ENDBRANCH   2   3
ENDBRANCH   1   2
BRANCH   1  28
ATOM     28  C   UNL A   1      34.035  28.218  25.432  1.00  0.00     0.002 C 
BRANCH  28  29
ATOM     29  C   UNL A   1      33.687  29.580  26.038  1.00  0.00     0.021 C 
BRANCH  29  30
ATOM     30  C   UNL A   1      34.402  29.903  27.338  1.00  0.00     0.116 C 
BRANCH  30  31
ATOM     31  N   UNL A   1      35.549  30.789  27.219  1.00  0.00    -0.352 N 
ATOM     32  C   UNL A   1      36.378  30.908  28.335  1.00  0.00     0.251 C 
ATOM     33  H   UNL A   1      35.734  31.282  26.387  1.00  0.00     0.163 HD
ATOM     34  O   UNL A   1      36.231  31.710  29.239  1.00  0.00    -0.269 OA
BRANCH  32  35
ATOM     35  C   UNL A   1      37.273  29.739  28.490  1.00  0.00     0.039 A 
ATOM     36  C   UNL A   1      37.288  28.975  29.655  1.00  0.00     0.014 A 
ATOM     37  C   UNL A   1      38.286  29.628  27.534  1.00  0.00     0.014 A 
ATOM     38  C   UNL A   1      38.406  28.181  29.926  1.00  0.00     0.010 A 
ATOM     39  C   UNL A   1      39.420  28.913  27.846  1.00  0.00     0.010 A 
ATOM     40  C   UNL A   1      39.501  28.220  29.061  1.00  0.00    -0.014 A 
BRANCH  40  41
ATOM     41  C   UNL A   1      40.810  27.633  29.333  1.00  0.00     0.031 A 
ATOM     42  C   UNL A   1      41.111  26.253  28.895  1.00  0.00     0.074 A 
ATOM     43  C   UNL A   1      41.809  28.424  29.779  1.00  0.00     0.049 A 
ATOM     44  N   UNL A   1      42.189  25.604  29.180  1.00  0.00    -0.248 NA
ATOM     45  C   UNL A   1      40.157  25.464  28.129  1.00  0.00     0.031 C 
ATOM     46  C   UNL A   1      43.243  28.181  29.671  1.00  0.00     0.029 A 
ATOM     47  N   UNL A   1      41.705  29.524  30.633  1.00  0.00    -0.354 N 
ATOM     48  C   UNL A   1      42.213  24.458  28.415  1.00  0.00     0.074 A 
ATOM     49  C   UNL A   1      40.881  24.373  27.866  1.00  0.00     0.031 C 
ATOM     50  C   UNL A   1      43.877  28.905  30.604  1.00  0.00     0.029 A 
ATOM     51  C   UNL A   1      42.859  29.502  31.449  1.00  0.00     0.049 A 
ATOM     52  H   UNL A   1      40.975  30.183  30.662  1.00  0.00     0.167 HD
ATOM     53  C   UNL A   1      43.401  23.799  28.251  1.00  0.00     0.037 A 
ATOM     54  C   UNL A   1      42.744  29.287  32.796  1.00  0.00     0.037 A 
ATOM     55  C   UNL A   1      44.415  24.307  29.186  1.00  0.00     0.049 A 
ATOM     56  C   UNL A   1      43.385  28.007  33.297  1.00  0.00     0.074 A 
ATOM     57  C   UNL A   1      45.529  25.128  29.090  1.00  0.00     0.029 A 
ATOM     58  N   UNL A   1      44.182  24.158  30.543  1.00  0.00    -0.354 N 
ATOM     59  N   UNL A   1      44.015  27.145  32.545  1.00  0.00    -0.248 NA
ATOM     60  C   UNL A   1      43.302  27.564  34.690  1.00  0.00     0.031 C 
ATOM     61  C   UNL A   1      45.932  25.493  30.411  1.00  0.00     0.029 A 
ATOM     62  C   UNL A   1      45.068  24.889  31.308  1.00  0.00     0.049 A 
ATOM     63  H   UNL A   1      43.467  23.594  30.919  1.00  0.00     0.167 HD
ATOM     64  C   UNL A   1      44.335  26.038  33.288  1.00  0.00     0.074 A 
ATOM     65  C   UNL A   1      43.896  26.359  34.633  1.00  0.00     0.031 C 
ATOM     66  C   UNL A   1      44.887  24.912  32.752  1.00  0.00     0.037 A 
BRANCH  53  67
ATOM     67  C   UNL A   1      43.720  22.839  27.106  1.00  0.00     0.058 A 
ATOM     68  C   UNL A   1      43.017  21.617  26.975  1.00  0.00     0.135 A 
ATOM     69  C   UNL A   1      44.750  23.001  26.156  1.00  0.00     0.135 A 
ATOM     70  F   UNL A   1      41.946  21.340  27.734  1.00  0.00    -0.206 F 
ATOM     71  C   UNL A   1      43.377  20.614  26.065  1.00  0.00     0.059 A 
ATOM     72  C   UNL A   1      45.153  22.002  25.265  1.00  0.00     0.059 A 
ATOM     73  F   UNL A   1      45.397  24.154  25.992  1.00  0.00    -0.206 F 
ATOM     74  C   UNL A   1      44.471  20.800  25.236  1.00  0.00     0.060 A 
BRANCH  74  75
ATOM     75  S   UNL A   1      44.984  19.484  24.118  1.00  0.00     0.124 S 
ATOM     76  O   UNL A   1      44.277  18.327  24.661  1.00  0.00    -0.237 OA
ATOM     77  O   UNL A   1      44.509  19.974  22.829  1.00  0.00    -0.237 OA
ATOM     78  O   UNL A   1      46.436  19.449  24.273  1.00  0.00    -0.744 OA
ENDBRANCH  74  75
ENDBRANCH  53  67
BRANCH  54  79
ATOM     79  C   UNL A   1      41.525  29.936  33.359  1.00  0.00     0.058 A 
ATOM     80  C   UNL A   1      41.582  31.327  33.579  1.00  0.00     0.135 A 
ATOM     81  C   UNL A   1      40.260  29.356  33.190  1.00  0.00     0.135 A 
ATOM     82  F   UNL A   1      42.768  31.925  33.781  1.00  0.00    -0.206 F 
ATOM     83  C   UNL A   1      40.464  32.136  33.417  1.00  0.00     0.059 A 
ATOM     84  C   UNL A   1      39.120  30.150  33.045  1.00  0.00     0.059 A 
ATOM     85  F   UNL A   1      40.142  28.035  32.992  1.00  0.00    -0.206 F 
ATOM     86  C   UNL A   1      39.257  31.539  33.059  1.00  0.00     0.060 A 
BRANCH  86  87
ATOM     87  S   UNL A   1      37.933  32.603  32.434  1.00  0.00     0.124 S 
ATOM     88  O   UNL A   1      38.417  32.948  31.102  1.00  0.00    -0.237 OA
ATOM     89  O   UNL A   1      36.775  31.706  32.477  1.00  0.00    -0.237 OA
ATOM     90  O   UNL A   1      37.903  33.699  33.396  1.00  0.00    -0.744 OA
ENDBRANCH  86  87
ENDBRANCH  54  79
BRANCH  66  91
ATOM     91  C   UNL A   1      45.269  23.713  33.576  1.00  0.00     0.058 A 
ATOM     92  C   UNL A   1      44.322  22.768  34.002  1.00  0.00     0.135 A 
ATOM     93  C   UNL A   1      46.582  23.545  34.067  1.00  0.00     0.135 A 
ATOM     94  F   UNL A   1      43.038  22.867  33.622  1.00  0.00    -0.206 F 
ATOM     95  C   UNL A   1      44.661  21.701  34.835  1.00  0.00     0.059 A 
ATOM     96  C   UNL A   1      46.932  22.517  34.937  1.00  0.00     0.059 A 
ATOM     97  F   UNL A   1      47.576  24.363  33.690  1.00  0.00    -0.206 F 
ATOM     98  C   UNL A   1      45.970  21.585  35.301  1.00  0.00     0.060 A 
BRANCH  98  99
ATOM     99  S   UNL A   1      46.406  20.230  36.408  1.00  0.00     0.124 S 
ATOM    100  O   UNL A   1      45.664  20.555  37.623  1.00  0.00    -0.237 OA
ATOM    101  O   UNL A   1      45.917  19.076  35.661  1.00  0.00    -0.237 OA
ATOM    102  O   UNL A   1      47.857  20.340  36.521  1.00  0.00    -0.744 OA
ENDBRANCH  98  99
ENDBRANCH  66  91
ENDBRANCH  40  41
ENDBRANCH  32  35
ENDBRANCH  30  31
ENDBRANCH  29  30
ENDBRANCH  28  29
ENDBRANCH   1  28
TORSDOF 20
ENDMDL
MODEL 2
REMARK VINA RESULT:     -12.7      1.162      2.022
REMARK SMILES Cc1ccccc1NC(=O)C[NH+]1CCC(CC(=O)NCCCCCCNC(=O)c2ccc(-c3c4nc(c(-c5c(F)cc(S(=O)(=O)[O-])cc5F)c5ccc([nH]5)c(-c5c(F)cc(S(=O)(=O)[O-])cc5F)c5nc(c(-c6c(F)cc(S(=O)(=O)[O-])cc6F)c6ccc3[nH]6)C=C5)C=C4)cc2)CC1
REMARK SMILES IDX 22 1 21 2 20 3 19 4 17 5 18 6 16 8 15 9 12 10 13 11 96 12
REMARK SMILES IDX 14 14 95 15 11 16 9 17 8 18 10 20 7 21 1 22 2 23 3 24 4 25
REMARK SMILES IDX 6 26 5 27 23 28 24 29 25 30 26 31 27 32 28 34 29 35 30 36
REMARK SMILES IDX 94 37 31 38 93 39 32 40 33 41 34 42 87 43 35 44 92 45 86 46
REMARK SMILES IDX 88 47 36 48 91 49 85 50 84 51 37 53 71 54 50 55 70 56 51 57
REMARK SMILES IDX 54 58 69 59 89 60 52 61 53 62 68 64 90 65 55 66 38 67 39 68
REMARK SMILES IDX 48 69 40 70 41 71 47 72 49 73 42 74 43 75 44 76 45 77 46 78
REMARK SMILES IDX 72 79 73 80 82 81 74 82 75 83 81 84 83 85 76 86 77 87 78 88
REMARK SMILES IDX 79 89 80 90 56 91 57 92 66 93 58 94 59 95 65 96 67 97 60 98
REMARK SMILES IDX 61 99 62 100 63 101 64 102
REMARK H PARENT 19 7 12 13 8 19 26 33 88 52 54 63
REMARK Flexibility Score: inf
ROOT
ATOM      1  C   UNL A   1      31.803  29.675  26.667  1.00  0.00     0.002 C 
ENDROOT
BRANCH   1   2
ATOM      2  C   UNL A   1      31.264  30.007  25.274  1.00  0.00     0.021 C 
BRANCH   2   3
ATOM      3  C   UNL A   1      31.547  28.963  24.189  1.00  0.00     0.116 C 
BRANCH   3   4
ATOM      4  N   UNL A   1      30.593  27.863  24.228  1.00  0.00    -0.356 N 
ATOM      5  C   UNL A   1      30.620  26.656  23.593  1.00  0.00     0.220 C 
ATOM      6  O   UNL A   1      29.681  25.874  23.757  1.00  0.00    -0.275 OA
ATOM      7  H   UNL A   1      29.807  28.013  24.803  1.00  0.00     0.163 HD
BRANCH   5   8
ATOM      8  C   UNL A   1      31.792  26.283  22.703  1.00  0.00     0.104 C 
BRANCH   8   9
ATOM      9  C   UNL A   1      32.634  25.115  23.239  1.00  0.00     0.009 C 
ATOM     10  N   UNL A   1      35.221  23.730  23.402  1.00  0.00    -0.327 N 
ATOM     11  C   UNL A   1      34.122  23.119  22.654  1.00  0.00     0.262 C 
ATOM     12  C   UNL A   1      34.730  24.534  24.517  1.00  0.00     0.262 C 
ATOM     13  H   UNL A   1      35.690  24.382  22.774  1.00  0.00     0.348 HD
ATOM     14  C   UNL A   1      33.162  24.188  22.139  1.00  0.00     0.066 C 
ATOM     15  C   UNL A   1      33.821  25.664  24.042  1.00  0.00     0.066 C 
BRANCH  10  16
ATOM     16  C   UNL A   1      36.275  22.752  23.777  1.00  0.00     0.363 C 
BRANCH  16  17
ATOM     17  C   UNL A   1      36.429  22.468  25.279  1.00  0.00     0.279 C 
ATOM     18  N   UNL A   1      35.660  21.571  25.965  1.00  0.00    -0.321 N 
ATOM     19  H   UNL A   1      35.881  21.489  26.921  1.00  0.00     0.170 HD
ATOM     20  O   UNL A   1      37.354  22.997  25.910  1.00  0.00    -0.268 OA
BRANCH  18  21
ATOM     21  C   UNL A   1      34.612  20.749  25.536  1.00  0.00     0.044 A 
ATOM     22  C   UNL A   1      36.304  18.960  24.791  1.00  0.00     0.046 C 
ATOM     23  C   UNL A   1      34.911  19.520  24.915  1.00  0.00    -0.027 A 
ATOM     24  C   UNL A   1      33.863  18.783  24.334  1.00  0.00     0.005 A 
ATOM     25  C   UNL A   1      32.547  19.239  24.391  1.00  0.00     0.000 A 
ATOM     26  C   UNL A   1      33.278  21.149  25.667  1.00  0.00     0.026 A 
ATOM     27  C   UNL A   1      32.250  20.408  25.081  1.00  0.00     0.002 A 
ENDBRANCH  18  21
ENDBRANCH  16  17
ENDBRANCH  10  16
ENDBRANCH   8   9
ENDBRANCH   5   8
ENDBRANCH   3   4
ENDBRANCH   2   3
ENDBRANCH   1   2
BRANCH   1  28
ATOM     28  C   UNL A   1      32.744  28.465  26.774  1.00  0.00     0.002 C 
BRANCH  28  29
ATOM     29  C   UNL A   1      34.190  28.753  27.185  1.00  0.00     0.021 C 
BRANCH  29  30
ATOM     30  C   UNL A   1      34.421  30.123  27.798  1.00  0.00     0.116 C 
BRANCH  30  31
ATOM     31  N   UNL A   1      35.549  30.868  27.261  1.00  0.00    -0.352 N 
ATOM     32  C   UNL A   1      36.612  31.122  28.128  1.00  0.00     0.251 C 
ATOM     33  H   UNL A   1      35.562  31.179  26.328  1.00  0.00     0.163 HD
ATOM     34  O   UNL A   1      36.707  32.089  28.862  1.00  0.00    -0.269 OA
BRANCH  32  35
ATOM     35  C   UNL A   1      37.468  29.930  28.322  1.00  0.00     0.039 A 
ATOM     36  C   UNL A   1      37.467  29.212  29.516  1.00  0.00     0.014 A 
ATOM     37  C   UNL A   1      38.467  29.746  27.364  1.00  0.00     0.014 A 
ATOM     38  C   UNL A   1      38.560  28.391  29.810  1.00  0.00     0.010 A 
ATOM     39  C   UNL A   1      39.580  29.006  27.695  1.00  0.00     0.010 A 
ATOM     40  C   UNL A   1      39.647  28.359  28.936  1.00  0.00    -0.014 A 
BRANCH  40  41
ATOM     41  C   UNL A   1      40.939  27.738  29.221  1.00  0.00     0.031 A 
ATOM     42  C   UNL A   1      41.196  26.340  28.815  1.00  0.00     0.074 A 
ATOM     43  C   UNL A   1      41.962  28.508  29.649  1.00  0.00     0.049 A 
ATOM     44  N   UNL A   1      42.254  25.664  29.114  1.00  0.00    -0.248 NA
ATOM     45  C   UNL A   1      40.218  25.563  28.067  1.00  0.00     0.031 C 
ATOM     46  C   UNL A   1      43.387  28.218  29.546  1.00  0.00     0.029 A 
ATOM     47  N   UNL A   1      41.892  29.630  30.477  1.00  0.00    -0.354 N 
ATOM     48  C   UNL A   1      42.242  24.501  28.375  1.00  0.00     0.074 A 
ATOM     49  C   UNL A   1      40.907  24.444  27.829  1.00  0.00     0.031 C 
ATOM     50  C   UNL A   1      44.044  28.944  30.462  1.00  0.00     0.029 A 
ATOM     51  C   UNL A   1      43.046  29.590  31.293  1.00  0.00     0.049 A 
ATOM     52  H   UNL A   1      41.183  30.311  30.491  1.00  0.00     0.167 HD
ATOM     53  C   UNL A   1      43.408  23.802  28.226  1.00  0.00     0.037 A 
ATOM     54  C   UNL A   1      42.926  29.410  32.644  1.00  0.00     0.037 A 
ATOM     55  C   UNL A   1      44.439  24.300  29.149  1.00  0.00     0.049 A 
ATOM     56  C   UNL A   1      43.527  28.122  33.175  1.00  0.00     0.074 A 
ATOM     57  C   UNL A   1      45.577  25.083  29.034  1.00  0.00     0.029 A 
ATOM     58  N   UNL A   1      44.202  24.189  30.509  1.00  0.00    -0.354 N 
ATOM     59  N   UNL A   1      44.130  27.225  32.443  1.00  0.00    -0.248 NA
ATOM     60  C   UNL A   1      43.432  27.714  34.578  1.00  0.00     0.031 C 
ATOM     61  C   UNL A   1      45.993  25.466  30.347  1.00  0.00     0.029 A 
ATOM     62  C   UNL A   1      45.112  24.910  31.257  1.00  0.00     0.049 A 
ATOM     63  H   UNL A   1      43.471  23.656  30.898  1.00  0.00     0.167 HD
ATOM     64  C   UNL A   1      44.416  26.126  33.210  1.00  0.00     0.074 A 
ATOM     65  C   UNL A   1      43.988  26.491  34.548  1.00  0.00     0.031 C 
ATOM     66  C   UNL A   1      44.933  24.971  32.700  1.00  0.00     0.037 A 
BRANCH  53  67
ATOM     67  C   UNL A   1      43.697  22.807  27.104  1.00  0.00     0.058 A 
ATOM     68  C   UNL A   1      42.941  21.616  26.987  1.00  0.00     0.135 A 
ATOM     69  C   UNL A   1      44.744  22.904  26.163  1.00  0.00     0.135 A 
ATOM     70  F   UNL A   1      41.850  21.401  27.737  1.00  0.00    -0.206 F 
ATOM     71  C   UNL A   1      43.265  20.579  26.100  1.00  0.00     0.059 A 
ATOM     72  C   UNL A   1      45.111  21.871  25.296  1.00  0.00     0.059 A 
ATOM     73  F   UNL A   1      45.444  24.024  25.986  1.00  0.00    -0.206 F 
ATOM     74  C   UNL A   1      44.376  20.701  25.281  1.00  0.00     0.060 A 
BRANCH  74  75
ATOM     75  S   UNL A   1      44.841  19.341  24.194  1.00  0.00     0.124 S 
ATOM     76  O   UNL A   1      44.433  19.841  22.885  1.00  0.00    -0.237 OA
ATOM     77  O   UNL A   1      46.279  19.246  24.420  1.00  0.00    -0.237 OA
ATOM     78  O   UNL A   1      44.057  18.217  24.699  1.00  0.00    -0.744 OA
ENDBRANCH  74  75
ENDBRANCH  53  67
BRANCH  54  79
ATOM     79  C   UNL A   1      41.728  30.109  33.193  1.00  0.00     0.058 A 
ATOM     80  C   UNL A   1      41.825  31.503  33.372  1.00  0.00     0.135 A 
ATOM     81  C   UNL A   1      40.446  29.561  33.045  1.00  0.00     0.135 A 
ATOM     82  F   UNL A   1      43.028  32.074  33.553  1.00  0.00    -0.206 F 
ATOM     83  C   UNL A   1      40.729  32.339  33.191  1.00  0.00     0.059 A 
ATOM     84  C   UNL A   1      39.329  30.382  32.881  1.00  0.00     0.059 A 
ATOM     85  F   UNL A   1      40.290  28.238  32.885  1.00  0.00    -0.206 F 
ATOM     86  C   UNL A   1      39.504  31.766  32.855  1.00  0.00     0.060 A 
BRANCH  86  87
ATOM     87  S   UNL A   1      38.208  32.849  32.204  1.00  0.00     0.124 S 
ATOM     88  O   UNL A   1      38.050  33.824  33.278  1.00  0.00    -0.237 OA
ATOM     89  O   UNL A   1      38.822  33.353  30.973  1.00  0.00    -0.237 OA
ATOM     90  O   UNL A   1      37.082  31.941  32.008  1.00  0.00    -0.744 OA
ENDBRANCH  86  87
ENDBRANCH  54  79
BRANCH  66  91
ATOM     91  C   UNL A   1      45.279  23.780  33.551  1.00  0.00     0.058 A 
ATOM     92  C   UNL A   1      44.345  22.771  33.837  1.00  0.00     0.135 A 
ATOM     93  C   UNL A   1      46.524  23.681  34.207  1.00  0.00     0.135 A 
ATOM     94  F   UNL A   1      43.117  22.801  33.293  1.00  0.00    -0.206 F 
ATOM     95  C   UNL A   1      44.639  21.709  34.693  1.00  0.00     0.059 A 
ATOM     96  C   UNL A   1      46.822  22.657  35.103  1.00  0.00     0.059 A 
ATOM     97  F   UNL A   1      47.506  24.565  33.974  1.00  0.00    -0.206 F 
ATOM     98  C   UNL A   1      45.880  21.662  35.324  1.00  0.00     0.060 A 
BRANCH  98  99
ATOM     99  S   UNL A   1      46.253  20.312  36.461  1.00  0.00     0.124 S 
ATOM    100  O   UNL A   1      47.713  20.276  36.450  1.00  0.00    -0.237 OA
ATOM    101  O   UNL A   1      45.645  20.796  37.696  1.00  0.00    -0.237 OA
ATOM    102  O   UNL A   1      45.601  19.162  35.845  1.00  0.00    -0.744 OA
ENDBRANCH  98  99
ENDBRANCH  66  91
ENDBRANCH  40  41
ENDBRANCH  32  35
ENDBRANCH  30  31
ENDBRANCH  29  30
ENDBRANCH  28  29
ENDBRANCH   1  28
TORSDOF 20
ENDMDL
MODEL 3
REMARK VINA RESULT:     -12.1      1.625      2.204
REMARK SMILES Cc1ccccc1NC(=O)C[NH+]1CCC(CC(=O)NCCCCCCNC(=O)c2ccc(-c3c4nc(c(-c5c(F)cc(S(=O)(=O)[O-])cc5F)c5ccc([nH]5)c(-c5c(F)cc(S(=O)(=O)[O-])cc5F)c5nc(c(-c6c(F)cc(S(=O)(=O)[O-])cc6F)c6ccc3[nH]6)C=C5)C=C4)cc2)CC1
REMARK SMILES IDX 22 1 21 2 20 3 19 4 17 5 18 6 16 8 15 9 12 10 13 11 96 12
REMARK SMILES IDX 14 14 95 15 11 16 9 17 8 18 10 20 7 21 1 22 2 23 3 24 4 25
REMARK SMILES IDX 6 26 5 27 23 28 24 29 25 30 26 31 27 32 28 34 29 35 30 36
REMARK SMILES IDX 94 37 31 38 93 39 32 40 33 41 34 42 87 43 35 44 92 45 86 46
REMARK SMILES IDX 88 47 36 48 91 49 85 50 84 51 37 53 71 54 50 55 70 56 51 57
REMARK SMILES IDX 54 58 69 59 89 60 52 61 53 62 68 64 90 65 55 66 38 67 39 68
REMARK SMILES IDX 48 69 40 70 41 71 47 72 49 73 42 74 43 75 44 76 45 77 46 78
REMARK SMILES IDX 72 79 73 80 82 81 74 82 75 83 81 84 83 85 76 86 77 87 78 88
REMARK SMILES IDX 79 89 80 90 56 91 57 92 66 93 58 94 59 95 65 96 67 97 60 98
REMARK SMILES IDX 61 99 62 100 63 101 64 102
REMARK H PARENT 19 7 12 13 8 19 26 33 88 52 54 63
REMARK Flexibility Score: inf
ROOT
ATOM      1  C   UNL A   1      32.914  27.167  25.133  1.00  0.00     0.002 C 
ENDROOT
BRANCH   1   2
ATOM      2  C   UNL A   1      32.969  27.840  23.760  1.00  0.00     0.021 C 
BRANCH   2   3
ATOM      3  C   UNL A   1      31.741  27.625  22.869  1.00  0.00     0.116 C 
BRANCH   3   4
ATOM      4  N   UNL A   1      30.530  27.413  23.649  1.00  0.00    -0.356 N 
ATOM      5  C   UNL A   1      29.816  26.272  23.870  1.00  0.00     0.220 C 
ATOM      6  O   UNL A   1      28.794  26.330  24.557  1.00  0.00    -0.275 OA
ATOM      7  H   UNL A   1      30.171  28.219  24.087  1.00  0.00     0.163 HD
BRANCH   5   8
ATOM      8  C   UNL A   1      30.279  24.952  23.280  1.00  0.00     0.104 C 
BRANCH   8   9
ATOM      9  C   UNL A   1      31.446  24.305  24.042  1.00  0.00     0.009 C 
ATOM     10  N   UNL A   1      32.673  21.913  25.230  1.00  0.00    -0.327 N 
ATOM     11  C   UNL A   1      32.165  22.971  26.103  1.00  0.00     0.262 C 
ATOM     12  C   UNL A   1      33.152  22.448  23.960  1.00  0.00     0.262 C 
ATOM     13  H   UNL A   1      31.886  21.307  24.998  1.00  0.00     0.348 HD
ATOM     14  C   UNL A   1      31.046  23.748  25.412  1.00  0.00     0.066 C 
ATOM     15  C   UNL A   1      32.045  23.172  23.198  1.00  0.00     0.066 C 
BRANCH  10  16
ATOM     16  C   UNL A   1      33.641  21.018  25.916  1.00  0.00     0.363 C 
BRANCH  16  17
ATOM     17  C   UNL A   1      34.451  20.079  25.009  1.00  0.00     0.279 C 
ATOM     18  N   UNL A   1      35.767  20.273  24.696  1.00  0.00    -0.321 N 
ATOM     19  H   UNL A   1      36.156  19.583  24.112  1.00  0.00     0.170 HD
ATOM     20  O   UNL A   1      33.937  19.030  24.599  1.00  0.00    -0.268 OA
BRANCH  18  21
ATOM     21  C   UNL A   1      36.654  21.290  25.069  1.00  0.00     0.044 A 
ATOM     22  C   UNL A   1      38.560  19.572  25.255  1.00  0.00     0.046 C 
ATOM     23  C   UNL A   1      37.983  20.956  25.399  1.00  0.00    -0.027 A 
ATOM     24  C   UNL A   1      38.818  21.953  25.936  1.00  0.00     0.005 A 
ATOM     25  C   UNL A   1      38.356  23.255  26.116  1.00  0.00     0.000 A 
ATOM     26  C   UNL A   1      36.232  22.619  25.168  1.00  0.00     0.026 A 
ATOM     27  C   UNL A   1      37.072  23.596  25.707  1.00  0.00     0.002 A 
ENDBRANCH  18  21
ENDBRANCH  16  17
ENDBRANCH  10  16
ENDBRANCH   8   9
ENDBRANCH   5   8
ENDBRANCH   3   4
ENDBRANCH   2   3
ENDBRANCH   1   2
BRANCH   1  28
ATOM     28  C   UNL A   1      33.273  28.039  26.346  1.00  0.00     0.002 C 
BRANCH  28  29
ATOM     29  C   UNL A   1      33.957  29.377  26.054  1.00  0.00     0.021 C 
BRANCH  29  30
ATOM     30  C   UNL A   1      33.574  30.509  26.991  1.00  0.00     0.116 C 
BRANCH  30  31
ATOM     31  N   UNL A   1      34.617  31.489  27.248  1.00  0.00    -0.352 N 
ATOM     32  C   UNL A   1      35.204  31.475  28.515  1.00  0.00     0.251 C 
ATOM     33  H   UNL A   1      34.898  32.134  26.560  1.00  0.00     0.163 HD
ATOM     34  O   UNL A   1      34.801  32.091  29.484  1.00  0.00    -0.269 OA
BRANCH  32  35
ATOM     35  C   UNL A   1      36.179  30.371  28.663  1.00  0.00     0.039 A 
ATOM     36  C   UNL A   1      36.262  29.616  29.831  1.00  0.00     0.014 A 
ATOM     37  C   UNL A   1      37.183  30.323  27.693  1.00  0.00     0.014 A 
ATOM     38  C   UNL A   1      37.435  28.903  30.090  1.00  0.00     0.010 A 
ATOM     39  C   UNL A   1      38.368  29.690  27.993  1.00  0.00     0.010 A 
ATOM     40  C   UNL A   1      38.513  29.012  29.210  1.00  0.00    -0.014 A 
BRANCH  40  41
ATOM     41  C   UNL A   1      39.863  28.517  29.467  1.00  0.00     0.031 A 
ATOM     42  C   UNL A   1      40.222  27.125  29.122  1.00  0.00     0.074 A 
ATOM     43  C   UNL A   1      40.833  29.392  29.806  1.00  0.00     0.049 A 
ATOM     44  N   UNL A   1      41.346  26.557  29.407  1.00  0.00    -0.248 NA
ATOM     45  C   UNL A   1      39.283  26.229  28.462  1.00  0.00     0.031 C 
ATOM     46  C   UNL A   1      42.273  29.217  29.652  1.00  0.00     0.029 A 
ATOM     47  N   UNL A   1      40.703  30.548  30.578  1.00  0.00    -0.354 N 
ATOM     48  C   UNL A   1      41.402  25.358  28.730  1.00  0.00     0.074 A 
ATOM     49  C   UNL A   1      40.055  25.160  28.250  1.00  0.00     0.031 C 
ATOM     50  C   UNL A   1      42.903  30.044  30.498  1.00  0.00     0.029 A 
ATOM     51  C   UNL A   1      41.889  30.651  31.340  1.00  0.00     0.049 A 
ATOM     52  H   UNL A   1      39.939  31.168  30.589  1.00  0.00     0.167 HD
ATOM     53  C   UNL A   1      42.617  24.751  28.563  1.00  0.00     0.037 A 
ATOM     54  C   UNL A   1      41.841  30.537  32.703  1.00  0.00     0.037 A 
ATOM     55  C   UNL A   1      43.639  25.384  29.410  1.00  0.00     0.049 A 
ATOM     56  C   UNL A   1      42.573  29.335  33.271  1.00  0.00     0.074 A 
ATOM     57  C   UNL A   1      44.700  26.252  29.203  1.00  0.00     0.029 A 
ATOM     58  N   UNL A   1      43.469  25.329  30.784  1.00  0.00    -0.354 N 
ATOM     59  N   UNL A   1      43.219  28.451  32.559  1.00  0.00    -0.248 NA
ATOM     60  C   UNL A   1      42.571  28.999  34.696  1.00  0.00     0.031 C 
ATOM     61  C   UNL A   1      45.136  26.740  30.473  1.00  0.00     0.029 A 
ATOM     62  C   UNL A   1      44.345  26.164  31.450  1.00  0.00     0.049 A 
ATOM     63  H   UNL A   1      42.804  24.760  31.234  1.00  0.00     0.167 HD
ATOM     64  C   UNL A   1      43.630  27.424  33.369  1.00  0.00     0.074 A 
ATOM     65  C   UNL A   1      43.228  27.826  34.704  1.00  0.00     0.031 C 
ATOM     66  C   UNL A   1      44.221  26.290  32.895  1.00  0.00     0.037 A 
BRANCH  53  67
ATOM     67  C   UNL A   1      42.942  23.723  27.482  1.00  0.00     0.058 A 
ATOM     68  C   UNL A   1      42.359  22.434  27.517  1.00  0.00     0.135 A 
ATOM     69  C   UNL A   1      43.873  23.891  26.435  1.00  0.00     0.135 A 
ATOM     70  F   UNL A   1      41.385  22.128  28.386  1.00  0.00    -0.206 F 
ATOM     71  C   UNL A   1      42.747  21.387  26.669  1.00  0.00     0.059 A 
ATOM     72  C   UNL A   1      44.305  22.856  25.602  1.00  0.00     0.059 A 
ATOM     73  F   UNL A   1      44.384  25.081  26.118  1.00  0.00    -0.206 F 
ATOM     74  C   UNL A   1      43.749  21.598  25.735  1.00  0.00     0.060 A 
BRANCH  74  75
ATOM     75  S   UNL A   1      44.305  20.237  24.693  1.00  0.00     0.124 S 
ATOM     76  O   UNL A   1      45.503  19.783  25.393  1.00  0.00    -0.237 OA
ATOM     77  O   UNL A   1      43.161  19.332  24.736  1.00  0.00    -0.237 OA
ATOM     78  O   UNL A   1      44.547  20.872  23.401  1.00  0.00    -0.744 OA
ENDBRANCH  74  75
ENDBRANCH  53  67
BRANCH  54  79
ATOM     79  C   UNL A   1      40.612  31.162  33.269  1.00  0.00     0.058 A 
ATOM     80  C   UNL A   1      39.548  30.300  33.603  1.00  0.00     0.135 A 
ATOM     81  C   UNL A   1      40.672  32.402  33.921  1.00  0.00     0.135 A 
ATOM     82  F   UNL A   1      39.427  29.115  32.982  1.00  0.00    -0.206 F 
ATOM     83  C   UNL A   1      38.716  30.556  34.686  1.00  0.00     0.059 A 
ATOM     84  C   UNL A   1      39.831  32.688  34.999  1.00  0.00     0.059 A 
ATOM     85  F   UNL A   1      41.652  33.270  33.635  1.00  0.00    -0.206 F 
ATOM     86  C   UNL A   1      38.930  31.714  35.431  1.00  0.00     0.060 A 
BRANCH  86  87
ATOM     87  S   UNL A   1      38.153  31.832  37.062  1.00  0.00     0.124 S 
ATOM     88  O   UNL A   1      37.793  30.445  37.334  1.00  0.00    -0.237 OA
ATOM     89  O   UNL A   1      39.241  32.378  37.878  1.00  0.00    -0.237 OA
ATOM     90  O   UNL A   1      37.035  32.740  36.833  1.00  0.00    -0.744 OA
ENDBRANCH  86  87
ENDBRANCH  54  79
BRANCH  66  91
ATOM     91  C   UNL A   1      44.704  25.181  33.789  1.00  0.00     0.058 A 
ATOM     92  C   UNL A   1      43.817  24.377  34.525  1.00  0.00     0.135 A 
ATOM     93  C   UNL A   1      46.078  24.973  34.030  1.00  0.00     0.135 A 
ATOM     94  F   UNL A   1      42.489  24.529  34.396  1.00  0.00    -0.206 F 
ATOM     95  C   UNL A   1      44.266  23.403  35.418  1.00  0.00     0.059 A 
ATOM     96  C   UNL A   1      46.548  24.042  34.952  1.00  0.00     0.059 A 
ATOM     97  F   UNL A   1      47.014  25.654  33.351  1.00  0.00    -0.206 F 
ATOM     98  C   UNL A   1      45.635  23.245  35.628  1.00  0.00     0.060 A 
BRANCH  98  99
ATOM     99  S   UNL A   1      46.220  22.014  36.809  1.00  0.00     0.124 S 
ATOM    100  O   UNL A   1      47.672  22.124  36.695  1.00  0.00    -0.237 OA
ATOM    101  O   UNL A   1      45.647  22.510  38.055  1.00  0.00    -0.237 OA
ATOM    102  O   UNL A   1      45.653  20.767  36.306  1.00  0.00    -0.744 OA
ENDBRANCH  98  99
ENDBRANCH  66  91
ENDBRANCH  40  41
ENDBRANCH  32  35
ENDBRANCH  30  31
ENDBRANCH  29  30
ENDBRANCH  28  29
ENDBRANCH   1  28
TORSDOF 20
ENDMDL
