MODEL 1
REMARK VINA RESULT:     -12.9      0.000      0.000
REMARK SMILES COC(=O)c1ccc2c(c1)=N[C@H](c1cn(CCC(=O)NCCCCCCNC(=O)c3ccc(-c4c5nc(c(-c6c(F)cc(S(=O)(=O)[O-])cc6F)c6ccc([nH]6)c(-c6c(F)cc(S(=O)(=O)[O-])cc6F)c6nc(c(-c7c(F)cc(S(=O)(=O)[O-])cc7F)c7ccc4[nH]7)C=C6)C=C5)cc3)c3ccccc13)N=2
REMARK SMILES IDX 22 1 21 2 20 3 18 4 19 5 17 7 16 8 15 9 13 10 14 11 101 12
REMARK SMILES IDX 96 13 100 14 97 15 99 16 98 17 12 18 5 19 6 20 10 21 7 22
REMARK SMILES IDX 9 23 8 24 11 25 102 26 3 27 4 28 2 29 1 30 23 31 24 32 25 33
REMARK SMILES IDX 26 34 27 35 28 36 29 38 30 39 31 40 95 41 32 42 94 43 33 44
REMARK SMILES IDX 34 45 35 46 88 47 36 48 93 49 87 50 89 51 37 52 92 53 86 54
REMARK SMILES IDX 85 55 38 57 72 58 51 59 71 60 52 61 55 62 70 63 90 64 53 65
REMARK SMILES IDX 54 66 69 68 91 69 56 70 39 71 40 72 49 73 41 74 42 75 48 76
REMARK SMILES IDX 50 77 43 78 44 79 45 80 46 81 47 82 73 83 74 84 83 85 75 86
REMARK SMILES IDX 76 87 82 88 84 89 77 90 78 91 79 92 80 93 81 94 57 95 58 96
REMARK SMILES IDX 67 97 59 98 60 99 66 100 68 101 61 102 62 103 63 104 64 105
REMARK SMILES IDX 65 106
REMARK H PARENT 20 6 27 37 89 56 55 67
REMARK Flexibility Score: inf
ROOT
ATOM      1  C   UNL A   1      38.957  22.761  26.290  1.00  0.00     0.021 C 
ENDROOT
BRANCH   1   2
ATOM      2  C   UNL A   1      37.654  22.399  25.546  1.00  0.00     0.116 C 
BRANCH   2   3
ATOM      3  N   UNL A   1      36.479  22.196  26.388  1.00  0.00    -0.356 N 
ATOM      4  C   UNL A   1      35.305  21.529  26.198  1.00  0.00     0.221 C 
ATOM      5  O   UNL A   1      34.550  21.415  27.170  1.00  0.00    -0.275 OA
ATOM      6  H   UNL A   1      36.549  22.627  27.270  1.00  0.00     0.163 HD
BRANCH   4   7
ATOM      7  C   UNL A   1      34.945  20.871  24.880  1.00  0.00     0.122 C 
BRANCH   7   8
ATOM      8  C   UNL A   1      33.494  20.322  24.868  1.00  0.00     0.132 C 
BRANCH   8   9
ATOM      9  N   UNL A   1      32.482  21.267  24.363  1.00  0.00    -0.347 N 
ATOM     10  C   UNL A   1      32.766  23.255  23.435  1.00  0.00     0.024 A 
ATOM     11  C   UNL A   1      32.668  21.890  23.150  1.00  0.00     0.094 A 
ATOM     12  C   UNL A   1      32.714  23.327  24.880  1.00  0.00     0.007 A 
ATOM     13  C   UNL A   1      31.893  22.240  25.144  1.00  0.00     0.048 A 
ATOM     14  C   UNL A   1      32.735  24.300  25.881  1.00  0.00     0.011 A 
ATOM     15  C   UNL A   1      30.671  22.443  25.798  1.00  0.00     0.027 A 
ATOM     16  C   UNL A   1      31.623  24.482  26.690  1.00  0.00     0.001 A 
ATOM     17  C   UNL A   1      30.532  23.645  26.516  1.00  0.00     0.002 A 
BRANCH  10  18
ATOM     18  C   UNL A   1      32.746  24.307  22.364  1.00  0.00     0.255 C 
ATOM     19  C   UNL A   1      31.042  28.466  22.860  1.00  0.00     0.062 A 
ATOM     20  C   UNL A   1      32.453  28.791  22.692  1.00  0.00     0.018 A 
ATOM     21  C   UNL A   1      30.587  27.203  22.776  1.00  0.00     0.046 A 
ATOM     22  C   UNL A   1      33.415  27.863  22.591  1.00  0.00     0.031 A 
ATOM     23  C   UNL A   1      31.572  26.136  22.559  1.00  0.00     0.087 A 
ATOM     24  C   UNL A   1      33.011  26.453  22.577  1.00  0.00     0.086 A 
ATOM     25  N   UNL A   1      31.361  24.886  22.354  1.00  0.00    -0.252 NA
ATOM     26  N   UNL A   1      33.742  25.394  22.531  1.00  0.00    -0.252 NA
BRANCH  19  27
ATOM     27  C   UNL A   1      30.042  29.519  23.185  1.00  0.00     0.337 C 
ATOM     28  O   UNL A   1      30.148  30.303  24.138  1.00  0.00    -0.246 OA
BRANCH  27  29
ATOM     29  O   UNL A   1      29.030  29.508  22.291  1.00  0.00    -0.465 OA
ATOM     30  C   UNL A   1      28.982  30.636  21.417  1.00  0.00     0.282 C 
ENDBRANCH  27  29
ENDBRANCH  19  27
ENDBRANCH  10  18
ENDBRANCH   8   9
ENDBRANCH   7   8
ENDBRANCH   4   7
ENDBRANCH   2   3
ENDBRANCH   1   2
BRANCH   1  31
ATOM     31  C   UNL A   1      40.150  21.799  26.131  1.00  0.00     0.002 C 
BRANCH  31  32
ATOM     32  C   UNL A   1      40.851  21.343  27.408  1.00  0.00     0.002 C 
BRANCH  32  33
ATOM     33  C   UNL A   1      41.814  20.167  27.267  1.00  0.00     0.021 C 
BRANCH  33  34
ATOM     34  C   UNL A   1      41.990  19.597  25.860  1.00  0.00     0.116 C 
BRANCH  34  35
ATOM     35  N   UNL A   1      43.322  19.624  25.270  1.00  0.00    -0.352 N 
ATOM     36  C   UNL A   1      44.353  20.530  25.308  1.00  0.00     0.251 C 
ATOM     37  H   UNL A   1      43.525  18.826  24.731  1.00  0.00     0.163 HD
ATOM     38  O   UNL A   1      45.458  20.173  24.898  1.00  0.00    -0.269 OA
BRANCH  36  39
ATOM     39  C   UNL A   1      44.164  21.935  25.732  1.00  0.00     0.039 A 
ATOM     40  C   UNL A   1      44.641  22.437  26.935  1.00  0.00     0.014 A 
ATOM     41  C   UNL A   1      43.408  22.771  24.891  1.00  0.00     0.014 A 
ATOM     42  C   UNL A   1      44.187  23.660  27.390  1.00  0.00     0.010 A 
ATOM     43  C   UNL A   1      43.029  24.045  25.309  1.00  0.00     0.010 A 
ATOM     44  C   UNL A   1      43.364  24.466  26.590  1.00  0.00    -0.014 A 
BRANCH  44  45
ATOM     45  C   UNL A   1      43.027  25.782  27.141  1.00  0.00     0.031 A 
ATOM     46  C   UNL A   1      44.046  26.817  26.821  1.00  0.00     0.074 A 
ATOM     47  C   UNL A   1      41.932  26.105  27.857  1.00  0.00     0.049 A 
ATOM     48  N   UNL A   1      44.938  27.301  27.621  1.00  0.00    -0.248 NA
ATOM     49  C   UNL A   1      44.236  27.198  25.413  1.00  0.00     0.031 C 
ATOM     50  C   UNL A   1      40.712  25.316  28.035  1.00  0.00     0.029 A 
ATOM     51  N   UNL A   1      41.647  27.267  28.523  1.00  0.00    -0.354 N 
ATOM     52  C   UNL A   1      45.634  28.248  26.875  1.00  0.00     0.074 A 
ATOM     53  C   UNL A   1      45.302  27.997  25.499  1.00  0.00     0.031 C 
ATOM     54  C   UNL A   1      39.739  26.109  28.541  1.00  0.00     0.029 A 
ATOM     55  C   UNL A   1      40.312  27.400  28.885  1.00  0.00     0.049 A 
ATOM     56  H   UNL A   1      42.327  27.949  28.727  1.00  0.00     0.167 HD
ATOM     57  C   UNL A   1      46.171  29.337  27.490  1.00  0.00     0.037 A 
ATOM     58  C   UNL A   1      39.709  28.496  29.406  1.00  0.00     0.037 A 
ATOM     59  C   UNL A   1      46.231  29.148  28.917  1.00  0.00     0.049 A 
ATOM     60  C   UNL A   1      40.744  29.298  30.103  1.00  0.00     0.074 A 
ATOM     61  C   UNL A   1      47.042  28.522  29.836  1.00  0.00     0.029 A 
ATOM     62  N   UNL A   1      45.059  29.455  29.549  1.00  0.00    -0.354 N 
ATOM     63  N   UNL A   1      41.378  28.891  31.169  1.00  0.00    -0.248 NA
ATOM     64  C   UNL A   1      41.313  30.470  29.442  1.00  0.00     0.031 C 
ATOM     65  C   UNL A   1      46.266  28.375  31.026  1.00  0.00     0.029 A 
ATOM     66  C   UNL A   1      45.009  28.934  30.811  1.00  0.00     0.049 A 
ATOM     67  H   UNL A   1      44.338  29.989  29.144  1.00  0.00     0.167 HD
ATOM     68  C   UNL A   1      42.620  29.483  31.072  1.00  0.00     0.074 A 
ATOM     69  C   UNL A   1      42.469  30.560  30.104  1.00  0.00     0.031 C 
ATOM     70  C   UNL A   1      43.743  28.842  31.502  1.00  0.00     0.037 A 
BRANCH  57  71
ATOM     71  C   UNL A   1      46.117  30.747  26.925  1.00  0.00     0.058 A 
ATOM     72  C   UNL A   1      47.298  31.523  26.936  1.00  0.00     0.135 A 
ATOM     73  C   UNL A   1      44.922  31.469  26.713  1.00  0.00     0.135 A 
ATOM     74  F   UNL A   1      48.496  30.944  27.118  1.00  0.00    -0.206 F 
ATOM     75  C   UNL A   1      47.281  32.916  26.845  1.00  0.00     0.059 A 
ATOM     76  C   UNL A   1      44.888  32.852  26.573  1.00  0.00     0.059 A 
ATOM     77  F   UNL A   1      43.717  30.891  26.728  1.00  0.00    -0.206 F 
ATOM     78  C   UNL A   1      46.065  33.571  26.684  1.00  0.00     0.060 A 
BRANCH  78  79
ATOM     79  S   UNL A   1      46.023  35.372  26.668  1.00  0.00     0.124 S 
ATOM     80  O   UNL A   1      44.601  35.628  26.468  1.00  0.00    -0.237 OA
ATOM     81  O   UNL A   1      46.555  35.695  27.987  1.00  0.00    -0.237 OA
ATOM     82  O   UNL A   1      46.893  35.715  25.547  1.00  0.00    -0.744 OA
ENDBRANCH  78  79
ENDBRANCH  57  71
BRANCH  58  83
ATOM     83  C   UNL A   1      38.357  29.040  29.103  1.00  0.00     0.058 A 
ATOM     84  C   UNL A   1      37.422  29.267  30.131  1.00  0.00     0.135 A 
ATOM     85  C   UNL A   1      38.068  29.633  27.859  1.00  0.00     0.135 A 
ATOM     86  F   UNL A   1      37.618  28.743  31.351  1.00  0.00    -0.206 F 
ATOM     87  C   UNL A   1      36.312  30.099  29.960  1.00  0.00     0.059 A 
ATOM     88  C   UNL A   1      36.961  30.457  27.661  1.00  0.00     0.059 A 
ATOM     89  F   UNL A   1      38.909  29.508  26.821  1.00  0.00    -0.206 F 
ATOM     90  C   UNL A   1      36.105  30.713  28.726  1.00  0.00     0.060 A 
BRANCH  90  91
ATOM     91  S   UNL A   1      34.789  31.943  28.559  1.00  0.00     0.124 S 
ATOM     92  O   UNL A   1      35.398  32.918  27.661  1.00  0.00    -0.237 OA
ATOM     93  O   UNL A   1      33.699  31.153  27.999  1.00  0.00    -0.237 OA
ATOM     94  O   UNL A   1      34.580  32.403  29.931  1.00  0.00    -0.744 OA
ENDBRANCH  90  91
ENDBRANCH  58  83
BRANCH  70  95
ATOM     95  C   UNL A   1      43.632  27.894  32.649  1.00  0.00     0.058 A 
ATOM     96  C   UNL A   1      43.745  26.500  32.565  1.00  0.00     0.135 A 
ATOM     97  C   UNL A   1      43.529  28.467  33.928  1.00  0.00     0.135 A 
ATOM     98  F   UNL A   1      43.904  25.890  31.381  1.00  0.00    -0.206 F 
ATOM     99  C   UNL A   1      43.761  25.706  33.715  1.00  0.00     0.059 A 
ATOM    100  C   UNL A   1      43.569  27.700  35.085  1.00  0.00     0.059 A 
ATOM    101  F   UNL A   1      43.449  29.800  34.063  1.00  0.00    -0.206 F 
ATOM    102  C   UNL A   1      43.687  26.318  34.970  1.00  0.00     0.060 A 
BRANCH 102 103
ATOM    103  S   UNL A   1      43.840  25.306  36.458  1.00  0.00     0.124 S 
ATOM    104  O   UNL A   1      42.759  24.343  36.288  1.00  0.00    -0.237 OA
ATOM    105  O   UNL A   1      45.194  24.772  36.336  1.00  0.00    -0.237 OA
ATOM    106  O   UNL A   1      43.655  26.265  37.545  1.00  0.00    -0.744 OA
ENDBRANCH 102 103
ENDBRANCH  70  95
ENDBRANCH  44  45
ENDBRANCH  36  39
ENDBRANCH  34  35
ENDBRANCH  33  34
ENDBRANCH  32  33
ENDBRANCH  31  32
ENDBRANCH   1  31
TORSDOF 21
ENDMDL
MODEL 2
REMARK VINA RESULT:     -12.7      1.193      2.063
REMARK SMILES COC(=O)c1ccc2c(c1)=N[C@H](c1cn(CCC(=O)NCCCCCCNC(=O)c3ccc(-c4c5nc(c(-c6c(F)cc(S(=O)(=O)[O-])cc6F)c6ccc([nH]6)c(-c6c(F)cc(S(=O)(=O)[O-])cc6F)c6nc(c(-c7c(F)cc(S(=O)(=O)[O-])cc7F)c7ccc4[nH]7)C=C6)C=C5)cc3)c3ccccc13)N=2
REMARK SMILES IDX 22 1 21 2 20 3 18 4 19 5 17 7 16 8 15 9 13 10 14 11 101 12
REMARK SMILES IDX 96 13 100 14 97 15 99 16 98 17 12 18 5 19 6 20 10 21 7 22
REMARK SMILES IDX 9 23 8 24 11 25 102 26 3 27 4 28 2 29 1 30 23 31 24 32 25 33
REMARK SMILES IDX 26 34 27 35 28 36 29 38 30 39 31 40 95 41 32 42 94 43 33 44
REMARK SMILES IDX 34 45 35 46 88 47 36 48 93 49 87 50 89 51 37 52 92 53 86 54
REMARK SMILES IDX 85 55 38 57 72 58 51 59 71 60 52 61 55 62 70 63 90 64 53 65
REMARK SMILES IDX 54 66 69 68 91 69 56 70 39 71 40 72 49 73 41 74 42 75 48 76
REMARK SMILES IDX 50 77 43 78 44 79 45 80 46 81 47 82 73 83 74 84 83 85 75 86
REMARK SMILES IDX 76 87 82 88 84 89 77 90 78 91 79 92 80 93 81 94 57 95 58 96
REMARK SMILES IDX 67 97 59 98 60 99 66 100 68 101 61 102 62 103 63 104 64 105
REMARK SMILES IDX 65 106
REMARK H PARENT 20 6 27 37 89 56 55 67
REMARK Flexibility Score: inf
ROOT
ATOM      1  C   UNL A   1      40.046  21.839  27.249  1.00  0.00     0.021 C 
ENDROOT
BRANCH   1   2
ATOM      2  C   UNL A   1      39.191  22.442  26.114  1.00  0.00     0.116 C 
BRANCH   2   3
ATOM      3  N   UNL A   1      38.172  21.562  25.553  1.00  0.00    -0.356 N 
ATOM      4  C   UNL A   1      36.813  21.646  25.474  1.00  0.00     0.221 C 
ATOM      5  O   UNL A   1      36.227  20.793  24.800  1.00  0.00    -0.275 OA
ATOM      6  H   UNL A   1      38.539  20.742  25.150  1.00  0.00     0.163 HD
BRANCH   4   7
ATOM      7  C   UNL A   1      36.028  22.775  26.112  1.00  0.00     0.122 C 
BRANCH   7   8
ATOM      8  C   UNL A   1      36.009  24.054  25.235  1.00  0.00     0.132 C 
BRANCH   8   9
ATOM      9  N   UNL A   1      34.710  24.350  24.605  1.00  0.00    -0.347 N 
ATOM     10  C   UNL A   1      32.769  24.818  25.557  1.00  0.00     0.024 A 
ATOM     11  C   UNL A   1      33.944  25.396  25.068  1.00  0.00     0.094 A 
ATOM     12  C   UNL A   1      32.981  23.394  25.417  1.00  0.00     0.007 A 
ATOM     13  C   UNL A   1      33.782  23.381  24.284  1.00  0.00     0.048 A 
ATOM     14  C   UNL A   1      32.291  22.203  25.657  1.00  0.00     0.011 A 
ATOM     15  C   UNL A   1      33.340  22.711  23.135  1.00  0.00     0.027 A 
ATOM     16  C   UNL A   1      31.935  21.386  24.594  1.00  0.00     0.001 A 
ATOM     17  C   UNL A   1      32.330  21.749  23.316  1.00  0.00     0.002 A 
BRANCH  10  18
ATOM     18  C   UNL A   1      31.569  25.634  25.945  1.00  0.00     0.255 C 
ATOM     19  C   UNL A   1      29.572  28.708  23.298  1.00  0.00     0.062 A 
ATOM     20  C   UNL A   1      28.509  27.714  23.373  1.00  0.00     0.018 A 
ATOM     21  C   UNL A   1      30.724  28.572  23.979  1.00  0.00     0.046 A 
ATOM     22  C   UNL A   1      28.648  26.534  23.995  1.00  0.00     0.031 A 
ATOM     23  C   UNL A   1      30.909  27.351  24.772  1.00  0.00     0.087 A 
ATOM     24  C   UNL A   1      29.911  26.269  24.693  1.00  0.00     0.086 A 
ATOM     25  N   UNL A   1      31.872  27.054  25.567  1.00  0.00    -0.252 NA
ATOM     26  N   UNL A   1      30.292  25.211  25.318  1.00  0.00    -0.252 NA
BRANCH  19  27
ATOM     27  C   UNL A   1      29.449  29.901  22.418  1.00  0.00     0.337 C 
ATOM     28  O   UNL A   1      29.837  29.937  21.242  1.00  0.00    -0.246 OA
BRANCH  27  29
ATOM     29  O   UNL A   1      28.844  30.917  23.072  1.00  0.00    -0.465 OA
ATOM     30  C   UNL A   1      28.000  31.738  22.265  1.00  0.00     0.282 C 
ENDBRANCH  27  29
ENDBRANCH  19  27
ENDBRANCH  10  18
ENDBRANCH   8   9
ENDBRANCH   7   8
ENDBRANCH   4   7
ENDBRANCH   2   3
ENDBRANCH   1   2
BRANCH   1  31
ATOM     31  C   UNL A   1      41.553  21.666  26.981  1.00  0.00     0.002 C 
BRANCH  31  32
ATOM     32  C   UNL A   1      42.254  20.500  27.673  1.00  0.00     0.002 C 
BRANCH  32  33
ATOM     33  C   UNL A   1      42.571  19.288  26.801  1.00  0.00     0.021 C 
BRANCH  33  34
ATOM     34  C   UNL A   1      42.766  19.557  25.309  1.00  0.00     0.116 C 
BRANCH  34  35
ATOM     35  N   UNL A   1      44.129  19.636  24.799  1.00  0.00    -0.352 N 
ATOM     36  C   UNL A   1      45.132  20.565  24.925  1.00  0.00     0.251 C 
ATOM     37  H   UNL A   1      44.384  18.861  24.248  1.00  0.00     0.163 HD
ATOM     38  O   UNL A   1      46.268  20.248  24.570  1.00  0.00    -0.269 OA
BRANCH  36  39
ATOM     39  C   UNL A   1      44.883  21.950  25.382  1.00  0.00     0.039 A 
ATOM     40  C   UNL A   1      45.387  22.462  26.569  1.00  0.00     0.014 A 
ATOM     41  C   UNL A   1      44.039  22.751  24.593  1.00  0.00     0.014 A 
ATOM     42  C   UNL A   1      44.886  23.649  27.067  1.00  0.00     0.010 A 
ATOM     43  C   UNL A   1      43.607  23.995  25.049  1.00  0.00     0.010 A 
ATOM     44  C   UNL A   1      43.979  24.417  26.320  1.00  0.00    -0.014 A 
BRANCH  44  45
ATOM     45  C   UNL A   1      43.594  25.702  26.909  1.00  0.00     0.031 A 
ATOM     46  C   UNL A   1      44.577  26.783  26.626  1.00  0.00     0.074 A 
ATOM     47  C   UNL A   1      42.484  25.965  27.628  1.00  0.00     0.049 A 
ATOM     48  N   UNL A   1      45.447  27.273  27.446  1.00  0.00    -0.248 NA
ATOM     49  C   UNL A   1      44.759  27.212  25.232  1.00  0.00     0.031 C 
ATOM     50  C   UNL A   1      41.293  25.129  27.776  1.00  0.00     0.029 A 
ATOM     51  N   UNL A   1      42.156  27.096  28.328  1.00  0.00    -0.354 N 
ATOM     52  C   UNL A   1      46.113  28.265  26.733  1.00  0.00     0.074 A 
ATOM     53  C   UNL A   1      45.796  28.045  25.347  1.00  0.00     0.031 C 
ATOM     54  C   UNL A   1      40.290  25.871  28.300  1.00  0.00     0.029 A 
ATOM     55  C   UNL A   1      40.815  27.170  28.686  1.00  0.00     0.049 A 
ATOM     56  H   UNL A   1      42.811  27.794  28.556  1.00  0.00     0.167 HD
ATOM     57  C   UNL A   1      46.608  29.353  27.383  1.00  0.00     0.037 A 
ATOM     58  C   UNL A   1      40.172  28.228  29.236  1.00  0.00     0.037 A 
ATOM     59  C   UNL A   1      46.669  29.123  28.805  1.00  0.00     0.049 A 
ATOM     60  C   UNL A   1      41.174  29.044  29.963  1.00  0.00     0.074 A 
ATOM     61  C   UNL A   1      47.497  28.499  29.709  1.00  0.00     0.029 A 
ATOM     62  N   UNL A   1      45.484  29.369  29.439  1.00  0.00    -0.354 N 
ATOM     63  N   UNL A   1      41.818  28.627  31.020  1.00  0.00    -0.248 NA
ATOM     64  C   UNL A   1      41.705  30.255  29.342  1.00  0.00     0.031 C 
ATOM     65  C   UNL A   1      46.721  28.288  30.889  1.00  0.00     0.029 A 
ATOM     66  C   UNL A   1      45.447  28.809  30.684  1.00  0.00     0.049 A 
ATOM     67  H   UNL A   1      44.746  29.890  29.046  1.00  0.00     0.167 HD
ATOM     68  C   UNL A   1      43.039  29.266  30.948  1.00  0.00     0.074 A 
ATOM     69  C   UNL A   1      42.853  30.365  30.012  1.00  0.00     0.031 C 
ATOM     70  C   UNL A   1      44.181  28.652  31.364  1.00  0.00     0.037 A 
BRANCH  57  71
ATOM     71  C   UNL A   1      46.507  30.777  26.861  1.00  0.00     0.058 A 
ATOM     72  C   UNL A   1      47.652  31.603  26.929  1.00  0.00     0.135 A 
ATOM     73  C   UNL A   1      45.288  31.454  26.639  1.00  0.00     0.135 A 
ATOM     74  F   UNL A   1      48.869  31.071  27.126  1.00  0.00    -0.206 F 
ATOM     75  C   UNL A   1      47.576  32.997  26.881  1.00  0.00     0.059 A 
ATOM     76  C   UNL A   1      45.197  32.838  26.541  1.00  0.00     0.059 A 
ATOM     77  F   UNL A   1      44.109  30.824  26.602  1.00  0.00    -0.206 F 
ATOM     78  C   UNL A   1      46.338  33.603  26.706  1.00  0.00     0.060 A 
BRANCH  78  79
ATOM     79  S   UNL A   1      46.216  35.400  26.745  1.00  0.00     0.124 S 
ATOM     80  O   UNL A   1      47.212  35.780  25.750  1.00  0.00    -0.237 OA
ATOM     81  O   UNL A   1      44.822  35.613  26.373  1.00  0.00    -0.237 OA
ATOM     82  O   UNL A   1      46.546  35.726  28.129  1.00  0.00    -0.744 OA
ENDBRANCH  78  79
ENDBRANCH  57  71
BRANCH  58  83
ATOM     83  C   UNL A   1      38.803  28.733  28.943  1.00  0.00     0.058 A 
ATOM     84  C   UNL A   1      37.850  28.879  29.969  1.00  0.00     0.135 A 
ATOM     85  C   UNL A   1      38.503  29.370  27.722  1.00  0.00     0.135 A 
ATOM     86  F   UNL A   1      38.054  28.309  31.167  1.00  0.00    -0.206 F 
ATOM     87  C   UNL A   1      36.710  29.674  29.822  1.00  0.00     0.059 A 
ATOM     88  C   UNL A   1      37.367  30.159  27.549  1.00  0.00     0.059 A 
ATOM     89  F   UNL A   1      39.358  29.323  26.690  1.00  0.00    -0.206 F 
ATOM     90  C   UNL A   1      36.492  30.335  28.614  1.00  0.00     0.060 A 
BRANCH  90  91
ATOM     91  S   UNL A   1      35.130  31.520  28.487  1.00  0.00     0.124 S 
ATOM     92  O   UNL A   1      34.956  31.929  29.877  1.00  0.00    -0.237 OA
ATOM     93  O   UNL A   1      35.683  32.527  27.589  1.00  0.00    -0.237 OA
ATOM     94  O   UNL A   1      34.039  30.723  27.930  1.00  0.00    -0.744 OA
ENDBRANCH  90  91
ENDBRANCH  58  83
BRANCH  70  95
ATOM     95  C   UNL A   1      44.099  27.666  32.482  1.00  0.00     0.058 A 
ATOM     96  C   UNL A   1      43.964  27.987  33.840  1.00  0.00     0.135 A 
ATOM     97  C   UNL A   1      44.029  26.311  32.120  1.00  0.00     0.135 A 
ATOM     98  F   UNL A   1      43.963  29.264  34.251  1.00  0.00    -0.206 F 
ATOM     99  C   UNL A   1      43.760  26.993  34.800  1.00  0.00     0.059 A 
ATOM    100  C   UNL A   1      43.801  25.309  33.053  1.00  0.00     0.059 A 
ATOM    101  F   UNL A   1      44.123  25.954  30.829  1.00  0.00    -0.206 F 
ATOM    102  C   UNL A   1      43.666  25.658  34.394  1.00  0.00     0.060 A 
BRANCH 102 103
ATOM    103  S   UNL A   1      43.272  24.387  35.615  1.00  0.00     0.124 S 
ATOM    104  O   UNL A   1      42.259  25.047  36.431  1.00  0.00    -0.237 OA
ATOM    105  O   UNL A   1      42.797  23.287  34.780  1.00  0.00    -0.237 OA
ATOM    106  O   UNL A   1      44.549  24.145  36.282  1.00  0.00    -0.744 OA
ENDBRANCH 102 103
ENDBRANCH  70  95
ENDBRANCH  44  45
ENDBRANCH  36  39
ENDBRANCH  34  35
ENDBRANCH  33  34
ENDBRANCH  32  33
ENDBRANCH  31  32
ENDBRANCH   1  31
TORSDOF 21
ENDMDL
MODEL 3
REMARK VINA RESULT:     -12.6      2.490      3.445
REMARK SMILES COC(=O)c1ccc2c(c1)=N[C@H](c1cn(CCC(=O)NCCCCCCNC(=O)c3ccc(-c4c5nc(c(-c6c(F)cc(S(=O)(=O)[O-])cc6F)c6ccc([nH]6)c(-c6c(F)cc(S(=O)(=O)[O-])cc6F)c6nc(c(-c7c(F)cc(S(=O)(=O)[O-])cc7F)c7ccc4[nH]7)C=C6)C=C5)cc3)c3ccccc13)N=2
REMARK SMILES IDX 22 1 21 2 20 3 18 4 19 5 17 7 16 8 15 9 13 10 14 11 101 12
REMARK SMILES IDX 96 13 100 14 97 15 99 16 98 17 12 18 5 19 6 20 10 21 7 22
REMARK SMILES IDX 9 23 8 24 11 25 102 26 3 27 4 28 2 29 1 30 23 31 24 32 25 33
REMARK SMILES IDX 26 34 27 35 28 36 29 38 30 39 31 40 95 41 32 42 94 43 33 44
REMARK SMILES IDX 34 45 35 46 88 47 36 48 93 49 87 50 89 51 37 52 92 53 86 54
REMARK SMILES IDX 85 55 38 57 72 58 51 59 71 60 52 61 55 62 70 63 90 64 53 65
REMARK SMILES IDX 54 66 69 68 91 69 56 70 39 71 40 72 49 73 41 74 42 75 48 76
REMARK SMILES IDX 50 77 43 78 44 79 45 80 46 81 47 82 73 83 74 84 83 85 75 86
REMARK SMILES IDX 76 87 82 88 84 89 77 90 78 91 79 92 80 93 81 94 57 95 58 96
REMARK SMILES IDX 67 97 59 98 60 99 66 100 68 101 61 102 62 103 63 104 64 105
REMARK SMILES IDX 65 106
REMARK H PARENT 20 6 27 37 89 56 55 67
REMARK Flexibility Score: inf
ROOT
ATOM      1  C   UNL A   1      37.205  20.330  24.922  1.00  0.00     0.021 C 
ENDROOT
BRANCH   1   2
ATOM      2  C   UNL A   1      35.680  20.224  25.141  1.00  0.00     0.116 C 
BRANCH   2   3
ATOM      3  N   UNL A   1      35.056  18.994  24.664  1.00  0.00    -0.356 N 
ATOM      4  C   UNL A   1      33.782  18.514  24.728  1.00  0.00     0.221 C 
ATOM      5  O   UNL A   1      33.527  17.484  24.095  1.00  0.00    -0.275 OA
ATOM      6  H   UNL A   1      35.682  18.389  24.204  1.00  0.00     0.163 HD
BRANCH   4   7
ATOM      7  C   UNL A   1      32.675  19.235  25.473  1.00  0.00     0.122 C 
BRANCH   7   8
ATOM      8  C   UNL A   1      32.216  20.528  24.748  1.00  0.00     0.132 C 
BRANCH   8   9
ATOM      9  N   UNL A   1      32.163  21.728  25.603  1.00  0.00    -0.347 N 
ATOM     10  C   UNL A   1      31.305  23.719  25.163  1.00  0.00     0.024 A 
ATOM     11  C   UNL A   1      31.000  22.459  25.687  1.00  0.00     0.094 A 
ATOM     12  C   UNL A   1      32.673  23.598  24.706  1.00  0.00     0.007 A 
ATOM     13  C   UNL A   1      33.155  22.685  25.633  1.00  0.00     0.048 A 
ATOM     14  C   UNL A   1      33.651  24.395  24.108  1.00  0.00     0.011 A 
ATOM     15  C   UNL A   1      34.216  23.051  26.472  1.00  0.00     0.027 A 
ATOM     16  C   UNL A   1      34.815  24.696  24.801  1.00  0.00     0.001 A 
ATOM     17  C   UNL A   1      35.000  24.142  26.058  1.00  0.00     0.002 A 
BRANCH  10  18
ATOM     18  C   UNL A   1      30.372  24.890  25.281  1.00  0.00     0.255 C 
ATOM     19  C   UNL A   1      31.675  29.181  25.859  1.00  0.00     0.062 A 
ATOM     20  C   UNL A   1      31.092  29.273  24.527  1.00  0.00     0.018 A 
ATOM     21  C   UNL A   1      31.650  28.039  26.570  1.00  0.00     0.046 A 
ATOM     22  C   UNL A   1      30.627  28.212  23.852  1.00  0.00     0.031 A 
ATOM     23  C   UNL A   1      31.058  26.854  25.939  1.00  0.00     0.087 A 
ATOM     24  C   UNL A   1      30.642  26.909  24.526  1.00  0.00     0.086 A 
ATOM     25  N   UNL A   1      30.841  25.699  26.455  1.00  0.00    -0.252 NA
ATOM     26  N   UNL A   1      30.292  25.754  24.078  1.00  0.00    -0.252 NA
BRANCH  19  27
ATOM     27  C   UNL A   1      32.373  30.341  26.477  1.00  0.00     0.337 C 
ATOM     28  O   UNL A   1      31.819  31.413  26.757  1.00  0.00    -0.246 OA
BRANCH  27  29
ATOM     29  O   UNL A   1      33.673  30.050  26.704  1.00  0.00    -0.465 OA
ATOM     30  C   UNL A   1      34.338  30.926  27.614  1.00  0.00     0.282 C 
ENDBRANCH  27  29
ENDBRANCH  19  27
ENDBRANCH  10  18
ENDBRANCH   8   9
ENDBRANCH   7   8
ENDBRANCH   4   7
ENDBRANCH   2   3
ENDBRANCH   1   2
BRANCH   1  31
ATOM     31  C   UNL A   1      37.795  21.743  24.750  1.00  0.00     0.002 C 
BRANCH  31  32
ATOM     32  C   UNL A   1      38.568  22.323  25.932  1.00  0.00     0.002 C 
BRANCH  32  33
ATOM     33  C   UNL A   1      39.774  21.519  26.410  1.00  0.00     0.021 C 
BRANCH  33  34
ATOM     34  C   UNL A   1      41.034  22.318  26.742  1.00  0.00     0.116 C 
BRANCH  34  35
ATOM     35  N   UNL A   1      41.971  22.601  25.662  1.00  0.00    -0.352 N 
ATOM     36  C   UNL A   1      42.790  23.666  25.377  1.00  0.00     0.251 C 
ATOM     37  H   UNL A   1      42.030  21.877  24.997  1.00  0.00     0.163 HD
ATOM     38  O   UNL A   1      43.652  23.524  24.509  1.00  0.00    -0.269 OA
BRANCH  36  39
ATOM     39  C   UNL A   1      42.614  24.996  26.003  1.00  0.00     0.039 A 
ATOM     40  C   UNL A   1      43.326  25.409  27.121  1.00  0.00     0.014 A 
ATOM     41  C   UNL A   1      41.630  25.843  25.464  1.00  0.00     0.014 A 
ATOM     42  C   UNL A   1      42.913  26.530  27.814  1.00  0.00     0.010 A 
ATOM     43  C   UNL A   1      41.277  27.026  26.111  1.00  0.00     0.010 A 
ATOM     44  C   UNL A   1      41.875  27.338  27.326  1.00  0.00    -0.014 A 
BRANCH  44  45
ATOM     45  C   UNL A   1      41.593  28.552  28.097  1.00  0.00     0.031 A 
ATOM     46  C   UNL A   1      42.704  29.539  28.043  1.00  0.00     0.074 A 
ATOM     47  C   UNL A   1      40.471  28.828  28.793  1.00  0.00     0.049 A 
ATOM     48  N   UNL A   1      43.565  29.789  28.974  1.00  0.00    -0.248 NA
ATOM     49  C   UNL A   1      43.027  30.157  26.749  1.00  0.00     0.031 C 
ATOM     50  C   UNL A   1      39.189  28.126  28.742  1.00  0.00     0.029 A 
ATOM     51  N   UNL A   1      40.221  29.866  29.651  1.00  0.00    -0.354 N 
ATOM     52  C   UNL A   1      44.381  30.795  28.468  1.00  0.00     0.074 A 
ATOM     53  C   UNL A   1      44.138  30.833  27.051  1.00  0.00     0.031 C 
ATOM     54  C   UNL A   1      38.240  28.890  29.330  1.00  0.00     0.029 A 
ATOM     55  C   UNL A   1      38.875  30.041  29.949  1.00  0.00     0.049 A 
ATOM     56  H   UNL A   1      40.931  30.438  30.023  1.00  0.00     0.167 HD
ATOM     57  C   UNL A   1      44.947  31.701  29.311  1.00  0.00     0.037 A 
ATOM     58  C   UNL A   1      38.314  31.069  30.632  1.00  0.00     0.037 A 
ATOM     59  C   UNL A   1      44.884  31.246  30.677  1.00  0.00     0.049 A 
ATOM     60  C   UNL A   1      39.348  31.637  31.532  1.00  0.00     0.074 A 
ATOM     61  C   UNL A   1      45.577  30.394  31.507  1.00  0.00     0.029 A 
ATOM     62  N   UNL A   1      43.693  31.528  31.283  1.00  0.00    -0.354 N 
ATOM     63  N   UNL A   1      39.869  30.986  32.537  1.00  0.00    -0.248 NA
ATOM     64  C   UNL A   1      40.048  32.858  31.144  1.00  0.00     0.031 C 
ATOM     65  C   UNL A   1      44.704  30.094  32.597  1.00  0.00     0.029 A 
ATOM     66  C   UNL A   1      43.510  30.788  32.416  1.00  0.00     0.049 A 
ATOM     67  H   UNL A   1      43.045  32.187  30.944  1.00  0.00     0.167 HD
ATOM     68  C   UNL A   1      41.154  31.479  32.631  1.00  0.00     0.074 A 
ATOM     69  C   UNL A   1      41.154  32.726  31.879  1.00  0.00     0.031 C 
ATOM     70  C   UNL A   1      42.191  30.676  32.998  1.00  0.00     0.037 A 
BRANCH  57  71
ATOM     71  C   UNL A   1      45.037  33.191  29.024  1.00  0.00     0.058 A 
ATOM     72  C   UNL A   1      46.292  33.828  29.155  1.00  0.00     0.135 A 
ATOM     73  C   UNL A   1      43.922  34.057  28.979  1.00  0.00     0.135 A 
ATOM     74  F   UNL A   1      47.424  33.107  29.198  1.00  0.00    -0.206 F 
ATOM     75  C   UNL A   1      46.418  35.208  29.330  1.00  0.00     0.059 A 
ATOM     76  C   UNL A   1      44.031  35.438  29.104  1.00  0.00     0.059 A 
ATOM     77  F   UNL A   1      42.664  33.611  28.912  1.00  0.00    -0.206 F 
ATOM     78  C   UNL A   1      45.276  36.001  29.322  1.00  0.00     0.060 A 
BRANCH  78  79
ATOM     79  S   UNL A   1      45.419  37.766  29.648  1.00  0.00     0.124 S 
ATOM     80  O   UNL A   1      46.113  37.770  30.931  1.00  0.00    -0.237 OA
ATOM     81  O   UNL A   1      46.193  38.220  28.497  1.00  0.00    -0.237 OA
ATOM     82  O   UNL A   1      44.030  38.213  29.677  1.00  0.00    -0.744 OA
ENDBRANCH  78  79
ENDBRANCH  57  71
BRANCH  58  83
ATOM     83  C   UNL A   1      37.032  31.772  30.357  1.00  0.00     0.058 A 
ATOM     84  C   UNL A   1      35.914  31.590  31.193  1.00  0.00     0.135 A 
ATOM     85  C   UNL A   1      36.970  32.860  29.465  1.00  0.00     0.135 A 
ATOM     86  F   UNL A   1      35.887  30.581  32.077  1.00  0.00    -0.206 F 
ATOM     87  C   UNL A   1      34.836  32.481  31.203  1.00  0.00     0.059 A 
ATOM     88  C   UNL A   1      35.901  33.755  29.449  1.00  0.00     0.059 A 
ATOM     89  F   UNL A   1      37.994  33.143  28.648  1.00  0.00    -0.206 F 
ATOM     90  C   UNL A   1      34.853  33.579  30.344  1.00  0.00     0.060 A 
BRANCH  90  91
ATOM     91  S   UNL A   1      33.563  34.838  30.494  1.00  0.00     0.124 S 
ATOM     92  O   UNL A   1      33.056  34.592  31.840  1.00  0.00    -0.237 OA
ATOM     93  O   UNL A   1      34.316  36.073  30.312  1.00  0.00    -0.237 OA
ATOM     94  O   UNL A   1      32.640  34.507  29.411  1.00  0.00    -0.744 OA
ENDBRANCH  90  91
ENDBRANCH  58  83
BRANCH  70  95
ATOM     95  C   UNL A   1      41.927  29.545  33.934  1.00  0.00     0.058 A 
ATOM     96  C   UNL A   1      41.575  28.242  33.555  1.00  0.00     0.135 A 
ATOM     97  C   UNL A   1      42.171  29.786  35.296  1.00  0.00     0.135 A 
ATOM     98  F   UNL A   1      41.383  27.926  32.265  1.00  0.00    -0.206 F 
ATOM     99  C   UNL A   1      41.479  27.217  34.499  1.00  0.00     0.059 A 
ATOM    100  C   UNL A   1      42.108  28.777  36.247  1.00  0.00     0.059 A 
ATOM    101  F   UNL A   1      42.541  31.011  35.706  1.00  0.00    -0.206 F 
ATOM    102  C   UNL A   1      41.762  27.492  35.840  1.00  0.00     0.060 A 
BRANCH 102 103
ATOM    103  S   UNL A   1      41.766  26.142  37.039  1.00  0.00     0.124 S 
ATOM    104  O   UNL A   1      42.085  24.989  36.205  1.00  0.00    -0.237 OA
ATOM    105  O   UNL A   1      42.807  26.557  37.975  1.00  0.00    -0.237 OA
ATOM    106  O   UNL A   1      40.410  26.161  37.583  1.00  0.00    -0.744 OA
ENDBRANCH 102 103
ENDBRANCH  70  95
ENDBRANCH  44  45
ENDBRANCH  36  39
ENDBRANCH  34  35
ENDBRANCH  33  34
ENDBRANCH  32  33
ENDBRANCH  31  32
ENDBRANCH   1  31
TORSDOF 21
ENDMDL
