MODEL 1
REMARK VINA RESULT:     -12.6      0.000      0.000
REMARK SMILES Cc1ccc(N2CCC[C@@H](Cn3cc(C(=O)NCCCCCCNC(=O)c4ccc(-c5c6nc(c(-c7c(F)cc(S(=O)(=O)[O-])cc7F)c7ccc([nH]7)c(-c7c(F)cc(S(=O)(=O)[O-])cc7F)c7nc(c(-c8c(F)cc(S(=O)(=O)[O-])cc8F)c8ccc5[nH]8)C=C7)C=C6)cc4)nn3)C2)nn1
REMARK SMILES IDX 20 1 19 2 18 3 17 4 15 5 16 6 14 8 12 9 13 10 94 11 93 12
REMARK SMILES IDX 11 13 10 14 6 15 7 16 95 17 8 18 9 19 5 20 1 21 2 22 3 23
REMARK SMILES IDX 97 24 4 25 96 26 21 27 22 28 23 29 24 30 25 31 26 33 27 34
REMARK SMILES IDX 28 35 92 36 29 37 91 38 30 39 31 40 32 41 85 42 33 43 90 44
REMARK SMILES IDX 84 45 86 46 34 47 89 48 83 49 82 50 35 52 69 53 48 54 68 55
REMARK SMILES IDX 49 56 52 57 67 58 87 59 50 60 51 61 66 63 88 64 53 65 36 66
REMARK SMILES IDX 37 67 46 68 38 69 39 70 45 71 47 72 40 73 41 74 42 75 43 76
REMARK SMILES IDX 44 77 70 78 71 79 80 80 72 81 73 82 79 83 81 84 74 85 75 86
REMARK SMILES IDX 76 87 77 88 78 89 54 90 55 91 64 92 56 93 57 94 63 95 65 96
REMARK SMILES IDX 58 97 59 98 60 99 61 100 62 101
REMARK H PARENT 17 7 24 32 86 51 52 62
REMARK Flexibility Score: inf
ROOT
ATOM      1  C   UNL A   1      37.976  24.114  26.472  1.00  0.00     0.002 C 
ENDROOT
BRANCH   1   2
ATOM      2  C   UNL A   1      37.355  23.201  25.410  1.00  0.00     0.021 C 
BRANCH   2   3
ATOM      3  C   UNL A   1      35.925  22.786  25.739  1.00  0.00     0.116 C 
BRANCH   3   4
ATOM      4  N   UNL A   1      35.711  21.383  25.443  1.00  0.00    -0.351 N 
ATOM      5  C   UNL A   1      34.619  20.706  24.953  1.00  0.00     0.273 C 
ATOM      6  O   UNL A   1      34.768  19.507  24.713  1.00  0.00    -0.267 OA
ATOM      7  H   UNL A   1      36.491  20.810  25.627  1.00  0.00     0.163 HD
BRANCH   5   8
ATOM      8  C   UNL A   1      33.375  21.407  24.653  1.00  0.00     0.170 A 
ATOM      9  N   UNL A   1      31.642  22.689  24.687  1.00  0.00    -0.251 N 
ATOM     10  C   UNL A   1      32.354  21.838  25.478  1.00  0.00     0.145 A 
ATOM     11  N   UNL A   1      31.982  22.551  23.397  1.00  0.00    -0.067 NA
ATOM     12  N   UNL A   1      33.066  21.788  23.363  1.00  0.00    -0.125 NA
BRANCH   9  13
ATOM     13  C   UNL A   1      30.816  23.800  25.107  1.00  0.00     0.151 C 
BRANCH  13  14
ATOM     14  C   UNL A   1      31.318  25.181  24.627  1.00  0.00     0.030 C 
ATOM     15  N   UNL A   1      30.821  27.515  24.266  1.00  0.00    -0.355 N 
ATOM     16  C   UNL A   1      31.979  28.040  24.966  1.00  0.00     0.118 C 
ATOM     17  C   UNL A   1      30.242  26.279  24.755  1.00  0.00     0.123 C 
ATOM     18  C   UNL A   1      33.099  27.012  24.846  1.00  0.00     0.022 C 
ATOM     19  C   UNL A   1      32.632  25.627  25.313  1.00  0.00     0.009 C 
BRANCH  15  20
ATOM     20  C   UNL A   1      30.119  28.303  23.383  1.00  0.00     0.151 A 
ATOM     21  C   UNL A   1      27.988  30.930  20.829  1.00  0.00     0.069 C 
ATOM     22  C   UNL A   1      28.706  29.969  21.720  1.00  0.00     0.060 A 
ATOM     23  C   UNL A   1      28.016  29.214  22.649  1.00  0.00     0.029 A 
ATOM     24  N   UNL A   1      30.051  29.903  21.633  1.00  0.00    -0.154 NA
ATOM     25  C   UNL A   1      28.735  28.356  23.473  1.00  0.00     0.051 A 
ATOM     26  N   UNL A   1      30.759  29.080  22.486  1.00  0.00    -0.133 NA
ENDBRANCH  15  20
ENDBRANCH  13  14
ENDBRANCH   9  13
ENDBRANCH   5   8
ENDBRANCH   3   4
ENDBRANCH   2   3
ENDBRANCH   1   2
BRANCH   1  27
ATOM     27  C   UNL A   1      39.217  23.544  27.178  1.00  0.00     0.002 C 
BRANCH  27  28
ATOM     28  C   UNL A   1      39.813  22.274  26.550  1.00  0.00     0.021 C 
BRANCH  28  29
ATOM     29  C   UNL A   1      41.170  21.910  27.132  1.00  0.00     0.116 C 
BRANCH  29  30
ATOM     30  N   UNL A   1      42.225  22.062  26.137  1.00  0.00    -0.352 N 
ATOM     31  C   UNL A   1      42.694  23.216  25.552  1.00  0.00     0.251 C 
ATOM     32  H   UNL A   1      42.658  21.228  25.844  1.00  0.00     0.163 HD
ATOM     33  O   UNL A   1      43.307  23.169  24.498  1.00  0.00    -0.269 OA
BRANCH  31  34
ATOM     34  C   UNL A   1      42.468  24.504  26.232  1.00  0.00     0.039 A 
ATOM     35  C   UNL A   1      41.685  25.494  25.626  1.00  0.00     0.014 A 
ATOM     36  C   UNL A   1      43.093  24.737  27.458  1.00  0.00     0.014 A 
ATOM     37  C   UNL A   1      41.507  26.706  26.283  1.00  0.00     0.010 A 
ATOM     38  C   UNL A   1      42.835  25.890  28.154  1.00  0.00     0.010 A 
ATOM     39  C   UNL A   1      42.089  26.892  27.545  1.00  0.00    -0.014 A 
BRANCH  39  40
ATOM     40  C   UNL A   1      41.836  28.105  28.307  1.00  0.00     0.031 A 
ATOM     41  C   UNL A   1      42.875  29.153  28.117  1.00  0.00     0.074 A 
ATOM     42  C   UNL A   1      40.652  28.332  28.915  1.00  0.00     0.049 A 
ATOM     43  N   UNL A   1      43.750  29.575  28.968  1.00  0.00    -0.248 NA
ATOM     44  C   UNL A   1      43.081  29.680  26.754  1.00  0.00     0.031 C 
ATOM     45  C   UNL A   1      39.440  27.502  28.862  1.00  0.00     0.029 A 
ATOM     46  N   UNL A   1      40.238  29.414  29.626  1.00  0.00    -0.354 N 
ATOM     47  C   UNL A   1      44.442  30.599  28.324  1.00  0.00     0.074 A 
ATOM     48  C   UNL A   1      44.149  30.463  26.923  1.00  0.00     0.031 C 
ATOM     49  C   UNL A   1      38.382  28.212  29.315  1.00  0.00     0.029 A 
ATOM     50  C   UNL A   1      38.862  29.476  29.844  1.00  0.00     0.049 A 
ATOM     51  H   UNL A   1      40.860  30.099  29.963  1.00  0.00     0.167 HD
ATOM     52  C   UNL A   1      44.955  31.650  29.023  1.00  0.00     0.037 A 
ATOM     53  C   UNL A   1      38.183  30.510  30.400  1.00  0.00     0.037 A 
ATOM     54  C   UNL A   1      44.950  31.370  30.435  1.00  0.00     0.049 A 
ATOM     55  C   UNL A   1      39.179  31.291  31.174  1.00  0.00     0.074 A 
ATOM     56  C   UNL A   1      45.623  30.519  31.284  1.00  0.00     0.029 A 
ATOM     57  N   UNL A   1      43.811  31.773  31.084  1.00  0.00    -0.354 N 
ATOM     58  N   UNL A   1      39.812  30.831  32.219  1.00  0.00    -0.248 NA
ATOM     59  C   UNL A   1      39.760  32.480  30.567  1.00  0.00     0.031 C 
ATOM     60  C   UNL A   1      44.698  30.199  32.322  1.00  0.00     0.029 A 
ATOM     61  C   UNL A   1      43.515  30.909  32.103  1.00  0.00     0.049 A 
ATOM     62  H   UNL A   1      43.281  32.569  30.849  1.00  0.00     0.167 HD
ATOM     63  C   UNL A   1      41.070  31.400  32.144  1.00  0.00     0.074 A 
ATOM     64  C   UNL A   1      40.927  32.516  31.216  1.00  0.00     0.031 C 
ATOM     65  C   UNL A   1      42.167  30.729  32.605  1.00  0.00     0.037 A 
BRANCH  52  66
ATOM     66  C   UNL A   1      45.023  33.074  28.507  1.00  0.00     0.058 A 
ATOM     67  C   UNL A   1      46.280  33.697  28.352  1.00  0.00     0.135 A 
ATOM     68  C   UNL A   1      43.908  33.940  28.430  1.00  0.00     0.135 A 
ATOM     69  F   UNL A   1      47.413  32.981  28.441  1.00  0.00    -0.206 F 
ATOM     70  C   UNL A   1      46.417  35.076  28.168  1.00  0.00     0.059 A 
ATOM     71  C   UNL A   1      44.020  35.306  28.194  1.00  0.00     0.059 A 
ATOM     72  F   UNL A   1      42.662  33.524  28.681  1.00  0.00    -0.206 F 
ATOM     73  C   UNL A   1      45.278  35.872  28.092  1.00  0.00     0.060 A 
BRANCH  73  74
ATOM     74  S   UNL A   1      45.450  37.657  27.904  1.00  0.00     0.124 S 
ATOM     75  O   UNL A   1      44.060  38.090  27.911  1.00  0.00    -0.237 OA
ATOM     76  O   UNL A   1      46.238  38.007  29.083  1.00  0.00    -0.237 OA
ATOM     77  O   UNL A   1      46.150  37.793  26.630  1.00  0.00    -0.744 OA
ENDBRANCH  73  74
ENDBRANCH  52  66
BRANCH  53  78
ATOM     78  C   UNL A   1      36.857  31.085  30.036  1.00  0.00     0.058 A 
ATOM     79  C   UNL A   1      36.053  31.689  31.023  1.00  0.00     0.135 A 
ATOM     80  C   UNL A   1      36.520  31.370  28.700  1.00  0.00     0.135 A 
ATOM     81  F   UNL A   1      36.296  31.465  32.322  1.00  0.00    -0.206 F 
ATOM     82  C   UNL A   1      35.048  32.609  30.707  1.00  0.00     0.059 A 
ATOM     83  C   UNL A   1      35.515  32.279  28.361  1.00  0.00     0.059 A 
ATOM     84  F   UNL A   1      37.228  30.855  27.683  1.00  0.00    -0.206 F 
ATOM     85  C   UNL A   1      34.813  32.928  29.372  1.00  0.00     0.060 A 
BRANCH  85  86
ATOM     86  S   UNL A   1      33.693  34.293  28.975  1.00  0.00     0.124 S 
ATOM     87  O   UNL A   1      32.781  33.670  28.023  1.00  0.00    -0.237 OA
ATOM     88  O   UNL A   1      33.129  34.614  30.282  1.00  0.00    -0.237 OA
ATOM     89  O   UNL A   1      34.581  35.308  28.417  1.00  0.00    -0.744 OA
ENDBRANCH  85  86
ENDBRANCH  53  78
BRANCH  65  90
ATOM     90  C   UNL A   1      41.941  29.620  33.598  1.00  0.00     0.058 A 
ATOM     91  C   UNL A   1      41.772  28.261  33.276  1.00  0.00     0.135 A 
ATOM     92  C   UNL A   1      42.010  29.953  34.958  1.00  0.00     0.135 A 
ATOM     93  F   UNL A   1      41.773  27.847  32.001  1.00  0.00    -0.206 F 
ATOM     94  C   UNL A   1      41.652  27.283  34.268  1.00  0.00     0.059 A 
ATOM     95  C   UNL A   1      41.925  28.993  35.960  1.00  0.00     0.059 A 
ATOM     96  F   UNL A   1      42.215  31.227  35.327  1.00  0.00    -0.206 F 
ATOM     97  C   UNL A   1      41.736  27.659  35.608  1.00  0.00     0.060 A 
BRANCH  97  98
ATOM     98  S   UNL A   1      41.652  26.390  36.891  1.00  0.00     0.124 S 
ATOM     99  O   UNL A   1      41.597  25.161  36.107  1.00  0.00    -0.237 OA
ATOM    100  O   UNL A   1      42.887  26.613  37.637  1.00  0.00    -0.237 OA
ATOM    101  O   UNL A   1      40.428  26.719  37.618  1.00  0.00    -0.744 OA
ENDBRANCH  97  98
ENDBRANCH  65  90
ENDBRANCH  39  40
ENDBRANCH  31  34
ENDBRANCH  29  30
ENDBRANCH  28  29
ENDBRANCH  27  28
ENDBRANCH   1  27
TORSDOF 19
ENDMDL
MODEL 2
REMARK VINA RESULT:     -12.1      2.972      9.710
REMARK SMILES Cc1ccc(N2CCC[C@@H](Cn3cc(C(=O)NCCCCCCNC(=O)c4ccc(-c5c6nc(c(-c7c(F)cc(S(=O)(=O)[O-])cc7F)c7ccc([nH]7)c(-c7c(F)cc(S(=O)(=O)[O-])cc7F)c7nc(c(-c8c(F)cc(S(=O)(=O)[O-])cc8F)c8ccc5[nH]8)C=C7)C=C6)cc4)nn3)C2)nn1
REMARK SMILES IDX 20 1 19 2 18 3 17 4 15 5 16 6 14 8 12 9 13 10 94 11 93 12
REMARK SMILES IDX 11 13 10 14 6 15 7 16 95 17 8 18 9 19 5 20 1 21 2 22 3 23
REMARK SMILES IDX 97 24 4 25 96 26 21 27 22 28 23 29 24 30 25 31 26 33 27 34
REMARK SMILES IDX 28 35 92 36 29 37 91 38 30 39 31 40 32 41 85 42 33 43 90 44
REMARK SMILES IDX 84 45 86 46 34 47 89 48 83 49 82 50 35 52 69 53 48 54 68 55
REMARK SMILES IDX 49 56 52 57 67 58 87 59 50 60 51 61 66 63 88 64 53 65 36 66
REMARK SMILES IDX 37 67 46 68 38 69 39 70 45 71 47 72 40 73 41 74 42 75 43 76
REMARK SMILES IDX 44 77 70 78 71 79 80 80 72 81 73 82 79 83 81 84 74 85 75 86
REMARK SMILES IDX 76 87 77 88 78 89 54 90 55 91 64 92 56 93 57 94 63 95 65 96
REMARK SMILES IDX 58 97 59 98 60 99 61 100 62 101
REMARK H PARENT 17 7 24 32 86 51 52 62
REMARK Flexibility Score: inf
ROOT
ATOM      1  C   UNL A   1      33.965  28.726  26.574  1.00  0.00     0.002 C 
ENDROOT
BRANCH   1   2
ATOM      2  C   UNL A   1      33.123  29.286  25.422  1.00  0.00     0.021 C 
BRANCH   2   3
ATOM      3  C   UNL A   1      31.696  28.749  25.408  1.00  0.00     0.116 C 
BRANCH   3   4
ATOM      4  N   UNL A   1      31.027  29.087  24.167  1.00  0.00    -0.351 N 
ATOM      5  C   UNL A   1      31.111  28.548  22.904  1.00  0.00     0.273 C 
ATOM      6  O   UNL A   1      30.337  28.993  22.056  1.00  0.00    -0.267 OA
ATOM      7  H   UNL A   1      30.397  29.840  24.241  1.00  0.00     0.163 HD
BRANCH   5   8
ATOM      8  C   UNL A   1      32.017  27.441  22.620  1.00  0.00     0.170 A 
ATOM      9  N   UNL A   1      32.893  25.556  22.046  1.00  0.00    -0.251 N 
ATOM     10  C   UNL A   1      31.854  26.075  22.758  1.00  0.00     0.145 A 
ATOM     11  N   UNL A   1      33.808  26.496  21.769  1.00  0.00    -0.067 NA
ATOM     12  N   UNL A   1      33.271  27.665  22.089  1.00  0.00    -0.125 NA
BRANCH   9  13
ATOM     13  C   UNL A   1      32.963  24.261  21.406  1.00  0.00     0.151 C 
BRANCH  13  14
ATOM     14  C   UNL A   1      33.400  23.112  22.344  1.00  0.00     0.030 C 
ATOM     15  N   UNL A   1      34.578  22.455  24.345  1.00  0.00    -0.355 N 
ATOM     16  C   UNL A   1      33.502  21.672  24.921  1.00  0.00     0.118 C 
ATOM     17  C   UNL A   1      34.218  23.614  23.552  1.00  0.00     0.123 C 
ATOM     18  C   UNL A   1      32.668  21.113  23.772  1.00  0.00     0.022 C 
ATOM     19  C   UNL A   1      32.221  22.228  22.819  1.00  0.00     0.009 C 
BRANCH  15  20
ATOM     20  C   UNL A   1      35.873  22.294  24.782  1.00  0.00     0.151 A 
ATOM     21  C   UNL A   1      39.766  21.727  26.361  1.00  0.00     0.069 C 
ATOM     22  C   UNL A   1      38.410  21.967  25.782  1.00  0.00     0.060 A 
ATOM     23  C   UNL A   1      37.823  23.218  25.848  1.00  0.00     0.029 A 
ATOM     24  N   UNL A   1      37.749  20.919  25.248  1.00  0.00    -0.154 NA
ATOM     25  C   UNL A   1      36.549  23.381  25.320  1.00  0.00     0.051 A 
ATOM     26  N   UNL A   1      36.466  21.084  24.766  1.00  0.00    -0.133 NA
ENDBRANCH  15  20
ENDBRANCH  13  14
ENDBRANCH   9  13
ENDBRANCH   5   8
ENDBRANCH   3   4
ENDBRANCH   2   3
ENDBRANCH   1   2
BRANCH   1  27
ATOM     27  C   UNL A   1      34.737  29.777  27.387  1.00  0.00     0.002 C 
BRANCH  27  28
ATOM     28  C   UNL A   1      34.090  31.170  27.457  1.00  0.00     0.021 C 
BRANCH  28  29
ATOM     29  C   UNL A   1      35.029  32.228  28.016  1.00  0.00     0.116 C 
BRANCH  29  30
ATOM     30  N   UNL A   1      34.664  32.581  29.384  1.00  0.00    -0.352 N 
ATOM     31  C   UNL A   1      35.142  32.055  30.563  1.00  0.00     0.251 C 
ATOM     32  H   UNL A   1      33.986  33.288  29.475  1.00  0.00     0.163 HD
ATOM     33  O   UNL A   1      34.505  32.178  31.596  1.00  0.00    -0.269 OA
BRANCH  31  34
ATOM     34  C   UNL A   1      36.445  31.366  30.561  1.00  0.00     0.039 A 
ATOM     35  C   UNL A   1      36.504  29.968  30.582  1.00  0.00     0.014 A 
ATOM     36  C   UNL A   1      37.611  32.132  30.595  1.00  0.00     0.014 A 
ATOM     37  C   UNL A   1      37.748  29.347  30.602  1.00  0.00     0.010 A 
ATOM     38  C   UNL A   1      38.837  31.523  30.509  1.00  0.00     0.010 A 
ATOM     39  C   UNL A   1      38.906  30.136  30.567  1.00  0.00    -0.014 A 
BRANCH  39  40
ATOM     40  C   UNL A   1      40.221  29.520  30.478  1.00  0.00     0.031 A 
ATOM     41  C   UNL A   1      40.870  29.312  31.800  1.00  0.00     0.074 A 
ATOM     42  C   UNL A   1      40.676  28.971  29.331  1.00  0.00     0.049 A 
ATOM     43  N   UNL A   1      41.901  29.919  32.288  1.00  0.00    -0.248 NA
ATOM     44  C   UNL A   1      40.185  28.443  32.776  1.00  0.00     0.031 C 
ATOM     45  C   UNL A   1      39.955  28.819  28.058  1.00  0.00     0.029 A 
ATOM     46  N   UNL A   1      41.848  28.329  29.084  1.00  0.00    -0.354 N 
ATOM     47  C   UNL A   1      42.143  29.320  33.523  1.00  0.00     0.074 A 
ATOM     48  C   UNL A   1      40.947  28.598  33.861  1.00  0.00     0.031 C 
ATOM     49  C   UNL A   1      40.612  27.942  27.265  1.00  0.00     0.029 A 
ATOM     50  C   UNL A   1      41.874  27.602  27.894  1.00  0.00     0.049 A 
ATOM     51  H   UNL A   1      42.618  28.373  29.696  1.00  0.00     0.167 HD
ATOM     52  C   UNL A   1      43.407  29.222  34.022  1.00  0.00     0.037 A 
ATOM     53  C   UNL A   1      42.864  26.769  27.485  1.00  0.00     0.037 A 
ATOM     54  C   UNL A   1      44.311  30.061  33.281  1.00  0.00     0.049 A 
ATOM     55  C   UNL A   1      44.078  27.164  28.240  1.00  0.00     0.074 A 
ATOM     56  C   UNL A   1      44.513  31.415  33.126  1.00  0.00     0.029 A 
ATOM     57  N   UNL A   1      44.914  29.437  32.218  1.00  0.00    -0.354 N 
ATOM     58  N   UNL A   1      44.670  28.321  28.112  1.00  0.00    -0.248 NA
ATOM     59  C   UNL A   1      44.437  26.408  29.431  1.00  0.00     0.031 C 
ATOM     60  C   UNL A   1      44.986  31.584  31.791  1.00  0.00     0.029 A 
ATOM     61  C   UNL A   1      45.112  30.327  31.197  1.00  0.00     0.049 A 
ATOM     62  H   UNL A   1      45.167  28.486  32.194  1.00  0.00     0.167 HD
ATOM     63  C   UNL A   1      45.135  28.617  29.381  1.00  0.00     0.074 A 
ATOM     64  C   UNL A   1      45.109  27.349  30.100  1.00  0.00     0.031 C 
ATOM     65  C   UNL A   1      45.207  29.911  29.811  1.00  0.00     0.037 A 
BRANCH  52  66
ATOM     66  C   UNL A   1      43.918  28.055  34.845  1.00  0.00     0.058 A 
ATOM     67  C   UNL A   1      44.507  28.298  36.105  1.00  0.00     0.135 A 
ATOM     68  C   UNL A   1      44.111  26.752  34.332  1.00  0.00     0.135 A 
ATOM     69  F   UNL A   1      44.419  29.511  36.676  1.00  0.00    -0.206 F 
ATOM     70  C   UNL A   1      45.254  27.332  36.783  1.00  0.00     0.059 A 
ATOM     71  C   UNL A   1      44.805  25.760  35.016  1.00  0.00     0.059 A 
ATOM     72  F   UNL A   1      43.724  26.405  33.099  1.00  0.00    -0.206 F 
ATOM     73  C   UNL A   1      45.398  26.064  36.228  1.00  0.00     0.060 A 
BRANCH  73  74
ATOM     74  S   UNL A   1      46.402  24.830  37.075  1.00  0.00     0.124 S 
ATOM     75  O   UNL A   1      47.226  25.663  37.941  1.00  0.00    -0.237 OA
ATOM     76  O   UNL A   1      45.384  24.022  37.741  1.00  0.00    -0.237 OA
ATOM     77  O   UNL A   1      47.103  24.162  35.983  1.00  0.00    -0.744 OA
ENDBRANCH  73  74
ENDBRANCH  52  66
BRANCH  53  78
ATOM     78  C   UNL A   1      42.775  25.455  26.789  1.00  0.00     0.058 A 
ATOM     79  C   UNL A   1      43.174  25.338  25.442  1.00  0.00     0.135 A 
ATOM     80  C   UNL A   1      42.647  24.250  27.504  1.00  0.00     0.135 A 
ATOM     81  F   UNL A   1      43.312  26.435  24.682  1.00  0.00    -0.206 F 
ATOM     82  C   UNL A   1      43.533  24.113  24.872  1.00  0.00     0.059 A 
ATOM     83  C   UNL A   1      42.991  23.013  26.953  1.00  0.00     0.059 A 
ATOM     84  F   UNL A   1      42.284  24.248  28.796  1.00  0.00    -0.206 F 
ATOM     85  C   UNL A   1      43.476  22.958  25.650  1.00  0.00     0.060 A 
BRANCH  85  86
ATOM     86  S   UNL A   1      44.172  21.421  24.998  1.00  0.00     0.124 S 
ATOM     87  O   UNL A   1      43.139  20.451  25.342  1.00  0.00    -0.237 OA
ATOM     88  O   UNL A   1      44.312  21.728  23.578  1.00  0.00    -0.237 OA
ATOM     89  O   UNL A   1      45.428  21.281  25.729  1.00  0.00    -0.744 OA
ENDBRANCH  85  86
ENDBRANCH  53  78
BRANCH  65  90
ATOM     90  C   UNL A   1      45.240  30.994  28.765  1.00  0.00     0.058 A 
ATOM     91  C   UNL A   1      46.368  31.366  28.013  1.00  0.00     0.135 A 
ATOM     92  C   UNL A   1      44.022  31.608  28.440  1.00  0.00     0.135 A 
ATOM     93  F   UNL A   1      47.554  30.772  28.207  1.00  0.00    -0.206 F 
ATOM     94  C   UNL A   1      46.290  32.327  27.001  1.00  0.00     0.059 A 
ATOM     95  C   UNL A   1      43.915  32.543  27.416  1.00  0.00     0.059 A 
ATOM     96  F   UNL A   1      42.901  31.263  29.092  1.00  0.00    -0.206 F 
ATOM     97  C   UNL A   1      45.056  32.905  26.706  1.00  0.00     0.060 A 
BRANCH  97  98
ATOM     98  S   UNL A   1      44.936  34.095  25.352  1.00  0.00     0.124 S 
ATOM     99  O   UNL A   1      44.059  35.116  25.913  1.00  0.00    -0.237 OA
ATOM    100  O   UNL A   1      46.328  34.490  25.155  1.00  0.00    -0.237 OA
ATOM    101  O   UNL A   1      44.360  33.313  24.260  1.00  0.00    -0.744 OA
ENDBRANCH  97  98
ENDBRANCH  65  90
ENDBRANCH  39  40
ENDBRANCH  31  34
ENDBRANCH  29  30
ENDBRANCH  28  29
ENDBRANCH  27  28
ENDBRANCH   1  27
TORSDOF 19
ENDMDL
MODEL 3
REMARK VINA RESULT:     -12.1      3.034      9.836
REMARK SMILES Cc1ccc(N2CCC[C@@H](Cn3cc(C(=O)NCCCCCCNC(=O)c4ccc(-c5c6nc(c(-c7c(F)cc(S(=O)(=O)[O-])cc7F)c7ccc([nH]7)c(-c7c(F)cc(S(=O)(=O)[O-])cc7F)c7nc(c(-c8c(F)cc(S(=O)(=O)[O-])cc8F)c8ccc5[nH]8)C=C7)C=C6)cc4)nn3)C2)nn1
REMARK SMILES IDX 20 1 19 2 18 3 17 4 15 5 16 6 14 8 12 9 13 10 94 11 93 12
REMARK SMILES IDX 11 13 10 14 6 15 7 16 95 17 8 18 9 19 5 20 1 21 2 22 3 23
REMARK SMILES IDX 97 24 4 25 96 26 21 27 22 28 23 29 24 30 25 31 26 33 27 34
REMARK SMILES IDX 28 35 92 36 29 37 91 38 30 39 31 40 32 41 85 42 33 43 90 44
REMARK SMILES IDX 84 45 86 46 34 47 89 48 83 49 82 50 35 52 69 53 48 54 68 55
REMARK SMILES IDX 49 56 52 57 67 58 87 59 50 60 51 61 66 63 88 64 53 65 36 66
REMARK SMILES IDX 37 67 46 68 38 69 39 70 45 71 47 72 40 73 41 74 42 75 43 76
REMARK SMILES IDX 44 77 70 78 71 79 80 80 72 81 73 82 79 83 81 84 74 85 75 86
REMARK SMILES IDX 76 87 77 88 78 89 54 90 55 91 64 92 56 93 57 94 63 95 65 96
REMARK SMILES IDX 58 97 59 98 60 99 61 100 62 101
REMARK H PARENT 17 7 24 32 86 51 52 62
REMARK Flexibility Score: inf
ROOT
ATOM      1  C   UNL A   1      33.031  28.684  27.072  1.00  0.00     0.002 C 
ENDROOT
BRANCH   1   2
ATOM      2  C   UNL A   1      31.982  28.960  25.991  1.00  0.00     0.021 C 
BRANCH   2   3
ATOM      3  C   UNL A   1      32.593  29.313  24.639  1.00  0.00     0.116 C 
BRANCH   3   4
ATOM      4  N   UNL A   1      31.617  29.174  23.576  1.00  0.00    -0.351 N 
ATOM      5  C   UNL A   1      31.327  28.131  22.728  1.00  0.00     0.273 C 
ATOM      6  O   UNL A   1      30.364  28.277  21.975  1.00  0.00    -0.267 OA
ATOM      7  H   UNL A   1      31.059  29.974  23.436  1.00  0.00     0.163 HD
BRANCH   5   8
ATOM      8  C   UNL A   1      32.080  26.883  22.790  1.00  0.00     0.170 A 
ATOM      9  N   UNL A   1      32.696  24.817  22.820  1.00  0.00    -0.251 N 
ATOM     10  C   UNL A   1      31.766  25.660  23.350  1.00  0.00     0.145 A 
ATOM     11  N   UNL A   1      33.698  25.500  22.247  1.00  0.00    -0.067 NA
ATOM     12  N   UNL A   1      33.320  26.769  22.195  1.00  0.00    -0.125 NA
BRANCH   9  13
ATOM     13  C   UNL A   1      32.577  23.390  22.616  1.00  0.00     0.151 C 
BRANCH  13  14
ATOM     14  C   UNL A   1      32.766  22.548  23.899  1.00  0.00     0.030 C 
ATOM     15  N   UNL A   1      33.706  20.572  24.918  1.00  0.00    -0.355 N 
ATOM     16  C   UNL A   1      34.358  21.250  26.022  1.00  0.00     0.118 C 
ATOM     17  C   UNL A   1      33.610  21.279  23.656  1.00  0.00     0.123 C 
ATOM     18  C   UNL A   1      33.549  22.504  26.340  1.00  0.00     0.022 C 
ATOM     19  C   UNL A   1      33.340  23.361  25.085  1.00  0.00     0.009 C 
BRANCH  15  20
ATOM     20  C   UNL A   1      33.470  19.217  24.968  1.00  0.00     0.151 A 
ATOM     21  C   UNL A   1      32.857  15.041  25.358  1.00  0.00     0.069 C 
ATOM     22  C   UNL A   1      33.085  16.506  25.173  1.00  0.00     0.060 A 
ATOM     23  C   UNL A   1      34.222  16.972  24.540  1.00  0.00     0.029 A 
ATOM     24  N   UNL A   1      32.182  17.363  25.694  1.00  0.00    -0.154 NA
ATOM     25  C   UNL A   1      34.400  18.344  24.420  1.00  0.00     0.051 A 
ATOM     26  N   UNL A   1      32.390  18.724  25.607  1.00  0.00    -0.133 NA
ENDBRANCH  15  20
ENDBRANCH  13  14
ENDBRANCH   9  13
ENDBRANCH   5   8
ENDBRANCH   3   4
ENDBRANCH   2   3
ENDBRANCH   1   2
BRANCH   1  27
ATOM     27  C   UNL A   1      34.101  29.775  27.236  1.00  0.00     0.002 C 
BRANCH  27  28
ATOM     28  C   UNL A   1      33.569  31.201  27.448  1.00  0.00     0.021 C 
BRANCH  28  29
ATOM     29  C   UNL A   1      34.648  32.171  27.904  1.00  0.00     0.116 C 
BRANCH  29  30
ATOM     30  N   UNL A   1      34.406  32.619  29.271  1.00  0.00    -0.352 N 
ATOM     31  C   UNL A   1      35.041  32.228  30.428  1.00  0.00     0.251 C 
ATOM     32  H   UNL A   1      33.694  33.289  29.380  1.00  0.00     0.163 HD
ATOM     33  O   UNL A   1      34.509  32.401  31.512  1.00  0.00    -0.269 OA
BRANCH  31  34
ATOM     34  C   UNL A   1      36.381  31.621  30.337  1.00  0.00     0.039 A 
ATOM     35  C   UNL A   1      37.516  32.432  30.220  1.00  0.00     0.014 A 
ATOM     36  C   UNL A   1      36.490  30.230  30.312  1.00  0.00     0.014 A 
ATOM     37  C   UNL A   1      38.765  31.830  30.115  1.00  0.00     0.010 A 
ATOM     38  C   UNL A   1      37.727  29.636  30.313  1.00  0.00     0.010 A 
ATOM     39  C   UNL A   1      38.856  30.432  30.160  1.00  0.00    -0.014 A 
BRANCH  39  40
ATOM     40  C   UNL A   1      40.153  29.772  30.161  1.00  0.00     0.031 A 
ATOM     41  C   UNL A   1      40.668  29.478  31.526  1.00  0.00     0.074 A 
ATOM     42  C   UNL A   1      40.695  29.261  29.035  1.00  0.00     0.049 A 
ATOM     43  N   UNL A   1      41.668  30.022  32.136  1.00  0.00    -0.248 NA
ATOM     44  C   UNL A   1      39.866  28.590  32.389  1.00  0.00     0.031 C 
ATOM     45  C   UNL A   1      40.091  29.197  27.695  1.00  0.00     0.029 A 
ATOM     46  N   UNL A   1      41.863  28.589  28.865  1.00  0.00    -0.354 N 
ATOM     47  C   UNL A   1      41.773  29.356  33.356  1.00  0.00     0.074 A 
ATOM     48  C   UNL A   1      40.527  28.664  33.546  1.00  0.00     0.031 C 
ATOM     49  C   UNL A   1      40.791  28.335  26.923  1.00  0.00     0.029 A 
ATOM     50  C   UNL A   1      41.977  27.919  27.647  1.00  0.00     0.049 A 
ATOM     51  H   UNL A   1      42.573  28.575  29.546  1.00  0.00     0.167 HD
ATOM     52  C   UNL A   1      42.980  29.187  33.964  1.00  0.00     0.037 A 
ATOM     53  C   UNL A   1      42.973  27.070  27.289  1.00  0.00     0.037 A 
ATOM     54  C   UNL A   1      43.978  30.026  33.353  1.00  0.00     0.049 A 
ATOM     55  C   UNL A   1      44.123  27.383  28.172  1.00  0.00     0.074 A 
ATOM     56  C   UNL A   1      44.237  31.378  33.287  1.00  0.00     0.029 A 
ATOM     57  N   UNL A   1      44.656  29.432  32.320  1.00  0.00    -0.354 N 
ATOM     58  N   UNL A   1      44.762  28.521  28.158  1.00  0.00    -0.248 NA
ATOM     59  C   UNL A   1      44.344  26.558  29.351  1.00  0.00     0.031 C 
ATOM     60  C   UNL A   1      44.838  31.592  32.011  1.00  0.00     0.029 A 
ATOM     61  C   UNL A   1      44.978  30.360  31.368  1.00  0.00     0.049 A 
ATOM     62  H   UNL A   1      44.879  28.474  32.271  1.00  0.00     0.167 HD
ATOM     63  C   UNL A   1      45.115  28.740  29.477  1.00  0.00     0.074 A 
ATOM     64  C   UNL A   1      44.980  27.440  30.126  1.00  0.00     0.031 C 
ATOM     65  C   UNL A   1      45.190  30.008  29.977  1.00  0.00     0.037 A 
BRANCH  52  66
ATOM     66  C   UNL A   1      43.374  27.965  34.771  1.00  0.00     0.058 A 
ATOM     67  C   UNL A   1      43.785  28.120  36.112  1.00  0.00     0.135 A 
ATOM     68  C   UNL A   1      43.633  26.696  34.204  1.00  0.00     0.135 A 
ATOM     69  F   UNL A   1      43.622  29.293  36.744  1.00  0.00    -0.206 F 
ATOM     70  C   UNL A   1      44.432  27.104  36.821  1.00  0.00     0.059 A 
ATOM     71  C   UNL A   1      44.227  25.654  34.910  1.00  0.00     0.059 A 
ATOM     72  F   UNL A   1      43.418  26.433  32.910  1.00  0.00    -0.206 F 
ATOM     73  C   UNL A   1      44.650  25.873  36.208  1.00  0.00     0.060 A 
BRANCH  73  74
ATOM     74  S   UNL A   1      45.527  24.577  37.101  1.00  0.00     0.124 S 
ATOM     75  O   UNL A   1      45.338  23.432  36.220  1.00  0.00    -0.237 OA
ATOM     76  O   UNL A   1      46.881  25.121  37.165  1.00  0.00    -0.237 OA
ATOM     77  O   UNL A   1      44.825  24.516  38.379  1.00  0.00    -0.744 OA
ENDBRANCH  73  74
ENDBRANCH  52  66
BRANCH  53  78
ATOM     78  C   UNL A   1      42.906  25.794  26.522  1.00  0.00     0.058 A 
ATOM     79  C   UNL A   1      43.707  25.614  25.377  1.00  0.00     0.135 A 
ATOM     80  C   UNL A   1      42.349  24.628  27.079  1.00  0.00     0.135 A 
ATOM     81  F   UNL A   1      44.271  26.671  24.774  1.00  0.00    -0.206 F 
ATOM     82  C   UNL A   1      44.030  24.346  24.881  1.00  0.00     0.059 A 
ATOM     83  C   UNL A   1      42.649  23.352  26.596  1.00  0.00     0.059 A 
ATOM     84  F   UNL A   1      41.580  24.686  28.176  1.00  0.00    -0.206 F 
ATOM     85  C   UNL A   1      43.526  23.217  25.524  1.00  0.00     0.060 A 
BRANCH  85  86
ATOM     86  S   UNL A   1      44.136  21.583  25.043  1.00  0.00     0.124 S 
ATOM     87  O   UNL A   1      44.362  21.753  23.612  1.00  0.00    -0.237 OA
ATOM     88  O   UNL A   1      45.334  21.451  25.866  1.00  0.00    -0.237 OA
ATOM     89  O   UNL A   1      43.036  20.692  25.401  1.00  0.00    -0.744 OA
ENDBRANCH  85  86
ENDBRANCH  53  78
BRANCH  65  90
ATOM     90  C   UNL A   1      45.356  31.137  28.995  1.00  0.00     0.058 A 
ATOM     91  C   UNL A   1      46.572  31.542  28.417  1.00  0.00     0.135 A 
ATOM     92  C   UNL A   1      44.189  31.767  28.539  1.00  0.00     0.135 A 
ATOM     93  F   UNL A   1      47.725  30.938  28.740  1.00  0.00    -0.206 F 
ATOM     94  C   UNL A   1      46.625  32.548  27.448  1.00  0.00     0.059 A 
ATOM     95  C   UNL A   1      44.214  32.747  27.553  1.00  0.00     0.059 A 
ATOM     96  F   UNL A   1      42.992  31.393  29.020  1.00  0.00    -0.206 F 
ATOM     97  C   UNL A   1      45.437  33.140  27.019  1.00  0.00     0.060 A 
BRANCH  97  98
ATOM     98  S   UNL A   1      45.493  34.390  25.716  1.00  0.00     0.124 S 
ATOM     99  O   UNL A   1      45.055  35.591  26.419  1.00  0.00    -0.237 OA
ATOM    100  O   UNL A   1      46.897  34.366  25.315  1.00  0.00    -0.237 OA
ATOM    101  O   UNL A   1      44.559  33.881  24.713  1.00  0.00    -0.744 OA
ENDBRANCH  97  98
ENDBRANCH  65  90
ENDBRANCH  39  40
ENDBRANCH  31  34
ENDBRANCH  29  30
ENDBRANCH  28  29
ENDBRANCH  27  28
ENDBRANCH   1  27
TORSDOF 19
ENDMDL
