MODEL 1
REMARK VINA RESULT:     -11.2      0.000      0.000
REMARK SMILES O=C(NCCCCCCNC(=O)c1ccc(F)cc1-c1ccc(F)c(Cl)c1)c1ccc(-c2c3nc(c(-c4c(F)cc(S(=O)(=O)[O-])cc4F)c4ccc([nH]4)c(-c4c(F)cc(S(=O)(=O)[O-])cc4F)c4nc(c(-c5c(F)cc(S(=O)(=O)[O-])cc5F)c5ccc2[nH]5)C=C4)C=C3)cc1
REMARK SMILES IDX 5 1 4 2 3 3 1 4 2 5 28 7 29 8 93 9 30 10 92 11 31 12 32 13
REMARK SMILES IDX 33 14 86 15 34 16 91 17 85 18 87 19 35 20 90 21 84 22 83 23
REMARK SMILES IDX 36 25 70 26 49 27 69 28 50 29 53 30 68 31 88 32 51 33 52 34
REMARK SMILES IDX 67 36 89 37 54 38 37 39 38 40 47 41 39 42 40 43 46 44 48 45
REMARK SMILES IDX 41 46 42 47 43 48 44 49 45 50 71 51 72 52 81 53 73 54 74 55
REMARK SMILES IDX 80 56 82 57 75 58 76 59 77 60 78 61 79 62 55 63 56 64 65 65
REMARK SMILES IDX 57 66 58 67 64 68 66 69 59 70 60 71 61 72 62 73 63 74 6 75
REMARK SMILES IDX 7 76 8 77 9 78 10 79 11 80 12 82 13 83 14 84 19 85 15 86
REMARK SMILES IDX 18 87 16 88 17 89 20 90 21 91 27 92 22 93 25 94 23 95 26 96
REMARK SMILES IDX 24 97
REMARK H PARENT 3 6 87 24 53 35 10 81
REMARK Flexibility Score: inf
ROOT
ATOM      1  C   UNL A   1      34.077  28.174  25.578  1.00  0.00     0.021 C 
ENDROOT
BRANCH   1   2
ATOM      2  C   UNL A   1      33.711  28.297  27.052  1.00  0.00     0.116 C 
BRANCH   2   3
ATOM      3  N   UNL A   1      33.563  29.674  27.495  1.00  0.00    -0.352 N 
ATOM      4  O   UNL A   1      34.126  31.598  28.527  1.00  0.00    -0.269 OA
ATOM      5  C   UNL A   1      34.475  30.493  28.121  1.00  0.00     0.251 C 
ATOM      6  H   UNL A   1      32.683  30.079  27.322  1.00  0.00     0.163 HD
BRANCH   5   7
ATOM      7  C   UNL A   1      35.866  30.028  28.338  1.00  0.00     0.039 A 
ATOM      8  C   UNL A   1      36.276  29.539  29.579  1.00  0.00     0.014 A 
ATOM      9  C   UNL A   1      36.778  30.091  27.279  1.00  0.00     0.014 A 
ATOM     10  C   UNL A   1      37.622  29.272  29.807  1.00  0.00     0.010 A 
ATOM     11  C   UNL A   1      38.117  29.741  27.487  1.00  0.00     0.010 A 
ATOM     12  C   UNL A   1      38.560  29.371  28.765  1.00  0.00    -0.014 A 
BRANCH  12  13
ATOM     13  C   UNL A   1      39.988  29.058  29.041  1.00  0.00     0.031 A 
ATOM     14  C   UNL A   1      40.578  27.722  28.673  1.00  0.00     0.074 A 
ATOM     15  C   UNL A   1      40.773  30.014  29.573  1.00  0.00     0.049 A 
ATOM     16  N   UNL A   1      41.816  27.311  28.785  1.00  0.00    -0.248 NA
ATOM     17  C   UNL A   1      39.663  26.715  28.112  1.00  0.00     0.031 C 
ATOM     18  C   UNL A   1      40.315  31.345  29.980  1.00  0.00     0.029 A 
ATOM     19  N   UNL A   1      42.120  30.034  29.832  1.00  0.00    -0.354 N 
ATOM     20  C   UNL A   1      41.830  26.000  28.323  1.00  0.00     0.074 A 
ATOM     21  C   UNL A   1      40.469  25.673  27.955  1.00  0.00     0.031 C 
ATOM     22  C   UNL A   1      41.370  32.071  30.375  1.00  0.00     0.029 A 
ATOM     23  C   UNL A   1      42.571  31.245  30.302  1.00  0.00     0.049 A 
ATOM     24  H   UNL A   1      42.707  29.255  29.694  1.00  0.00     0.167 HD
ATOM     25  C   UNL A   1      42.880  25.153  28.206  1.00  0.00     0.037 A 
ATOM     26  C   UNL A   1      43.811  31.650  30.635  1.00  0.00     0.037 A 
ATOM     27  C   UNL A   1      44.236  25.487  28.561  1.00  0.00     0.049 A 
ATOM     28  C   UNL A   1      44.958  30.695  30.497  1.00  0.00     0.074 A 
ATOM     29  C   UNL A   1      45.369  24.695  28.475  1.00  0.00     0.029 A 
ATOM     30  N   UNL A   1      44.646  26.713  29.064  1.00  0.00    -0.354 N 
ATOM     31  N   UNL A   1      44.949  29.458  30.058  1.00  0.00    -0.248 NA
ATOM     32  C   UNL A   1      46.283  31.184  30.899  1.00  0.00     0.031 C 
ATOM     33  C   UNL A   1      46.459  25.433  28.951  1.00  0.00     0.029 A 
ATOM     34  C   UNL A   1      46.012  26.697  29.300  1.00  0.00     0.049 A 
ATOM     35  H   UNL A   1      44.053  27.482  29.230  1.00  0.00     0.167 HD
ATOM     36  C   UNL A   1      46.266  29.022  30.127  1.00  0.00     0.074 A 
ATOM     37  C   UNL A   1      47.049  30.134  30.630  1.00  0.00     0.031 C 
ATOM     38  C   UNL A   1      46.777  27.809  29.806  1.00  0.00     0.037 A 
BRANCH  25  39
ATOM     39  C   UNL A   1      42.608  23.772  27.674  1.00  0.00     0.058 A 
ATOM     40  C   UNL A   1      42.465  22.683  28.549  1.00  0.00     0.135 A 
ATOM     41  C   UNL A   1      42.531  23.518  26.295  1.00  0.00     0.135 A 
ATOM     42  F   UNL A   1      42.525  22.870  29.877  1.00  0.00    -0.206 F 
ATOM     43  C   UNL A   1      42.259  21.391  28.076  1.00  0.00     0.059 A 
ATOM     44  C   UNL A   1      42.306  22.236  25.801  1.00  0.00     0.059 A 
ATOM     45  F   UNL A   1      42.640  24.528  25.416  1.00  0.00    -0.206 F 
ATOM     46  C   UNL A   1      42.181  21.177  26.699  1.00  0.00     0.060 A 
BRANCH  46  47
ATOM     47  S   UNL A   1      41.855  19.505  26.099  1.00  0.00     0.124 S 
ATOM     48  O   UNL A   1      42.209  18.695  27.258  1.00  0.00    -0.237 OA
ATOM     49  O   UNL A   1      40.433  19.565  25.772  1.00  0.00    -0.237 OA
ATOM     50  O   UNL A   1      42.746  19.383  24.948  1.00  0.00    -0.744 OA
ENDBRANCH  46  47
ENDBRANCH  25  39
BRANCH  26  51
ATOM     51  C   UNL A   1      44.014  33.044  31.107  1.00  0.00     0.058 A 
ATOM     52  C   UNL A   1      43.924  33.368  32.469  1.00  0.00     0.135 A 
ATOM     53  C   UNL A   1      44.220  34.089  30.195  1.00  0.00     0.135 A 
ATOM     54  F   UNL A   1      43.717  32.403  33.378  1.00  0.00    -0.206 F 
ATOM     55  C   UNL A   1      43.992  34.684  32.909  1.00  0.00     0.059 A 
ATOM     56  C   UNL A   1      44.314  35.413  30.612  1.00  0.00     0.059 A 
ATOM     57  F   UNL A   1      44.321  33.824  28.884  1.00  0.00    -0.206 F 
ATOM     58  C   UNL A   1      44.175  35.702  31.971  1.00  0.00     0.060 A 
BRANCH  58  59
ATOM     59  S   UNL A   1      44.213  37.410  32.553  1.00  0.00     0.124 S 
ATOM     60  O   UNL A   1      43.190  37.383  33.594  1.00  0.00    -0.237 OA
ATOM     61  O   UNL A   1      45.590  37.545  33.018  1.00  0.00    -0.237 OA
ATOM     62  O   UNL A   1      43.878  38.180  31.360  1.00  0.00    -0.744 OA
ENDBRANCH  58  59
ENDBRANCH  26  51
BRANCH  38  63
ATOM     63  C   UNL A   1      48.257  27.618  29.979  1.00  0.00     0.058 A 
ATOM     64  C   UNL A   1      49.140  27.902  28.926  1.00  0.00     0.135 A 
ATOM     65  C   UNL A   1      48.794  27.102  31.168  1.00  0.00     0.135 A 
ATOM     66  F   UNL A   1      48.675  28.396  27.767  1.00  0.00    -0.206 F 
ATOM     67  C   UNL A   1      50.507  27.673  29.043  1.00  0.00     0.059 A 
ATOM     68  C   UNL A   1      50.161  26.883  31.315  1.00  0.00     0.059 A 
ATOM     69  F   UNL A   1      47.991  26.825  32.208  1.00  0.00    -0.206 F 
ATOM     70  C   UNL A   1      51.007  27.160  30.241  1.00  0.00     0.060 A 
BRANCH  70  71
ATOM     71  S   UNL A   1      52.786  26.893  30.389  1.00  0.00     0.124 S 
ATOM     72  O   UNL A   1      53.240  28.180  30.905  1.00  0.00    -0.237 OA
ATOM     73  O   UNL A   1      52.857  25.774  31.324  1.00  0.00    -0.237 OA
ATOM     74  O   UNL A   1      53.196  26.582  29.023  1.00  0.00    -0.744 OA
ENDBRANCH  70  71
ENDBRANCH  38  63
ENDBRANCH  12  13
ENDBRANCH   5   7
ENDBRANCH   2   3
ENDBRANCH   1   2
BRANCH   1  75
ATOM     75  C   UNL A   1      32.919  28.336  24.591  1.00  0.00     0.002 C 
BRANCH  75  76
ATOM     76  C   UNL A   1      33.206  27.934  23.143  1.00  0.00     0.002 C 
BRANCH  76  77
ATOM     77  C   UNL A   1      32.573  26.624  22.661  1.00  0.00     0.021 C 
BRANCH  77  78
ATOM     78  C   UNL A   1      33.525  25.623  22.010  1.00  0.00     0.116 C 
BRANCH  78  79
ATOM     79  N   UNL A   1      32.958  24.289  21.918  1.00  0.00    -0.352 N 
ATOM     80  C   UNL A   1      33.336  23.135  22.558  1.00  0.00     0.251 C 
ATOM     81  H   UNL A   1      32.190  24.200  21.309  1.00  0.00     0.163 HD
ATOM     82  O   UNL A   1      32.743  22.083  22.347  1.00  0.00    -0.269 OA
BRANCH  80  83
ATOM     83  C   UNL A   1      34.465  23.170  23.515  1.00  0.00     0.047 A 
ATOM     84  C   UNL A   1      35.770  23.074  22.997  1.00  0.00     0.017 A 
ATOM     85  C   UNL A   1      34.242  23.356  24.896  1.00  0.00    -0.003 A 
ATOM     86  C   UNL A   1      36.865  23.104  23.856  1.00  0.00     0.040 A 
ATOM     87  C   UNL A   1      35.369  23.382  25.741  1.00  0.00     0.048 A 
ATOM     88  C   UNL A   1      36.653  23.251  25.221  1.00  0.00     0.123 A 
ATOM     89  F   UNL A   1      37.703  23.279  26.051  1.00  0.00    -0.207 F 
BRANCH  85  90
ATOM     90  C   UNL A   1      32.903  23.537  25.484  1.00  0.00    -0.016 A 
ATOM     91  C   UNL A   1      32.106  22.439  25.849  1.00  0.00     0.012 A 
ATOM     92  C   UNL A   1      32.397  24.834  25.694  1.00  0.00     0.032 A 
ATOM     93  C   UNL A   1      30.835  22.630  26.399  1.00  0.00     0.041 A 
ATOM     94  C   UNL A   1      31.129  25.022  26.247  1.00  0.00     0.077 A 
ATOM     95  C   UNL A   1      30.354  23.921  26.595  1.00  0.00     0.141 A 
ATOM     96  Cl  UNL A   1      30.543  26.623  26.495  1.00  0.00    -0.081 Cl
ATOM     97  F   UNL A   1      29.134  24.080  27.130  1.00  0.00    -0.205 F 
ENDBRANCH  85  90
ENDBRANCH  80  83
ENDBRANCH  78  79
ENDBRANCH  77  78
ENDBRANCH  76  77
ENDBRANCH  75  76
ENDBRANCH   1  75
TORSDOF 17
ENDMDL
MODEL 2
REMARK VINA RESULT:     -11.2      5.159      9.808
REMARK SMILES O=C(NCCCCCCNC(=O)c1ccc(F)cc1-c1ccc(F)c(Cl)c1)c1ccc(-c2c3nc(c(-c4c(F)cc(S(=O)(=O)[O-])cc4F)c4ccc([nH]4)c(-c4c(F)cc(S(=O)(=O)[O-])cc4F)c4nc(c(-c5c(F)cc(S(=O)(=O)[O-])cc5F)c5ccc2[nH]5)C=C4)C=C3)cc1
REMARK SMILES IDX 5 1 4 2 3 3 1 4 2 5 28 7 29 8 93 9 30 10 92 11 31 12 32 13
REMARK SMILES IDX 33 14 86 15 34 16 91 17 85 18 87 19 35 20 90 21 84 22 83 23
REMARK SMILES IDX 36 25 70 26 49 27 69 28 50 29 53 30 68 31 88 32 51 33 52 34
REMARK SMILES IDX 67 36 89 37 54 38 37 39 38 40 47 41 39 42 40 43 46 44 48 45
REMARK SMILES IDX 41 46 42 47 43 48 44 49 45 50 71 51 72 52 81 53 73 54 74 55
REMARK SMILES IDX 80 56 82 57 75 58 76 59 77 60 78 61 79 62 55 63 56 64 65 65
REMARK SMILES IDX 57 66 58 67 64 68 66 69 59 70 60 71 61 72 62 73 63 74 6 75
REMARK SMILES IDX 7 76 8 77 9 78 10 79 11 80 12 82 13 83 14 84 19 85 15 86
REMARK SMILES IDX 18 87 16 88 17 89 20 90 21 91 27 92 22 93 25 94 23 95 26 96
REMARK SMILES IDX 24 97
REMARK H PARENT 3 6 87 24 53 35 10 81
REMARK Flexibility Score: inf
ROOT
ATOM      1  C   UNL A   1      39.958  22.225  27.195  1.00  0.00     0.021 C 
ENDROOT
BRANCH   1   2
ATOM      2  C   UNL A   1      41.279  22.981  27.252  1.00  0.00     0.116 C 
BRANCH   2   3
ATOM      3  N   UNL A   1      41.480  23.873  26.122  1.00  0.00    -0.352 N 
ATOM      4  O   UNL A   1      41.530  25.827  24.999  1.00  0.00    -0.269 OA
ATOM      5  C   UNL A   1      41.453  25.248  26.079  1.00  0.00     0.251 C 
ATOM      6  H   UNL A   1      41.661  23.428  25.263  1.00  0.00     0.163 HD
BRANCH   5   7
ATOM      7  C   UNL A   1      41.295  26.028  27.329  1.00  0.00     0.039 A 
ATOM      8  C   UNL A   1      40.154  25.893  28.122  1.00  0.00     0.014 A 
ATOM      9  C   UNL A   1      42.305  26.918  27.709  1.00  0.00     0.014 A 
ATOM     10  C   UNL A   1      39.949  26.757  29.194  1.00  0.00     0.010 A 
ATOM     11  C   UNL A   1      42.135  27.728  28.838  1.00  0.00     0.010 A 
ATOM     12  C   UNL A   1      40.937  27.686  29.564  1.00  0.00    -0.014 A 
BRANCH  12  13
ATOM     13  C   UNL A   1      40.691  28.580  30.728  1.00  0.00     0.031 A 
ATOM     14  C   UNL A   1      41.584  28.544  31.940  1.00  0.00     0.074 A 
ATOM     15  C   UNL A   1      39.689  29.477  30.660  1.00  0.00     0.049 A 
ATOM     16  N   UNL A   1      41.549  29.297  33.010  1.00  0.00    -0.248 NA
ATOM     17  C   UNL A   1      42.650  27.530  31.959  1.00  0.00     0.031 C 
ATOM     18  C   UNL A   1      38.750  29.603  29.542  1.00  0.00     0.029 A 
ATOM     19  N   UNL A   1      39.309  30.471  31.525  1.00  0.00    -0.354 N 
ATOM     20  C   UNL A   1      42.574  28.845  33.833  1.00  0.00     0.074 A 
ATOM     21  C   UNL A   1      43.197  27.731  33.151  1.00  0.00     0.031 C 
ATOM     22  C   UNL A   1      37.947  30.655  29.759  1.00  0.00     0.029 A 
ATOM     23  C   UNL A   1      38.276  31.245  31.052  1.00  0.00     0.049 A 
ATOM     24  H   UNL A   1      39.737  30.617  32.400  1.00  0.00     0.167 HD
ATOM     25  C   UNL A   1      42.966  29.322  35.039  1.00  0.00     0.037 A 
ATOM     26  C   UNL A   1      37.659  32.313  31.594  1.00  0.00     0.037 A 
ATOM     27  C   UNL A   1      42.353  30.441  35.709  1.00  0.00     0.049 A 
ATOM     28  C   UNL A   1      38.111  32.823  32.930  1.00  0.00     0.074 A 
ATOM     29  C   UNL A   1      42.684  30.999  36.932  1.00  0.00     0.029 A 
ATOM     30  N   UNL A   1      41.287  31.176  35.211  1.00  0.00    -0.354 N 
ATOM     31  N   UNL A   1      39.083  32.379  33.692  1.00  0.00    -0.248 NA
ATOM     32  C   UNL A   1      37.386  33.974  33.482  1.00  0.00     0.031 C 
ATOM     33  C   UNL A   1      41.801  32.054  37.187  1.00  0.00     0.029 A 
ATOM     34  C   UNL A   1      40.943  32.178  36.106  1.00  0.00     0.049 A 
ATOM     35  H   UNL A   1      40.840  31.011  34.350  1.00  0.00     0.167 HD
ATOM     36  C   UNL A   1      39.089  33.200  34.813  1.00  0.00     0.074 A 
ATOM     37  C   UNL A   1      38.038  34.180  34.620  1.00  0.00     0.031 C 
ATOM     38  C   UNL A   1      39.891  33.142  35.904  1.00  0.00     0.037 A 
BRANCH  25  39
ATOM     39  C   UNL A   1      44.116  28.632  35.722  1.00  0.00     0.058 A 
ATOM     40  C   UNL A   1      43.886  27.583  36.627  1.00  0.00     0.135 A 
ATOM     41  C   UNL A   1      45.444  29.037  35.513  1.00  0.00     0.135 A 
ATOM     42  F   UNL A   1      42.636  27.154  36.860  1.00  0.00    -0.206 F 
ATOM     43  C   UNL A   1      44.931  26.964  37.304  1.00  0.00     0.059 A 
ATOM     44  C   UNL A   1      46.507  28.418  36.165  1.00  0.00     0.059 A 
ATOM     45  F   UNL A   1      45.721  30.021  34.642  1.00  0.00    -0.206 F 
ATOM     46  C   UNL A   1      46.240  27.388  37.066  1.00  0.00     0.060 A 
BRANCH  46  47
ATOM     47  S   UNL A   1      47.593  26.537  37.907  1.00  0.00     0.124 S 
ATOM     48  O   UNL A   1      47.220  25.138  37.737  1.00  0.00    -0.237 OA
ATOM     49  O   UNL A   1      48.758  26.983  37.149  1.00  0.00    -0.237 OA
ATOM     50  O   UNL A   1      47.514  27.050  39.273  1.00  0.00    -0.744 OA
ENDBRANCH  46  47
ENDBRANCH  25  39
BRANCH  26  51
ATOM     51  C   UNL A   1      36.564  32.975  30.841  1.00  0.00     0.058 A 
ATOM     52  C   UNL A   1      36.841  33.849  29.778  1.00  0.00     0.135 A 
ATOM     53  C   UNL A   1      35.225  32.809  31.222  1.00  0.00     0.135 A 
ATOM     54  F   UNL A   1      38.108  34.050  29.384  1.00  0.00    -0.206 F 
ATOM     55  C   UNL A   1      35.833  34.567  29.147  1.00  0.00     0.059 A 
ATOM     56  C   UNL A   1      34.195  33.498  30.590  1.00  0.00     0.059 A 
ATOM     57  F   UNL A   1      34.913  31.975  32.227  1.00  0.00    -0.206 F 
ATOM     58  C   UNL A   1      34.513  34.394  29.568  1.00  0.00     0.060 A 
BRANCH  58  59
ATOM     59  S   UNL A   1      33.221  35.368  28.769  1.00  0.00     0.124 S 
ATOM     60  O   UNL A   1      32.503  35.898  29.924  1.00  0.00    -0.237 OA
ATOM     61  O   UNL A   1      33.997  36.338  28.003  1.00  0.00    -0.237 OA
ATOM     62  O   UNL A   1      32.497  34.381  27.976  1.00  0.00    -0.744 OA
ENDBRANCH  58  59
ENDBRANCH  26  51
BRANCH  38  63
ATOM     63  C   UNL A   1      39.673  34.173  36.974  1.00  0.00     0.058 A 
ATOM     64  C   UNL A   1      40.253  35.446  36.866  1.00  0.00     0.135 A 
ATOM     65  C   UNL A   1      38.934  33.881  38.131  1.00  0.00     0.135 A 
ATOM     66  F   UNL A   1      40.970  35.773  35.780  1.00  0.00    -0.206 F 
ATOM     67  C   UNL A   1      40.116  36.394  37.874  1.00  0.00     0.059 A 
ATOM     68  C   UNL A   1      38.767  34.822  39.144  1.00  0.00     0.059 A 
ATOM     69  F   UNL A   1      38.350  32.682  38.275  1.00  0.00    -0.206 F 
ATOM     70  C   UNL A   1      39.374  36.071  39.011  1.00  0.00     0.060 A 
BRANCH  70  71
ATOM     71  S   UNL A   1      39.182  37.320  40.300  1.00  0.00     0.124 S 
ATOM     72  O   UNL A   1      38.374  38.328  39.621  1.00  0.00    -0.237 OA
ATOM     73  O   UNL A   1      38.507  36.575  41.359  1.00  0.00    -0.237 OA
ATOM     74  O   UNL A   1      40.556  37.710  40.600  1.00  0.00    -0.744 OA
ENDBRANCH  70  71
ENDBRANCH  38  63
ENDBRANCH  12  13
ENDBRANCH   5   7
ENDBRANCH   2   3
ENDBRANCH   1   2
BRANCH   1  75
ATOM     75  C   UNL A   1      38.973  22.691  26.122  1.00  0.00     0.002 C 
BRANCH  75  76
ATOM     76  C   UNL A   1      37.842  21.719  25.776  1.00  0.00     0.002 C 
BRANCH  76  77
ATOM     77  C   UNL A   1      37.402  21.678  24.308  1.00  0.00     0.021 C 
BRANCH  77  78
ATOM     78  C   UNL A   1      36.387  22.738  23.886  1.00  0.00     0.116 C 
BRANCH  78  79
ATOM     79  N   UNL A   1      35.568  23.200  24.992  1.00  0.00    -0.352 N 
ATOM     80  C   UNL A   1      34.345  22.746  25.421  1.00  0.00     0.251 C 
ATOM     81  H   UNL A   1      35.944  23.948  25.510  1.00  0.00     0.163 HD
ATOM     82  O   UNL A   1      33.786  23.271  26.377  1.00  0.00    -0.269 OA
BRANCH  80  83
ATOM     83  C   UNL A   1      33.706  21.607  24.723  1.00  0.00     0.047 A 
ATOM     84  C   UNL A   1      33.964  20.311  25.207  1.00  0.00     0.017 A 
ATOM     85  C   UNL A   1      32.817  21.820  23.647  1.00  0.00    -0.003 A 
ATOM     86  C   UNL A   1      33.385  19.207  24.585  1.00  0.00     0.040 A 
ATOM     87  C   UNL A   1      32.246  20.685  23.039  1.00  0.00     0.048 A 
ATOM     88  C   UNL A   1      32.537  19.405  23.504  1.00  0.00     0.123 A 
ATOM     89  F   UNL A   1      31.979  18.347  22.903  1.00  0.00    -0.207 F 
BRANCH  85  90
ATOM     90  C   UNL A   1      32.453  23.157  23.149  1.00  0.00    -0.016 A 
ATOM     91  C   UNL A   1      33.202  23.799  22.148  1.00  0.00     0.012 A 
ATOM     92  C   UNL A   1      31.329  23.822  23.675  1.00  0.00     0.032 A 
ATOM     93  C   UNL A   1      32.846  25.071  21.693  1.00  0.00     0.041 A 
ATOM     94  C   UNL A   1      30.973  25.091  23.216  1.00  0.00     0.077 A 
ATOM     95  C   UNL A   1      31.732  25.710  22.229  1.00  0.00     0.141 A 
ATOM     96  Cl  UNL A   1      29.587  25.873  23.878  1.00  0.00    -0.081 Cl
ATOM     97  F   UNL A   1      31.405  26.927  21.772  1.00  0.00    -0.205 F 
ENDBRANCH  85  90
ENDBRANCH  80  83
ENDBRANCH  78  79
ENDBRANCH  77  78
ENDBRANCH  76  77
ENDBRANCH  75  76
ENDBRANCH   1  75
TORSDOF 17
ENDMDL
MODEL 3
REMARK VINA RESULT:     -11.1      5.177      9.832
REMARK SMILES O=C(NCCCCCCNC(=O)c1ccc(F)cc1-c1ccc(F)c(Cl)c1)c1ccc(-c2c3nc(c(-c4c(F)cc(S(=O)(=O)[O-])cc4F)c4ccc([nH]4)c(-c4c(F)cc(S(=O)(=O)[O-])cc4F)c4nc(c(-c5c(F)cc(S(=O)(=O)[O-])cc5F)c5ccc2[nH]5)C=C4)C=C3)cc1
REMARK SMILES IDX 5 1 4 2 3 3 1 4 2 5 28 7 29 8 93 9 30 10 92 11 31 12 32 13
REMARK SMILES IDX 33 14 86 15 34 16 91 17 85 18 87 19 35 20 90 21 84 22 83 23
REMARK SMILES IDX 36 25 70 26 49 27 69 28 50 29 53 30 68 31 88 32 51 33 52 34
REMARK SMILES IDX 67 36 89 37 54 38 37 39 38 40 47 41 39 42 40 43 46 44 48 45
REMARK SMILES IDX 41 46 42 47 43 48 44 49 45 50 71 51 72 52 81 53 73 54 74 55
REMARK SMILES IDX 80 56 82 57 75 58 76 59 77 60 78 61 79 62 55 63 56 64 65 65
REMARK SMILES IDX 57 66 58 67 64 68 66 69 59 70 60 71 61 72 62 73 63 74 6 75
REMARK SMILES IDX 7 76 8 77 9 78 10 79 11 80 12 82 13 83 14 84 19 85 15 86
REMARK SMILES IDX 18 87 16 88 17 89 20 90 21 91 27 92 22 93 25 94 23 95 26 96
REMARK SMILES IDX 24 97
REMARK H PARENT 3 6 87 24 53 35 10 81
REMARK Flexibility Score: inf
ROOT
ATOM      1  C   UNL A   1      37.160  23.701  25.377  1.00  0.00     0.021 C 
ENDROOT
BRANCH   1   2
ATOM      2  C   UNL A   1      38.107  24.079  26.510  1.00  0.00     0.116 C 
BRANCH   2   3
ATOM      3  N   UNL A   1      39.506  24.067  26.116  1.00  0.00    -0.352 N 
ATOM      4  O   UNL A   1      41.637  24.792  25.991  1.00  0.00    -0.269 OA
ATOM      5  C   UNL A   1      40.537  24.880  26.529  1.00  0.00     0.251 C 
ATOM      6  H   UNL A   1      39.752  23.377  25.459  1.00  0.00     0.163 HD
BRANCH   5   7
ATOM      7  C   UNL A   1      40.310  25.885  27.595  1.00  0.00     0.039 A 
ATOM      8  C   UNL A   1      40.988  27.105  27.589  1.00  0.00     0.014 A 
ATOM      9  C   UNL A   1      39.407  25.596  28.623  1.00  0.00     0.014 A 
ATOM     10  C   UNL A   1      40.889  27.957  28.685  1.00  0.00     0.010 A 
ATOM     11  C   UNL A   1      39.245  26.493  29.684  1.00  0.00     0.010 A 
ATOM     12  C   UNL A   1      40.018  27.661  29.747  1.00  0.00    -0.014 A 
BRANCH  12  13
ATOM     13  C   UNL A   1      39.924  28.605  30.893  1.00  0.00     0.031 A 
ATOM     14  C   UNL A   1      40.879  28.518  32.054  1.00  0.00     0.074 A 
ATOM     15  C   UNL A   1      39.006  29.590  30.852  1.00  0.00     0.049 A 
ATOM     16  N   UNL A   1      40.976  29.300  33.099  1.00  0.00    -0.248 NA
ATOM     17  C   UNL A   1      41.847  27.409  32.047  1.00  0.00     0.031 C 
ATOM     18  C   UNL A   1      38.019  29.773  29.785  1.00  0.00     0.029 A 
ATOM     19  N   UNL A   1      38.771  30.639  31.704  1.00  0.00    -0.354 N 
ATOM     20  C   UNL A   1      42.001  28.777  33.878  1.00  0.00     0.074 A 
ATOM     21  C   UNL A   1      42.478  27.591  33.199  1.00  0.00     0.031 C 
ATOM     22  C   UNL A   1      37.331  30.901  30.011  1.00  0.00     0.029 A 
ATOM     23  C   UNL A   1      37.787  31.493  31.265  1.00  0.00     0.049 A 
ATOM     24  H   UNL A   1      39.261  30.768  32.548  1.00  0.00     0.167 HD
ATOM     25  C   UNL A   1      42.506  29.247  35.045  1.00  0.00     0.037 A 
ATOM     26  C   UNL A   1      37.305  32.628  31.805  1.00  0.00     0.037 A 
ATOM     27  C   UNL A   1      42.038  30.436  35.710  1.00  0.00     0.049 A 
ATOM     28  C   UNL A   1      37.878  33.130  33.096  1.00  0.00     0.074 A 
ATOM     29  C   UNL A   1      42.490  30.994  36.895  1.00  0.00     0.029 A 
ATOM     30  N   UNL A   1      41.017  31.254  35.250  1.00  0.00    -0.354 N 
ATOM     31  N   UNL A   1      38.848  32.618  33.817  1.00  0.00    -0.248 NA
ATOM     32  C   UNL A   1      37.296  34.358  33.650  1.00  0.00     0.031 C 
ATOM     33  C   UNL A   1      41.724  32.134  37.164  1.00  0.00     0.029 A 
ATOM     34  C   UNL A   1      40.820  32.308  36.129  1.00  0.00     0.049 A 
ATOM     35  H   UNL A   1      40.508  31.109  34.420  1.00  0.00     0.167 HD
ATOM     36  C   UNL A   1      38.995  33.464  34.909  1.00  0.00     0.074 A 
ATOM     37  C   UNL A   1      38.029  34.533  34.743  1.00  0.00     0.031 C 
ATOM     38  C   UNL A   1      39.851  33.361  35.955  1.00  0.00     0.037 A 
BRANCH  25  39
ATOM     39  C   UNL A   1      43.625  28.471  35.684  1.00  0.00     0.058 A 
ATOM     40  C   UNL A   1      43.351  27.460  36.619  1.00  0.00     0.135 A 
ATOM     41  C   UNL A   1      44.971  28.757  35.404  1.00  0.00     0.135 A 
ATOM     42  F   UNL A   1      42.083  27.143  36.921  1.00  0.00    -0.206 F 
ATOM     43  C   UNL A   1      44.372  26.763  37.257  1.00  0.00     0.059 A 
ATOM     44  C   UNL A   1      46.008  28.059  36.016  1.00  0.00     0.059 A 
ATOM     45  F   UNL A   1      45.287  29.700  34.501  1.00  0.00    -0.206 F 
ATOM     46  C   UNL A   1      45.699  27.069  36.949  1.00  0.00     0.060 A 
BRANCH  46  47
ATOM     47  S   UNL A   1      47.015  26.117  37.740  1.00  0.00     0.124 S 
ATOM     48  O   UNL A   1      47.620  27.112  38.616  1.00  0.00    -0.237 OA
ATOM     49  O   UNL A   1      46.270  25.051  38.402  1.00  0.00    -0.237 OA
ATOM     50  O   UNL A   1      47.838  25.684  36.613  1.00  0.00    -0.744 OA
ENDBRANCH  46  47
ENDBRANCH  25  39
BRANCH  26  51
ATOM     51  C   UNL A   1      36.232  33.370  31.092  1.00  0.00     0.058 A 
ATOM     52  C   UNL A   1      36.513  34.114  29.936  1.00  0.00     0.135 A 
ATOM     53  C   UNL A   1      34.927  33.414  31.602  1.00  0.00     0.135 A 
ATOM     54  F   UNL A   1      37.750  34.112  29.417  1.00  0.00    -0.206 F 
ATOM     55  C   UNL A   1      35.546  34.907  29.332  1.00  0.00     0.059 A 
ATOM     56  C   UNL A   1      33.935  34.182  31.002  1.00  0.00     0.059 A 
ATOM     57  F   UNL A   1      34.613  32.710  32.700  1.00  0.00    -0.206 F 
ATOM     58  C   UNL A   1      34.262  34.945  29.879  1.00  0.00     0.060 A 
BRANCH  58  59
ATOM     59  S   UNL A   1      33.031  36.017  29.110  1.00  0.00     0.124 S 
ATOM     60  O   UNL A   1      32.316  35.071  28.259  1.00  0.00    -0.237 OA
ATOM     61  O   UNL A   1      32.292  36.516  30.265  1.00  0.00    -0.237 OA
ATOM     62  O   UNL A   1      33.839  37.010  28.410  1.00  0.00    -0.744 OA
ENDBRANCH  58  59
ENDBRANCH  26  51
BRANCH  38  63
ATOM     63  C   UNL A   1      39.791  34.437  37.001  1.00  0.00     0.058 A 
ATOM     64  C   UNL A   1      38.957  34.296  38.121  1.00  0.00     0.135 A 
ATOM     65  C   UNL A   1      40.518  35.630  36.866  1.00  0.00     0.135 A 
ATOM     66  F   UNL A   1      38.241  33.174  38.295  1.00  0.00    -0.206 F 
ATOM     67  C   UNL A   1      38.839  35.305  39.070  1.00  0.00     0.059 A 
ATOM     68  C   UNL A   1      40.430  36.646  37.814  1.00  0.00     0.059 A 
ATOM     69  F   UNL A   1      41.337  35.806  35.818  1.00  0.00    -0.206 F 
ATOM     70  C   UNL A   1      39.578  36.479  38.905  1.00  0.00     0.060 A 
BRANCH  70  71
ATOM     71  S   UNL A   1      39.435  37.771  40.158  1.00  0.00     0.124 S 
ATOM     72  O   UNL A   1      39.157  36.992  41.360  1.00  0.00    -0.237 OA
ATOM     73  O   UNL A   1      40.749  38.405  40.103  1.00  0.00    -0.237 OA
ATOM     74  O   UNL A   1      38.332  38.593  39.670  1.00  0.00    -0.744 OA
ENDBRANCH  70  71
ENDBRANCH  38  63
ENDBRANCH  12  13
ENDBRANCH   5   7
ENDBRANCH   2   3
ENDBRANCH   1   2
BRANCH   1  75
ATOM     75  C   UNL A   1      35.746  23.301  25.800  1.00  0.00     0.002 C 
BRANCH  75  76
ATOM     76  C   UNL A   1      34.662  24.368  25.627  1.00  0.00     0.002 C 
BRANCH  76  77
ATOM     77  C   UNL A   1      34.697  25.171  24.322  1.00  0.00     0.021 C 
BRANCH  77  78
ATOM     78  C   UNL A   1      33.992  26.525  24.352  1.00  0.00     0.116 C 
BRANCH  78  79
ATOM     79  N   UNL A   1      33.559  26.902  25.687  1.00  0.00    -0.352 N 
ATOM     80  C   UNL A   1      32.386  27.490  26.089  1.00  0.00     0.251 C 
ATOM     81  H   UNL A   1      34.200  26.706  26.407  1.00  0.00     0.163 HD
ATOM     82  O   UNL A   1      32.193  27.751  27.271  1.00  0.00    -0.269 OA
BRANCH  80  83
ATOM     83  C   UNL A   1      31.345  27.801  25.083  1.00  0.00     0.047 A 
ATOM     84  C   UNL A   1      31.196  29.143  24.685  1.00  0.00     0.017 A 
ATOM     85  C   UNL A   1      30.571  26.777  24.496  1.00  0.00    -0.003 A 
ATOM     86  C   UNL A   1      30.232  29.487  23.740  1.00  0.00     0.040 A 
ATOM     87  C   UNL A   1      29.605  27.155  23.543  1.00  0.00     0.048 A 
ATOM     88  C   UNL A   1      29.442  28.489  23.184  1.00  0.00     0.123 A 
ATOM     89  F   UNL A   1      28.514  28.815  22.276  1.00  0.00    -0.207 F 
BRANCH  85  90
ATOM     90  C   UNL A   1      30.737  25.349  24.819  1.00  0.00    -0.016 A 
ATOM     91  C   UNL A   1      30.428  24.843  26.093  1.00  0.00     0.012 A 
ATOM     92  C   UNL A   1      31.213  24.457  23.840  1.00  0.00     0.032 A 
ATOM     93  C   UNL A   1      30.598  23.487  26.384  1.00  0.00     0.041 A 
ATOM     94  C   UNL A   1      31.380  23.102  24.132  1.00  0.00     0.077 A 
ATOM     95  C   UNL A   1      31.073  22.624  25.401  1.00  0.00     0.141 A 
ATOM     96  Cl  UNL A   1      31.959  22.038  22.907  1.00  0.00    -0.081 Cl
ATOM     97  F   UNL A   1      31.223  21.325  25.701  1.00  0.00    -0.205 F 
ENDBRANCH  85  90
ENDBRANCH  80  83
ENDBRANCH  78  79
ENDBRANCH  77  78
ENDBRANCH  76  77
ENDBRANCH  75  76
ENDBRANCH   1  75
TORSDOF 17
ENDMDL
