MODEL 1
REMARK VINA RESULT:     -11.3      0.000      0.000
REMARK SMILES C[NH+](C)Cc1noc(C[C@@](C)(C(=O)NCCCCCCNC(=O)c2ccc(-c3c4nc(c(-c5c(F)cc(S(=O)(=O)[O-])cc5F)c5ccc([nH]5)c(-c5c(F)cc(S(=O)(=O)[O-])cc5F)c5nc(c(-c6c(F)cc(S(=O)(=O)[O-])cc6F)c6ccc3[nH]6)C=C5)C=C4)cc2)c2ccccc2)n1
REMARK SMILES IDX 17 1 16 2 15 3 14 4 12 5 13 6 10 8 11 9 9 10 8 11 5 12 6 13
REMARK SMILES IDX 96 14 7 15 4 16 2 17 1 18 3 19 90 21 91 22 95 23 92 24 94 25
REMARK SMILES IDX 93 26 18 27 19 28 20 29 21 30 22 31 23 33 24 34 25 35 89 36
REMARK SMILES IDX 26 37 88 38 27 39 28 40 29 41 82 42 30 43 87 44 81 45 83 46
REMARK SMILES IDX 31 47 86 48 80 49 79 50 32 52 66 53 45 54 65 55 46 56 49 57
REMARK SMILES IDX 64 58 84 59 47 60 48 61 63 63 85 64 50 65 33 66 34 67 43 68
REMARK SMILES IDX 35 69 36 70 42 71 44 72 37 73 38 74 39 75 40 76 41 77 67 78
REMARK SMILES IDX 68 79 77 80 69 81 70 82 76 83 78 84 71 85 72 86 73 87 74 88
REMARK SMILES IDX 75 89 51 90 52 91 61 92 53 93 54 94 60 95 62 96 55 97 56 98
REMARK SMILES IDX 57 99 58 100 59 101
REMARK H PARENT 14 7 2 20 21 32 83 51 49 62
REMARK Flexibility Score: inf
ROOT
ATOM      1  C   UNL A   1      38.097  21.971  25.159  1.00  0.00     0.002 C 
ENDROOT
BRANCH   1   2
ATOM      2  C   UNL A   1      36.743  21.665  25.812  1.00  0.00     0.021 C 
BRANCH   2   3
ATOM      3  C   UNL A   1      35.873  22.904  26.021  1.00  0.00     0.116 C 
BRANCH   3   4
ATOM      4  N   UNL A   1      34.807  22.623  26.963  1.00  0.00    -0.355 N 
ATOM      5  C   UNL A   1      33.476  22.905  26.986  1.00  0.00     0.230 C 
ATOM      6  O   UNL A   1      32.907  22.609  28.042  1.00  0.00    -0.274 OA
ATOM      7  H   UNL A   1      35.111  22.122  27.754  1.00  0.00     0.163 HD
BRANCH   5   8
ATOM      8  C   UNL A   1      32.718  23.534  25.778  1.00  0.00     0.080 C 
ATOM      9  C   UNL A   1      31.276  22.960  25.765  1.00  0.00     0.027 C 
BRANCH   8  10
ATOM     10  C   UNL A   1      33.464  23.149  24.470  1.00  0.00     0.122 C 
BRANCH  10  11
ATOM     11  C   UNL A   1      32.990  21.893  23.846  1.00  0.00     0.228 A 
ATOM     12  C   UNL A   1      32.470  19.940  23.314  1.00  0.00     0.226 A 
ATOM     13  N   UNL A   1      31.937  20.682  22.330  1.00  0.00    -0.056 NA
ATOM     14  N   UNL A   1      33.119  20.667  24.282  1.00  0.00    -0.190 NA
ATOM     15  O   UNL A   1      32.270  21.988  22.694  1.00  0.00    -0.339 OA
BRANCH  12  16
ATOM     16  C   UNL A   1      32.368  18.443  23.318  1.00  0.00     0.344 C 
BRANCH  16  17
ATOM     17  N   UNL A   1      33.311  17.714  24.199  1.00  0.00    -0.333 N 
ATOM     18  C   UNL A   1      32.717  17.334  25.479  1.00  0.00     0.332 C 
ATOM     19  C   UNL A   1      33.926  16.570  23.531  1.00  0.00     0.332 C 
ATOM     20  H   UNL A   1      34.056  18.377  24.412  1.00  0.00     0.348 HD
ENDBRANCH  16  17
ENDBRANCH  12  16
ENDBRANCH  10  11
ENDBRANCH   8  10
BRANCH   8  21
ATOM     21  C   UNL A   1      32.673  25.084  25.980  1.00  0.00    -0.032 A 
ATOM     22  C   UNL A   1      31.469  25.750  26.285  1.00  0.00     0.005 A 
ATOM     23  C   UNL A   1      33.819  25.886  25.812  1.00  0.00     0.005 A 
ATOM     24  C   UNL A   1      31.426  27.136  26.473  1.00  0.00     0.000 A 
ATOM     25  C   UNL A   1      33.776  27.271  25.996  1.00  0.00     0.000 A 
ATOM     26  C   UNL A   1      32.582  27.895  26.336  1.00  0.00     0.000 A 
ENDBRANCH   8  21
ENDBRANCH   5   8
ENDBRANCH   3   4
ENDBRANCH   2   3
ENDBRANCH   1   2
BRANCH   1  27
ATOM     27  C   UNL A   1      39.316  21.641  26.030  1.00  0.00     0.002 C 
BRANCH  27  28
ATOM     28  C   UNL A   1      39.600  22.650  27.147  1.00  0.00     0.021 C 
BRANCH  28  29
ATOM     29  C   UNL A   1      41.054  23.097  27.230  1.00  0.00     0.116 C 
BRANCH  29  30
ATOM     30  N   UNL A   1      41.428  23.930  26.097  1.00  0.00    -0.352 N 
ATOM     31  C   UNL A   1      41.510  25.298  26.022  1.00  0.00     0.251 C 
ATOM     32  H   UNL A   1      41.652  23.444  25.270  1.00  0.00     0.163 HD
ATOM     33  O   UNL A   1      41.620  25.853  24.933  1.00  0.00    -0.269 OA
BRANCH  31  34
ATOM     34  C   UNL A   1      41.446  26.093  27.264  1.00  0.00     0.039 A 
ATOM     35  C   UNL A   1      42.551  26.860  27.640  1.00  0.00     0.014 A 
ATOM     36  C   UNL A   1      40.282  26.101  28.037  1.00  0.00     0.014 A 
ATOM     37  C   UNL A   1      42.460  27.695  28.755  1.00  0.00     0.010 A 
ATOM     38  C   UNL A   1      40.170  26.982  29.107  1.00  0.00     0.010 A 
ATOM     39  C   UNL A   1      41.256  27.796  29.471  1.00  0.00    -0.014 A 
BRANCH  39  40
ATOM     40  C   UNL A   1      41.091  28.765  30.582  1.00  0.00     0.031 A 
ATOM     41  C   UNL A   1      41.920  28.634  31.828  1.00  0.00     0.074 A 
ATOM     42  C   UNL A   1      40.129  29.707  30.502  1.00  0.00     0.049 A 
ATOM     43  N   UNL A   1      41.840  29.305  32.948  1.00  0.00    -0.248 NA
ATOM     44  C   UNL A   1      42.962  27.593  31.824  1.00  0.00     0.031 C 
ATOM     45  C   UNL A   1      39.235  29.908  29.360  1.00  0.00     0.029 A 
ATOM     46  N   UNL A   1      39.728  30.659  31.406  1.00  0.00    -0.354 N 
ATOM     47  C   UNL A   1      42.807  28.762  33.785  1.00  0.00     0.074 A 
ATOM     48  C   UNL A   1      43.430  27.674  33.061  1.00  0.00     0.031 C 
ATOM     49  C   UNL A   1      38.399  30.923  29.628  1.00  0.00     0.029 A 
ATOM     50  C   UNL A   1      38.663  31.416  30.976  1.00  0.00     0.049 A 
ATOM     51  H   UNL A   1      40.162  30.787  32.281  1.00  0.00     0.167 HD
ATOM     52  C   UNL A   1      43.153  29.147  35.036  1.00  0.00     0.037 A 
ATOM     53  C   UNL A   1      37.965  32.382  31.603  1.00  0.00     0.037 A 
ATOM     54  C   UNL A   1      42.539  30.242  35.741  1.00  0.00     0.049 A 
ATOM     55  C   UNL A   1      38.351  32.774  33.003  1.00  0.00     0.074 A 
ATOM     56  C   UNL A   1      42.862  30.750  36.987  1.00  0.00     0.029 A 
ATOM     57  N   UNL A   1      41.472  30.992  35.268  1.00  0.00    -0.354 N 
ATOM     58  N   UNL A   1      39.312  32.294  33.757  1.00  0.00    -0.248 NA
ATOM     59  C   UNL A   1      37.560  33.835  33.641  1.00  0.00     0.031 C 
ATOM     60  C   UNL A   1      41.956  31.773  37.289  1.00  0.00     0.029 A 
ATOM     61  C   UNL A   1      41.103  31.938  36.210  1.00  0.00     0.049 A 
ATOM     62  H   UNL A   1      41.040  30.869  34.391  1.00  0.00     0.167 HD
ATOM     63  C   UNL A   1      39.254  33.009  34.948  1.00  0.00     0.074 A 
ATOM     64  C   UNL A   1      38.174  33.964  34.809  1.00  0.00     0.031 C 
ATOM     65  C   UNL A   1      40.026  32.885  36.056  1.00  0.00     0.037 A 
BRANCH  52  66
ATOM     66  C   UNL A   1      44.247  28.379  35.727  1.00  0.00     0.058 A 
ATOM     67  C   UNL A   1      43.985  27.194  36.433  1.00  0.00     0.135 A 
ATOM     68  C   UNL A   1      45.581  28.810  35.646  1.00  0.00     0.135 A 
ATOM     69  F   UNL A   1      42.726  26.743  36.554  1.00  0.00    -0.206 F 
ATOM     70  C   UNL A   1      45.000  26.479  37.059  1.00  0.00     0.059 A 
ATOM     71  C   UNL A   1      46.618  28.094  36.240  1.00  0.00     0.059 A 
ATOM     72  F   UNL A   1      45.891  29.935  34.985  1.00  0.00    -0.206 F 
ATOM     73  C   UNL A   1      46.315  26.937  36.957  1.00  0.00     0.060 A 
BRANCH  73  74
ATOM     74  S   UNL A   1      47.621  25.994  37.770  1.00  0.00     0.124 S 
ATOM     75  O   UNL A   1      46.947  25.556  38.989  1.00  0.00    -0.237 OA
ATOM     76  O   UNL A   1      47.906  24.948  36.793  1.00  0.00    -0.237 OA
ATOM     77  O   UNL A   1      48.683  26.977  37.961  1.00  0.00    -0.744 OA
ENDBRANCH  73  74
ENDBRANCH  52  66
BRANCH  53  78
ATOM     78  C   UNL A   1      36.829  33.046  30.909  1.00  0.00     0.058 A 
ATOM     79  C   UNL A   1      35.503  32.684  31.187  1.00  0.00     0.135 A 
ATOM     80  C   UNL A   1      37.044  34.065  29.967  1.00  0.00     0.135 A 
ATOM     81  F   UNL A   1      35.246  31.710  32.073  1.00  0.00    -0.206 F 
ATOM     82  C   UNL A   1      34.431  33.297  30.547  1.00  0.00     0.059 A 
ATOM     83  C   UNL A   1      35.987  34.711  29.334  1.00  0.00     0.059 A 
ATOM     84  F   UNL A   1      38.293  34.461  29.677  1.00  0.00    -0.206 F 
ATOM     85  C   UNL A   1      34.683  34.313  29.625  1.00  0.00     0.060 A 
BRANCH  85  86
ATOM     86  S   UNL A   1      33.281  35.137  28.840  1.00  0.00     0.124 S 
ATOM     87  O   UNL A   1      32.495  35.548  29.997  1.00  0.00    -0.237 OA
ATOM     88  O   UNL A   1      33.935  36.210  28.096  1.00  0.00    -0.237 OA
ATOM     89  O   UNL A   1      32.692  34.084  28.016  1.00  0.00    -0.744 OA
ENDBRANCH  85  86
ENDBRANCH  53  78
BRANCH  65  90
ATOM     90  C   UNL A   1      39.748  33.815  37.205  1.00  0.00     0.058 A 
ATOM     91  C   UNL A   1      38.833  33.483  38.216  1.00  0.00     0.135 A 
ATOM     92  C   UNL A   1      40.458  35.020  37.331  1.00  0.00     0.135 A 
ATOM     93  F   UNL A   1      38.122  32.348  38.137  1.00  0.00    -0.206 F 
ATOM     94  C   UNL A   1      38.622  34.320  39.307  1.00  0.00     0.059 A 
ATOM     95  C   UNL A   1      40.284  35.858  38.428  1.00  0.00     0.059 A 
ATOM     96  F   UNL A   1      41.351  35.381  36.396  1.00  0.00    -0.206 F 
ATOM     97  C   UNL A   1      39.358  35.502  39.408  1.00  0.00     0.060 A 
BRANCH  97  98
ATOM     98  S   UNL A   1      39.114  36.550  40.858  1.00  0.00     0.124 S 
ATOM     99  O   UNL A   1      40.487  36.761  41.304  1.00  0.00    -0.237 OA
ATOM    100  O   UNL A   1      38.445  37.716  40.291  1.00  0.00    -0.237 OA
ATOM    101  O   UNL A   1      38.289  35.727  41.737  1.00  0.00    -0.744 OA
ENDBRANCH  97  98
ENDBRANCH  65  90
ENDBRANCH  39  40
ENDBRANCH  31  34
ENDBRANCH  29  30
ENDBRANCH  28  29
ENDBRANCH  27  28
ENDBRANCH   1  27
TORSDOF 21
ENDMDL
MODEL 2
REMARK VINA RESULT:     -11.1      1.236      3.565
REMARK SMILES C[NH+](C)Cc1noc(C[C@@](C)(C(=O)NCCCCCCNC(=O)c2ccc(-c3c4nc(c(-c5c(F)cc(S(=O)(=O)[O-])cc5F)c5ccc([nH]5)c(-c5c(F)cc(S(=O)(=O)[O-])cc5F)c5nc(c(-c6c(F)cc(S(=O)(=O)[O-])cc6F)c6ccc3[nH]6)C=C5)C=C4)cc2)c2ccccc2)n1
REMARK SMILES IDX 17 1 16 2 15 3 14 4 12 5 13 6 10 8 11 9 9 10 8 11 5 12 6 13
REMARK SMILES IDX 96 14 7 15 4 16 2 17 1 18 3 19 90 21 91 22 95 23 92 24 94 25
REMARK SMILES IDX 93 26 18 27 19 28 20 29 21 30 22 31 23 33 24 34 25 35 89 36
REMARK SMILES IDX 26 37 88 38 27 39 28 40 29 41 82 42 30 43 87 44 81 45 83 46
REMARK SMILES IDX 31 47 86 48 80 49 79 50 32 52 66 53 45 54 65 55 46 56 49 57
REMARK SMILES IDX 64 58 84 59 47 60 48 61 63 63 85 64 50 65 33 66 34 67 43 68
REMARK SMILES IDX 35 69 36 70 42 71 44 72 37 73 38 74 39 75 40 76 41 77 67 78
REMARK SMILES IDX 68 79 77 80 69 81 70 82 76 83 78 84 71 85 72 86 73 87 74 88
REMARK SMILES IDX 75 89 51 90 52 91 61 92 53 93 54 94 60 95 62 96 55 97 56 98
REMARK SMILES IDX 57 99 58 100 59 101
REMARK H PARENT 14 7 2 20 21 32 83 51 49 62
REMARK Flexibility Score: inf
ROOT
ATOM      1  C   UNL A   1      38.674  22.363  26.156  1.00  0.00     0.002 C 
ENDROOT
BRANCH   1   2
ATOM      2  C   UNL A   1      37.720  21.512  25.310  1.00  0.00     0.021 C 
BRANCH   2   3
ATOM      3  C   UNL A   1      36.266  21.979  25.375  1.00  0.00     0.116 C 
BRANCH   3   4
ATOM      4  N   UNL A   1      35.881  22.613  24.128  1.00  0.00    -0.355 N 
ATOM      5  C   UNL A   1      34.682  22.899  23.552  1.00  0.00     0.230 C 
ATOM      6  O   UNL A   1      34.757  23.338  22.400  1.00  0.00    -0.274 OA
ATOM      7  H   UNL A   1      36.650  22.898  23.584  1.00  0.00     0.163 HD
BRANCH   5   8
ATOM      8  C   UNL A   1      33.318  22.710  24.284  1.00  0.00     0.080 C 
ATOM      9  C   UNL A   1      32.219  23.409  23.440  1.00  0.00     0.027 C 
BRANCH   8  10
ATOM     10  C   UNL A   1      33.416  23.363  25.690  1.00  0.00     0.122 C 
BRANCH  10  11
ATOM     11  C   UNL A   1      32.561  24.558  25.868  1.00  0.00     0.228 A 
ATOM     12  C   UNL A   1      31.614  26.421  25.838  1.00  0.00     0.226 A 
ATOM     13  N   UNL A   1      30.810  25.676  26.615  1.00  0.00    -0.056 NA
ATOM     14  N   UNL A   1      32.705  25.747  25.345  1.00  0.00    -0.190 NA
ATOM     15  O   UNL A   1      31.434  24.427  26.621  1.00  0.00    -0.339 OA
BRANCH  12  16
ATOM     16  C   UNL A   1      31.330  27.869  25.568  1.00  0.00     0.344 C 
BRANCH  16  17
ATOM     17  N   UNL A   1      31.975  28.852  26.470  1.00  0.00    -0.333 N 
ATOM     18  C   UNL A   1      33.010  28.259  27.314  1.00  0.00     0.332 C 
ATOM     19  C   UNL A   1      32.472  30.023  25.752  1.00  0.00     0.332 C 
ATOM     20  H   UNL A   1      31.238  29.173  27.098  1.00  0.00     0.348 HD
ENDBRANCH  16  17
ENDBRANCH  12  16
ENDBRANCH  10  11
ENDBRANCH   8  10
BRANCH   8  21
ATOM     21  C   UNL A   1      33.022  21.177  24.380  1.00  0.00    -0.032 A 
ATOM     22  C   UNL A   1      33.178  20.474  25.592  1.00  0.00     0.005 A 
ATOM     23  C   UNL A   1      32.640  20.424  23.253  1.00  0.00     0.005 A 
ATOM     24  C   UNL A   1      32.907  19.105  25.684  1.00  0.00     0.000 A 
ATOM     25  C   UNL A   1      32.373  19.055  23.344  1.00  0.00     0.000 A 
ATOM     26  C   UNL A   1      32.497  18.397  24.561  1.00  0.00     0.000 A 
ENDBRANCH   8  21
ENDBRANCH   5   8
ENDBRANCH   3   4
ENDBRANCH   2   3
ENDBRANCH   1   2
BRANCH   1  27
ATOM     27  C   UNL A   1      40.040  21.719  26.424  1.00  0.00     0.002 C 
BRANCH  27  28
ATOM     28  C   UNL A   1      40.759  22.234  27.674  1.00  0.00     0.021 C 
BRANCH  28  29
ATOM     29  C   UNL A   1      42.028  23.026  27.383  1.00  0.00     0.116 C 
BRANCH  29  30
ATOM     30  N   UNL A   1      41.881  23.864  26.202  1.00  0.00    -0.352 N 
ATOM     31  C   UNL A   1      41.515  25.185  26.122  1.00  0.00     0.251 C 
ATOM     32  H   UNL A   1      42.070  23.422  25.342  1.00  0.00     0.163 HD
ATOM     33  O   UNL A   1      41.219  25.681  25.039  1.00  0.00    -0.269 OA
BRANCH  31  34
ATOM     34  C   UNL A   1      41.464  25.995  27.355  1.00  0.00     0.039 A 
ATOM     35  C   UNL A   1      42.542  26.825  27.671  1.00  0.00     0.014 A 
ATOM     36  C   UNL A   1      40.336  25.954  28.180  1.00  0.00     0.014 A 
ATOM     37  C   UNL A   1      42.456  27.671  28.778  1.00  0.00     0.010 A 
ATOM     38  C   UNL A   1      40.225  26.844  29.242  1.00  0.00     0.010 A 
ATOM     39  C   UNL A   1      41.281  27.719  29.546  1.00  0.00    -0.014 A 
BRANCH  39  40
ATOM     40  C   UNL A   1      41.114  28.696  30.650  1.00  0.00     0.031 A 
ATOM     41  C   UNL A   1      41.949  28.579  31.894  1.00  0.00     0.074 A 
ATOM     42  C   UNL A   1      40.145  29.631  30.568  1.00  0.00     0.049 A 
ATOM     43  N   UNL A   1      41.869  29.258  33.009  1.00  0.00    -0.248 NA
ATOM     44  C   UNL A   1      42.998  27.545  31.894  1.00  0.00     0.031 C 
ATOM     45  C   UNL A   1      39.245  29.817  29.428  1.00  0.00     0.029 A 
ATOM     46  N   UNL A   1      39.742  30.586  31.466  1.00  0.00    -0.354 N 
ATOM     47  C   UNL A   1      42.842  28.727  33.846  1.00  0.00     0.074 A 
ATOM     48  C   UNL A   1      43.470  27.639  33.128  1.00  0.00     0.031 C 
ATOM     49  C   UNL A   1      38.404  30.829  29.691  1.00  0.00     0.029 A 
ATOM     50  C   UNL A   1      38.670  31.333  31.034  1.00  0.00     0.049 A 
ATOM     51  H   UNL A   1      40.178  30.724  32.338  1.00  0.00     0.167 HD
ATOM     52  C   UNL A   1      43.192  29.124  35.094  1.00  0.00     0.037 A 
ATOM     53  C   UNL A   1      37.968  32.299  31.657  1.00  0.00     0.037 A 
ATOM     54  C   UNL A   1      42.573  30.220  35.793  1.00  0.00     0.049 A 
ATOM     55  C   UNL A   1      38.357  32.704  33.053  1.00  0.00     0.074 A 
ATOM     56  C   UNL A   1      42.897  30.740  37.033  1.00  0.00     0.029 A 
ATOM     57  N   UNL A   1      41.499  30.960  35.318  1.00  0.00    -0.354 N 
ATOM     58  N   UNL A   1      39.324  32.236  33.806  1.00  0.00    -0.248 NA
ATOM     59  C   UNL A   1      37.562  33.764  33.686  1.00  0.00     0.031 C 
ATOM     60  C   UNL A   1      41.986  31.759  37.332  1.00  0.00     0.029 A 
ATOM     61  C   UNL A   1      41.127  31.910  36.255  1.00  0.00     0.049 A 
ATOM     62  H   UNL A   1      41.064  30.827  34.444  1.00  0.00     0.167 HD
ATOM     63  C   UNL A   1      39.266  32.959  34.993  1.00  0.00     0.074 A 
ATOM     64  C   UNL A   1      38.179  33.906  34.851  1.00  0.00     0.031 C 
ATOM     65  C   UNL A   1      40.043  32.848  36.099  1.00  0.00     0.037 A 
BRANCH  52  66
ATOM     66  C   UNL A   1      44.293  28.369  35.785  1.00  0.00     0.058 A 
ATOM     67  C   UNL A   1      45.645  28.705  35.607  1.00  0.00     0.135 A 
ATOM     68  C   UNL A   1      43.993  27.321  36.671  1.00  0.00     0.135 A 
ATOM     69  F   UNL A   1      45.990  29.689  34.761  1.00  0.00    -0.206 F 
ATOM     70  C   UNL A   1      46.660  28.014  36.258  1.00  0.00     0.059 A 
ATOM     71  C   UNL A   1      44.992  26.634  37.356  1.00  0.00     0.059 A 
ATOM     72  F   UNL A   1      42.719  26.956  36.880  1.00  0.00    -0.206 F 
ATOM     73  C   UNL A   1      46.324  26.978  37.131  1.00  0.00     0.060 A 
BRANCH  73  74
ATOM     74  S   UNL A   1      47.654  26.095  37.972  1.00  0.00     0.124 S 
ATOM     75  O   UNL A   1      48.252  25.351  36.868  1.00  0.00    -0.237 OA
ATOM     76  O   UNL A   1      48.460  27.185  38.512  1.00  0.00    -0.237 OA
ATOM     77  O   UNL A   1      46.952  25.286  38.965  1.00  0.00    -0.744 OA
ENDBRANCH  73  74
ENDBRANCH  52  66
BRANCH  53  78
ATOM     78  C   UNL A   1      36.825  32.950  30.964  1.00  0.00     0.058 A 
ATOM     79  C   UNL A   1      35.501  32.605  31.273  1.00  0.00     0.135 A 
ATOM     80  C   UNL A   1      37.031  33.940  29.989  1.00  0.00     0.135 A 
ATOM     81  F   UNL A   1      35.253  31.659  32.191  1.00  0.00    -0.206 F 
ATOM     82  C   UNL A   1      34.422  33.207  30.633  1.00  0.00     0.059 A 
ATOM     83  C   UNL A   1      35.967  34.575  29.355  1.00  0.00     0.059 A 
ATOM     84  F   UNL A   1      38.278  34.319  29.667  1.00  0.00    -0.206 F 
ATOM     85  C   UNL A   1      34.666  34.194  29.678  1.00  0.00     0.060 A 
BRANCH  85  86
ATOM     86  S   UNL A   1      33.256  35.005  28.892  1.00  0.00     0.124 S 
ATOM     87  O   UNL A   1      32.798  33.971  27.971  1.00  0.00    -0.237 OA
ATOM     88  O   UNL A   1      32.387  35.278  30.032  1.00  0.00    -0.237 OA
ATOM     89  O   UNL A   1      33.853  36.185  28.272  1.00  0.00    -0.744 OA
ENDBRANCH  85  86
ENDBRANCH  53  78
BRANCH  65  90
ATOM     90  C   UNL A   1      39.764  33.786  37.241  1.00  0.00     0.058 A 
ATOM     91  C   UNL A   1      38.901  33.430  38.289  1.00  0.00     0.135 A 
ATOM     92  C   UNL A   1      40.422  35.023  37.323  1.00  0.00     0.135 A 
ATOM     93  F   UNL A   1      38.239  32.263  38.254  1.00  0.00    -0.206 F 
ATOM     94  C   UNL A   1      38.690  34.276  39.374  1.00  0.00     0.059 A 
ATOM     95  C   UNL A   1      40.249  35.871  38.412  1.00  0.00     0.059 A 
ATOM     96  F   UNL A   1      41.265  35.407  36.351  1.00  0.00    -0.206 F 
ATOM     97  C   UNL A   1      39.375  35.492  39.430  1.00  0.00     0.060 A 
BRANCH  97  98
ATOM     98  S   UNL A   1      39.135  36.552  40.871  1.00  0.00     0.124 S 
ATOM     99  O   UNL A   1      38.549  37.744  40.266  1.00  0.00    -0.237 OA
ATOM    100  O   UNL A   1      38.236  35.755  41.698  1.00  0.00    -0.237 OA
ATOM    101  O   UNL A   1      40.485  36.717  41.401  1.00  0.00    -0.744 OA
ENDBRANCH  97  98
ENDBRANCH  65  90
ENDBRANCH  39  40
ENDBRANCH  31  34
ENDBRANCH  29  30
ENDBRANCH  28  29
ENDBRANCH  27  28
ENDBRANCH   1  27
TORSDOF 21
ENDMDL
MODEL 3
REMARK VINA RESULT:     -10.9      6.890     12.023
REMARK SMILES C[NH+](C)Cc1noc(C[C@@](C)(C(=O)NCCCCCCNC(=O)c2ccc(-c3c4nc(c(-c5c(F)cc(S(=O)(=O)[O-])cc5F)c5ccc([nH]5)c(-c5c(F)cc(S(=O)(=O)[O-])cc5F)c5nc(c(-c6c(F)cc(S(=O)(=O)[O-])cc6F)c6ccc3[nH]6)C=C5)C=C4)cc2)c2ccccc2)n1
REMARK SMILES IDX 17 1 16 2 15 3 14 4 12 5 13 6 10 8 11 9 9 10 8 11 5 12 6 13
REMARK SMILES IDX 96 14 7 15 4 16 2 17 1 18 3 19 90 21 91 22 95 23 92 24 94 25
REMARK SMILES IDX 93 26 18 27 19 28 20 29 21 30 22 31 23 33 24 34 25 35 89 36
REMARK SMILES IDX 26 37 88 38 27 39 28 40 29 41 82 42 30 43 87 44 81 45 83 46
REMARK SMILES IDX 31 47 86 48 80 49 79 50 32 52 66 53 45 54 65 55 46 56 49 57
REMARK SMILES IDX 64 58 84 59 47 60 48 61 63 63 85 64 50 65 33 66 34 67 43 68
REMARK SMILES IDX 35 69 36 70 42 71 44 72 37 73 38 74 39 75 40 76 41 77 67 78
REMARK SMILES IDX 68 79 77 80 69 81 70 82 76 83 78 84 71 85 72 86 73 87 74 88
REMARK SMILES IDX 75 89 51 90 52 91 61 92 53 93 54 94 60 95 62 96 55 97 56 98
REMARK SMILES IDX 57 99 58 100 59 101
REMARK H PARENT 14 7 2 20 21 32 83 51 49 62
REMARK Flexibility Score: inf
ROOT
ATOM      1  C   UNL A   1      32.953  31.264  27.455  1.00  0.00     0.002 C 
ENDROOT
BRANCH   1   2
ATOM      2  C   UNL A   1      32.161  30.102  26.843  1.00  0.00     0.021 C 
BRANCH   2   3
ATOM      3  C   UNL A   1      32.915  28.772  26.865  1.00  0.00     0.116 C 
BRANCH   3   4
ATOM      4  N   UNL A   1      31.983  27.661  26.898  1.00  0.00    -0.355 N 
ATOM      5  C   UNL A   1      31.543  26.778  25.961  1.00  0.00     0.230 C 
ATOM      6  O   UNL A   1      30.630  26.037  26.342  1.00  0.00    -0.274 OA
ATOM      7  H   UNL A   1      31.585  27.514  27.786  1.00  0.00     0.163 HD
BRANCH   5   8
ATOM      8  C   UNL A   1      32.145  26.687  24.526  1.00  0.00     0.080 C 
ATOM      9  C   UNL A   1      32.956  27.983  24.261  1.00  0.00     0.027 C 
BRANCH   8  10
ATOM     10  C   UNL A   1      30.979  26.562  23.507  1.00  0.00     0.122 C 
BRANCH  10  11
ATOM     11  C   UNL A   1      30.397  27.856  23.086  1.00  0.00     0.228 A 
ATOM     12  C   UNL A   1      29.504  29.738  22.904  1.00  0.00     0.226 A 
ATOM     13  N   UNL A   1      29.914  29.465  21.654  1.00  0.00    -0.056 NA
ATOM     14  N   UNL A   1      29.804  28.761  23.822  1.00  0.00    -0.190 NA
ATOM     15  O   UNL A   1      30.525  28.217  21.779  1.00  0.00    -0.339 OA
BRANCH  12  16
ATOM     16  C   UNL A   1      28.764  31.000  23.235  1.00  0.00     0.344 C 
BRANCH  16  17
ATOM     17  N   UNL A   1      29.029  32.173  22.369  1.00  0.00    -0.333 N 
ATOM     18  C   UNL A   1      28.062  32.310  21.282  1.00  0.00     0.332 C 
ATOM     19  C   UNL A   1      29.158  33.411  23.132  1.00  0.00     0.332 C 
ATOM     20  H   UNL A   1      29.932  31.992  21.931  1.00  0.00     0.348 HD
ENDBRANCH  16  17
ENDBRANCH  12  16
ENDBRANCH  10  11
ENDBRANCH   8  10
BRANCH   8  21
ATOM     21  C   UNL A   1      33.093  25.444  24.470  1.00  0.00    -0.032 A 
ATOM     22  C   UNL A   1      33.561  24.932  23.243  1.00  0.00     0.005 A 
ATOM     23  C   UNL A   1      33.475  24.751  25.635  1.00  0.00     0.005 A 
ATOM     24  C   UNL A   1      34.415  23.825  23.189  1.00  0.00     0.000 A 
ATOM     25  C   UNL A   1      34.326  23.643  25.582  1.00  0.00     0.000 A 
ATOM     26  C   UNL A   1      34.803  23.186  24.360  1.00  0.00     0.000 A 
ENDBRANCH   8  21
ENDBRANCH   5   8
ENDBRANCH   3   4
ENDBRANCH   2   3
ENDBRANCH   1   2
BRANCH   1  27
ATOM     27  C   UNL A   1      34.408  30.931  27.807  1.00  0.00     0.002 C 
BRANCH  27  28
ATOM     28  C   UNL A   1      35.378  32.112  27.713  1.00  0.00     0.021 C 
BRANCH  28  29
ATOM     29  C   UNL A   1      36.243  32.311  28.952  1.00  0.00     0.116 C 
BRANCH  29  30
ATOM     30  N   UNL A   1      35.980  31.296  29.961  1.00  0.00    -0.352 N 
ATOM     31  C   UNL A   1      36.733  30.197  30.295  1.00  0.00     0.251 C 
ATOM     32  H   UNL A   1      35.147  31.413  30.474  1.00  0.00     0.163 HD
ATOM     33  O   UNL A   1      36.261  29.318  31.010  1.00  0.00    -0.269 OA
BRANCH  31  34
ATOM     34  C   UNL A   1      38.107  30.078  29.769  1.00  0.00     0.039 A 
ATOM     35  C   UNL A   1      39.185  30.179  30.652  1.00  0.00     0.014 A 
ATOM     36  C   UNL A   1      38.324  29.836  28.410  1.00  0.00     0.014 A 
ATOM     37  C   UNL A   1      40.481  29.963  30.180  1.00  0.00     0.010 A 
ATOM     38  C   UNL A   1      39.608  29.556  27.956  1.00  0.00     0.010 A 
ATOM     39  C   UNL A   1      40.699  29.607  28.839  1.00  0.00    -0.014 A 
BRANCH  39  40
ATOM     40  C   UNL A   1      42.049  29.250  28.339  1.00  0.00     0.031 A 
ATOM     41  C   UNL A   1      42.361  27.832  27.952  1.00  0.00     0.074 A 
ATOM     42  C   UNL A   1      43.019  30.188  28.321  1.00  0.00     0.049 A 
ATOM     43  N   UNL A   1      43.506  27.302  27.608  1.00  0.00    -0.248 NA
ATOM     44  C   UNL A   1      41.241  26.876  27.980  1.00  0.00     0.031 C 
ATOM     45  C   UNL A   1      42.847  31.589  28.710  1.00  0.00     0.029 A 
ATOM     46  N   UNL A   1      44.345  30.100  27.982  1.00  0.00    -0.354 N 
ATOM     47  C   UNL A   1      43.251  25.954  27.392  1.00  0.00     0.074 A 
ATOM     48  C   UNL A   1      41.851  25.736  27.689  1.00  0.00     0.031 C 
ATOM     49  C   UNL A   1      44.019  32.230  28.579  1.00  0.00     0.029 A 
ATOM     50  C   UNL A   1      45.036  31.279  28.142  1.00  0.00     0.049 A 
ATOM     51  H   UNL A   1      44.764  29.271  27.654  1.00  0.00     0.167 HD
ATOM     52  C   UNL A   1      44.103  24.990  26.969  1.00  0.00     0.037 A 
ATOM     53  C   UNL A   1      46.343  31.558  27.977  1.00  0.00     0.037 A 
ATOM     54  C   UNL A   1      45.490  25.221  26.659  1.00  0.00     0.049 A 
ATOM     55  C   UNL A   1      47.276  30.465  27.532  1.00  0.00     0.074 A 
ATOM     56  C   UNL A   1      46.420  24.324  26.163  1.00  0.00     0.029 A 
ATOM     57  N   UNL A   1      46.150  26.430  26.823  1.00  0.00    -0.354 N 
ATOM     58  N   UNL A   1      47.004  29.208  27.268  1.00  0.00    -0.248 NA
ATOM     59  C   UNL A   1      48.691  30.822  27.363  1.00  0.00     0.031 C 
ATOM     60  C   UNL A   1      47.654  24.977  26.076  1.00  0.00     0.029 A 
ATOM     61  C   UNL A   1      47.482  26.296  26.467  1.00  0.00     0.049 A 
ATOM     62  H   UNL A   1      45.732  27.262  27.145  1.00  0.00     0.167 HD
ATOM     63  C   UNL A   1      48.210  28.631  26.883  1.00  0.00     0.074 A 
ATOM     64  C   UNL A   1      49.208  29.679  26.933  1.00  0.00     0.031 C 
ATOM     65  C   UNL A   1      48.465  27.349  26.521  1.00  0.00     0.037 A 
BRANCH  52  66
ATOM     66  C   UNL A   1      43.561  23.595  26.815  1.00  0.00     0.058 A 
ATOM     67  C   UNL A   1      43.249  22.798  27.928  1.00  0.00     0.135 A 
ATOM     68  C   UNL A   1      43.310  23.063  25.540  1.00  0.00     0.135 A 
ATOM     69  F   UNL A   1      43.481  23.251  29.171  1.00  0.00    -0.206 F 
ATOM     70  C   UNL A   1      42.735  21.514  27.784  1.00  0.00     0.059 A 
ATOM     71  C   UNL A   1      42.768  21.791  25.372  1.00  0.00     0.059 A 
ATOM     72  F   UNL A   1      43.589  23.780  24.441  1.00  0.00    -0.206 F 
ATOM     73  C   UNL A   1      42.498  21.019  26.500  1.00  0.00     0.060 A 
BRANCH  73  74
ATOM     74  S   UNL A   1      41.825  19.353  26.331  1.00  0.00     0.124 S 
ATOM     75  O   UNL A   1      42.461  18.907  25.095  1.00  0.00    -0.237 OA
ATOM     76  O   UNL A   1      42.288  18.703  27.553  1.00  0.00    -0.237 OA
ATOM     77  O   UNL A   1      40.384  19.573  26.249  1.00  0.00    -0.744 OA
ENDBRANCH  73  74
ENDBRANCH  52  66
BRANCH  53  78
ATOM     78  C   UNL A   1      46.847  32.934  28.233  1.00  0.00     0.058 A 
ATOM     79  C   UNL A   1      46.834  33.908  27.224  1.00  0.00     0.135 A 
ATOM     80  C   UNL A   1      47.337  33.308  29.495  1.00  0.00     0.135 A 
ATOM     81  F   UNL A   1      46.384  33.596  25.999  1.00  0.00    -0.206 F 
ATOM     82  C   UNL A   1      47.301  35.198  27.450  1.00  0.00     0.059 A 
ATOM     83  C   UNL A   1      47.784  34.600  29.753  1.00  0.00     0.059 A 
ATOM     84  F   UNL A   1      47.355  32.419  30.500  1.00  0.00    -0.206 F 
ATOM     85  C   UNL A   1      47.770  35.536  28.720  1.00  0.00     0.060 A 
BRANCH  85  86
ATOM     86  S   UNL A   1      48.325  37.229  29.016  1.00  0.00     0.124 S 
ATOM     87  O   UNL A   1      49.615  37.240  28.336  1.00  0.00    -0.237 OA
ATOM     88  O   UNL A   1      47.264  38.012  28.389  1.00  0.00    -0.237 OA
ATOM     89  O   UNL A   1      48.377  37.314  30.473  1.00  0.00    -0.744 OA
ENDBRANCH  85  86
ENDBRANCH  53  78
BRANCH  65  90
ATOM     90  C   UNL A   1      49.875  27.006  26.129  1.00  0.00     0.058 A 
ATOM     91  C   UNL A   1      50.769  26.420  27.039  1.00  0.00     0.135 A 
ATOM     92  C   UNL A   1      50.315  27.200  24.810  1.00  0.00     0.135 A 
ATOM     93  F   UNL A   1      50.403  26.222  28.315  1.00  0.00    -0.206 F 
ATOM     94  C   UNL A   1      52.055  26.049  26.657  1.00  0.00     0.059 A 
ATOM     95  C   UNL A   1      51.585  26.811  24.399  1.00  0.00     0.059 A 
ATOM     96  F   UNL A   1      49.496  27.749  23.898  1.00  0.00    -0.206 F 
ATOM     97  C   UNL A   1      52.451  26.242  25.332  1.00  0.00     0.060 A 
BRANCH  97  98
ATOM     98  S   UNL A   1      54.103  25.705  24.838  1.00  0.00     0.124 S 
ATOM     99  O   UNL A   1      54.137  26.109  23.437  1.00  0.00    -0.237 OA
ATOM    100  O   UNL A   1      54.961  26.467  25.739  1.00  0.00    -0.237 OA
ATOM    101  O   UNL A   1      54.077  24.265  25.075  1.00  0.00    -0.744 OA
ENDBRANCH  97  98
ENDBRANCH  65  90
ENDBRANCH  39  40
ENDBRANCH  31  34
ENDBRANCH  29  30
ENDBRANCH  28  29
ENDBRANCH  27  28
ENDBRANCH   1  27
TORSDOF 21
ENDMDL
