MODEL 1
REMARK VINA RESULT:     -10.7      0.000      0.000
REMARK SMILES Cc1c(-c2nn(-c3ccccc3)cc2/C=N/O)nnn1-c1ccc(C(=O)NCCCCCCNC(=O)c2ccc(-c3c4nc(c(-c5c(F)cc(S(=O)(=O)[O-])cc5F)c5ccc([nH]5)c(-c5c(F)cc(S(=O)(=O)[O-])cc5F)c5nc(c(-c6c(F)cc(S(=O)(=O)[O-])cc6F)c6ccc3[nH]6)C=C5)C=C4)cc2)cc1
REMARK SMILES IDX 30 1 29 2 28 3 27 4 25 5 26 6 24 8 21 9 22 10 104 11 23 12
REMARK SMILES IDX 103 13 20 14 1 15 2 16 3 17 18 18 19 19 4 20 5 21 14 22 6 23
REMARK SMILES IDX 13 24 15 25 16 26 17 27 7 29 8 30 12 31 9 32 11 33 10 34
REMARK SMILES IDX 31 35 32 36 33 37 34 38 35 39 36 41 37 42 38 43 102 44 39 45
REMARK SMILES IDX 101 46 40 47 41 48 42 49 95 50 43 51 100 52 94 53 96 54
REMARK SMILES IDX 44 55 99 56 93 57 92 58 45 60 79 61 58 62 78 63 59 64 62 65
REMARK SMILES IDX 77 66 97 67 60 68 61 69 76 71 98 72 63 73 46 74 47 75 56 76
REMARK SMILES IDX 48 77 49 78 55 79 57 80 50 81 51 82 52 83 53 84 54 85 80 86
REMARK SMILES IDX 81 87 90 88 82 89 83 90 89 91 91 92 84 93 85 94 86 95 87 96
REMARK SMILES IDX 88 97 64 98 65 99 74 100 66 101 67 102 73 103 75 104 68 105
REMARK SMILES IDX 69 106 70 107 71 108 72 109
REMARK H PARENT 27 7 17 28 34 40 96 59 62 70
REMARK Flexibility Score: inf
ROOT
ATOM      1  C   UNL A   1      45.415  23.336  28.103  1.00  0.00     0.002 C 
ENDROOT
BRANCH   1   2
ATOM      2  C   UNL A   1      44.801  23.822  29.424  1.00  0.00     0.021 C 
BRANCH   2   3
ATOM      3  C   UNL A   1      44.846  25.343  29.580  1.00  0.00     0.116 C 
BRANCH   3   4
ATOM      4  N   UNL A   1      45.988  25.727  30.385  1.00  0.00    -0.352 N 
ATOM      5  C   UNL A   1      47.278  26.081  30.092  1.00  0.00     0.251 C 
ATOM      6  O   UNL A   1      48.009  26.347  31.048  1.00  0.00    -0.269 OA
ATOM      7  H   UNL A   1      45.795  25.736  31.350  1.00  0.00     0.163 HD
BRANCH   5   8
ATOM      8  C   UNL A   1      47.806  26.249  28.706  1.00  0.00     0.039 A 
ATOM      9  C   UNL A   1      48.520  26.749  26.039  1.00  0.00     0.067 A 
ATOM     10  C   UNL A   1      48.193  27.817  26.873  1.00  0.00     0.029 A 
ATOM     11  C   UNL A   1      48.586  25.449  26.546  1.00  0.00     0.029 A 
ATOM     12  C   UNL A   1      47.800  27.557  28.188  1.00  0.00     0.016 A 
ATOM     13  C   UNL A   1      48.296  25.221  27.895  1.00  0.00     0.016 A 
BRANCH   9  14
ATOM     14  N   UNL A   1      48.815  26.991  24.683  1.00  0.00    -0.217 N 
ATOM     15  C   UNL A   1      51.324  27.374  24.816  1.00  0.00     0.069 C 
ATOM     16  C   UNL A   1      50.014  27.386  24.123  1.00  0.00     0.071 A 
ATOM     17  C   UNL A   1      49.670  27.635  22.810  1.00  0.00     0.137 A 
ATOM     18  N   UNL A   1      48.378  27.262  22.580  1.00  0.00    -0.128 NA
ATOM     19  N   UNL A   1      47.890  26.783  23.717  1.00  0.00    -0.061 NA
BRANCH  17  20
ATOM     20  C   UNL A   1      50.533  28.056  21.717  1.00  0.00     0.124 A 
ATOM     21  N   UNL A   1      51.163  29.234  21.747  1.00  0.00    -0.165 NA
ATOM     22  C   UNL A   1      50.789  27.334  20.529  1.00  0.00     0.044 A 
ATOM     23  N   UNL A   1      51.748  29.335  20.537  1.00  0.00    -0.240 N 
ATOM     24  C   UNL A   1      51.541  28.213  19.769  1.00  0.00     0.125 A 
BRANCH  22  25
ATOM     25  C   UNL A   1      50.404  26.007  20.116  1.00  0.00     0.166 C 
ATOM     26  N   UNL A   1      49.161  25.731  19.900  1.00  0.00    -0.097 NA
BRANCH  26  27
ATOM     27  O   UNL A   1      49.051  24.379  19.548  1.00  0.00    -0.411 OA
ATOM     28  H   UNL A   1      49.617  24.017  18.896  1.00  0.00     0.330 HD
ENDBRANCH  26  27
ENDBRANCH  22  25
BRANCH  23  29
ATOM     29  C   UNL A   1      52.435  30.518  20.182  1.00  0.00     0.065 A 
ATOM     30  C   UNL A   1      52.238  31.673  20.951  1.00  0.00     0.028 A 
ATOM     31  C   UNL A   1      53.263  30.552  19.054  1.00  0.00     0.028 A 
ATOM     32  C   UNL A   1      52.883  32.858  20.602  1.00  0.00     0.002 A 
ATOM     33  C   UNL A   1      53.862  31.757  18.683  1.00  0.00     0.002 A 
ATOM     34  C   UNL A   1      53.681  32.904  19.459  1.00  0.00     0.000 A 
ENDBRANCH  23  29
ENDBRANCH  17  20
ENDBRANCH   9  14
ENDBRANCH   5   8
ENDBRANCH   3   4
ENDBRANCH   2   3
ENDBRANCH   1   2
BRANCH   1  35
ATOM     35  C   UNL A   1      44.588  23.637  26.840  1.00  0.00     0.002 C 
BRANCH  35  36
ATOM     36  C   UNL A   1      43.825  22.450  26.232  1.00  0.00     0.021 C 
BRANCH  36  37
ATOM     37  C   UNL A   1      42.778  22.878  25.221  1.00  0.00     0.116 C 
BRANCH  37  38
ATOM     38  N   UNL A   1      41.442  22.382  25.568  1.00  0.00    -0.352 N 
ATOM     39  C   UNL A   1      40.582  22.829  26.560  1.00  0.00     0.251 C 
ATOM     40  H   UNL A   1      41.112  21.630  25.024  1.00  0.00     0.163 HD
ATOM     41  O   UNL A   1      39.682  22.127  26.979  1.00  0.00    -0.269 OA
BRANCH  39  42
ATOM     42  C   UNL A   1      40.785  24.197  27.070  1.00  0.00     0.039 A 
ATOM     43  C   UNL A   1      40.227  25.327  26.465  1.00  0.00     0.014 A 
ATOM     44  C   UNL A   1      41.538  24.307  28.230  1.00  0.00     0.014 A 
ATOM     45  C   UNL A   1      40.401  26.564  27.086  1.00  0.00     0.010 A 
ATOM     46  C   UNL A   1      41.473  25.451  28.961  1.00  0.00     0.010 A 
ATOM     47  C   UNL A   1      41.028  26.607  28.338  1.00  0.00    -0.014 A 
BRANCH  47  48
ATOM     48  C   UNL A   1      41.241  27.836  29.085  1.00  0.00     0.031 A 
ATOM     49  C   UNL A   1      42.331  28.700  28.560  1.00  0.00     0.074 A 
ATOM     50  C   UNL A   1      40.309  28.265  29.968  1.00  0.00     0.049 A 
ATOM     51  N   UNL A   1      43.447  29.012  29.129  1.00  0.00    -0.248 NA
ATOM     52  C   UNL A   1      42.240  29.147  27.159  1.00  0.00     0.031 C 
ATOM     53  C   UNL A   1      39.004  27.661  30.294  1.00  0.00     0.029 A 
ATOM     54  N   UNL A   1      40.275  29.417  30.684  1.00  0.00    -0.354 N 
ATOM     55  C   UNL A   1      44.095  29.882  28.253  1.00  0.00     0.074 A 
ATOM     56  C   UNL A   1      43.416  29.753  26.992  1.00  0.00     0.031 C 
ATOM     57  C   UNL A   1      38.229  28.559  30.941  1.00  0.00     0.029 A 
ATOM     58  C   UNL A   1      39.037  29.722  31.244  1.00  0.00     0.049 A 
ATOM     59  H   UNL A   1      41.066  29.992  30.797  1.00  0.00     0.167 HD
ATOM     60  C   UNL A   1      44.985  30.812  28.703  1.00  0.00     0.037 A 
ATOM     61  C   UNL A   1      38.708  30.870  31.888  1.00  0.00     0.037 A 
ATOM     62  C   UNL A   1      45.364  30.535  30.066  1.00  0.00     0.049 A 
ATOM     63  C   UNL A   1      39.991  31.515  32.280  1.00  0.00     0.074 A 
ATOM     64  C   UNL A   1      46.021  29.496  30.696  1.00  0.00     0.029 A 
ATOM     65  N   UNL A   1      44.695  31.215  31.056  1.00  0.00    -0.354 N 
ATOM     66  N   UNL A   1      40.837  30.986  33.126  1.00  0.00    -0.248 NA
ATOM     67  C   UNL A   1      40.563  32.481  31.355  1.00  0.00     0.031 C 
ATOM     68  C   UNL A   1      45.331  29.322  31.932  1.00  0.00     0.029 A 
ATOM     69  C   UNL A   1      44.348  30.310  32.028  1.00  0.00     0.049 A 
ATOM     70  H   UNL A   1      44.501  32.180  31.066  1.00  0.00     0.167 HD
ATOM     71  C   UNL A   1      42.094  31.232  32.586  1.00  0.00     0.074 A 
ATOM     72  C   UNL A   1      41.860  32.217  31.529  1.00  0.00     0.031 C 
ATOM     73  C   UNL A   1      43.153  30.408  32.845  1.00  0.00     0.037 A 
BRANCH  60  74
ATOM     74  C   UNL A   1      45.253  32.153  28.055  1.00  0.00     0.058 A 
ATOM     75  C   UNL A   1      46.547  32.438  27.572  1.00  0.00     0.135 A 
ATOM     76  C   UNL A   1      44.376  33.260  28.121  1.00  0.00     0.135 A 
ATOM     77  F   UNL A   1      47.468  31.466  27.460  1.00  0.00    -0.206 F 
ATOM     78  C   UNL A   1      46.964  33.734  27.258  1.00  0.00     0.059 A 
ATOM     79  C   UNL A   1      44.755  34.550  27.760  1.00  0.00     0.059 A 
ATOM     80  F   UNL A   1      43.143  33.171  28.629  1.00  0.00    -0.206 F 
ATOM     81  C   UNL A   1      46.062  34.786  27.371  1.00  0.00     0.060 A 
BRANCH  81  82
ATOM     82  S   UNL A   1      46.622  36.471  27.073  1.00  0.00     0.124 S 
ATOM     83  O   UNL A   1      45.364  37.148  26.775  1.00  0.00    -0.237 OA
ATOM     84  O   UNL A   1      47.248  36.812  28.346  1.00  0.00    -0.237 OA
ATOM     85  O   UNL A   1      47.541  36.325  25.948  1.00  0.00    -0.744 OA
ENDBRANCH  81  82
ENDBRANCH  60  74
BRANCH  61  86
ATOM     86  C   UNL A   1      37.413  31.599  31.838  1.00  0.00     0.058 A 
ATOM     87  C   UNL A   1      36.662  31.863  32.996  1.00  0.00     0.135 A 
ATOM     88  C   UNL A   1      37.016  32.288  30.672  1.00  0.00     0.135 A 
ATOM     89  F   UNL A   1      36.989  31.274  34.157  1.00  0.00    -0.206 F 
ATOM     90  C   UNL A   1      35.600  32.777  33.007  1.00  0.00     0.059 A 
ATOM     91  C   UNL A   1      35.961  33.200  30.657  1.00  0.00     0.059 A 
ATOM     92  F   UNL A   1      37.708  32.159  29.529  1.00  0.00    -0.206 F 
ATOM     93  C   UNL A   1      35.266  33.455  31.834  1.00  0.00     0.060 A 
BRANCH  93  94
ATOM     94  S   UNL A   1      33.994  34.743  31.875  1.00  0.00     0.124 S 
ATOM     95  O   UNL A   1      33.499  34.721  30.503  1.00  0.00    -0.237 OA
ATOM     96  O   UNL A   1      33.079  34.240  32.893  1.00  0.00    -0.237 OA
ATOM     97  O   UNL A   1      34.741  35.942  32.250  1.00  0.00    -0.744 OA
ENDBRANCH  93  94
ENDBRANCH  61  86
BRANCH  73  98
ATOM     98  C   UNL A   1      43.003  29.368  33.934  1.00  0.00     0.058 A 
ATOM     99  C   UNL A   1      43.100  29.634  35.313  1.00  0.00     0.135 A 
ATOM    100  C   UNL A   1      42.559  28.091  33.565  1.00  0.00     0.135 A 
ATOM    101  F   UNL A   1      43.423  30.853  35.759  1.00  0.00    -0.206 F 
ATOM    102  C   UNL A   1      42.797  28.668  36.277  1.00  0.00     0.059 A 
ATOM    103  C   UNL A   1      42.223  27.122  34.508  1.00  0.00     0.059 A 
ATOM    104  F   UNL A   1      42.385  27.790  32.268  1.00  0.00    -0.206 F 
ATOM    105  C   UNL A   1      42.352  27.414  35.864  1.00  0.00     0.060 A 
BRANCH 105 106
ATOM    106  S   UNL A   1      41.875  26.191  37.105  1.00  0.00     0.124 S 
ATOM    107  O   UNL A   1      41.935  24.945  36.347  1.00  0.00    -0.237 OA
ATOM    108  O   UNL A   1      42.901  26.359  38.129  1.00  0.00    -0.237 OA
ATOM    109  O   UNL A   1      40.535  26.614  37.504  1.00  0.00    -0.744 OA
ENDBRANCH 105 106
ENDBRANCH  73  98
ENDBRANCH  47  48
ENDBRANCH  39  42
ENDBRANCH  37  38
ENDBRANCH  36  37
ENDBRANCH  35  36
ENDBRANCH   1  35
TORSDOF 21
ENDMDL
MODEL 2
REMARK VINA RESULT:      -9.5      7.749     14.591
REMARK SMILES Cc1c(-c2nn(-c3ccccc3)cc2/C=N/O)nnn1-c1ccc(C(=O)NCCCCCCNC(=O)c2ccc(-c3c4nc(c(-c5c(F)cc(S(=O)(=O)[O-])cc5F)c5ccc([nH]5)c(-c5c(F)cc(S(=O)(=O)[O-])cc5F)c5nc(c(-c6c(F)cc(S(=O)(=O)[O-])cc6F)c6ccc3[nH]6)C=C5)C=C4)cc2)cc1
REMARK SMILES IDX 30 1 29 2 28 3 27 4 25 5 26 6 24 8 21 9 22 10 104 11 23 12
REMARK SMILES IDX 103 13 20 14 1 15 2 16 3 17 18 18 19 19 4 20 5 21 14 22 6 23
REMARK SMILES IDX 13 24 15 25 16 26 17 27 7 29 8 30 12 31 9 32 11 33 10 34
REMARK SMILES IDX 31 35 32 36 33 37 34 38 35 39 36 41 37 42 38 43 102 44 39 45
REMARK SMILES IDX 101 46 40 47 41 48 42 49 95 50 43 51 100 52 94 53 96 54
REMARK SMILES IDX 44 55 99 56 93 57 92 58 45 60 79 61 58 62 78 63 59 64 62 65
REMARK SMILES IDX 77 66 97 67 60 68 61 69 76 71 98 72 63 73 46 74 47 75 56 76
REMARK SMILES IDX 48 77 49 78 55 79 57 80 50 81 51 82 52 83 53 84 54 85 80 86
REMARK SMILES IDX 81 87 90 88 82 89 83 90 89 91 91 92 84 93 85 94 86 95 87 96
REMARK SMILES IDX 88 97 64 98 65 99 74 100 66 101 67 102 73 103 75 104 68 105
REMARK SMILES IDX 69 106 70 107 71 108 72 109
REMARK H PARENT 27 7 17 28 34 40 96 59 62 70
REMARK Flexibility Score: inf
ROOT
ATOM      1  C   UNL A   1      49.512  24.793  34.419  1.00  0.00     0.002 C 
ENDROOT
BRANCH   1   2
ATOM      2  C   UNL A   1      50.276  23.467  34.293  1.00  0.00     0.021 C 
BRANCH   2   3
ATOM      3  C   UNL A   1      49.395  22.243  34.550  1.00  0.00     0.116 C 
BRANCH   3   4
ATOM      4  N   UNL A   1      50.221  21.074  34.778  1.00  0.00    -0.352 N 
ATOM      5  C   UNL A   1      50.220  20.083  35.724  1.00  0.00     0.251 C 
ATOM      6  O   UNL A   1      51.095  19.221  35.621  1.00  0.00    -0.269 OA
ATOM      7  H   UNL A   1      50.936  20.969  34.110  1.00  0.00     0.163 HD
BRANCH   5   8
ATOM      8  C   UNL A   1      49.184  19.944  36.789  1.00  0.00     0.039 A 
ATOM      9  C   UNL A   1      47.403  19.398  38.888  1.00  0.00     0.067 A 
ATOM     10  C   UNL A   1      48.772  19.444  39.145  1.00  0.00     0.029 A 
ATOM     11  C   UNL A   1      46.911  19.714  37.619  1.00  0.00     0.029 A 
ATOM     12  C   UNL A   1      49.655  19.676  38.089  1.00  0.00     0.016 A 
ATOM     13  C   UNL A   1      47.805  20.053  36.597  1.00  0.00     0.016 A 
BRANCH   9  14
ATOM     14  N   UNL A   1      46.512  19.060  39.924  1.00  0.00    -0.217 N 
ATOM     15  C   UNL A   1      47.400  16.768  40.570  1.00  0.00     0.069 C 
ATOM     16  C   UNL A   1      46.404  17.865  40.607  1.00  0.00     0.071 A 
ATOM     17  C   UNL A   1      45.266  18.049  41.367  1.00  0.00     0.137 A 
ATOM     18  N   UNL A   1      44.821  19.333  41.249  1.00  0.00    -0.128 NA
ATOM     19  N   UNL A   1      45.648  19.970  40.429  1.00  0.00    -0.061 NA
BRANCH  17  20
ATOM     20  C   UNL A   1      44.663  17.133  42.322  1.00  0.00     0.124 A 
ATOM     21  N   UNL A   1      44.114  15.981  41.924  1.00  0.00    -0.165 NA
ATOM     22  C   UNL A   1      44.553  17.334  43.717  1.00  0.00     0.044 A 
ATOM     23  N   UNL A   1      43.552  15.473  43.039  1.00  0.00    -0.240 N 
ATOM     24  C   UNL A   1      43.788  16.261  44.141  1.00  0.00     0.125 A 
BRANCH  22  25
ATOM     25  C   UNL A   1      45.074  18.368  44.577  1.00  0.00     0.166 C 
ATOM     26  N   UNL A   1      46.283  18.792  44.421  1.00  0.00    -0.097 NA
BRANCH  26  27
ATOM     27  O   UNL A   1      46.553  19.763  45.395  1.00  0.00    -0.411 OA
ATOM     28  H   UNL A   1      47.140  19.570  46.099  1.00  0.00     0.330 HD
ENDBRANCH  26  27
ENDBRANCH  22  25
BRANCH  23  29
ATOM     29  C   UNL A   1      42.791  14.283  42.967  1.00  0.00     0.065 A 
ATOM     30  C   UNL A   1      42.839  13.382  44.040  1.00  0.00     0.028 A 
ATOM     31  C   UNL A   1      42.038  13.986  41.826  1.00  0.00     0.028 A 
ATOM     32  C   UNL A   1      42.119  12.191  43.977  1.00  0.00     0.002 A 
ATOM     33  C   UNL A   1      41.363  12.765  41.752  1.00  0.00     0.002 A 
ATOM     34  C   UNL A   1      41.395  11.876  42.828  1.00  0.00     0.000 A 
ENDBRANCH  23  29
ENDBRANCH  17  20
ENDBRANCH   9  14
ENDBRANCH   5   8
ENDBRANCH   3   4
ENDBRANCH   2   3
ENDBRANCH   1   2
BRANCH   1  35
ATOM     35  C   UNL A   1      49.698  25.537  35.754  1.00  0.00     0.002 C 
BRANCH  35  36
ATOM     36  C   UNL A   1      49.072  24.874  36.990  1.00  0.00     0.021 C 
BRANCH  36  37
ATOM     37  C   UNL A   1      47.871  25.634  37.522  1.00  0.00     0.116 C 
BRANCH  37  38
ATOM     38  N   UNL A   1      46.731  24.748  37.784  1.00  0.00    -0.352 N 
ATOM     39  C   UNL A   1      45.631  24.490  36.978  1.00  0.00     0.251 C 
ATOM     40  H   UNL A   1      46.748  24.274  38.647  1.00  0.00     0.163 HD
ATOM     41  O   UNL A   1      44.603  24.035  37.440  1.00  0.00    -0.269 OA
BRANCH  39  42
ATOM     42  C   UNL A   1      45.765  24.766  35.537  1.00  0.00     0.039 A 
ATOM     43  C   UNL A   1      46.095  23.783  34.599  1.00  0.00     0.014 A 
ATOM     44  C   UNL A   1      45.499  26.069  35.140  1.00  0.00     0.014 A 
ATOM     45  C   UNL A   1      46.098  24.131  33.248  1.00  0.00     0.010 A 
ATOM     46  C   UNL A   1      45.242  26.329  33.830  1.00  0.00     0.010 A 
ATOM     47  C   UNL A   1      45.667  25.412  32.881  1.00  0.00    -0.014 A 
BRANCH  47  48
ATOM     48  C   UNL A   1      45.608  25.873  31.504  1.00  0.00     0.031 A 
ATOM     49  C   UNL A   1      46.622  26.901  31.149  1.00  0.00     0.074 A 
ATOM     50  C   UNL A   1      44.897  25.178  30.584  1.00  0.00     0.049 A 
ATOM     51  N   UNL A   1      46.428  28.131  30.810  1.00  0.00    -0.248 NA
ATOM     52  C   UNL A   1      48.042  26.564  31.350  1.00  0.00     0.031 C 
ATOM     53  C   UNL A   1      44.147  23.922  30.760  1.00  0.00     0.029 A 
ATOM     54  N   UNL A   1      44.795  25.386  29.248  1.00  0.00    -0.354 N 
ATOM     55  C   UNL A   1      47.688  28.657  30.530  1.00  0.00     0.074 A 
ATOM     56  C   UNL A   1      48.636  27.728  31.083  1.00  0.00     0.031 C 
ATOM     57  C   UNL A   1      43.881  23.371  29.555  1.00  0.00     0.029 A 
ATOM     58  C   UNL A   1      44.266  24.317  28.528  1.00  0.00     0.049 A 
ATOM     59  H   UNL A   1      45.074  26.228  28.820  1.00  0.00     0.167 HD
ATOM     60  C   UNL A   1      47.850  29.693  29.659  1.00  0.00     0.037 A 
ATOM     61  C   UNL A   1      44.182  24.222  27.177  1.00  0.00     0.037 A 
ATOM     62  C   UNL A   1      46.582  30.317  29.372  1.00  0.00     0.049 A 
ATOM     63  C   UNL A   1      44.319  25.606  26.648  1.00  0.00     0.074 A 
ATOM     64  C   UNL A   1      45.647  31.000  30.124  1.00  0.00     0.029 A 
ATOM     65  N   UNL A   1      45.931  29.922  28.227  1.00  0.00    -0.354 N 
ATOM     66  N   UNL A   1      43.457  26.560  26.888  1.00  0.00    -0.248 NA
ATOM     67  C   UNL A   1      45.657  26.055  26.293  1.00  0.00     0.031 C 
ATOM     68  C   UNL A   1      44.385  30.565  29.624  1.00  0.00     0.029 A 
ATOM     69  C   UNL A   1      44.613  29.706  28.546  1.00  0.00     0.049 A 
ATOM     70  H   UNL A   1      46.337  29.814  27.337  1.00  0.00     0.167 HD
ATOM     71  C   UNL A   1      44.224  27.697  27.113  1.00  0.00     0.074 A 
ATOM     72  C   UNL A   1      45.569  27.335  26.665  1.00  0.00     0.031 C 
ATOM     73  C   UNL A   1      43.771  28.715  27.904  1.00  0.00     0.037 A 
BRANCH  60  74
ATOM     74  C   UNL A   1      49.072  29.933  28.800  1.00  0.00     0.058 A 
ATOM     75  C   UNL A   1      49.853  31.087  29.021  1.00  0.00     0.135 A 
ATOM     76  C   UNL A   1      49.363  29.227  27.611  1.00  0.00     0.135 A 
ATOM     77  F   UNL A   1      49.672  31.838  30.120  1.00  0.00    -0.206 F 
ATOM     78  C   UNL A   1      50.791  31.550  28.095  1.00  0.00     0.059 A 
ATOM     79  C   UNL A   1      50.331  29.640  26.701  1.00  0.00     0.059 A 
ATOM     80  F   UNL A   1      48.660  28.159  27.218  1.00  0.00    -0.206 F 
ATOM     81  C   UNL A   1      51.010  30.825  26.928  1.00  0.00     0.060 A 
BRANCH  81  82
ATOM     82  S   UNL A   1      52.136  31.471  25.681  1.00  0.00     0.124 S 
ATOM     83  O   UNL A   1      51.203  31.986  24.685  1.00  0.00    -0.237 OA
ATOM     84  O   UNL A   1      52.883  32.472  26.437  1.00  0.00    -0.237 OA
ATOM     85  O   UNL A   1      52.903  30.296  25.279  1.00  0.00    -0.744 OA
ENDBRANCH  81  82
ENDBRANCH  60  74
BRANCH  61  86
ATOM     86  C   UNL A   1      44.375  23.007  26.341  1.00  0.00     0.058 A 
ATOM     87  C   UNL A   1      45.654  22.518  26.024  1.00  0.00     0.135 A 
ATOM     88  C   UNL A   1      43.295  22.146  26.057  1.00  0.00     0.135 A 
ATOM     89  F   UNL A   1      46.741  23.260  26.288  1.00  0.00    -0.206 F 
ATOM     90  C   UNL A   1      45.853  21.240  25.484  1.00  0.00     0.059 A 
ATOM     91  C   UNL A   1      43.467  20.870  25.518  1.00  0.00     0.059 A 
ATOM     92  F   UNL A   1      42.039  22.489  26.384  1.00  0.00    -0.206 F 
ATOM     93  C   UNL A   1      44.753  20.415  25.250  1.00  0.00     0.060 A 
BRANCH  93  94
ATOM     94  S   UNL A   1      45.013  18.711  24.693  1.00  0.00     0.124 S 
ATOM     95  O   UNL A   1      44.905  18.848  23.245  1.00  0.00    -0.237 OA
ATOM     96  O   UNL A   1      46.346  18.419  25.210  1.00  0.00    -0.237 OA
ATOM     97  O   UNL A   1      43.924  17.977  25.334  1.00  0.00    -0.744 OA
ENDBRANCH  93  94
ENDBRANCH  61  86
BRANCH  73  98
ATOM     98  C   UNL A   1      42.316  28.704  28.324  1.00  0.00     0.058 A 
ATOM     99  C   UNL A   1      41.857  28.369  29.612  1.00  0.00     0.135 A 
ATOM    100  C   UNL A   1      41.373  29.235  27.434  1.00  0.00     0.135 A 
ATOM    101  F   UNL A   1      42.705  27.945  30.556  1.00  0.00    -0.206 F 
ATOM    102  C   UNL A   1      40.520  28.528  29.987  1.00  0.00     0.059 A 
ATOM    103  C   UNL A   1      40.041  29.431  27.794  1.00  0.00     0.059 A 
ATOM    104  F   UNL A   1      41.755  29.633  26.209  1.00  0.00    -0.206 F 
ATOM    105  C   UNL A   1      39.619  29.067  29.071  1.00  0.00     0.060 A 
BRANCH 105 106
ATOM    106  S   UNL A   1      37.909  29.357  29.578  1.00  0.00     0.124 S 
ATOM    107  O   UNL A   1      37.945  30.757  29.989  1.00  0.00    -0.237 OA
ATOM    108  O   UNL A   1      37.162  29.075  28.357  1.00  0.00    -0.237 OA
ATOM    109  O   UNL A   1      37.705  28.395  30.658  1.00  0.00    -0.744 OA
ENDBRANCH 105 106
ENDBRANCH  73  98
ENDBRANCH  47  48
ENDBRANCH  39  42
ENDBRANCH  37  38
ENDBRANCH  36  37
ENDBRANCH  35  36
ENDBRANCH   1  35
TORSDOF 21
ENDMDL
MODEL 3
REMARK VINA RESULT:      -9.5      4.305     12.435
REMARK SMILES Cc1c(-c2nn(-c3ccccc3)cc2/C=N/O)nnn1-c1ccc(C(=O)NCCCCCCNC(=O)c2ccc(-c3c4nc(c(-c5c(F)cc(S(=O)(=O)[O-])cc5F)c5ccc([nH]5)c(-c5c(F)cc(S(=O)(=O)[O-])cc5F)c5nc(c(-c6c(F)cc(S(=O)(=O)[O-])cc6F)c6ccc3[nH]6)C=C5)C=C4)cc2)cc1
REMARK SMILES IDX 30 1 29 2 28 3 27 4 25 5 26 6 24 8 21 9 22 10 104 11 23 12
REMARK SMILES IDX 103 13 20 14 1 15 2 16 3 17 18 18 19 19 4 20 5 21 14 22 6 23
REMARK SMILES IDX 13 24 15 25 16 26 17 27 7 29 8 30 12 31 9 32 11 33 10 34
REMARK SMILES IDX 31 35 32 36 33 37 34 38 35 39 36 41 37 42 38 43 102 44 39 45
REMARK SMILES IDX 101 46 40 47 41 48 42 49 95 50 43 51 100 52 94 53 96 54
REMARK SMILES IDX 44 55 99 56 93 57 92 58 45 60 79 61 58 62 78 63 59 64 62 65
REMARK SMILES IDX 77 66 97 67 60 68 61 69 76 71 98 72 63 73 46 74 47 75 56 76
REMARK SMILES IDX 48 77 49 78 55 79 57 80 50 81 51 82 52 83 53 84 54 85 80 86
REMARK SMILES IDX 81 87 90 88 82 89 83 90 89 91 91 92 84 93 85 94 86 95 87 96
REMARK SMILES IDX 88 97 64 98 65 99 74 100 66 101 67 102 73 103 75 104 68 105
REMARK SMILES IDX 69 106 70 107 71 108 72 109
REMARK H PARENT 27 7 17 28 34 40 96 59 62 70
REMARK Flexibility Score: inf
ROOT
ATOM      1  C   UNL A   1      50.834  19.910  34.493  1.00  0.00     0.002 C 
ENDROOT
BRANCH   1   2
ATOM      2  C   UNL A   1      49.437  19.921  33.855  1.00  0.00     0.021 C 
BRANCH   2   3
ATOM      3  C   UNL A   1      48.463  20.861  34.567  1.00  0.00     0.116 C 
BRANCH   3   4
ATOM      4  N   UNL A   1      47.475  20.094  35.298  1.00  0.00    -0.352 N 
ATOM      5  C   UNL A   1      46.242  20.389  35.817  1.00  0.00     0.251 C 
ATOM      6  O   UNL A   1      45.657  19.475  36.403  1.00  0.00    -0.269 OA
ATOM      7  H   UNL A   1      47.747  19.162  35.454  1.00  0.00     0.163 HD
BRANCH   5   8
ATOM      8  C   UNL A   1      45.546  21.696  35.634  1.00  0.00     0.039 A 
ATOM      9  C   UNL A   1      44.341  24.140  34.965  1.00  0.00     0.067 A 
ATOM     10  C   UNL A   1      44.074  23.011  34.194  1.00  0.00     0.029 A 
ATOM     11  C   UNL A   1      45.125  24.041  36.118  1.00  0.00     0.029 A 
ATOM     12  C   UNL A   1      44.708  21.807  34.508  1.00  0.00     0.016 A 
ATOM     13  C   UNL A   1      45.663  22.802  36.480  1.00  0.00     0.016 A 
BRANCH   9  14
ATOM     14  N   UNL A   1      43.791  25.382  34.594  1.00  0.00    -0.217 N 
ATOM     15  C   UNL A   1      41.693  25.406  36.029  1.00  0.00     0.069 C 
ATOM     16  C   UNL A   1      42.570  25.920  34.950  1.00  0.00     0.071 A 
ATOM     17  C   UNL A   1      42.494  27.052  34.163  1.00  0.00     0.137 A 
ATOM     18  N   UNL A   1      43.668  27.245  33.498  1.00  0.00    -0.128 NA
ATOM     19  N   UNL A   1      44.490  26.262  33.840  1.00  0.00    -0.061 NA
BRANCH  17  20
ATOM     20  C   UNL A   1      41.436  28.051  34.122  1.00  0.00     0.124 A 
ATOM     21  N   UNL A   1      40.422  27.949  33.257  1.00  0.00    -0.165 NA
ATOM     22  C   UNL A   1      41.354  29.213  34.923  1.00  0.00     0.044 A 
ATOM     23  N   UNL A   1      39.730  29.095  33.415  1.00  0.00    -0.240 N 
ATOM     24  C   UNL A   1      40.263  29.888  34.405  1.00  0.00     0.125 A 
BRANCH  22  25
ATOM     25  C   UNL A   1      42.161  29.671  36.027  1.00  0.00     0.166 C 
ATOM     26  N   UNL A   1      41.664  30.486  36.897  1.00  0.00    -0.097 NA
BRANCH  26  27
ATOM     27  O   UNL A   1      42.653  30.802  37.839  1.00  0.00    -0.411 OA
ATOM     28  H   UNL A   1      43.471  31.161  37.556  1.00  0.00     0.330 HD
ENDBRANCH  26  27
ENDBRANCH  22  25
BRANCH  23  29
ATOM     29  C   UNL A   1      38.624  29.372  32.579  1.00  0.00     0.065 A 
ATOM     30  C   UNL A   1      38.492  28.667  31.374  1.00  0.00     0.028 A 
ATOM     31  C   UNL A   1      37.701  30.366  32.921  1.00  0.00     0.028 A 
ATOM     32  C   UNL A   1      37.426  28.944  30.522  1.00  0.00     0.002 A 
ATOM     33  C   UNL A   1      36.667  30.673  32.035  1.00  0.00     0.002 A 
ATOM     34  C   UNL A   1      36.524  29.957  30.844  1.00  0.00     0.000 A 
ENDBRANCH  23  29
ENDBRANCH  17  20
ENDBRANCH   9  14
ENDBRANCH   5   8
ENDBRANCH   3   4
ENDBRANCH   2   3
ENDBRANCH   1   2
BRANCH   1  35
ATOM     35  C   UNL A   1      52.012  19.978  33.504  1.00  0.00     0.002 C 
BRANCH  35  36
ATOM     36  C   UNL A   1      52.697  21.345  33.361  1.00  0.00     0.021 C 
BRANCH  36  37
ATOM     37  C   UNL A   1      51.728  22.454  32.993  1.00  0.00     0.116 C 
BRANCH  37  38
ATOM     38  N   UNL A   1      51.511  23.387  34.105  1.00  0.00    -0.352 N 
ATOM     39  C   UNL A   1      50.915  24.640  34.081  1.00  0.00     0.251 C 
ATOM     40  H   UNL A   1      51.832  23.084  34.985  1.00  0.00     0.163 HD
ATOM     41  O   UNL A   1      51.112  25.449  34.966  1.00  0.00    -0.269 OA
BRANCH  39  42
ATOM     42  C   UNL A   1      50.015  24.943  32.954  1.00  0.00     0.039 A 
ATOM     43  C   UNL A   1      48.623  24.856  33.046  1.00  0.00     0.014 A 
ATOM     44  C   UNL A   1      50.628  25.371  31.785  1.00  0.00     0.014 A 
ATOM     45  C   UNL A   1      47.861  25.260  31.950  1.00  0.00     0.010 A 
ATOM     46  C   UNL A   1      49.888  26.008  30.839  1.00  0.00     0.010 A 
ATOM     47  C   UNL A   1      48.513  25.837  30.851  1.00  0.00    -0.014 A 
BRANCH  47  48
ATOM     48  C   UNL A   1      47.817  26.314  29.667  1.00  0.00     0.031 A 
ATOM     49  C   UNL A   1      46.783  27.349  29.930  1.00  0.00     0.074 A 
ATOM     50  C   UNL A   1      48.313  26.050  28.435  1.00  0.00     0.049 A 
ATOM     51  N   UNL A   1      45.506  27.264  29.763  1.00  0.00    -0.248 NA
ATOM     52  C   UNL A   1      47.206  28.584  30.615  1.00  0.00     0.031 C 
ATOM     53  C   UNL A   1      49.550  25.334  28.076  1.00  0.00     0.029 A 
ATOM     54  N   UNL A   1      47.871  26.479  27.227  1.00  0.00    -0.354 N 
ATOM     55  C   UNL A   1      44.990  28.514  30.103  1.00  0.00     0.074 A 
ATOM     56  C   UNL A   1      46.037  29.196  30.813  1.00  0.00     0.031 C 
ATOM     57  C   UNL A   1      49.871  25.587  26.788  1.00  0.00     0.029 A 
ATOM     58  C   UNL A   1      48.777  26.316  26.181  1.00  0.00     0.049 A 
ATOM     59  H   UNL A   1      46.979  26.876  27.099  1.00  0.00     0.167 HD
ATOM     60  C   UNL A   1      43.824  28.973  29.563  1.00  0.00     0.037 A 
ATOM     61  C   UNL A   1      48.632  26.777  24.914  1.00  0.00     0.037 A 
ATOM     62  C   UNL A   1      43.111  27.902  28.912  1.00  0.00     0.049 A 
ATOM     63  C   UNL A   1      47.183  27.066  24.734  1.00  0.00     0.074 A 
ATOM     64  C   UNL A   1      42.533  26.723  29.338  1.00  0.00     0.029 A 
ATOM     65  N   UNL A   1      43.275  27.772  27.552  1.00  0.00    -0.354 N 
ATOM     66  N   UNL A   1      46.252  26.148  24.775  1.00  0.00    -0.248 NA
ATOM     67  C   UNL A   1      46.731  28.419  25.022  1.00  0.00     0.031 C 
ATOM     68  C   UNL A   1      42.825  25.778  28.312  1.00  0.00     0.029 A 
ATOM     69  C   UNL A   1      43.491  26.444  27.280  1.00  0.00     0.049 A 
ATOM     70  H   UNL A   1      43.242  28.502  26.892  1.00  0.00     0.167 HD
ATOM     71  C   UNL A   1      45.203  26.724  25.482  1.00  0.00     0.074 A 
ATOM     72  C   UNL A   1      45.534  28.148  25.547  1.00  0.00     0.031 C 
ATOM     73  C   UNL A   1      44.322  25.960  26.194  1.00  0.00     0.037 A 
BRANCH  60  74
ATOM     74  C   UNL A   1      43.486  30.426  29.315  1.00  0.00     0.058 A 
ATOM     75  C   UNL A   1      44.288  31.178  28.429  1.00  0.00     0.135 A 
ATOM     76  C   UNL A   1      42.581  31.180  30.096  1.00  0.00     0.135 A 
ATOM     77  F   UNL A   1      45.182  30.572  27.631  1.00  0.00    -0.206 F 
ATOM     78  C   UNL A   1      44.251  32.573  28.383  1.00  0.00     0.059 A 
ATOM     79  C   UNL A   1      42.490  32.567  30.026  1.00  0.00     0.059 A 
ATOM     80  F   UNL A   1      41.809  30.625  31.037  1.00  0.00    -0.206 F 
ATOM     81  C   UNL A   1      43.358  33.259  29.200  1.00  0.00     0.060 A 
BRANCH  81  82
ATOM     82  S   UNL A   1      43.382  35.059  29.225  1.00  0.00     0.124 S 
ATOM     83  O   UNL A   1      44.812  35.333  29.141  1.00  0.00    -0.237 OA
ATOM     84  O   UNL A   1      42.596  35.389  28.040  1.00  0.00    -0.237 OA
ATOM     85  O   UNL A   1      42.750  35.386  30.499  1.00  0.00    -0.744 OA
ENDBRANCH  81  82
ENDBRANCH  60  74
BRANCH  61  86
ATOM     86  C   UNL A   1      49.688  27.327  24.023  1.00  0.00     0.058 A 
ATOM     87  C   UNL A   1      49.658  27.142  22.630  1.00  0.00     0.135 A 
ATOM     88  C   UNL A   1      50.612  28.281  24.500  1.00  0.00     0.135 A 
ATOM     89  F   UNL A   1      48.788  26.275  22.087  1.00  0.00    -0.206 F 
ATOM     90  C   UNL A   1      50.474  27.876  21.760  1.00  0.00     0.059 A 
ATOM     91  C   UNL A   1      51.436  29.023  23.655  1.00  0.00     0.059 A 
ATOM     92  F   UNL A   1      50.673  28.583  25.807  1.00  0.00    -0.206 F 
ATOM     93  C   UNL A   1      51.350  28.829  22.281  1.00  0.00     0.060 A 
BRANCH  93  94
ATOM     94  S   UNL A   1      52.298  29.885  21.155  1.00  0.00     0.124 S 
ATOM     95  O   UNL A   1      51.921  29.348  19.851  1.00  0.00    -0.237 OA
ATOM     96  O   UNL A   1      51.783  31.212  21.472  1.00  0.00    -0.237 OA
ATOM     97  O   UNL A   1      53.683  29.644  21.552  1.00  0.00    -0.744 OA
ENDBRANCH  93  94
ENDBRANCH  61  86
BRANCH  73  98
ATOM     98  C   UNL A   1      44.349  24.460  25.994  1.00  0.00     0.058 A 
ATOM     99  C   UNL A   1      43.538  23.759  25.080  1.00  0.00     0.135 A 
ATOM    100  C   UNL A   1      45.368  23.732  26.622  1.00  0.00     0.135 A 
ATOM    101  F   UNL A   1      42.601  24.393  24.364  1.00  0.00    -0.206 F 
ATOM    102  C   UNL A   1      43.715  22.397  24.825  1.00  0.00     0.059 A 
ATOM    103  C   UNL A   1      45.584  22.380  26.361  1.00  0.00     0.059 A 
ATOM    104  F   UNL A   1      46.217  24.351  27.458  1.00  0.00    -0.206 F 
ATOM    105  C   UNL A   1      44.747  21.715  25.467  1.00  0.00     0.060 A 
BRANCH 105 106
ATOM    106  S   UNL A   1      45.038  19.975  25.075  1.00  0.00     0.124 S 
ATOM    107  O   UNL A   1      43.981  19.311  25.832  1.00  0.00    -0.237 OA
ATOM    108  O   UNL A   1      44.891  19.947  23.624  1.00  0.00    -0.237 OA
ATOM    109  O   UNL A   1      46.395  19.738  25.559  1.00  0.00    -0.744 OA
ENDBRANCH 105 106
ENDBRANCH  73  98
ENDBRANCH  47  48
ENDBRANCH  39  42
ENDBRANCH  37  38
ENDBRANCH  36  37
ENDBRANCH  35  36
ENDBRANCH   1  35
TORSDOF 21
ENDMDL
