MODEL 1
REMARK VINA RESULT:     -10.3      0.000      0.000
REMARK SMILES CC[C@]1(C(=O)NCCCCCCNC(=O)c2ccc(-c3c4nc(c(-c5c(F)cc(S(=O)(=O)[O-])cc5F)c5ccc([nH]5)c(-c5c(F)cc(S(=O)(=O)[O-])cc5F)c5nc(c(-c6c(F)cc(S(=O)(=O)[O-])cc6F)c6ccc3[nH]6)C=C5)C=C4)cc2)CCN(C(=O)[C@]2(C)CCCO2)C1
REMARK SMILES IDX 10 1 9 2 8 3 7 4 6 5 4 6 5 7 3 9 82 10 93 11 83 12 84 13
REMARK SMILES IDX 2 14 1 15 85 16 86 17 87 18 89 19 92 20 88 21 90 22 91 23
REMARK SMILES IDX 11 24 12 25 13 26 14 27 15 29 16 30 17 31 81 32 18 33 80 34
REMARK SMILES IDX 19 35 20 36 21 37 74 38 22 39 79 40 73 41 75 42 23 43 78 44
REMARK SMILES IDX 72 45 71 46 24 48 58 49 37 50 57 51 38 52 41 53 56 54 76 55
REMARK SMILES IDX 39 56 40 57 55 59 77 60 42 61 25 62 26 63 35 64 27 65 28 66
REMARK SMILES IDX 34 67 36 68 29 69 30 70 31 71 32 72 33 73 59 74 60 75 69 76
REMARK SMILES IDX 61 77 62 78 68 79 70 80 63 81 64 82 65 83 66 84 67 85 43 86
REMARK SMILES IDX 44 87 53 88 45 89 46 90 52 91 54 92 47 93 48 94 49 95 50 96
REMARK SMILES IDX 51 97
REMARK H PARENT 6 8 13 28 75 47 41 58
REMARK Flexibility Score: inf
ROOT
ATOM      1  C   UNL A   1      32.379  27.978  24.802  1.00  0.00     0.002 C 
ENDROOT
BRANCH   1   2
ATOM      2  C   UNL A   1      33.572  27.767  23.865  1.00  0.00     0.002 C 
BRANCH   2   3
ATOM      3  C   UNL A   1      33.236  27.144  22.500  1.00  0.00     0.021 C 
BRANCH   3   4
ATOM      4  C   UNL A   1      31.835  26.533  22.403  1.00  0.00     0.116 C 
BRANCH   4   5
ATOM      5  N   UNL A   1      31.866  25.345  21.572  1.00  0.00    -0.356 N 
ATOM      6  C   UNL A   1      32.627  24.251  21.822  1.00  0.00     0.228 C 
ATOM      7  O   UNL A   1      33.442  23.916  20.959  1.00  0.00    -0.274 OA
ATOM      8  H   UNL A   1      31.295  25.331  20.771  1.00  0.00     0.163 HD
BRANCH   6   9
ATOM      9  C   UNL A   1      32.413  23.427  23.093  1.00  0.00     0.068 C 
ATOM     10  C   UNL A   1      32.515  21.928  22.747  1.00  0.00     0.040 C 
ATOM     11  C   UNL A   1      33.449  23.616  24.223  1.00  0.00     0.136 C 
ATOM     12  C   UNL A   1      33.013  21.292  24.031  1.00  0.00     0.121 C 
ATOM     13  N   UNL A   1      33.937  22.276  24.544  1.00  0.00    -0.339 N 
BRANCH   9  14
ATOM     14  C   UNL A   1      30.980  23.766  23.587  1.00  0.00     0.015 C 
ATOM     15  C   UNL A   1      30.926  24.217  25.049  1.00  0.00     0.005 C 
ENDBRANCH   9  14
BRANCH  13  16
ATOM     16  C   UNL A   1      35.071  22.101  25.314  1.00  0.00     0.254 C 
ATOM     17  O   UNL A   1      34.974  21.542  26.413  1.00  0.00    -0.272 OA
BRANCH  16  18
ATOM     18  C   UNL A   1      36.454  22.668  24.841  1.00  0.00     0.144 C 
ATOM     19  C   UNL A   1      37.597  21.685  25.141  1.00  0.00     0.048 C 
ATOM     20  O   UNL A   1      36.811  23.924  25.442  1.00  0.00    -0.365 OA
ATOM     21  C   UNL A   1      36.377  22.902  23.320  1.00  0.00     0.053 C 
ATOM     22  C   UNL A   1      38.454  22.386  26.165  1.00  0.00     0.032 C 
ATOM     23  C   UNL A   1      38.164  23.846  25.909  1.00  0.00     0.162 C 
ENDBRANCH  16  18
ENDBRANCH  13  16
ENDBRANCH   6   9
ENDBRANCH   4   5
ENDBRANCH   3   4
ENDBRANCH   2   3
ENDBRANCH   1   2
BRANCH   1  24
ATOM     24  C   UNL A   1      32.695  27.808  26.286  1.00  0.00     0.021 C 
BRANCH  24  25
ATOM     25  C   UNL A   1      34.003  28.449  26.719  1.00  0.00     0.116 C 
BRANCH  25  26
ATOM     26  N   UNL A   1      33.811  29.805  27.207  1.00  0.00    -0.352 N 
ATOM     27  C   UNL A   1      34.638  30.542  28.014  1.00  0.00     0.251 C 
ATOM     28  H   UNL A   1      32.980  30.250  26.921  1.00  0.00     0.163 HD
ATOM     29  O   UNL A   1      34.248  31.598  28.507  1.00  0.00    -0.269 OA
BRANCH  27  30
ATOM     30  C   UNL A   1      35.996  30.037  28.302  1.00  0.00     0.039 A 
ATOM     31  C   UNL A   1      36.981  30.136  27.319  1.00  0.00     0.014 A 
ATOM     32  C   UNL A   1      36.300  29.500  29.558  1.00  0.00     0.014 A 
ATOM     33  C   UNL A   1      38.287  29.746  27.614  1.00  0.00     0.010 A 
ATOM     34  C   UNL A   1      37.618  29.192  29.876  1.00  0.00     0.010 A 
ATOM     35  C   UNL A   1      38.624  29.302  28.905  1.00  0.00    -0.014 A 
BRANCH  35  36
ATOM     36  C   UNL A   1      40.024  28.949  29.256  1.00  0.00     0.031 A 
ATOM     37  C   UNL A   1      40.901  29.954  29.953  1.00  0.00     0.074 A 
ATOM     38  C   UNL A   1      40.518  27.747  28.898  1.00  0.00     0.049 A 
ATOM     39  N   UNL A   1      42.161  29.856  30.289  1.00  0.00    -0.248 NA
ATOM     40  C   UNL A   1      40.291  31.251  30.293  1.00  0.00     0.031 C 
ATOM     41  C   UNL A   1      39.778  26.709  28.175  1.00  0.00     0.029 A 
ATOM     42  N   UNL A   1      41.761  27.197  29.085  1.00  0.00    -0.354 N 
ATOM     43  C   UNL A   1      42.496  31.074  30.868  1.00  0.00     0.074 A 
ATOM     44  C   UNL A   1      41.324  31.918  30.786  1.00  0.00     0.031 C 
ATOM     45  C   UNL A   1      40.573  25.640  28.003  1.00  0.00     0.029 A 
ATOM     46  C   UNL A   1      41.890  25.930  28.561  1.00  0.00     0.049 A 
ATOM     47  H   UNL A   1      42.492  27.664  29.549  1.00  0.00     0.167 HD
ATOM     48  C   UNL A   1      43.666  31.447  31.438  1.00  0.00     0.037 A 
ATOM     49  C   UNL A   1      42.952  25.101  28.527  1.00  0.00     0.037 A 
ATOM     50  C   UNL A   1      44.819  30.591  31.538  1.00  0.00     0.049 A 
ATOM     51  C   UNL A   1      44.244  25.545  29.161  1.00  0.00     0.074 A 
ATOM     52  C   UNL A   1      46.032  30.853  32.150  1.00  0.00     0.029 A 
ATOM     53  N   UNL A   1      44.905  29.310  31.012  1.00  0.00    -0.354 N 
ATOM     54  N   UNL A   1      44.521  26.675  29.766  1.00  0.00    -0.248 NA
ATOM     55  C   UNL A   1      45.366  24.597  29.115  1.00  0.00     0.031 C 
ATOM     56  C   UNL A   1      46.870  29.753  31.948  1.00  0.00     0.029 A 
ATOM     57  C   UNL A   1      46.160  28.779  31.264  1.00  0.00     0.049 A 
ATOM     58  H   UNL A   1      44.182  28.846  30.533  1.00  0.00     0.167 HD
ATOM     59  C   UNL A   1      45.837  26.562  30.201  1.00  0.00     0.074 A 
ATOM     60  C   UNL A   1      46.296  25.248  29.801  1.00  0.00     0.031 C 
ATOM     61  C   UNL A   1      46.597  27.463  30.871  1.00  0.00     0.037 A 
BRANCH  48  62
ATOM     62  C   UNL A   1      43.764  32.837  32.006  1.00  0.00     0.058 A 
ATOM     63  C   UNL A   1      43.448  33.111  33.346  1.00  0.00     0.135 A 
ATOM     64  C   UNL A   1      44.237  33.898  31.217  1.00  0.00     0.135 A 
ATOM     65  F   UNL A   1      42.974  32.140  34.143  1.00  0.00    -0.206 F 
ATOM     66  C   UNL A   1      43.583  34.389  33.879  1.00  0.00     0.059 A 
ATOM     67  C   UNL A   1      44.408  35.177  31.736  1.00  0.00     0.059 A 
ATOM     68  F   UNL A   1      44.549  33.694  29.926  1.00  0.00    -0.206 F 
ATOM     69  C   UNL A   1      44.070  35.415  33.068  1.00  0.00     0.060 A 
BRANCH  69  70
ATOM     70  S   UNL A   1      44.267  37.060  33.785  1.00  0.00     0.124 S 
ATOM     71  O   UNL A   1      42.995  37.684  33.435  1.00  0.00    -0.237 OA
ATOM     72  O   UNL A   1      44.458  36.759  35.200  1.00  0.00    -0.237 OA
ATOM     73  O   UNL A   1      45.437  37.594  33.096  1.00  0.00    -0.744 OA
ENDBRANCH  69  70
ENDBRANCH  48  62
BRANCH  49  74
ATOM     74  C   UNL A   1      42.840  23.766  27.881  1.00  0.00     0.058 A 
ATOM     75  C   UNL A   1      42.988  23.617  26.493  1.00  0.00     0.135 A 
ATOM     76  C   UNL A   1      42.571  22.612  28.634  1.00  0.00     0.135 A 
ATOM     77  F   UNL A   1      43.240  24.690  25.727  1.00  0.00    -0.206 F 
ATOM     78  C   UNL A   1      42.844  22.381  25.871  1.00  0.00     0.059 A 
ATOM     79  C   UNL A   1      42.454  21.360  28.039  1.00  0.00     0.059 A 
ATOM     80  F   UNL A   1      42.439  22.694  29.967  1.00  0.00    -0.206 F 
ATOM     81  C   UNL A   1      42.576  21.256  26.654  1.00  0.00     0.060 A 
BRANCH  81  82
ATOM     82  S   UNL A   1      42.413  19.653  25.839  1.00  0.00     0.124 S 
ATOM     83  O   UNL A   1      42.805  18.741  26.907  1.00  0.00    -0.237 OA
ATOM     84  O   UNL A   1      41.000  19.639  25.472  1.00  0.00    -0.237 OA
ATOM     85  O   UNL A   1      43.344  19.751  24.719  1.00  0.00    -0.744 OA
ENDBRANCH  81  82
ENDBRANCH  49  74
BRANCH  61  86
ATOM     86  C   UNL A   1      47.990  27.047  31.257  1.00  0.00     0.058 A 
ATOM     87  C   UNL A   1      49.096  27.302  30.431  1.00  0.00     0.135 A 
ATOM     88  C   UNL A   1      48.227  26.434  32.499  1.00  0.00     0.135 A 
ATOM     89  F   UNL A   1      48.926  27.881  29.233  1.00  0.00    -0.206 F 
ATOM     90  C   UNL A   1      50.385  26.941  30.812  1.00  0.00     0.059 A 
ATOM     91  C   UNL A   1      49.510  26.094  32.914  1.00  0.00     0.059 A 
ATOM     92  F   UNL A   1      47.206  26.178  33.333  1.00  0.00    -0.206 F 
ATOM     93  C   UNL A   1      50.582  26.341  32.058  1.00  0.00     0.060 A 
BRANCH  93  94
ATOM     94  S   UNL A   1      52.264  25.911  32.553  1.00  0.00     0.124 S 
ATOM     95  O   UNL A   1      52.091  25.636  33.975  1.00  0.00    -0.237 OA
ATOM     96  O   UNL A   1      52.549  24.751  31.713  1.00  0.00    -0.237 OA
ATOM     97  O   UNL A   1      53.031  27.112  32.234  1.00  0.00    -0.744 OA
ENDBRANCH  93  94
ENDBRANCH  61  86
ENDBRANCH  35  36
ENDBRANCH  27  30
ENDBRANCH  25  26
ENDBRANCH  24  25
ENDBRANCH   1  24
TORSDOF 19
ENDMDL
MODEL 2
REMARK VINA RESULT:     -10.1      3.604      5.473
REMARK SMILES CC[C@]1(C(=O)NCCCCCCNC(=O)c2ccc(-c3c4nc(c(-c5c(F)cc(S(=O)(=O)[O-])cc5F)c5ccc([nH]5)c(-c5c(F)cc(S(=O)(=O)[O-])cc5F)c5nc(c(-c6c(F)cc(S(=O)(=O)[O-])cc6F)c6ccc3[nH]6)C=C5)C=C4)cc2)CCN(C(=O)[C@]2(C)CCCO2)C1
REMARK SMILES IDX 10 1 9 2 8 3 7 4 6 5 4 6 5 7 3 9 82 10 93 11 83 12 84 13
REMARK SMILES IDX 2 14 1 15 85 16 86 17 87 18 89 19 92 20 88 21 90 22 91 23
REMARK SMILES IDX 11 24 12 25 13 26 14 27 15 29 16 30 17 31 81 32 18 33 80 34
REMARK SMILES IDX 19 35 20 36 21 37 74 38 22 39 79 40 73 41 75 42 23 43 78 44
REMARK SMILES IDX 72 45 71 46 24 48 58 49 37 50 57 51 38 52 41 53 56 54 76 55
REMARK SMILES IDX 39 56 40 57 55 59 77 60 42 61 25 62 26 63 35 64 27 65 28 66
REMARK SMILES IDX 34 67 36 68 29 69 30 70 31 71 32 72 33 73 59 74 60 75 69 76
REMARK SMILES IDX 61 77 62 78 68 79 70 80 63 81 64 82 65 83 66 84 67 85 43 86
REMARK SMILES IDX 44 87 53 88 45 89 46 90 52 91 54 92 47 93 48 94 49 95 50 96
REMARK SMILES IDX 51 97
REMARK H PARENT 6 8 13 28 75 47 41 58
REMARK Flexibility Score: inf
ROOT
ATOM      1  C   UNL A   1      34.921  29.543  27.454  1.00  0.00     0.002 C 
ENDROOT
BRANCH   1   2
ATOM      2  C   UNL A   1      33.712  29.025  26.669  1.00  0.00     0.002 C 
BRANCH   2   3
ATOM      3  C   UNL A   1      32.340  29.462  27.208  1.00  0.00     0.021 C 
BRANCH   3   4
ATOM      4  C   UNL A   1      31.392  28.310  27.555  1.00  0.00     0.116 C 
BRANCH   4   5
ATOM      5  N   UNL A   1      32.059  27.038  27.352  1.00  0.00    -0.356 N 
ATOM      6  C   UNL A   1      31.644  26.081  26.488  1.00  0.00     0.228 C 
ATOM      7  O   UNL A   1      31.378  24.970  26.954  1.00  0.00    -0.274 OA
ATOM      8  H   UNL A   1      32.871  26.858  27.879  1.00  0.00     0.163 HD
BRANCH   6   9
ATOM      9  C   UNL A   1      31.592  26.358  24.984  1.00  0.00     0.068 C 
ATOM     10  C   UNL A   1      30.764  25.256  24.294  1.00  0.00     0.040 C 
ATOM     11  C   UNL A   1      30.900  27.668  24.545  1.00  0.00     0.136 C 
ATOM     12  C   UNL A   1      30.178  25.949  23.079  1.00  0.00     0.121 C 
ATOM     13  N   UNL A   1      29.885  27.275  23.571  1.00  0.00    -0.339 N 
BRANCH   9  14
ATOM     14  C   UNL A   1      33.064  26.312  24.490  1.00  0.00     0.015 C 
ATOM     15  C   UNL A   1      33.867  25.141  25.063  1.00  0.00     0.005 C 
ENDBRANCH   9  14
BRANCH  13  16
ATOM     16  C   UNL A   1      28.896  28.158  23.183  1.00  0.00     0.254 C 
ATOM     17  O   UNL A   1      27.710  27.835  23.321  1.00  0.00    -0.272 OA
BRANCH  16  18
ATOM     18  C   UNL A   1      29.263  29.523  22.504  1.00  0.00     0.144 C 
ATOM     19  C   UNL A   1      29.079  30.701  23.474  1.00  0.00     0.048 C 
ATOM     20  O   UNL A   1      28.494  29.822  21.328  1.00  0.00    -0.365 OA
ATOM     21  C   UNL A   1      30.740  29.455  22.071  1.00  0.00     0.053 C 
ATOM     22  C   UNL A   1      27.955  31.517  22.885  1.00  0.00     0.032 C 
ATOM     23  C   UNL A   1      28.018  31.170  21.416  1.00  0.00     0.162 C 
ENDBRANCH  16  18
ENDBRANCH  13  16
ENDBRANCH   6   9
ENDBRANCH   4   5
ENDBRANCH   3   4
ENDBRANCH   2   3
ENDBRANCH   1   2
BRANCH   1  24
ATOM     24  C   UNL A   1      34.765  30.958  28.007  1.00  0.00     0.021 C 
BRANCH  24  25
ATOM     25  C   UNL A   1      35.936  31.424  28.858  1.00  0.00     0.116 C 
BRANCH  25  26
ATOM     26  N   UNL A   1      35.777  31.055  30.255  1.00  0.00    -0.352 N 
ATOM     27  C   UNL A   1      36.656  30.377  31.060  1.00  0.00     0.251 C 
ATOM     28  H   UNL A   1      34.928  31.325  30.676  1.00  0.00     0.163 HD
ATOM     29  O   UNL A   1      36.298  29.961  32.160  1.00  0.00    -0.269 OA
BRANCH  27  30
ATOM     30  C   UNL A   1      38.030  30.134  30.576  1.00  0.00     0.039 A 
ATOM     31  C   UNL A   1      38.997  29.683  31.476  1.00  0.00     0.014 A 
ATOM     32  C   UNL A   1      38.348  30.318  29.226  1.00  0.00     0.014 A 
ATOM     33  C   UNL A   1      40.272  29.363  31.008  1.00  0.00     0.010 A 
ATOM     34  C   UNL A   1      39.592  29.919  28.750  1.00  0.00     0.010 A 
ATOM     35  C   UNL A   1      40.571  29.446  29.637  1.00  0.00    -0.014 A 
BRANCH  35  36
ATOM     36  C   UNL A   1      41.901  29.044  29.114  1.00  0.00     0.031 A 
ATOM     37  C   UNL A   1      43.007  30.060  29.013  1.00  0.00     0.074 A 
ATOM     38  C   UNL A   1      42.095  27.782  28.681  1.00  0.00     0.049 A 
ATOM     39  N   UNL A   1      44.215  29.919  28.532  1.00  0.00    -0.248 NA
ATOM     40  C   UNL A   1      42.710  31.421  29.490  1.00  0.00     0.031 C 
ATOM     41  C   UNL A   1      41.083  26.722  28.683  1.00  0.00     0.029 A 
ATOM     42  N   UNL A   1      43.205  27.177  28.148  1.00  0.00    -0.354 N 
ATOM     43  C   UNL A   1      44.816  31.167  28.638  1.00  0.00     0.074 A 
ATOM     44  C   UNL A   1      43.821  32.070  29.176  1.00  0.00     0.031 C 
ATOM     45  C   UNL A   1      41.626  25.593  28.200  1.00  0.00     0.029 A 
ATOM     46  C   UNL A   1      43.009  25.857  27.813  1.00  0.00     0.049 A 
ATOM     47  H   UNL A   1      44.062  27.643  28.017  1.00  0.00     0.167 HD
ATOM     48  C   UNL A   1      46.087  31.523  28.338  1.00  0.00     0.037 A 
ATOM     49  C   UNL A   1      43.845  24.963  27.248  1.00  0.00     0.037 A 
ATOM     50  C   UNL A   1      47.077  30.611  27.828  1.00  0.00     0.049 A 
ATOM     51  C   UNL A   1      45.251  25.388  26.916  1.00  0.00     0.074 A 
ATOM     52  C   UNL A   1      48.409  30.860  27.549  1.00  0.00     0.029 A 
ATOM     53  N   UNL A   1      46.845  29.279  27.518  1.00  0.00    -0.354 N 
ATOM     54  N   UNL A   1      45.822  26.557  27.088  1.00  0.00    -0.248 NA
ATOM     55  C   UNL A   1      46.129  24.373  26.320  1.00  0.00     0.031 C 
ATOM     56  C   UNL A   1      48.969  29.693  27.019  1.00  0.00     0.029 A 
ATOM     57  C   UNL A   1      48.003  28.700  27.026  1.00  0.00     0.049 A 
ATOM     58  H   UNL A   1      45.985  28.814  27.632  1.00  0.00     0.167 HD
ATOM     59  C   UNL A   1      47.134  26.407  26.653  1.00  0.00     0.074 A 
ATOM     60  C   UNL A   1      47.276  25.032  26.222  1.00  0.00     0.031 C 
ATOM     61  C   UNL A   1      48.132  27.324  26.614  1.00  0.00     0.037 A 
BRANCH  48  62
ATOM     62  C   UNL A   1      46.489  32.957  28.557  1.00  0.00     0.058 A 
ATOM     63  C   UNL A   1      46.397  33.914  27.534  1.00  0.00     0.135 A 
ATOM     64  C   UNL A   1      46.912  33.392  29.823  1.00  0.00     0.135 A 
ATOM     65  F   UNL A   1      46.014  33.552  26.298  1.00  0.00    -0.206 F 
ATOM     66  C   UNL A   1      46.726  35.248  27.753  1.00  0.00     0.059 A 
ATOM     67  C   UNL A   1      47.219  34.726  30.073  1.00  0.00     0.059 A 
ATOM     68  F   UNL A   1      47.024  32.519  30.837  1.00  0.00    -0.206 F 
ATOM     69  C   UNL A   1      47.131  35.646  29.028  1.00  0.00     0.060 A 
BRANCH  69  70
ATOM     70  S   UNL A   1      47.525  37.386  29.302  1.00  0.00     0.124 S 
ATOM     71  O   UNL A   1      46.517  38.046  28.479  1.00  0.00    -0.237 OA
ATOM     72  O   UNL A   1      47.354  37.519  30.745  1.00  0.00    -0.237 OA
ATOM     73  O   UNL A   1      48.899  37.504  28.823  1.00  0.00    -0.744 OA
ENDBRANCH  69  70
ENDBRANCH  48  62
BRANCH  49  74
ATOM     74  C   UNL A   1      43.383  23.576  26.969  1.00  0.00     0.058 A 
ATOM     75  C   UNL A   1      43.227  22.642  28.004  1.00  0.00     0.135 A 
ATOM     76  C   UNL A   1      43.098  23.152  25.661  1.00  0.00     0.135 A 
ATOM     77  F   UNL A   1      43.492  22.996  29.272  1.00  0.00    -0.206 F 
ATOM     78  C   UNL A   1      42.836  21.331  27.753  1.00  0.00     0.059 A 
ATOM     79  C   UNL A   1      42.675  21.856  25.387  1.00  0.00     0.059 A 
ATOM     80  F   UNL A   1      43.212  24.010  24.635  1.00  0.00    -0.206 F 
ATOM     81  C   UNL A   1      42.563  20.946  26.438  1.00  0.00     0.060 A 
BRANCH  81  82
ATOM     82  S   UNL A   1      42.035  19.248  26.125  1.00  0.00     0.124 S 
ATOM     83  O   UNL A   1      40.601  19.419  25.927  1.00  0.00    -0.237 OA
ATOM     84  O   UNL A   1      42.809  18.902  24.937  1.00  0.00    -0.237 OA
ATOM     85  O   UNL A   1      42.425  18.546  27.345  1.00  0.00    -0.744 OA
ENDBRANCH  81  82
ENDBRANCH  49  74
BRANCH  61  86
ATOM     86  C   UNL A   1      49.480  26.865  26.131  1.00  0.00     0.058 A 
ATOM     87  C   UNL A   1      49.899  27.056  24.805  1.00  0.00     0.135 A 
ATOM     88  C   UNL A   1      50.389  26.274  27.026  1.00  0.00     0.135 A 
ATOM     89  F   UNL A   1      49.069  27.612  23.908  1.00  0.00    -0.206 F 
ATOM     90  C   UNL A   1      51.160  26.655  24.377  1.00  0.00     0.059 A 
ATOM     91  C   UNL A   1      51.666  25.894  26.627  1.00  0.00     0.059 A 
ATOM     92  F   UNL A   1      50.044  26.078  28.309  1.00  0.00    -0.206 F 
ATOM     93  C   UNL A   1      52.039  26.078  25.297  1.00  0.00     0.060 A 
BRANCH  93  94
ATOM     94  S   UNL A   1      53.684  25.596  24.734  1.00  0.00     0.124 S 
ATOM     95  O   UNL A   1      53.676  26.072  23.355  1.00  0.00    -0.237 OA
ATOM     96  O   UNL A   1      54.553  26.327  25.652  1.00  0.00    -0.237 OA
ATOM     97  O   UNL A   1      53.689  24.145  24.898  1.00  0.00    -0.744 OA
ENDBRANCH  93  94
ENDBRANCH  61  86
ENDBRANCH  35  36
ENDBRANCH  27  30
ENDBRANCH  25  26
ENDBRANCH  24  25
ENDBRANCH   1  24
TORSDOF 19
ENDMDL
MODEL 3
REMARK VINA RESULT:     -10.1      3.074      3.860
REMARK SMILES CC[C@]1(C(=O)NCCCCCCNC(=O)c2ccc(-c3c4nc(c(-c5c(F)cc(S(=O)(=O)[O-])cc5F)c5ccc([nH]5)c(-c5c(F)cc(S(=O)(=O)[O-])cc5F)c5nc(c(-c6c(F)cc(S(=O)(=O)[O-])cc6F)c6ccc3[nH]6)C=C5)C=C4)cc2)CCN(C(=O)[C@]2(C)CCCO2)C1
REMARK SMILES IDX 10 1 9 2 8 3 7 4 6 5 4 6 5 7 3 9 82 10 93 11 83 12 84 13
REMARK SMILES IDX 2 14 1 15 85 16 86 17 87 18 89 19 92 20 88 21 90 22 91 23
REMARK SMILES IDX 11 24 12 25 13 26 14 27 15 29 16 30 17 31 81 32 18 33 80 34
REMARK SMILES IDX 19 35 20 36 21 37 74 38 22 39 79 40 73 41 75 42 23 43 78 44
REMARK SMILES IDX 72 45 71 46 24 48 58 49 37 50 57 51 38 52 41 53 56 54 76 55
REMARK SMILES IDX 39 56 40 57 55 59 77 60 42 61 25 62 26 63 35 64 27 65 28 66
REMARK SMILES IDX 34 67 36 68 29 69 30 70 31 71 32 72 33 73 59 74 60 75 69 76
REMARK SMILES IDX 61 77 62 78 68 79 70 80 63 81 64 82 65 83 66 84 67 85 43 86
REMARK SMILES IDX 44 87 53 88 45 89 46 90 52 91 54 92 47 93 48 94 49 95 50 96
REMARK SMILES IDX 51 97
REMARK H PARENT 6 8 13 28 75 47 41 58
REMARK Flexibility Score: inf
ROOT
ATOM      1  C   UNL A   1      33.766  29.281  26.525  1.00  0.00     0.002 C 
ENDROOT
BRANCH   1   2
ATOM      2  C   UNL A   1      32.495  29.460  25.690  1.00  0.00     0.002 C 
BRANCH   2   3
ATOM      3  C   UNL A   1      32.689  29.370  24.167  1.00  0.00     0.021 C 
BRANCH   3   4
ATOM      4  C   UNL A   1      33.457  28.134  23.691  1.00  0.00     0.116 C 
BRANCH   4   5
ATOM      5  N   UNL A   1      32.763  27.514  22.579  1.00  0.00    -0.356 N 
ATOM      6  C   UNL A   1      33.089  26.314  22.041  1.00  0.00     0.228 C 
ATOM      7  O   UNL A   1      33.386  26.289  20.843  1.00  0.00    -0.274 OA
ATOM      8  H   UNL A   1      32.001  27.999  22.188  1.00  0.00     0.163 HD
BRANCH   6   9
ATOM      9  C   UNL A   1      33.006  25.036  22.877  1.00  0.00     0.068 C 
ATOM     10  C   UNL A   1      32.780  23.832  21.943  1.00  0.00     0.040 C 
ATOM     11  C   UNL A   1      34.271  24.649  23.677  1.00  0.00     0.136 C 
ATOM     12  C   UNL A   1      33.417  22.671  22.683  1.00  0.00     0.121 C 
ATOM     13  N   UNL A   1      34.581  23.274  23.290  1.00  0.00    -0.339 N 
BRANCH   9  14
ATOM     14  C   UNL A   1      31.786  25.220  23.820  1.00  0.00     0.015 C 
ATOM     15  C   UNL A   1      30.457  24.785  23.196  1.00  0.00     0.005 C 
ENDBRANCH   9  14
BRANCH  13  16
ATOM     16  C   UNL A   1      35.803  22.709  23.600  1.00  0.00     0.254 C 
ATOM     17  O   UNL A   1      36.745  22.838  22.809  1.00  0.00    -0.272 OA
BRANCH  16  18
ATOM     18  C   UNL A   1      35.981  21.849  24.899  1.00  0.00     0.144 C 
ATOM     19  C   UNL A   1      35.105  20.586  24.860  1.00  0.00     0.048 C 
ATOM     20  O   UNL A   1      35.663  22.546  26.115  1.00  0.00    -0.365 OA
ATOM     21  C   UNL A   1      37.461  21.431  24.992  1.00  0.00     0.053 C 
ATOM     22  C   UNL A   1      34.102  20.776  25.971  1.00  0.00     0.032 C 
ATOM     23  C   UNL A   1      34.815  21.714  26.916  1.00  0.00     0.162 C 
ENDBRANCH  16  18
ENDBRANCH  13  16
ENDBRANCH   6   9
ENDBRANCH   4   5
ENDBRANCH   3   4
ENDBRANCH   2   3
ENDBRANCH   1   2
BRANCH   1  24
ATOM     24  C   UNL A   1      34.052  30.417  27.504  1.00  0.00     0.021 C 
BRANCH  24  25
ATOM     25  C   UNL A   1      35.461  30.401  28.077  1.00  0.00     0.116 C 
BRANCH  25  26
ATOM     26  N   UNL A   1      35.501  30.905  29.440  1.00  0.00    -0.352 N 
ATOM     27  C   UNL A   1      36.496  30.756  30.371  1.00  0.00     0.251 C 
ATOM     28  H   UNL A   1      34.712  31.418  29.732  1.00  0.00     0.163 HD
ATOM     29  O   UNL A   1      36.301  31.064  31.545  1.00  0.00    -0.269 OA
BRANCH  27  30
ATOM     30  C   UNL A   1      37.797  30.198  29.948  1.00  0.00     0.039 A 
ATOM     31  C   UNL A   1      38.134  30.212  28.594  1.00  0.00     0.014 A 
ATOM     32  C   UNL A   1      38.694  29.696  30.897  1.00  0.00     0.014 A 
ATOM     33  C   UNL A   1      39.397  29.772  28.197  1.00  0.00     0.010 A 
ATOM     34  C   UNL A   1      39.980  29.337  30.508  1.00  0.00     0.010 A 
ATOM     35  C   UNL A   1      40.342  29.362  29.154  1.00  0.00    -0.014 A 
BRANCH  35  36
ATOM     36  C   UNL A   1      41.714  28.956  28.754  1.00  0.00     0.031 A 
ATOM     37  C   UNL A   1      42.816  29.980  28.704  1.00  0.00     0.074 A 
ATOM     38  C   UNL A   1      41.952  27.681  28.385  1.00  0.00     0.049 A 
ATOM     39  N   UNL A   1      44.060  29.834  28.326  1.00  0.00    -0.248 NA
ATOM     40  C   UNL A   1      42.471  31.354  29.106  1.00  0.00     0.031 C 
ATOM     41  C   UNL A   1      40.950  26.612  28.345  1.00  0.00     0.029 A 
ATOM     42  N   UNL A   1      43.105  27.070  27.964  1.00  0.00    -0.354 N 
ATOM     43  C   UNL A   1      44.640  31.092  28.434  1.00  0.00     0.074 A 
ATOM     44  C   UNL A   1      43.599  32.003  28.858  1.00  0.00     0.031 C 
ATOM     45  C   UNL A   1      41.540  25.472  27.947  1.00  0.00     0.029 A 
ATOM     46  C   UNL A   1      42.947  25.736  27.662  1.00  0.00     0.049 A 
ATOM     47  H   UNL A   1      43.966  27.540  27.884  1.00  0.00     0.167 HD
ATOM     48  C   UNL A   1      45.928  31.451  28.223  1.00  0.00     0.037 A 
ATOM     49  C   UNL A   1      43.832  24.832  27.198  1.00  0.00     0.037 A 
ATOM     50  C   UNL A   1      46.963  30.532  27.827  1.00  0.00     0.049 A 
ATOM     51  C   UNL A   1      45.257  25.261  26.964  1.00  0.00     0.074 A 
ATOM     52  C   UNL A   1      48.311  30.785  27.646  1.00  0.00     0.029 A 
ATOM     53  N   UNL A   1      46.767  29.187  27.549  1.00  0.00    -0.354 N 
ATOM     54  N   UNL A   1      45.803  26.440  27.138  1.00  0.00    -0.248 NA
ATOM     55  C   UNL A   1      46.188  24.234  26.478  1.00  0.00     0.031 C 
ATOM     56  C   UNL A   1      48.921  29.606  27.205  1.00  0.00     0.029 A 
ATOM     57  C   UNL A   1      47.966  28.603  27.172  1.00  0.00     0.049 A 
ATOM     58  H   UNL A   1      45.905  28.717  27.611  1.00  0.00     0.167 HD
ATOM     59  C   UNL A   1      47.147  26.289  26.815  1.00  0.00     0.074 A 
ATOM     60  C   UNL A   1      47.333  24.901  26.447  1.00  0.00     0.031 C 
ATOM     61  C   UNL A   1      48.138  27.215  26.822  1.00  0.00     0.037 A 
BRANCH  48  62
ATOM     62  C   UNL A   1      46.300  32.896  28.421  1.00  0.00     0.058 A 
ATOM     63  C   UNL A   1      46.741  33.381  29.662  1.00  0.00     0.135 A 
ATOM     64  C   UNL A   1      46.275  33.792  27.340  1.00  0.00     0.135 A 
ATOM     65  F   UNL A   1      46.768  32.574  30.735  1.00  0.00    -0.206 F 
ATOM     66  C   UNL A   1      47.126  34.707  29.830  1.00  0.00     0.059 A 
ATOM     67  C   UNL A   1      46.685  35.115  27.477  1.00  0.00     0.059 A 
ATOM     68  F   UNL A   1      45.858  33.383  26.131  1.00  0.00    -0.206 F 
ATOM     69  C   UNL A   1      47.101  35.566  28.730  1.00  0.00     0.060 A 
BRANCH  69  70
ATOM     70  S   UNL A   1      47.634  37.275  28.959  1.00  0.00     0.124 S 
ATOM     71  O   UNL A   1      46.817  37.685  30.096  1.00  0.00    -0.237 OA
ATOM     72  O   UNL A   1      49.061  37.121  29.225  1.00  0.00    -0.237 OA
ATOM     73  O   UNL A   1      47.301  37.910  27.687  1.00  0.00    -0.744 OA
ENDBRANCH  69  70
ENDBRANCH  48  62
BRANCH  49  74
ATOM     74  C   UNL A   1      43.405  23.432  26.935  1.00  0.00     0.058 A 
ATOM     75  C   UNL A   1      43.207  22.968  25.625  1.00  0.00     0.135 A 
ATOM     76  C   UNL A   1      43.174  22.530  27.986  1.00  0.00     0.135 A 
ATOM     77  F   UNL A   1      43.409  23.793  24.585  1.00  0.00    -0.206 F 
ATOM     78  C   UNL A   1      42.767  21.674  25.366  1.00  0.00     0.059 A 
ATOM     79  C   UNL A   1      42.764  21.221  27.751  1.00  0.00     0.059 A 
ATOM     80  F   UNL A   1      43.366  22.914  29.257  1.00  0.00    -0.206 F 
ATOM     81  C   UNL A   1      42.548  20.807  26.438  1.00  0.00     0.060 A 
BRANCH  81  82
ATOM     82  S   UNL A   1      41.998  19.122  26.090  1.00  0.00     0.124 S 
ATOM     83  O   UNL A   1      40.561  19.309  25.936  1.00  0.00    -0.237 OA
ATOM     84  O   UNL A   1      42.737  18.806  24.871  1.00  0.00    -0.237 OA
ATOM     85  O   UNL A   1      42.416  18.382  27.278  1.00  0.00    -0.744 OA
ENDBRANCH  81  82
ENDBRANCH  49  74
BRANCH  61  86
ATOM     86  C   UNL A   1      49.524  26.753  26.465  1.00  0.00     0.058 A 
ATOM     87  C   UNL A   1      50.366  26.137  27.404  1.00  0.00     0.135 A 
ATOM     88  C   UNL A   1      49.994  26.880  25.147  1.00  0.00     0.135 A 
ATOM     89  F   UNL A   1      49.968  25.995  28.678  1.00  0.00    -0.206 F 
ATOM     90  C   UNL A   1      51.635  25.685  27.055  1.00  0.00     0.059 A 
ATOM     91  C   UNL A   1      51.246  26.407  24.769  1.00  0.00     0.059 A 
ATOM     92  F   UNL A   1      49.225  27.451  24.206  1.00  0.00    -0.206 F 
ATOM     93  C   UNL A   1      52.064  25.821  25.733  1.00  0.00     0.060 A 
BRANCH  93  94
ATOM     94  S   UNL A   1      53.698  25.197  25.288  1.00  0.00     0.124 S 
ATOM     95  O   UNL A   1      53.497  23.755  25.375  1.00  0.00    -0.237 OA
ATOM     96  O   UNL A   1      53.879  25.732  23.941  1.00  0.00    -0.237 OA
ATOM     97  O   UNL A   1      54.572  25.773  26.306  1.00  0.00    -0.744 OA
ENDBRANCH  93  94
ENDBRANCH  61  86
ENDBRANCH  35  36
ENDBRANCH  27  30
ENDBRANCH  25  26
ENDBRANCH  24  25
ENDBRANCH   1  24
TORSDOF 19
ENDMDL
