MODEL 1
REMARK VINA RESULT:     -11.8      0.000      0.000
REMARK SMILES O=C(NCCCCCCNC(=O)C1CCN(S(=O)(=O)c2ccc3nc(O)sc3c2)CC1)c1ccc(-c2c3nc(c(-c4c(F)cc(S(=O)(=O)[O-])cc4F)c4ccc([nH]4)c(-c4c(F)cc(S(=O)(=O)[O-])cc4F)c4nc(c(-c5c(F)cc(S(=O)(=O)[O-])cc5F)c5ccc2[nH]5)C=C4)C=C3)cc1
REMARK SMILES IDX 6 1 5 2 4 3 3 4 1 5 2 6 32 8 33 9 97 10 34 11 96 12 35 13
REMARK SMILES IDX 36 14 37 15 90 16 38 17 95 18 89 19 91 20 39 21 94 22 88 23
REMARK SMILES IDX 87 24 40 26 74 27 53 28 73 29 54 30 57 31 72 32 92 33 55 34
REMARK SMILES IDX 56 35 71 37 93 38 58 39 41 40 42 41 51 42 43 43 44 44 50 45
REMARK SMILES IDX 52 46 45 47 46 48 47 49 48 50 49 51 75 52 76 53 85 54 77 55
REMARK SMILES IDX 78 56 84 57 86 58 79 59 80 60 81 61 82 62 83 63 59 64 60 65
REMARK SMILES IDX 69 66 61 67 62 68 68 69 70 70 63 71 64 72 65 73 66 74 67 75
REMARK SMILES IDX 7 76 8 77 9 78 10 79 11 80 12 82 13 83 14 84 31 85 15 86
REMARK SMILES IDX 30 87 16 88 17 89 18 90 19 91 20 92 21 93 29 94 22 95 28 96
REMARK SMILES IDX 23 97 27 98 24 99 25 100 26 101
REMARK H PARENT 3 7 91 25 57 36 10 81 26 102
REMARK Flexibility Score: inf
ROOT
ATOM      1  C   UNL A   1      46.322  21.661  36.612  1.00  0.00     0.002 C 
ENDROOT
BRANCH   1   2
ATOM      2  C   UNL A   1      45.301  21.043  35.638  1.00  0.00     0.021 C 
BRANCH   2   3
ATOM      3  C   UNL A   1      44.539  22.041  34.746  1.00  0.00     0.116 C 
BRANCH   3   4
ATOM      4  N   UNL A   1      43.965  23.094  35.563  1.00  0.00    -0.352 N 
ATOM      5  O   UNL A   1      44.064  24.994  36.702  1.00  0.00    -0.269 OA
ATOM      6  C   UNL A   1      44.220  24.435  35.614  1.00  0.00     0.251 C 
ATOM      7  H   UNL A   1      43.271  22.788  36.190  1.00  0.00     0.163 HD
BRANCH   6   8
ATOM      8  C   UNL A   1      44.587  25.251  34.430  1.00  0.00     0.039 A 
ATOM      9  C   UNL A   1      43.776  25.114  33.292  1.00  0.00     0.014 A 
ATOM     10  C   UNL A   1      45.788  25.959  34.328  1.00  0.00     0.014 A 
ATOM     11  C   UNL A   1      44.164  25.654  32.064  1.00  0.00     0.010 A 
ATOM     12  C   UNL A   1      46.174  26.505  33.093  1.00  0.00     0.010 A 
ATOM     13  C   UNL A   1      45.371  26.350  31.952  1.00  0.00    -0.014 A 
BRANCH  13  14
ATOM     14  C   UNL A   1      45.681  26.988  30.648  1.00  0.00     0.031 A 
ATOM     15  C   UNL A   1      45.620  26.055  29.482  1.00  0.00     0.074 A 
ATOM     16  C   UNL A   1      45.548  28.321  30.438  1.00  0.00     0.049 A 
ATOM     17  N   UNL A   1      44.489  25.692  28.954  1.00  0.00    -0.248 NA
ATOM     18  C   UNL A   1      46.759  25.261  29.024  1.00  0.00     0.031 C 
ATOM     19  C   UNL A   1      44.564  29.151  31.145  1.00  0.00     0.029 A 
ATOM     20  N   UNL A   1      46.044  29.160  29.458  1.00  0.00    -0.354 N 
ATOM     21  C   UNL A   1      44.739  24.622  28.115  1.00  0.00     0.074 A 
ATOM     22  C   UNL A   1      46.165  24.391  28.188  1.00  0.00     0.031 C 
ATOM     23  C   UNL A   1      44.407  30.311  30.474  1.00  0.00     0.029 A 
ATOM     24  C   UNL A   1      45.368  30.384  29.371  1.00  0.00     0.049 A 
ATOM     25  H   UNL A   1      46.801  28.920  28.876  1.00  0.00     0.167 HD
ATOM     26  C   UNL A   1      43.748  24.005  27.416  1.00  0.00     0.037 A 
ATOM     27  C   UNL A   1      45.107  31.061  28.213  1.00  0.00     0.037 A 
ATOM     28  C   UNL A   1      42.437  24.556  27.608  1.00  0.00     0.049 A 
ATOM     29  C   UNL A   1      44.174  30.103  27.516  1.00  0.00     0.074 A 
ATOM     30  C   UNL A   1      41.319  24.294  28.366  1.00  0.00     0.029 A 
ATOM     31  N   UNL A   1      42.135  25.717  26.935  1.00  0.00    -0.354 N 
ATOM     32  N   UNL A   1      42.909  29.930  27.790  1.00  0.00    -0.248 NA
ATOM     33  C   UNL A   1      44.784  29.035  26.723  1.00  0.00     0.031 C 
ATOM     34  C   UNL A   1      40.628  25.545  28.468  1.00  0.00     0.029 A 
ATOM     35  C   UNL A   1      41.389  26.492  27.785  1.00  0.00     0.049 A 
ATOM     36  H   UNL A   1      42.403  25.948  26.016  1.00  0.00     0.167 HD
ATOM     37  C   UNL A   1      42.633  28.608  27.440  1.00  0.00     0.074 A 
ATOM     38  C   UNL A   1      43.829  28.117  26.783  1.00  0.00     0.031 C 
ATOM     39  C   UNL A   1      41.524  27.931  27.855  1.00  0.00     0.037 A 
BRANCH  26  40
ATOM     40  C   UNL A   1      43.950  23.001  26.351  1.00  0.00     0.058 A 
ATOM     41  C   UNL A   1      43.373  21.735  26.542  1.00  0.00     0.135 A 
ATOM     42  C   UNL A   1      44.868  23.158  25.307  1.00  0.00     0.135 A 
ATOM     43  F   UNL A   1      42.497  21.543  27.544  1.00  0.00    -0.206 F 
ATOM     44  C   UNL A   1      43.730  20.645  25.766  1.00  0.00     0.059 A 
ATOM     45  C   UNL A   1      45.235  22.077  24.504  1.00  0.00     0.059 A 
ATOM     46  F   UNL A   1      45.457  24.345  25.094  1.00  0.00    -0.206 F 
ATOM     47  C   UNL A   1      44.679  20.820  24.759  1.00  0.00     0.060 A 
BRANCH  47  48
ATOM     48  S   UNL A   1      45.195  19.360  23.830  1.00  0.00     0.124 S 
ATOM     49  O   UNL A   1      46.639  19.556  23.740  1.00  0.00    -0.237 OA
ATOM     50  O   UNL A   1      44.753  18.278  24.701  1.00  0.00    -0.237 OA
ATOM     51  O   UNL A   1      44.467  19.486  22.570  1.00  0.00    -0.744 OA
ENDBRANCH  47  48
ENDBRANCH  26  40
BRANCH  27  52
ATOM     52  C   UNL A   1      46.250  31.733  27.508  1.00  0.00     0.058 A 
ATOM     53  C   UNL A   1      46.042  32.998  26.923  1.00  0.00     0.135 A 
ATOM     54  C   UNL A   1      47.537  31.189  27.343  1.00  0.00     0.135 A 
ATOM     55  F   UNL A   1      44.813  33.538  26.896  1.00  0.00    -0.206 F 
ATOM     56  C   UNL A   1      47.077  33.744  26.361  1.00  0.00     0.059 A 
ATOM     57  C   UNL A   1      48.598  31.925  26.811  1.00  0.00     0.059 A 
ATOM     58  F   UNL A   1      47.808  29.930  27.713  1.00  0.00    -0.206 F 
ATOM     59  C   UNL A   1      48.366  33.218  26.356  1.00  0.00     0.060 A 
BRANCH  59  60
ATOM     60  S   UNL A   1      49.725  34.274  25.814  1.00  0.00     0.124 S 
ATOM     61  O   UNL A   1      50.277  34.737  27.083  1.00  0.00    -0.237 OA
ATOM     62  O   UNL A   1      50.553  33.330  25.067  1.00  0.00    -0.237 OA
ATOM     63  O   UNL A   1      49.064  35.293  25.005  1.00  0.00    -0.744 OA
ENDBRANCH  59  60
ENDBRANCH  27  52
BRANCH  39  64
ATOM     64  C   UNL A   1      40.503  28.724  28.601  1.00  0.00     0.058 A 
ATOM     65  C   UNL A   1      39.470  29.370  27.910  1.00  0.00     0.135 A 
ATOM     66  C   UNL A   1      40.482  28.765  30.006  1.00  0.00     0.135 A 
ATOM     67  F   UNL A   1      39.441  29.359  26.568  1.00  0.00    -0.206 F 
ATOM     68  C   UNL A   1      38.421  29.983  28.587  1.00  0.00     0.059 A 
ATOM     69  C   UNL A   1      39.430  29.354  30.702  1.00  0.00     0.059 A 
ATOM     70  F   UNL A   1      41.457  28.181  30.724  1.00  0.00    -0.206 F 
ATOM     71  C   UNL A   1      38.393  29.945  29.982  1.00  0.00     0.060 A 
BRANCH  71  72
ATOM     72  S   UNL A   1      36.933  30.585  30.830  1.00  0.00     0.124 S 
ATOM     73  O   UNL A   1      36.682  29.553  31.829  1.00  0.00    -0.237 OA
ATOM     74  O   UNL A   1      37.416  31.863  31.346  1.00  0.00    -0.237 OA
ATOM     75  O   UNL A   1      35.936  30.687  29.768  1.00  0.00    -0.744 OA
ENDBRANCH  71  72
ENDBRANCH  39  64
ENDBRANCH  13  14
ENDBRANCH   6   8
ENDBRANCH   3   4
ENDBRANCH   2   3
ENDBRANCH   1   2
BRANCH   1  76
ATOM     76  C   UNL A   1      46.678  20.819  37.845  1.00  0.00     0.002 C 
BRANCH  76  77
ATOM     77  C   UNL A   1      46.768  19.311  37.610  1.00  0.00     0.021 C 
BRANCH  77  78
ATOM     78  C   UNL A   1      45.587  18.501  38.133  1.00  0.00     0.116 C 
BRANCH  78  79
ATOM     79  N   UNL A   1      45.983  17.297  38.840  1.00  0.00    -0.356 N 
ATOM     80  C   UNL A   1      46.638  17.040  39.997  1.00  0.00     0.223 C 
ATOM     81  H   UNL A   1      45.714  16.476  38.369  1.00  0.00     0.163 HD
ATOM     82  O   UNL A   1      46.659  15.845  40.328  1.00  0.00    -0.275 OA
BRANCH  80  83
ATOM     83  C   UNL A   1      47.399  18.056  40.869  1.00  0.00     0.081 C 
ATOM     84  C   UNL A   1      47.791  17.385  42.200  1.00  0.00     0.030 C 
ATOM     85  C   UNL A   1      46.795  19.393  41.257  1.00  0.00     0.030 C 
ATOM     86  C   UNL A   1      46.559  17.155  43.075  1.00  0.00     0.103 C 
ATOM     87  C   UNL A   1      45.548  19.224  42.111  1.00  0.00     0.103 C 
ATOM     88  N   UNL A   1      45.804  18.432  43.346  1.00  0.00    -0.198 NA
BRANCH  88  89
ATOM     89  S   UNL A   1      44.354  18.067  44.235  1.00  0.00     0.243 S 
ATOM     90  O   UNL A   1      44.738  17.784  45.600  1.00  0.00    -0.207 OA
ATOM     91  O   UNL A   1      43.391  19.111  43.938  1.00  0.00    -0.207 OA
BRANCH  89  92
ATOM     92  C   UNL A   1      43.739  16.543  43.539  1.00  0.00     0.084 A 
ATOM     93  C   UNL A   1      43.503  15.456  44.388  1.00  0.00     0.024 A 
ATOM     94  C   UNL A   1      43.372  16.499  42.189  1.00  0.00     0.043 A 
ATOM     95  C   UNL A   1      42.961  14.271  43.885  1.00  0.00     0.031 A 
ATOM     96  C   UNL A   1      42.784  15.314  41.711  1.00  0.00     0.059 A 
ATOM     97  C   UNL A   1      42.584  14.196  42.530  1.00  0.00     0.085 A 
ATOM     98  S   UNL A   1      42.184  14.954  40.133  1.00  0.00    -0.077 S 
ATOM     99  N   UNL A   1      42.000  13.102  41.915  1.00  0.00    -0.203 NA
ATOM    100  C   UNL A   1      41.748  13.404  40.671  1.00  0.00     0.271 A 
BRANCH 100 101
ATOM    101  O   UNL A   1      41.172  12.505  39.898  1.00  0.00    -0.486 OA
ATOM    102  H   UNL A   1      40.752  12.769  39.103  1.00  0.00     0.296 HD
ENDBRANCH 100 101
ENDBRANCH  89  92
ENDBRANCH  88  89
ENDBRANCH  80  83
ENDBRANCH  78  79
ENDBRANCH  77  78
ENDBRANCH  76  77
ENDBRANCH   1  76
TORSDOF 19
ENDMDL
MODEL 2
REMARK VINA RESULT:     -11.8      7.740     13.670
REMARK SMILES O=C(NCCCCCCNC(=O)C1CCN(S(=O)(=O)c2ccc3nc(O)sc3c2)CC1)c1ccc(-c2c3nc(c(-c4c(F)cc(S(=O)(=O)[O-])cc4F)c4ccc([nH]4)c(-c4c(F)cc(S(=O)(=O)[O-])cc4F)c4nc(c(-c5c(F)cc(S(=O)(=O)[O-])cc5F)c5ccc2[nH]5)C=C4)C=C3)cc1
REMARK SMILES IDX 6 1 5 2 4 3 3 4 1 5 2 6 32 8 33 9 97 10 34 11 96 12 35 13
REMARK SMILES IDX 36 14 37 15 90 16 38 17 95 18 89 19 91 20 39 21 94 22 88 23
REMARK SMILES IDX 87 24 40 26 74 27 53 28 73 29 54 30 57 31 72 32 92 33 55 34
REMARK SMILES IDX 56 35 71 37 93 38 58 39 41 40 42 41 51 42 43 43 44 44 50 45
REMARK SMILES IDX 52 46 45 47 46 48 47 49 48 50 49 51 75 52 76 53 85 54 77 55
REMARK SMILES IDX 78 56 84 57 86 58 79 59 80 60 81 61 82 62 83 63 59 64 60 65
REMARK SMILES IDX 69 66 61 67 62 68 68 69 70 70 63 71 64 72 65 73 66 74 67 75
REMARK SMILES IDX 7 76 8 77 9 78 10 79 11 80 12 82 13 83 14 84 31 85 15 86
REMARK SMILES IDX 30 87 16 88 17 89 18 90 19 91 20 92 21 93 29 94 22 95 28 96
REMARK SMILES IDX 23 97 27 98 24 99 25 100 26 101
REMARK H PARENT 3 7 91 25 57 36 10 81 26 102
REMARK Flexibility Score: inf
ROOT
ATOM      1  C   UNL A   1      32.444  30.097  25.484  1.00  0.00     0.002 C 
ENDROOT
BRANCH   1   2
ATOM      2  C   UNL A   1      32.436  30.307  27.010  1.00  0.00     0.021 C 
BRANCH   2   3
ATOM      3  C   UNL A   1      33.817  30.483  27.668  1.00  0.00     0.116 C 
BRANCH   3   4
ATOM      4  N   UNL A   1      34.412  31.734  27.238  1.00  0.00    -0.352 N 
ATOM      5  O   UNL A   1      35.271  33.746  27.599  1.00  0.00    -0.269 OA
ATOM      6  C   UNL A   1      35.347  32.537  27.828  1.00  0.00     0.251 C 
ATOM      7  H   UNL A   1      34.086  32.061  26.369  1.00  0.00     0.163 HD
BRANCH   6   8
ATOM      8  C   UNL A   1      36.475  32.027  28.647  1.00  0.00     0.039 A 
ATOM      9  C   UNL A   1      37.281  31.035  28.065  1.00  0.00     0.014 A 
ATOM     10  C   UNL A   1      36.633  32.323  30.003  1.00  0.00     0.014 A 
ATOM     11  C   UNL A   1      38.214  30.330  28.827  1.00  0.00     0.010 A 
ATOM     12  C   UNL A   1      37.576  31.616  30.768  1.00  0.00     0.010 A 
ATOM     13  C   UNL A   1      38.367  30.610  30.188  1.00  0.00    -0.014 A 
BRANCH  13  14
ATOM     14  C   UNL A   1      39.446  29.902  30.922  1.00  0.00     0.031 A 
ATOM     15  C   UNL A   1      39.611  28.468  30.530  1.00  0.00     0.074 A 
ATOM     16  C   UNL A   1      40.482  30.553  31.505  1.00  0.00     0.049 A 
ATOM     17  N   UNL A   1      40.226  28.124  29.438  1.00  0.00    -0.248 NA
ATOM     18  C   UNL A   1      38.874  27.371  31.155  1.00  0.00     0.031 C 
ATOM     19  C   UNL A   1      41.015  31.827  31.001  1.00  0.00     0.029 A 
ATOM     20  N   UNL A   1      41.400  30.167  32.462  1.00  0.00    -0.354 N 
ATOM     21  C   UNL A   1      39.959  26.789  29.206  1.00  0.00     0.074 A 
ATOM     22  C   UNL A   1      39.117  26.360  30.302  1.00  0.00     0.031 C 
ATOM     23  C   UNL A   1      42.240  32.027  31.528  1.00  0.00     0.029 A 
ATOM     24  C   UNL A   1      42.538  30.983  32.512  1.00  0.00     0.049 A 
ATOM     25  H   UNL A   1      41.267  29.391  33.055  1.00  0.00     0.167 HD
ATOM     26  C   UNL A   1      40.456  26.129  28.125  1.00  0.00     0.037 A 
ATOM     27  C   UNL A   1      43.811  30.548  32.759  1.00  0.00     0.037 A 
ATOM     28  C   UNL A   1      41.282  26.921  27.259  1.00  0.00     0.049 A 
ATOM     29  C   UNL A   1      44.064  29.676  31.556  1.00  0.00     0.074 A 
ATOM     30  C   UNL A   1      41.152  27.626  26.084  1.00  0.00     0.029 A 
ATOM     31  N   UNL A   1      42.577  27.155  27.661  1.00  0.00    -0.354 N 
ATOM     32  N   UNL A   1      44.359  30.096  30.354  1.00  0.00    -0.248 NA
ATOM     33  C   UNL A   1      43.605  28.289  31.627  1.00  0.00     0.031 C 
ATOM     34  C   UNL A   1      42.196  28.606  26.113  1.00  0.00     0.029 A 
ATOM     35  C   UNL A   1      42.876  28.449  27.319  1.00  0.00     0.049 A 
ATOM     36  H   UNL A   1      43.175  26.515  28.110  1.00  0.00     0.167 HD
ATOM     37  C   UNL A   1      43.866  29.119  29.490  1.00  0.00     0.074 A 
ATOM     38  C   UNL A   1      43.421  28.030  30.340  1.00  0.00     0.031 C 
ATOM     39  C   UNL A   1      43.683  29.313  28.153  1.00  0.00     0.037 A 
BRANCH  26  40
ATOM     40  C   UNL A   1      40.393  24.668  27.910  1.00  0.00     0.058 A 
ATOM     41  C   UNL A   1      41.491  23.906  28.342  1.00  0.00     0.135 A 
ATOM     42  C   UNL A   1      39.437  24.049  27.099  1.00  0.00     0.135 A 
ATOM     43  F   UNL A   1      42.437  24.472  29.111  1.00  0.00    -0.206 F 
ATOM     44  C   UNL A   1      41.671  22.592  27.941  1.00  0.00     0.059 A 
ATOM     45  C   UNL A   1      39.589  22.722  26.692  1.00  0.00     0.059 A 
ATOM     46  F   UNL A   1      38.377  24.740  26.649  1.00  0.00    -0.206 F 
ATOM     47  C   UNL A   1      40.724  22.012  27.097  1.00  0.00     0.060 A 
BRANCH  47  48
ATOM     48  S   UNL A   1      41.035  20.332  26.515  1.00  0.00     0.124 S 
ATOM     49  O   UNL A   1      41.329  19.631  27.761  1.00  0.00    -0.237 OA
ATOM     50  O   UNL A   1      39.767  19.995  25.878  1.00  0.00    -0.237 OA
ATOM     51  O   UNL A   1      42.167  20.493  25.606  1.00  0.00    -0.744 OA
ENDBRANCH  47  48
ENDBRANCH  26  40
BRANCH  27  52
ATOM     52  C   UNL A   1      44.156  30.119  34.156  1.00  0.00     0.058 A 
ATOM     53  C   UNL A   1      45.470  30.318  34.626  1.00  0.00     0.135 A 
ATOM     54  C   UNL A   1      43.276  29.488  35.054  1.00  0.00     0.135 A 
ATOM     55  F   UNL A   1      46.423  30.776  33.799  1.00  0.00    -0.206 F 
ATOM     56  C   UNL A   1      45.841  30.064  35.946  1.00  0.00     0.059 A 
ATOM     57  C   UNL A   1      43.613  29.249  36.389  1.00  0.00     0.059 A 
ATOM     58  F   UNL A   1      42.053  29.100  34.667  1.00  0.00    -0.206 F 
ATOM     59  C   UNL A   1      44.888  29.575  36.835  1.00  0.00     0.060 A 
BRANCH  59  60
ATOM     60  S   UNL A   1      45.326  29.446  38.581  1.00  0.00     0.124 S 
ATOM     61  O   UNL A   1      44.965  28.066  38.886  1.00  0.00    -0.237 OA
ATOM     62  O   UNL A   1      46.757  29.737  38.549  1.00  0.00    -0.237 OA
ATOM     63  O   UNL A   1      44.500  30.468  39.216  1.00  0.00    -0.744 OA
ENDBRANCH  59  60
ENDBRANCH  27  52
BRANCH  39  64
ATOM     64  C   UNL A   1      44.184  30.603  27.595  1.00  0.00     0.058 A 
ATOM     65  C   UNL A   1      43.516  31.801  27.878  1.00  0.00     0.135 A 
ATOM     66  C   UNL A   1      45.383  30.676  26.864  1.00  0.00     0.135 A 
ATOM     67  F   UNL A   1      42.369  31.788  28.576  1.00  0.00    -0.206 F 
ATOM     68  C   UNL A   1      44.046  33.031  27.504  1.00  0.00     0.059 A 
ATOM     69  C   UNL A   1      45.941  31.898  26.498  1.00  0.00     0.059 A 
ATOM     70  F   UNL A   1      46.059  29.559  26.543  1.00  0.00    -0.206 F 
ATOM     71  C   UNL A   1      45.273  33.072  26.841  1.00  0.00     0.060 A 
BRANCH  71  72
ATOM     72  S   UNL A   1      46.027  34.683  26.529  1.00  0.00     0.124 S 
ATOM     73  O   UNL A   1      44.860  35.532  26.316  1.00  0.00    -0.237 OA
ATOM     74  O   UNL A   1      46.765  34.920  27.767  1.00  0.00    -0.237 OA
ATOM     75  O   UNL A   1      46.858  34.452  25.351  1.00  0.00    -0.744 OA
ENDBRANCH  71  72
ENDBRANCH  39  64
ENDBRANCH  13  14
ENDBRANCH   6   8
ENDBRANCH   3   4
ENDBRANCH   2   3
ENDBRANCH   1   2
BRANCH   1  76
ATOM     76  C   UNL A   1      31.074  29.922  24.816  1.00  0.00     0.002 C 
BRANCH  76  77
ATOM     77  C   UNL A   1      31.063  29.070  23.546  1.00  0.00     0.021 C 
BRANCH  77  78
ATOM     78  C   UNL A   1      29.805  28.235  23.336  1.00  0.00     0.116 C 
BRANCH  78  79
ATOM     79  N   UNL A   1      30.070  26.812  23.233  1.00  0.00    -0.356 N 
ATOM     80  C   UNL A   1      30.023  25.766  24.091  1.00  0.00     0.223 C 
ATOM     81  H   UNL A   1      30.350  26.543  22.328  1.00  0.00     0.163 HD
ATOM     82  O   UNL A   1      30.196  24.655  23.568  1.00  0.00    -0.275 OA
BRANCH  80  83
ATOM     83  C   UNL A   1      29.853  25.839  25.620  1.00  0.00     0.081 C 
ATOM     84  C   UNL A   1      31.047  26.603  26.224  1.00  0.00     0.030 C 
ATOM     85  C   UNL A   1      29.703  24.592  26.472  1.00  0.00     0.030 C 
ATOM     86  C   UNL A   1      32.325  25.769  26.140  1.00  0.00     0.103 C 
ATOM     87  C   UNL A   1      30.939  23.709  26.406  1.00  0.00     0.103 C 
ATOM     88  N   UNL A   1      32.178  24.428  26.815  1.00  0.00    -0.198 NA
BRANCH  88  89
ATOM     89  S   UNL A   1      33.624  23.494  26.562  1.00  0.00     0.243 S 
ATOM     90  O   UNL A   1      34.572  24.337  25.870  1.00  0.00    -0.207 OA
ATOM     91  O   UNL A   1      33.967  22.879  27.831  1.00  0.00    -0.207 OA
BRANCH  89  92
ATOM     92  C   UNL A   1      33.160  22.193  25.431  1.00  0.00     0.084 A 
ATOM     93  C   UNL A   1      32.859  22.522  24.105  1.00  0.00     0.024 A 
ATOM     94  C   UNL A   1      33.240  20.858  25.846  1.00  0.00     0.043 A 
ATOM     95  C   UNL A   1      32.556  21.520  23.180  1.00  0.00     0.031 A 
ATOM     96  C   UNL A   1      32.978  19.862  24.888  1.00  0.00     0.059 A 
ATOM     97  C   UNL A   1      32.625  20.168  23.568  1.00  0.00     0.085 A 
ATOM     98  S   UNL A   1      33.033  18.145  25.057  1.00  0.00    -0.077 S 
ATOM     99  N   UNL A   1      32.392  19.081  22.744  1.00  0.00    -0.203 NA
ATOM    100  C   UNL A   1      32.588  17.987  23.428  1.00  0.00     0.271 A 
BRANCH 100 101
ATOM    101  O   UNL A   1      32.435  16.822  22.829  1.00  0.00    -0.486 OA
ATOM    102  H   UNL A   1      31.581  16.446  22.744  1.00  0.00     0.296 HD
ENDBRANCH 100 101
ENDBRANCH  89  92
ENDBRANCH  88  89
ENDBRANCH  80  83
ENDBRANCH  78  79
ENDBRANCH  77  78
ENDBRANCH  76  77
ENDBRANCH   1  76
TORSDOF 19
ENDMDL
MODEL 3
REMARK VINA RESULT:     -11.5      5.742     10.125
REMARK SMILES O=C(NCCCCCCNC(=O)C1CCN(S(=O)(=O)c2ccc3nc(O)sc3c2)CC1)c1ccc(-c2c3nc(c(-c4c(F)cc(S(=O)(=O)[O-])cc4F)c4ccc([nH]4)c(-c4c(F)cc(S(=O)(=O)[O-])cc4F)c4nc(c(-c5c(F)cc(S(=O)(=O)[O-])cc5F)c5ccc2[nH]5)C=C4)C=C3)cc1
REMARK SMILES IDX 6 1 5 2 4 3 3 4 1 5 2 6 32 8 33 9 97 10 34 11 96 12 35 13
REMARK SMILES IDX 36 14 37 15 90 16 38 17 95 18 89 19 91 20 39 21 94 22 88 23
REMARK SMILES IDX 87 24 40 26 74 27 53 28 73 29 54 30 57 31 72 32 92 33 55 34
REMARK SMILES IDX 56 35 71 37 93 38 58 39 41 40 42 41 51 42 43 43 44 44 50 45
REMARK SMILES IDX 52 46 45 47 46 48 47 49 48 50 49 51 75 52 76 53 85 54 77 55
REMARK SMILES IDX 78 56 84 57 86 58 79 59 80 60 81 61 82 62 83 63 59 64 60 65
REMARK SMILES IDX 69 66 61 67 62 68 68 69 70 70 63 71 64 72 65 73 66 74 67 75
REMARK SMILES IDX 7 76 8 77 9 78 10 79 11 80 12 82 13 83 14 84 31 85 15 86
REMARK SMILES IDX 30 87 16 88 17 89 18 90 19 91 20 92 21 93 29 94 22 95 28 96
REMARK SMILES IDX 23 97 27 98 24 99 25 100 26 101
REMARK H PARENT 3 7 91 25 57 36 10 81 26 102
REMARK Flexibility Score: inf
ROOT
ATOM      1  C   UNL A   1      46.059  27.048  37.359  1.00  0.00     0.002 C 
ENDROOT
BRANCH   1   2
ATOM      2  C   UNL A   1      45.246  25.758  37.584  1.00  0.00     0.021 C 
BRANCH   2   3
ATOM      3  C   UNL A   1      43.734  25.950  37.804  1.00  0.00     0.116 C 
BRANCH   3   4
ATOM      4  N   UNL A   1      43.001  24.889  37.139  1.00  0.00    -0.352 N 
ATOM      5  O   UNL A   1      41.503  24.120  35.696  1.00  0.00    -0.269 OA
ATOM      6  C   UNL A   1      42.529  24.784  35.861  1.00  0.00     0.251 C 
ATOM      7  H   UNL A   1      42.810  24.109  37.709  1.00  0.00     0.163 HD
BRANCH   6   8
ATOM      8  C   UNL A   1      43.222  25.348  34.677  1.00  0.00     0.039 A 
ATOM      9  C   UNL A   1      42.649  26.488  34.091  1.00  0.00     0.014 A 
ATOM     10  C   UNL A   1      44.261  24.691  34.011  1.00  0.00     0.014 A 
ATOM     11  C   UNL A   1      43.085  26.955  32.850  1.00  0.00     0.010 A 
ATOM     12  C   UNL A   1      44.703  25.165  32.765  1.00  0.00     0.010 A 
ATOM     13  C   UNL A   1      44.114  26.294  32.172  1.00  0.00    -0.014 A 
BRANCH  13  14
ATOM     14  C   UNL A   1      44.605  26.896  30.907  1.00  0.00     0.031 A 
ATOM     15  C   UNL A   1      44.652  25.943  29.756  1.00  0.00     0.074 A 
ATOM     16  C   UNL A   1      44.550  28.228  30.663  1.00  0.00     0.049 A 
ATOM     17  N   UNL A   1      43.581  25.611  29.098  1.00  0.00    -0.248 NA
ATOM     18  C   UNL A   1      45.808  25.099  29.454  1.00  0.00     0.031 C 
ATOM     19  C   UNL A   1      43.518  29.106  31.231  1.00  0.00     0.029 A 
ATOM     20  N   UNL A   1      45.193  29.030  29.739  1.00  0.00    -0.354 N 
ATOM     21  C   UNL A   1      43.891  24.517  28.312  1.00  0.00     0.074 A 
ATOM     22  C   UNL A   1      45.288  24.236  28.563  1.00  0.00     0.031 C 
ATOM     23  C   UNL A   1      43.489  30.258  30.529  1.00  0.00     0.029 A 
ATOM     24  C   UNL A   1      44.580  30.275  29.552  1.00  0.00     0.049 A 
ATOM     25  H   UNL A   1      46.007  28.751  29.258  1.00  0.00     0.167 HD
ATOM     26  C   UNL A   1      42.971  23.922  27.505  1.00  0.00     0.037 A 
ATOM     27  C   UNL A   1      44.488  30.939  28.360  1.00  0.00     0.037 A 
ATOM     28  C   UNL A   1      41.668  24.524  27.526  1.00  0.00     0.049 A 
ATOM     29  C   UNL A   1      43.613  30.002  27.568  1.00  0.00     0.074 A 
ATOM     30  C   UNL A   1      40.456  24.316  28.145  1.00  0.00     0.029 A 
ATOM     31  N   UNL A   1      41.494  25.682  26.804  1.00  0.00    -0.354 N 
ATOM     32  N   UNL A   1      42.317  29.880  27.687  1.00  0.00    -0.248 NA
ATOM     33  C   UNL A   1      44.274  28.898  26.871  1.00  0.00     0.031 C 
ATOM     34  C   UNL A   1      39.806  25.593  28.142  1.00  0.00     0.029 A 
ATOM     35  C   UNL A   1      40.680  26.499  27.545  1.00  0.00     0.049 A 
ATOM     36  H   UNL A   1      41.882  25.885  25.922  1.00  0.00     0.167 HD
ATOM     37  C   UNL A   1      42.036  28.562  27.325  1.00  0.00     0.074 A 
ATOM     38  C   UNL A   1      43.285  28.016  26.827  1.00  0.00     0.031 C 
ATOM     39  C   UNL A   1      40.860  27.933  27.609  1.00  0.00     0.037 A 
BRANCH  26  40
ATOM     40  C   UNL A   1      43.263  22.891  26.488  1.00  0.00     0.058 A 
ATOM     41  C   UNL A   1      42.883  21.571  26.781  1.00  0.00     0.135 A 
ATOM     42  C   UNL A   1      44.098  23.110  25.387  1.00  0.00     0.135 A 
ATOM     43  F   UNL A   1      42.093  21.323  27.840  1.00  0.00    -0.206 F 
ATOM     44  C   UNL A   1      43.355  20.495  26.048  1.00  0.00     0.059 A 
ATOM     45  C   UNL A   1      44.577  22.042  24.625  1.00  0.00     0.059 A 
ATOM     46  F   UNL A   1      44.500  24.352  25.075  1.00  0.00    -0.206 F 
ATOM     47  C   UNL A   1      44.220  20.738  24.981  1.00  0.00     0.060 A 
BRANCH  47  48
ATOM     48  S   UNL A   1      44.895  19.310  24.106  1.00  0.00     0.124 S 
ATOM     49  O   UNL A   1      44.408  19.532  22.748  1.00  0.00    -0.237 OA
ATOM     50  O   UNL A   1      46.329  19.487  24.306  1.00  0.00    -0.237 OA
ATOM     51  O   UNL A   1      44.302  18.173  24.805  1.00  0.00    -0.744 OA
ENDBRANCH  47  48
ENDBRANCH  26  40
BRANCH  27  52
ATOM     52  C   UNL A   1      45.734  31.556  27.792  1.00  0.00     0.058 A 
ATOM     53  C   UNL A   1      45.687  32.886  27.329  1.00  0.00     0.135 A 
ATOM     54  C   UNL A   1      46.971  30.902  27.643  1.00  0.00     0.135 A 
ATOM     55  F   UNL A   1      44.519  33.549  27.290  1.00  0.00    -0.206 F 
ATOM     56  C   UNL A   1      46.823  33.573  26.904  1.00  0.00     0.059 A 
ATOM     57  C   UNL A   1      48.130  31.574  27.248  1.00  0.00     0.059 A 
ATOM     58  F   UNL A   1      47.095  29.592  27.895  1.00  0.00    -0.206 F 
ATOM     59  C   UNL A   1      48.053  32.922  26.915  1.00  0.00     0.060 A 
BRANCH  59  60
ATOM     60  S   UNL A   1      49.539  33.881  26.560  1.00  0.00     0.124 S 
ATOM     61  O   UNL A   1      50.238  33.847  27.840  1.00  0.00    -0.237 OA
ATOM     62  O   UNL A   1      50.145  33.100  25.485  1.00  0.00    -0.237 OA
ATOM     63  O   UNL A   1      49.017  35.184  26.162  1.00  0.00    -0.744 OA
ENDBRANCH  59  60
ENDBRANCH  27  52
BRANCH  39  64
ATOM     64  C   UNL A   1      39.786  28.776  28.212  1.00  0.00     0.058 A 
ATOM     65  C   UNL A   1      39.707  28.929  29.602  1.00  0.00     0.135 A 
ATOM     66  C   UNL A   1      38.895  29.517  27.416  1.00  0.00     0.135 A 
ATOM     67  F   UNL A   1      40.537  28.248  30.408  1.00  0.00    -0.206 F 
ATOM     68  C   UNL A   1      38.818  29.829  30.181  1.00  0.00     0.059 A 
ATOM     69  C   UNL A   1      38.013  30.438  27.974  1.00  0.00     0.059 A 
ATOM     70  F   UNL A   1      38.909  29.397  26.078  1.00  0.00    -0.206 F 
ATOM     71  C   UNL A   1      37.996  30.601  29.359  1.00  0.00     0.060 A 
BRANCH  71  72
ATOM     72  S   UNL A   1      36.985  31.888  30.121  1.00  0.00     0.124 S 
ATOM     73  O   UNL A   1      37.866  32.391  31.168  1.00  0.00    -0.237 OA
ATOM     74  O   UNL A   1      36.749  32.795  29.001  1.00  0.00    -0.237 OA
ATOM     75  O   UNL A   1      35.804  31.167  30.588  1.00  0.00    -0.744 OA
ENDBRANCH  71  72
ENDBRANCH  39  64
ENDBRANCH  13  14
ENDBRANCH   6   8
ENDBRANCH   3   4
ENDBRANCH   2   3
ENDBRANCH   1   2
BRANCH   1  76
ATOM     76  C   UNL A   1      45.670  27.890  36.137  1.00  0.00     0.002 C 
BRANCH  76  77
ATOM     77  C   UNL A   1      44.789  29.105  36.427  1.00  0.00     0.021 C 
BRANCH  77  78
ATOM     78  C   UNL A   1      43.880  29.537  35.281  1.00  0.00     0.116 C 
BRANCH  78  79
ATOM     79  N   UNL A   1      43.463  30.924  35.368  1.00  0.00    -0.356 N 
ATOM     80  C   UNL A   1      42.485  31.666  34.798  1.00  0.00     0.223 C 
ATOM     81  H   UNL A   1      44.023  31.449  35.985  1.00  0.00     0.163 HD
ATOM     82  O   UNL A   1      42.374  32.815  35.249  1.00  0.00    -0.275 OA
BRANCH  80  83
ATOM     83  C   UNL A   1      41.577  31.246  33.626  1.00  0.00     0.081 C 
ATOM     84  C   UNL A   1      41.189  32.499  32.816  1.00  0.00     0.030 C 
ATOM     85  C   UNL A   1      40.278  30.494  33.846  1.00  0.00     0.030 C 
ATOM     86  C   UNL A   1      40.216  33.375  33.604  1.00  0.00     0.103 C 
ATOM     87  C   UNL A   1      39.278  31.311  34.649  1.00  0.00     0.103 C 
ATOM     88  N   UNL A   1      38.974  32.624  34.015  1.00  0.00    -0.198 NA
BRANCH  88  89
ATOM     89  S   UNL A   1      37.984  33.650  35.013  1.00  0.00     0.243 S 
ATOM     90  O   UNL A   1      37.601  32.886  36.178  1.00  0.00    -0.207 OA
ATOM     91  O   UNL A   1      38.678  34.916  35.153  1.00  0.00    -0.207 OA
BRANCH  89  92
ATOM     92  C   UNL A   1      36.498  33.942  34.069  1.00  0.00     0.084 A 
ATOM     93  C   UNL A   1      35.681  32.856  33.734  1.00  0.00     0.024 A 
ATOM     94  C   UNL A   1      36.099  35.257  33.799  1.00  0.00     0.043 A 
ATOM     95  C   UNL A   1      34.479  33.059  33.053  1.00  0.00     0.031 A 
ATOM     96  C   UNL A   1      34.863  35.444  33.155  1.00  0.00     0.059 A 
ATOM     97  C   UNL A   1      34.053  34.371  32.766  1.00  0.00     0.085 A 
ATOM     98  S   UNL A   1      34.069  36.916  32.725  1.00  0.00    -0.077 S 
ATOM     99  N   UNL A   1      32.868  34.713  32.136  1.00  0.00    -0.203 NA
ATOM    100  C   UNL A   1      32.785  36.014  32.078  1.00  0.00     0.271 A 
BRANCH 100 101
ATOM    101  O   UNL A   1      31.720  36.564  31.527  1.00  0.00    -0.486 OA
ATOM    102  H   UNL A   1      30.870  36.209  31.695  1.00  0.00     0.296 HD
ENDBRANCH 100 101
ENDBRANCH  89  92
ENDBRANCH  88  89
ENDBRANCH  80  83
ENDBRANCH  78  79
ENDBRANCH  77  78
ENDBRANCH  76  77
ENDBRANCH   1  76
TORSDOF 19
ENDMDL
