MODEL 1
REMARK VINA RESULT:     -10.5      0.000      0.000
REMARK SMILES C[NH+](C)CC[NH2+][C@@H](C(=O)NCCCCCCNC(=O)c1ccc(-c2c3nc(c(-c4c(F)cc(S(=O)(=O)[O-])cc4F)c4ccc([nH]4)c(-c4c(F)cc(S(=O)(=O)[O-])cc4F)c4nc(c(-c5c(F)cc(S(=O)(=O)[O-])cc5F)c5ccc2[nH]5)C=C4)C=C3)cc1)c1cccc(C2CC2)c1
REMARK SMILES IDX 13 1 12 2 11 3 10 4 8 5 9 6 7 8 6 9 5 12 4 13 2 14 1 15 3 16
REMARK SMILES IDX 86 18 87 19 94 20 88 21 90 22 89 23 91 24 92 25 93 26 14 27
REMARK SMILES IDX 15 28 16 29 17 30 18 31 19 33 20 34 21 35 85 36 22 37 84 38
REMARK SMILES IDX 23 39 24 40 25 41 78 42 26 43 83 44 77 45 79 46 27 47 82 48
REMARK SMILES IDX 76 49 75 50 28 52 62 53 41 54 61 55 42 56 45 57 60 58 80 59
REMARK SMILES IDX 43 60 44 61 59 63 81 64 46 65 29 66 30 67 39 68 31 69 32 70
REMARK SMILES IDX 38 71 40 72 33 73 34 74 35 75 36 76 37 77 63 78 64 79 73 80
REMARK SMILES IDX 65 81 66 82 72 83 74 84 67 85 68 86 69 87 70 88 71 89 47 90
REMARK SMILES IDX 48 91 57 92 49 93 50 94 56 95 58 96 51 97 52 98 53 99 54 100
REMARK SMILES IDX 55 101
REMARK H PARENT 10 7 6 10 6 11 2 17 17 32 79 51 45 62
REMARK Flexibility Score: inf
ROOT
ATOM      1  C   UNL A   1      38.983  22.767  26.465  1.00  0.00     0.002 C 
ENDROOT
BRANCH   1   2
ATOM      2  C   UNL A   1      37.873  22.108  25.645  1.00  0.00     0.021 C 
BRANCH   2   3
ATOM      3  C   UNL A   1      36.536  22.870  25.625  1.00  0.00     0.116 C 
BRANCH   3   4
ATOM      4  N   UNL A   1      35.681  22.365  26.683  1.00  0.00    -0.351 N 
ATOM      5  C   UNL A   1      34.317  22.381  26.792  1.00  0.00     0.283 C 
ATOM      6  O   UNL A   1      33.884  22.464  27.947  1.00  0.00    -0.268 OA
ATOM      7  H   UNL A   1      36.155  21.948  27.439  1.00  0.00     0.163 HD
BRANCH   5   8
ATOM      8  C   UNL A   1      33.371  22.252  25.538  1.00  0.00     0.304 C 
BRANCH   8   9
ATOM      9  N   UNL A   1      33.873  21.284  24.527  1.00  0.00    -0.328 N 
ATOM     10  H   UNL A   1      33.428  21.503  23.635  1.00  0.00     0.347 HD
ATOM     11  H   UNL A   1      34.887  21.390  24.520  1.00  0.00     0.347 HD
BRANCH   9  12
ATOM     12  C   UNL A   1      33.622  19.883  24.819  1.00  0.00     0.323 C 
BRANCH  12  13
ATOM     13  C   UNL A   1      32.675  19.142  23.845  1.00  0.00     0.323 C 
BRANCH  13  14
ATOM     14  N   UNL A   1      32.508  17.684  23.972  1.00  0.00    -0.335 N 
ATOM     15  C   UNL A   1      33.504  16.894  23.265  1.00  0.00     0.332 C 
ATOM     16  C   UNL A   1      32.315  17.208  25.337  1.00  0.00     0.332 C 
ATOM     17  H   UNL A   1      31.624  17.523  23.489  1.00  0.00     0.347 HD
ENDBRANCH  13  14
ENDBRANCH  12  13
ENDBRANCH   9  12
ENDBRANCH   8   9
BRANCH   8  18
ATOM     18  C   UNL A   1      33.282  23.633  24.853  1.00  0.00     0.019 A 
ATOM     19  C   UNL A   1      33.812  23.819  23.561  1.00  0.00     0.010 A 
ATOM     20  C   UNL A   1      32.736  24.750  25.510  1.00  0.00     0.014 A 
ATOM     21  C   UNL A   1      33.799  25.064  22.947  1.00  0.00     0.001 A 
ATOM     22  C   UNL A   1      32.722  26.034  24.918  1.00  0.00    -0.044 A 
ATOM     23  C   UNL A   1      33.264  26.154  23.624  1.00  0.00     0.004 A 
BRANCH  22  24
ATOM     24  C   UNL A   1      32.193  27.284  25.594  1.00  0.00     0.019 C 
ATOM     25  C   UNL A   1      32.080  27.458  27.085  1.00  0.00     0.009 C 
ATOM     26  C   UNL A   1      33.170  28.167  26.336  1.00  0.00     0.009 C 
ENDBRANCH  22  24
ENDBRANCH   8  18
ENDBRANCH   5   8
ENDBRANCH   3   4
ENDBRANCH   2   3
ENDBRANCH   1   2
BRANCH   1  27
ATOM     27  C   UNL A   1      40.238  21.916  26.625  1.00  0.00     0.002 C 
BRANCH  27  28
ATOM     28  C   UNL A   1      40.964  22.093  27.960  1.00  0.00     0.021 C 
BRANCH  28  29
ATOM     29  C   UNL A   1      42.244  22.921  27.881  1.00  0.00     0.116 C 
BRANCH  29  30
ATOM     30  N   UNL A   1      42.402  23.532  26.571  1.00  0.00    -0.352 N 
ATOM     31  C   UNL A   1      42.080  24.810  26.182  1.00  0.00     0.251 C 
ATOM     32  H   UNL A   1      42.789  22.957  25.873  1.00  0.00     0.163 HD
ATOM     33  O   UNL A   1      42.009  25.100  24.995  1.00  0.00    -0.269 OA
BRANCH  31  34
ATOM     34  C   UNL A   1      41.812  25.825  27.222  1.00  0.00     0.039 A 
ATOM     35  C   UNL A   1      40.655  25.728  27.996  1.00  0.00     0.014 A 
ATOM     36  C   UNL A   1      42.727  26.860  27.438  1.00  0.00     0.014 A 
ATOM     37  C   UNL A   1      40.438  26.647  29.026  1.00  0.00     0.010 A 
ATOM     38  C   UNL A   1      42.546  27.726  28.509  1.00  0.00     0.010 A 
ATOM     39  C   UNL A   1      41.396  27.635  29.309  1.00  0.00    -0.014 A 
BRANCH  39  40
ATOM     40  C   UNL A   1      41.210  28.606  30.417  1.00  0.00     0.031 A 
ATOM     41  C   UNL A   1      42.073  28.503  31.648  1.00  0.00     0.074 A 
ATOM     42  C   UNL A   1      40.223  29.523  30.352  1.00  0.00     0.049 A 
ATOM     43  N   UNL A   1      41.996  29.170  32.769  1.00  0.00    -0.248 NA
ATOM     44  C   UNL A   1      43.148  27.495  31.625  1.00  0.00     0.031 C 
ATOM     45  C   UNL A   1      39.297  29.696  29.230  1.00  0.00     0.029 A 
ATOM     46  N   UNL A   1      39.819  30.472  31.260  1.00  0.00    -0.354 N 
ATOM     47  C   UNL A   1      42.989  28.648  33.590  1.00  0.00     0.074 A 
ATOM     48  C   UNL A   1      43.630  27.581  32.857  1.00  0.00     0.031 C 
ATOM     49  C   UNL A   1      38.445  30.695  29.510  1.00  0.00     0.029 A 
ATOM     50  C   UNL A   1      38.729  31.205  30.847  1.00  0.00     0.049 A 
ATOM     51  H   UNL A   1      40.267  30.614  32.125  1.00  0.00     0.167 HD
ATOM     52  C   UNL A   1      43.346  29.039  34.836  1.00  0.00     0.037 A 
ATOM     53  C   UNL A   1      38.029  32.164  31.484  1.00  0.00     0.037 A 
ATOM     54  C   UNL A   1      42.731  30.133  35.540  1.00  0.00     0.049 A 
ATOM     55  C   UNL A   1      38.448  32.576  32.873  1.00  0.00     0.074 A 
ATOM     56  C   UNL A   1      43.071  30.654  36.776  1.00  0.00     0.029 A 
ATOM     57  N   UNL A   1      41.654  30.872  35.075  1.00  0.00    -0.354 N 
ATOM     58  N   UNL A   1      39.435  32.118  33.606  1.00  0.00    -0.248 NA
ATOM     59  C   UNL A   1      37.662  33.636  33.522  1.00  0.00     0.031 C 
ATOM     60  C   UNL A   1      42.163  31.672  37.084  1.00  0.00     0.029 A 
ATOM     61  C   UNL A   1      41.302  31.828  36.011  1.00  0.00     0.049 A 
ATOM     62  H   UNL A   1      41.207  30.737  34.207  1.00  0.00     0.167 HD
ATOM     63  C   UNL A   1      39.417  32.865  34.779  1.00  0.00     0.074 A 
ATOM     64  C   UNL A   1      38.323  33.806  34.658  1.00  0.00     0.031 C 
ATOM     65  C   UNL A   1      40.231  32.782  35.858  1.00  0.00     0.037 A 
BRANCH  52  66
ATOM     66  C   UNL A   1      44.455  28.296  35.526  1.00  0.00     0.058 A 
ATOM     67  C   UNL A   1      45.796  28.694  35.409  1.00  0.00     0.135 A 
ATOM     68  C   UNL A   1      44.161  27.227  36.389  1.00  0.00     0.135 A 
ATOM     69  F   UNL A   1      46.135  29.695  34.584  1.00  0.00    -0.206 F 
ATOM     70  C   UNL A   1      46.807  28.056  36.121  1.00  0.00     0.059 A 
ATOM     71  C   UNL A   1      45.152  26.593  37.132  1.00  0.00     0.059 A 
ATOM     72  F   UNL A   1      42.896  26.803  36.532  1.00  0.00    -0.206 F 
ATOM     73  C   UNL A   1      46.473  27.015  36.990  1.00  0.00     0.060 A 
BRANCH  73  74
ATOM     74  S   UNL A   1      47.792  26.240  37.948  1.00  0.00     0.124 S 
ATOM     75  O   UNL A   1      47.047  25.683  39.074  1.00  0.00    -0.237 OA
ATOM     76  O   UNL A   1      48.331  25.267  37.003  1.00  0.00    -0.237 OA
ATOM     77  O   UNL A   1      48.678  27.354  38.272  1.00  0.00    -0.744 OA
ENDBRANCH  73  74
ENDBRANCH  52  66
BRANCH  53  78
ATOM     78  C   UNL A   1      36.856  32.808  30.828  1.00  0.00     0.058 A 
ATOM     79  C   UNL A   1      37.027  33.807  29.858  1.00  0.00     0.135 A 
ATOM     80  C   UNL A   1      35.542  32.470  31.188  1.00  0.00     0.135 A 
ATOM     81  F   UNL A   1      38.262  34.170  29.480  1.00  0.00    -0.206 F 
ATOM     82  C   UNL A   1      35.943  34.478  29.299  1.00  0.00     0.059 A 
ATOM     83  C   UNL A   1      34.441  33.102  30.620  1.00  0.00     0.059 A 
ATOM     84  F   UNL A   1      35.318  31.507  32.095  1.00  0.00    -0.206 F 
ATOM     85  C   UNL A   1      34.653  34.120  29.692  1.00  0.00     0.060 A 
BRANCH  85  86
ATOM     86  S   UNL A   1      33.251  34.999  28.966  1.00  0.00     0.124 S 
ATOM     87  O   UNL A   1      32.412  35.229  30.136  1.00  0.00    -0.237 OA
ATOM     88  O   UNL A   1      33.893  36.180  28.397  1.00  0.00    -0.237 OA
ATOM     89  O   UNL A   1      32.729  34.048  27.990  1.00  0.00    -0.744 OA
ENDBRANCH  85  86
ENDBRANCH  53  78
BRANCH  65  90
ATOM     90  C   UNL A   1      40.029  33.774  36.971  1.00  0.00     0.058 A 
ATOM     91  C   UNL A   1      40.627  35.042  36.954  1.00  0.00     0.135 A 
ATOM     92  C   UNL A   1      39.154  33.474  38.029  1.00  0.00     0.135 A 
ATOM     93  F   UNL A   1      41.477  35.377  35.969  1.00  0.00    -0.206 F 
ATOM     94  C   UNL A   1      40.378  35.975  37.956  1.00  0.00     0.059 A 
ATOM     95  C   UNL A   1      38.865  34.402  39.023  1.00  0.00     0.059 A 
ATOM     96  F   UNL A   1      38.547  32.278  38.086  1.00  0.00    -0.206 F 
ATOM     97  C   UNL A   1      39.489  35.648  38.983  1.00  0.00     0.060 A 
BRANCH  97  98
ATOM     98  S   UNL A   1      39.130  36.888  40.244  1.00  0.00     0.124 S 
ATOM     99  O   UNL A   1      38.482  37.930  39.455  1.00  0.00    -0.237 OA
ATOM    100  O   UNL A   1      38.264  36.156  41.163  1.00  0.00    -0.237 OA
ATOM    101  O   UNL A   1      40.448  37.228  40.771  1.00  0.00    -0.744 OA
ENDBRANCH  97  98
ENDBRANCH  65  90
ENDBRANCH  39  40
ENDBRANCH  31  34
ENDBRANCH  29  30
ENDBRANCH  28  29
ENDBRANCH  27  28
ENDBRANCH   1  27
TORSDOF 22
ENDMDL
MODEL 2
REMARK VINA RESULT:     -10.5      0.923      3.510
REMARK SMILES C[NH+](C)CC[NH2+][C@@H](C(=O)NCCCCCCNC(=O)c1ccc(-c2c3nc(c(-c4c(F)cc(S(=O)(=O)[O-])cc4F)c4ccc([nH]4)c(-c4c(F)cc(S(=O)(=O)[O-])cc4F)c4nc(c(-c5c(F)cc(S(=O)(=O)[O-])cc5F)c5ccc2[nH]5)C=C4)C=C3)cc1)c1cccc(C2CC2)c1
REMARK SMILES IDX 13 1 12 2 11 3 10 4 8 5 9 6 7 8 6 9 5 12 4 13 2 14 1 15 3 16
REMARK SMILES IDX 86 18 87 19 94 20 88 21 90 22 89 23 91 24 92 25 93 26 14 27
REMARK SMILES IDX 15 28 16 29 17 30 18 31 19 33 20 34 21 35 85 36 22 37 84 38
REMARK SMILES IDX 23 39 24 40 25 41 78 42 26 43 83 44 77 45 79 46 27 47 82 48
REMARK SMILES IDX 76 49 75 50 28 52 62 53 41 54 61 55 42 56 45 57 60 58 80 59
REMARK SMILES IDX 43 60 44 61 59 63 81 64 46 65 29 66 30 67 39 68 31 69 32 70
REMARK SMILES IDX 38 71 40 72 33 73 34 74 35 75 36 76 37 77 63 78 64 79 73 80
REMARK SMILES IDX 65 81 66 82 72 83 74 84 67 85 68 86 69 87 70 88 71 89 47 90
REMARK SMILES IDX 48 91 57 92 49 93 50 94 56 95 58 96 51 97 52 98 53 99 54 100
REMARK SMILES IDX 55 101
REMARK H PARENT 10 7 6 10 6 11 2 17 17 32 79 51 45 62
REMARK Flexibility Score: inf
ROOT
ATOM      1  C   UNL A   1      39.196  22.504  26.492  1.00  0.00     0.002 C 
ENDROOT
BRANCH   1   2
ATOM      2  C   UNL A   1      38.150  21.682  25.739  1.00  0.00     0.021 C 
BRANCH   2   3
ATOM      3  C   UNL A   1      36.779  22.362  25.575  1.00  0.00     0.116 C 
BRANCH   3   4
ATOM      4  N   UNL A   1      35.815  21.713  26.443  1.00  0.00    -0.351 N 
ATOM      5  C   UNL A   1      34.449  21.805  26.461  1.00  0.00     0.283 C 
ATOM      6  O   UNL A   1      33.931  21.677  27.577  1.00  0.00    -0.268 OA
ATOM      7  H   UNL A   1      36.201  21.115  27.122  1.00  0.00     0.163 HD
BRANCH   5   8
ATOM      8  C   UNL A   1      33.601  22.007  25.149  1.00  0.00     0.304 C 
BRANCH   8   9
ATOM      9  N   UNL A   1      32.336  22.755  25.384  1.00  0.00    -0.328 N 
ATOM     10  H   UNL A   1      31.735  22.616  24.572  1.00  0.00     0.347 HD
ATOM     11  H   UNL A   1      31.950  22.384  26.252  1.00  0.00     0.347 HD
BRANCH   9  12
ATOM     12  C   UNL A   1      32.482  24.185  25.592  1.00  0.00     0.323 C 
BRANCH  12  13
ATOM     13  C   UNL A   1      31.342  25.075  25.042  1.00  0.00     0.323 C 
BRANCH  13  14
ATOM     14  N   UNL A   1      31.679  26.311  24.315  1.00  0.00    -0.335 N 
ATOM     15  C   UNL A   1      30.675  27.359  24.398  1.00  0.00     0.332 C 
ATOM     16  C   UNL A   1      33.018  26.827  24.578  1.00  0.00     0.332 C 
ATOM     17  H   UNL A   1      31.684  25.998  23.344  1.00  0.00     0.347 HD
ENDBRANCH  13  14
ENDBRANCH  12  13
ENDBRANCH   9  12
ENDBRANCH   8   9
BRANCH   8  18
ATOM     18  C   UNL A   1      33.220  20.616  24.598  1.00  0.00     0.019 A 
ATOM     19  C   UNL A   1      32.563  20.500  23.357  1.00  0.00     0.010 A 
ATOM     20  C   UNL A   1      33.454  19.440  25.334  1.00  0.00     0.014 A 
ATOM     21  C   UNL A   1      32.156  19.266  22.867  1.00  0.00     0.001 A 
ATOM     22  C   UNL A   1      33.038  18.171  24.869  1.00  0.00    -0.044 A 
ATOM     23  C   UNL A   1      32.390  18.121  23.620  1.00  0.00     0.004 A 
BRANCH  22  24
ATOM     24  C   UNL A   1      33.217  16.877  25.637  1.00  0.00     0.019 C 
ATOM     25  C   UNL A   1      32.879  15.514  25.093  1.00  0.00     0.009 C 
ATOM     26  C   UNL A   1      34.316  15.932  25.207  1.00  0.00     0.009 C 
ENDBRANCH  22  24
ENDBRANCH   8  18
ENDBRANCH   5   8
ENDBRANCH   3   4
ENDBRANCH   2   3
ENDBRANCH   1   2
BRANCH   1  27
ATOM     27  C   UNL A   1      40.585  21.874  26.526  1.00  0.00     0.002 C 
BRANCH  27  28
ATOM     28  C   UNL A   1      41.310  22.000  27.869  1.00  0.00     0.021 C 
BRANCH  28  29
ATOM     29  C   UNL A   1      42.454  23.011  27.879  1.00  0.00     0.116 C 
BRANCH  29  30
ATOM     30  N   UNL A   1      42.625  23.634  26.576  1.00  0.00    -0.352 N 
ATOM     31  C   UNL A   1      42.275  24.904  26.185  1.00  0.00     0.251 C 
ATOM     32  H   UNL A   1      43.045  23.074  25.885  1.00  0.00     0.163 HD
ATOM     33  O   UNL A   1      42.224  25.199  24.999  1.00  0.00    -0.269 OA
BRANCH  31  34
ATOM     34  C   UNL A   1      41.953  25.904  27.225  1.00  0.00     0.039 A 
ATOM     35  C   UNL A   1      40.815  25.735  28.013  1.00  0.00     0.014 A 
ATOM     36  C   UNL A   1      42.799  27.000  27.423  1.00  0.00     0.014 A 
ATOM     37  C   UNL A   1      40.550  26.643  29.042  1.00  0.00     0.010 A 
ATOM     38  C   UNL A   1      42.574  27.858  28.492  1.00  0.00     0.010 A 
ATOM     39  C   UNL A   1      41.443  27.695  29.307  1.00  0.00    -0.014 A 
BRANCH  39  40
ATOM     40  C   UNL A   1      41.206  28.657  30.413  1.00  0.00     0.031 A 
ATOM     41  C   UNL A   1      42.018  28.550  31.678  1.00  0.00     0.074 A 
ATOM     42  C   UNL A   1      40.218  29.570  30.313  1.00  0.00     0.049 A 
ATOM     43  N   UNL A   1      41.891  29.209  32.799  1.00  0.00    -0.248 NA
ATOM     44  C   UNL A   1      43.098  27.547  31.694  1.00  0.00     0.031 C 
ATOM     45  C   UNL A   1      39.340  29.747  29.154  1.00  0.00     0.029 A 
ATOM     46  N   UNL A   1      39.772  30.511  31.209  1.00  0.00    -0.354 N 
ATOM     47  C   UNL A   1      42.852  28.687  33.658  1.00  0.00     0.074 A 
ATOM     48  C   UNL A   1      43.527  27.627  32.945  1.00  0.00     0.031 C 
ATOM     49  C   UNL A   1      38.472  30.740  29.405  1.00  0.00     0.029 A 
ATOM     50  C   UNL A   1      38.698  31.242  30.757  1.00  0.00     0.049 A 
ATOM     51  H   UNL A   1      40.184  30.650  32.093  1.00  0.00     0.167 HD
ATOM     52  C   UNL A   1      43.154  29.071  34.919  1.00  0.00     0.037 A 
ATOM     53  C   UNL A   1      37.967  32.194  31.370  1.00  0.00     0.037 A 
ATOM     54  C   UNL A   1      42.506  30.157  35.605  1.00  0.00     0.049 A 
ATOM     55  C   UNL A   1      38.326  32.598  32.778  1.00  0.00     0.074 A 
ATOM     56  C   UNL A   1      42.791  30.671  36.857  1.00  0.00     0.029 A 
ATOM     57  N   UNL A   1      41.446  30.895  35.100  1.00  0.00    -0.354 N 
ATOM     58  N   UNL A   1      39.284  32.140  33.548  1.00  0.00    -0.248 NA
ATOM     59  C   UNL A   1      37.509  33.651  33.400  1.00  0.00     0.031 C 
ATOM     60  C   UNL A   1      41.867  31.683  37.133  1.00  0.00     0.029 A 
ATOM     61  C   UNL A   1      41.050  31.843  36.026  1.00  0.00     0.049 A 
ATOM     62  H   UNL A   1      41.036  30.763  34.214  1.00  0.00     0.167 HD
ATOM     63  C   UNL A   1      39.213  32.879  34.724  1.00  0.00     0.074 A 
ATOM     64  C   UNL A   1      38.121  33.816  34.564  1.00  0.00     0.031 C 
ATOM     65  C   UNL A   1      39.982  32.792  35.836  1.00  0.00     0.037 A 
BRANCH  52  66
ATOM     66  C   UNL A   1      44.238  28.328  35.650  1.00  0.00     0.058 A 
ATOM     67  C   UNL A   1      43.958  27.213  36.454  1.00  0.00     0.135 A 
ATOM     68  C   UNL A   1      45.585  28.683  35.468  1.00  0.00     0.135 A 
ATOM     69  F   UNL A   1      42.688  26.841  36.677  1.00  0.00    -0.206 F 
ATOM     70  C   UNL A   1      44.974  26.476  37.055  1.00  0.00     0.059 A 
ATOM     71  C   UNL A   1      46.619  27.945  36.037  1.00  0.00     0.059 A 
ATOM     72  F   UNL A   1      45.909  29.745  34.714  1.00  0.00    -0.206 F 
ATOM     73  C   UNL A   1      46.302  26.844  36.830  1.00  0.00     0.060 A 
BRANCH  73  74
ATOM     74  S   UNL A   1      47.607  25.841  37.572  1.00  0.00     0.124 S 
ATOM     75  O   UNL A   1      46.927  24.563  37.756  1.00  0.00    -0.237 OA
ATOM     76  O   UNL A   1      48.640  25.865  36.541  1.00  0.00    -0.237 OA
ATOM     77  O   UNL A   1      47.934  26.561  38.799  1.00  0.00    -0.744 OA
ENDBRANCH  73  74
ENDBRANCH  52  66
BRANCH  53  78
ATOM     78  C   UNL A   1      36.819  32.837  30.670  1.00  0.00     0.058 A 
ATOM     79  C   UNL A   1      37.018  33.910  29.789  1.00  0.00     0.135 A 
ATOM     80  C   UNL A   1      35.498  32.421  30.900  1.00  0.00     0.135 A 
ATOM     81  F   UNL A   1      38.260  34.349  29.536  1.00  0.00    -0.206 F 
ATOM     82  C   UNL A   1      35.950  34.576  29.194  1.00  0.00     0.059 A 
ATOM     83  C   UNL A   1      34.416  33.049  30.292  1.00  0.00     0.059 A 
ATOM     84  F   UNL A   1      35.250  31.386  31.717  1.00  0.00    -0.206 F 
ATOM     85  C   UNL A   1      34.651  34.140  29.458  1.00  0.00     0.060 A 
BRANCH  85  86
ATOM     86  S   UNL A   1      33.271  35.013  28.687  1.00  0.00     0.124 S 
ATOM     87  O   UNL A   1      32.665  33.955  27.888  1.00  0.00    -0.237 OA
ATOM     88  O   UNL A   1      32.505  35.459  29.846  1.00  0.00    -0.237 OA
ATOM     89  O   UNL A   1      33.927  36.078  27.933  1.00  0.00    -0.744 OA
ENDBRANCH  85  86
ENDBRANCH  53  78
BRANCH  65  90
ATOM     90  C   UNL A   1      39.729  33.776  36.945  1.00  0.00     0.058 A 
ATOM     91  C   UNL A   1      38.871  33.485  38.015  1.00  0.00     0.135 A 
ATOM     92  C   UNL A   1      40.425  34.997  36.974  1.00  0.00     0.135 A 
ATOM     93  F   UNL A   1      38.177  32.335  38.034  1.00  0.00    -0.206 F 
ATOM     94  C   UNL A   1      38.698  34.377  39.069  1.00  0.00     0.059 A 
ATOM     95  C   UNL A   1      40.292  35.889  38.032  1.00  0.00     0.059 A 
ATOM     96  F   UNL A   1      41.267  35.319  35.979  1.00  0.00    -0.206 F 
ATOM     97  C   UNL A   1      39.420  35.574  39.072  1.00  0.00     0.060 A 
BRANCH  97  98
ATOM     98  S   UNL A   1      39.229  36.695  40.474  1.00  0.00     0.124 S 
ATOM     99  O   UNL A   1      38.337  35.933  41.341  1.00  0.00    -0.237 OA
ATOM    100  O   UNL A   1      40.603  36.838  40.947  1.00  0.00    -0.237 OA
ATOM    101  O   UNL A   1      38.650  37.893  39.875  1.00  0.00    -0.744 OA
ENDBRANCH  97  98
ENDBRANCH  65  90
ENDBRANCH  39  40
ENDBRANCH  31  34
ENDBRANCH  29  30
ENDBRANCH  28  29
ENDBRANCH  27  28
ENDBRANCH   1  27
TORSDOF 22
ENDMDL
MODEL 3
REMARK VINA RESULT:     -10.5      4.968      6.750
REMARK SMILES C[NH+](C)CC[NH2+][C@@H](C(=O)NCCCCCCNC(=O)c1ccc(-c2c3nc(c(-c4c(F)cc(S(=O)(=O)[O-])cc4F)c4ccc([nH]4)c(-c4c(F)cc(S(=O)(=O)[O-])cc4F)c4nc(c(-c5c(F)cc(S(=O)(=O)[O-])cc5F)c5ccc2[nH]5)C=C4)C=C3)cc1)c1cccc(C2CC2)c1
REMARK SMILES IDX 13 1 12 2 11 3 10 4 8 5 9 6 7 8 6 9 5 12 4 13 2 14 1 15 3 16
REMARK SMILES IDX 86 18 87 19 94 20 88 21 90 22 89 23 91 24 92 25 93 26 14 27
REMARK SMILES IDX 15 28 16 29 17 30 18 31 19 33 20 34 21 35 85 36 22 37 84 38
REMARK SMILES IDX 23 39 24 40 25 41 78 42 26 43 83 44 77 45 79 46 27 47 82 48
REMARK SMILES IDX 76 49 75 50 28 52 62 53 41 54 61 55 42 56 45 57 60 58 80 59
REMARK SMILES IDX 43 60 44 61 59 63 81 64 46 65 29 66 30 67 39 68 31 69 32 70
REMARK SMILES IDX 38 71 40 72 33 73 34 74 35 75 36 76 37 77 63 78 64 79 73 80
REMARK SMILES IDX 65 81 66 82 72 83 74 84 67 85 68 86 69 87 70 88 71 89 47 90
REMARK SMILES IDX 48 91 57 92 49 93 50 94 56 95 58 96 51 97 52 98 53 99 54 100
REMARK SMILES IDX 55 101
REMARK H PARENT 10 7 6 10 6 11 2 17 17 32 79 51 45 62
REMARK Flexibility Score: inf
ROOT
ATOM      1  C   UNL A   1      33.872  22.982  23.108  1.00  0.00     0.002 C 
ENDROOT
BRANCH   1   2
ATOM      2  C   UNL A   1      32.614  22.357  23.713  1.00  0.00     0.021 C 
BRANCH   2   3
ATOM      3  C   UNL A   1      31.369  23.262  23.707  1.00  0.00     0.116 C 
BRANCH   3   4
ATOM      4  N   UNL A   1      30.809  23.314  25.045  1.00  0.00    -0.351 N 
ATOM      5  C   UNL A   1      30.616  24.387  25.873  1.00  0.00     0.283 C 
ATOM      6  O   UNL A   1      30.709  24.138  27.082  1.00  0.00    -0.268 OA
ATOM      7  H   UNL A   1      30.525  22.447  25.413  1.00  0.00     0.163 HD
BRANCH   5   8
ATOM      8  C   UNL A   1      30.253  25.819  25.327  1.00  0.00     0.304 C 
BRANCH   8   9
ATOM      9  N   UNL A   1      29.644  25.788  23.970  1.00  0.00    -0.328 N 
ATOM     10  H   UNL A   1      30.363  26.050  23.297  1.00  0.00     0.347 HD
ATOM     11  H   UNL A   1      29.288  24.840  23.847  1.00  0.00     0.347 HD
BRANCH   9  12
ATOM     12  C   UNL A   1      28.505  26.668  23.772  1.00  0.00     0.323 C 
BRANCH  12  13
ATOM     13  C   UNL A   1      28.816  28.182  23.703  1.00  0.00     0.323 C 
BRANCH  13  14
ATOM     14  N   UNL A   1      29.141  28.792  22.402  1.00  0.00    -0.335 N 
ATOM     15  C   UNL A   1      28.201  29.808  21.956  1.00  0.00     0.332 C 
ATOM     16  C   UNL A   1      30.522  29.238  22.265  1.00  0.00     0.332 C 
ATOM     17  H   UNL A   1      29.034  28.006  21.760  1.00  0.00     0.347 HD
ENDBRANCH  13  14
ENDBRANCH  12  13
ENDBRANCH   9  12
ENDBRANCH   8   9
BRANCH   8  18
ATOM     18  C   UNL A   1      31.554  26.647  25.231  1.00  0.00     0.019 A 
ATOM     19  C   UNL A   1      32.321  26.627  24.050  1.00  0.00     0.010 A 
ATOM     20  C   UNL A   1      32.042  27.384  26.324  1.00  0.00     0.014 A 
ATOM     21  C   UNL A   1      33.525  27.313  23.959  1.00  0.00     0.001 A 
ATOM     22  C   UNL A   1      33.271  28.081  26.268  1.00  0.00    -0.044 A 
ATOM     23  C   UNL A   1      33.990  28.025  25.058  1.00  0.00     0.004 A 
BRANCH  22  24
ATOM     24  C   UNL A   1      33.874  28.851  27.426  1.00  0.00     0.019 C 
ATOM     25  C   UNL A   1      35.202  29.559  27.375  1.00  0.00     0.009 C 
ATOM     26  C   UNL A   1      33.932  30.359  27.333  1.00  0.00     0.009 C 
ENDBRANCH  22  24
ENDBRANCH   8  18
ENDBRANCH   5   8
ENDBRANCH   3   4
ENDBRANCH   2   3
ENDBRANCH   1   2
BRANCH   1  27
ATOM     27  C   UNL A   1      34.689  23.822  24.084  1.00  0.00     0.002 C 
BRANCH  27  28
ATOM     28  C   UNL A   1      35.324  23.032  25.231  1.00  0.00     0.021 C 
BRANCH  28  29
ATOM     29  C   UNL A   1      36.621  23.629  25.771  1.00  0.00     0.116 C 
BRANCH  29  30
ATOM     30  N   UNL A   1      37.590  22.594  26.093  1.00  0.00    -0.352 N 
ATOM     31  C   UNL A   1      38.906  22.742  26.459  1.00  0.00     0.251 C 
ATOM     32  H   UNL A   1      37.261  21.668  26.043  1.00  0.00     0.163 HD
ATOM     33  O   UNL A   1      39.671  21.787  26.432  1.00  0.00    -0.269 OA
BRANCH  31  34
ATOM     34  C   UNL A   1      39.382  24.077  26.877  1.00  0.00     0.039 A 
ATOM     35  C   UNL A   1      39.292  24.450  28.219  1.00  0.00     0.014 A 
ATOM     36  C   UNL A   1      39.936  24.948  25.934  1.00  0.00     0.014 A 
ATOM     37  C   UNL A   1      39.806  25.684  28.625  1.00  0.00     0.010 A 
ATOM     38  C   UNL A   1      40.513  26.140  26.352  1.00  0.00     0.010 A 
ATOM     39  C   UNL A   1      40.446  26.526  27.700  1.00  0.00    -0.014 A 
BRANCH  39  40
ATOM     40  C   UNL A   1      41.032  27.829  28.107  1.00  0.00     0.031 A 
ATOM     41  C   UNL A   1      42.523  28.028  28.032  1.00  0.00     0.074 A 
ATOM     42  C   UNL A   1      40.239  28.796  28.612  1.00  0.00     0.049 A 
ATOM     43  N   UNL A   1      43.243  29.038  28.446  1.00  0.00    -0.248 NA
ATOM     44  C   UNL A   1      43.314  26.935  27.439  1.00  0.00     0.031 C 
ATOM     45  C   UNL A   1      38.785  28.706  28.769  1.00  0.00     0.029 A 
ATOM     46  N   UNL A   1      40.546  30.041  29.106  1.00  0.00    -0.354 N 
ATOM     47  C   UNL A   1      44.565  28.692  28.190  1.00  0.00     0.074 A 
ATOM     48  C   UNL A   1      44.554  27.363  27.622  1.00  0.00     0.031 C 
ATOM     49  C   UNL A   1      38.328  29.848  29.309  1.00  0.00     0.029 A 
ATOM     50  C   UNL A   1      39.455  30.734  29.579  1.00  0.00     0.049 A 
ATOM     51  H   UNL A   1      41.461  30.403  29.119  1.00  0.00     0.167 HD
ATOM     52  C   UNL A   1      45.683  29.427  28.391  1.00  0.00     0.037 A 
ATOM     53  C   UNL A   1      39.378  31.938  30.180  1.00  0.00     0.037 A 
ATOM     54  C   UNL A   1      45.680  30.767  28.915  1.00  0.00     0.049 A 
ATOM     55  C   UNL A   1      40.642  32.731  30.394  1.00  0.00     0.074 A 
ATOM     56  C   UNL A   1      46.754  31.621  29.087  1.00  0.00     0.029 A 
ATOM     57  N   UNL A   1      44.553  31.446  29.350  1.00  0.00    -0.354 N 
ATOM     58  N   UNL A   1      41.876  32.416  30.079  1.00  0.00    -0.248 NA
ATOM     59  C   UNL A   1      40.505  34.045  31.041  1.00  0.00     0.031 C 
ATOM     60  C   UNL A   1      46.284  32.798  29.678  1.00  0.00     0.029 A 
ATOM     61  C   UNL A   1      44.909  32.701  29.813  1.00  0.00     0.049 A 
ATOM     62  H   UNL A   1      43.634  31.090  29.331  1.00  0.00     0.167 HD
ATOM     63  C   UNL A   1      42.654  33.510  30.447  1.00  0.00     0.074 A 
ATOM     64  C   UNL A   1      41.752  34.495  31.004  1.00  0.00     0.031 C 
ATOM     65  C   UNL A   1      43.992  33.684  30.333  1.00  0.00     0.037 A 
BRANCH  52  66
ATOM     66  C   UNL A   1      47.011  28.815  28.040  1.00  0.00     0.058 A 
ATOM     67  C   UNL A   1      47.557  28.921  26.752  1.00  0.00     0.135 A 
ATOM     68  C   UNL A   1      47.788  28.194  29.032  1.00  0.00     0.135 A 
ATOM     69  F   UNL A   1      46.850  29.488  25.762  1.00  0.00    -0.206 F 
ATOM     70  C   UNL A   1      48.825  28.431  26.457  1.00  0.00     0.059 A 
ATOM     71  C   UNL A   1      49.070  27.720  28.767  1.00  0.00     0.059 A 
ATOM     72  F   UNL A   1      47.311  28.060  30.280  1.00  0.00    -0.206 F 
ATOM     73  C   UNL A   1      49.579  27.842  27.475  1.00  0.00     0.060 A 
BRANCH  73  74
ATOM     74  S   UNL A   1      51.244  27.264  27.087  1.00  0.00     0.124 S 
ATOM     75  O   UNL A   1      51.273  27.407  25.635  1.00  0.00    -0.237 OA
ATOM     76  O   UNL A   1      52.078  28.201  27.833  1.00  0.00    -0.237 OA
ATOM     77  O   UNL A   1      51.251  25.890  27.582  1.00  0.00    -0.744 OA
ENDBRANCH  73  74
ENDBRANCH  52  66
BRANCH  53  78
ATOM     78  C   UNL A   1      38.063  32.478  30.629  1.00  0.00     0.058 A 
ATOM     79  C   UNL A   1      37.251  33.221  29.759  1.00  0.00     0.135 A 
ATOM     80  C   UNL A   1      37.613  32.299  31.946  1.00  0.00     0.135 A 
ATOM     81  F   UNL A   1      37.636  33.424  28.490  1.00  0.00    -0.206 F 
ATOM     82  C   UNL A   1      36.062  33.804  30.188  1.00  0.00     0.059 A 
ATOM     83  C   UNL A   1      36.412  32.843  32.390  1.00  0.00     0.059 A 
ATOM     84  F   UNL A   1      38.339  31.579  32.815  1.00  0.00    -0.206 F 
ATOM     85  C   UNL A   1      35.654  33.613  31.509  1.00  0.00     0.060 A 
BRANCH  85  86
ATOM     86  S   UNL A   1      34.113  34.377  32.059  1.00  0.00     0.124 S 
ATOM     87  O   UNL A   1      34.601  35.589  32.706  1.00  0.00    -0.237 OA
ATOM     88  O   UNL A   1      33.399  34.566  30.801  1.00  0.00    -0.237 OA
ATOM     89  O   UNL A   1      33.540  33.372  32.950  1.00  0.00    -0.744 OA
ENDBRANCH  85  86
ENDBRANCH  53  78
BRANCH  65  90
ATOM     90  C   UNL A   1      44.568  35.010  30.748  1.00  0.00     0.058 A 
ATOM     91  C   UNL A   1      45.153  35.205  32.008  1.00  0.00     0.135 A 
ATOM     92  C   UNL A   1      44.603  36.078  29.835  1.00  0.00     0.135 A 
ATOM     93  F   UNL A   1      45.139  34.219  32.920  1.00  0.00    -0.206 F 
ATOM     94  C   UNL A   1      45.741  36.417  32.355  1.00  0.00     0.059 A 
ATOM     95  C   UNL A   1      45.214  37.287  30.148  1.00  0.00     0.059 A 
ATOM     96  F   UNL A   1      44.067  35.940  28.612  1.00  0.00    -0.206 F 
ATOM     97  C   UNL A   1      45.774  37.450  31.414  1.00  0.00     0.060 A 
BRANCH  97  98
ATOM     98  S   UNL A   1      46.591  38.997  31.857  1.00  0.00     0.124 S 
ATOM     99  O   UNL A   1      45.452  39.850  32.179  1.00  0.00    -0.237 OA
ATOM    100  O   UNL A   1      47.424  38.597  32.987  1.00  0.00    -0.237 OA
ATOM    101  O   UNL A   1      47.321  39.356  30.645  1.00  0.00    -0.744 OA
ENDBRANCH  97  98
ENDBRANCH  65  90
ENDBRANCH  39  40
ENDBRANCH  31  34
ENDBRANCH  29  30
ENDBRANCH  28  29
ENDBRANCH  27  28
ENDBRANCH   1  27
TORSDOF 22
ENDMDL
