MODEL 1
REMARK VINA RESULT:      -9.7      0.000      0.000
REMARK SMILES CCN(CCOC)C(=O)Cn1cccc1C(=O)NCCCCCCNC(=O)c1ccc(-c2c3nc(c(-c4c(F)cc(S(=O)(=O)[O-])cc4F)c4ccc([nH]4)c(-c4c(F)cc(S(=O)(=O)[O-])cc4F)c4nc(c(-c5c(F)cc(S(=O)(=O)[O-])cc5F)c5ccc2[nH]5)C=C4)C=C3)cc1
REMARK SMILES IDX 20 1 19 2 18 3 16 4 17 5 15 7 11 8 12 9 13 10 14 11 10 12
REMARK SMILES IDX 8 13 9 14 3 15 2 16 1 17 4 18 5 19 6 20 7 21 21 22 22 23
REMARK SMILES IDX 23 24 24 25 25 26 26 27 27 29 28 30 29 31 93 32 30 33 92 34
REMARK SMILES IDX 31 35 32 36 33 37 86 38 34 39 91 40 85 41 87 42 35 43 90 44
REMARK SMILES IDX 84 45 83 46 36 48 70 49 49 50 69 51 50 52 53 53 68 54 88 55
REMARK SMILES IDX 51 56 52 57 67 59 89 60 54 61 37 62 38 63 47 64 39 65 40 66
REMARK SMILES IDX 46 67 48 68 41 69 42 70 43 71 44 72 45 73 71 74 72 75 81 76
REMARK SMILES IDX 73 77 74 78 80 79 82 80 75 81 76 82 77 83 78 84 79 85 55 86
REMARK SMILES IDX 56 87 65 88 57 89 58 90 64 91 66 92 59 93 60 94 61 95 62 96
REMARK SMILES IDX 63 97
REMARK H PARENT 18 6 25 28 87 47 53 58
REMARK Flexibility Score: inf
ROOT
ATOM      1  C   UNL A   1      35.052  22.789  23.151  1.00  0.00     0.021 C 
ENDROOT
BRANCH   1   2
ATOM      2  C   UNL A   1      34.293  24.037  23.756  1.00  0.00     0.116 C 
BRANCH   2   3
ATOM      3  N   UNL A   1      33.446  24.922  22.764  1.00  0.00    -0.351 N 
ATOM      4  C   UNL A   1      33.078  26.252  22.440  1.00  0.00     0.267 C 
ATOM      5  O   UNL A   1      33.725  26.915  21.633  1.00  0.00    -0.268 OA
ATOM      6  H   UNL A   1      33.004  24.321  22.122  1.00  0.00     0.163 HD
BRANCH   4   7
ATOM      7  C   UNL A   1      31.919  26.925  22.925  1.00  0.00     0.107 A 
ATOM      8  N   UNL A   1      31.744  27.402  24.169  1.00  0.00    -0.334 N 
ATOM      9  C   UNL A   1      30.412  27.676  24.360  1.00  0.00     0.087 A 
ATOM     10  C   UNL A   1      29.816  27.721  23.117  1.00  0.00     0.020 A 
ATOM     11  C   UNL A   1      30.807  27.336  22.192  1.00  0.00     0.033 A 
BRANCH   8  12
ATOM     12  C   UNL A   1      32.786  27.317  25.149  1.00  0.00     0.222 C 
BRANCH  12  13
ATOM     13  C   UNL A   1      33.709  28.518  25.434  1.00  0.00     0.242 C 
ATOM     14  O   UNL A   1      34.342  28.817  24.389  1.00  0.00    -0.273 OA
BRANCH  13  15
ATOM     15  N   UNL A   1      33.930  29.370  26.561  1.00  0.00    -0.339 N 
BRANCH  15  16
ATOM     16  C   UNL A   1      35.321  29.155  27.045  1.00  0.00     0.116 C 
ATOM     17  C   UNL A   1      35.569  29.636  28.490  1.00  0.00     0.027 C 
ENDBRANCH  15  16
BRANCH  15  18
ATOM     18  C   UNL A   1      33.118  30.503  27.384  1.00  0.00     0.148 C 
BRANCH  18  19
ATOM     19  C   UNL A   1      33.240  32.265  27.446  1.00  0.00     0.181 C 
BRANCH  19  20
ATOM     20  O   UNL A   1      34.185  33.161  28.129  1.00  0.00    -0.383 OA
ATOM     21  C   UNL A   1      35.633  33.337  28.110  1.00  0.00     0.194 C 
ENDBRANCH  19  20
ENDBRANCH  18  19
ENDBRANCH  15  18
ENDBRANCH  13  15
ENDBRANCH  12  13
ENDBRANCH   8  12
ENDBRANCH   4   7
ENDBRANCH   2   3
ENDBRANCH   1   2
BRANCH   1  22
ATOM     22  C   UNL A   1      36.484  22.395  23.673  1.00  0.00     0.002 C 
BRANCH  22  23
ATOM     23  C   UNL A   1      36.597  21.466  24.889  1.00  0.00     0.002 C 
BRANCH  23  24
ATOM     24  C   UNL A   1      37.799  20.523  24.854  1.00  0.00     0.021 C 
BRANCH  24  25
ATOM     25  C   UNL A   1      38.789  20.732  26.001  1.00  0.00     0.116 C 
BRANCH  25  26
ATOM     26  N   UNL A   1      39.823  19.715  26.015  1.00  0.00    -0.352 N 
ATOM     27  C   UNL A   1      41.189  19.894  25.981  1.00  0.00     0.251 C 
ATOM     28  H   UNL A   1      39.510  18.782  26.052  1.00  0.00     0.163 HD
ATOM     29  O   UNL A   1      41.909  19.005  25.585  1.00  0.00    -0.269 OA
BRANCH  27  30
ATOM     30  C   UNL A   1      41.775  21.172  26.446  1.00  0.00     0.039 A 
ATOM     31  C   UNL A   1      42.079  22.148  25.490  1.00  0.00     0.014 A 
ATOM     32  C   UNL A   1      42.140  21.345  27.787  1.00  0.00     0.014 A 
ATOM     33  C   UNL A   1      42.728  23.313  25.882  1.00  0.00     0.010 A 
ATOM     34  C   UNL A   1      42.777  22.513  28.184  1.00  0.00     0.010 A 
ATOM     35  C   UNL A   1      43.073  23.491  27.228  1.00  0.00    -0.014 A 
BRANCH  35  36
ATOM     36  C   UNL A   1      43.636  24.787  27.657  1.00  0.00     0.031 A 
ATOM     37  C   UNL A   1      42.503  25.766  28.057  1.00  0.00     0.074 A 
ATOM     38  C   UNL A   1      45.005  24.898  27.598  1.00  0.00     0.049 A 
ATOM     39  N   UNL A   1      42.439  27.055  27.939  1.00  0.00    -0.248 NA
ATOM     40  C   UNL A   1      41.202  25.233  28.565  1.00  0.00     0.031 C 
ATOM     41  C   UNL A   1      45.928  23.813  27.174  1.00  0.00     0.029 A 
ATOM     42  N   UNL A   1      45.909  25.906  27.872  1.00  0.00    -0.354 N 
ATOM     43  C   UNL A   1      41.238  27.499  28.549  1.00  0.00     0.074 A 
ATOM     44  C   UNL A   1      40.456  26.323  28.779  1.00  0.00     0.031 C 
ATOM     45  C   UNL A   1      47.211  24.244  27.134  1.00  0.00     0.029 A 
ATOM     46  C   UNL A   1      47.274  25.630  27.553  1.00  0.00     0.049 A 
ATOM     47  H   UNL A   1      45.629  26.764  28.265  1.00  0.00     0.167 HD
ATOM     48  C   UNL A   1      41.049  28.790  28.969  1.00  0.00     0.037 A 
ATOM     49  C   UNL A   1      48.357  26.476  27.585  1.00  0.00     0.037 A 
ATOM     50  C   UNL A   1      42.255  29.519  28.753  1.00  0.00     0.049 A 
ATOM     51  C   UNL A   1      47.842  27.699  28.214  1.00  0.00     0.074 A 
ATOM     52  C   UNL A   1      42.874  29.932  27.603  1.00  0.00     0.029 A 
ATOM     53  N   UNL A   1      43.161  29.500  29.789  1.00  0.00    -0.354 N 
ATOM     54  N   UNL A   1      47.527  27.813  29.468  1.00  0.00    -0.248 NA
ATOM     55  C   UNL A   1      47.569  28.858  27.354  1.00  0.00     0.031 C 
ATOM     56  C   UNL A   1      44.220  29.612  27.861  1.00  0.00     0.029 A 
ATOM     57  C   UNL A   1      44.399  29.344  29.226  1.00  0.00     0.049 A 
ATOM     58  H   UNL A   1      42.958  29.583  30.748  1.00  0.00     0.167 HD
ATOM     59  C   UNL A   1      46.706  28.912  29.457  1.00  0.00     0.074 A 
ATOM     60  C   UNL A   1      47.029  29.667  28.260  1.00  0.00     0.031 C 
ATOM     61  C   UNL A   1      45.477  28.816  30.027  1.00  0.00     0.037 A 
BRANCH  48  62
ATOM     62  C   UNL A   1      40.020  29.491  29.821  1.00  0.00     0.058 A 
ATOM     63  C   UNL A   1      39.088  30.336  29.158  1.00  0.00     0.135 A 
ATOM     64  C   UNL A   1      40.131  29.667  31.205  1.00  0.00     0.135 A 
ATOM     65  F   UNL A   1      38.858  30.204  27.839  1.00  0.00    -0.206 F 
ATOM     66  C   UNL A   1      38.434  31.385  29.794  1.00  0.00     0.059 A 
ATOM     67  C   UNL A   1      39.445  30.690  31.876  1.00  0.00     0.059 A 
ATOM     68  F   UNL A   1      40.964  28.909  31.929  1.00  0.00    -0.206 F 
ATOM     69  C   UNL A   1      38.645  31.576  31.152  1.00  0.00     0.060 A 
BRANCH  69  70
ATOM     70  S   UNL A   1      37.885  33.017  31.933  1.00  0.00     0.124 S 
ATOM     71  O   UNL A   1      36.596  32.483  32.357  1.00  0.00    -0.237 OA
ATOM     72  O   UNL A   1      38.828  33.317  33.007  1.00  0.00    -0.237 OA
ATOM     73  O   UNL A   1      37.842  34.000  30.857  1.00  0.00    -0.744 OA
ENDBRANCH  69  70
ENDBRANCH  48  62
BRANCH  49  74
ATOM     74  C   UNL A   1      49.792  26.575  27.079  1.00  0.00     0.058 A 
ATOM     75  C   UNL A   1      50.959  26.345  27.816  1.00  0.00     0.135 A 
ATOM     76  C   UNL A   1      50.024  26.737  25.677  1.00  0.00     0.135 A 
ATOM     77  F   UNL A   1      50.933  26.324  29.155  1.00  0.00    -0.206 F 
ATOM     78  C   UNL A   1      52.207  26.105  27.196  1.00  0.00     0.059 A 
ATOM     79  C   UNL A   1      51.222  26.436  25.037  1.00  0.00     0.059 A 
ATOM     80  F   UNL A   1      49.059  27.156  24.845  1.00  0.00    -0.206 F 
ATOM     81  C   UNL A   1      52.310  26.079  25.804  1.00  0.00     0.060 A 
BRANCH  81  82
ATOM     82  S   UNL A   1      53.795  25.456  24.981  1.00  0.00     0.124 S 
ATOM     83  O   UNL A   1      53.432  25.555  23.573  1.00  0.00    -0.237 OA
ATOM     84  O   UNL A   1      54.821  26.387  25.443  1.00  0.00    -0.237 OA
ATOM     85  O   UNL A   1      53.924  24.098  25.504  1.00  0.00    -0.744 OA
ENDBRANCH  81  82
ENDBRANCH  49  74
BRANCH  61  86
ATOM     86  C   UNL A   1      45.370  27.858  31.206  1.00  0.00     0.058 A 
ATOM     87  C   UNL A   1      46.129  28.093  32.367  1.00  0.00     0.135 A 
ATOM     88  C   UNL A   1      44.596  26.684  31.222  1.00  0.00     0.135 A 
ATOM     89  F   UNL A   1      46.893  29.194  32.456  1.00  0.00    -0.206 F 
ATOM     90  C   UNL A   1      46.116  27.228  33.467  1.00  0.00     0.059 A 
ATOM     91  C   UNL A   1      44.558  25.802  32.311  1.00  0.00     0.059 A 
ATOM     92  F   UNL A   1      43.844  26.355  30.173  1.00  0.00    -0.206 F 
ATOM     93  C   UNL A   1      45.319  26.086  33.436  1.00  0.00     0.060 A 
BRANCH  93  94
ATOM     94  S   UNL A   1      45.253  25.024  34.898  1.00  0.00     0.124 S 
ATOM     95  O   UNL A   1      46.459  24.212  34.754  1.00  0.00    -0.237 OA
ATOM     96  O   UNL A   1      45.275  25.998  35.984  1.00  0.00    -0.237 OA
ATOM     97  O   UNL A   1      43.996  24.295  34.741  1.00  0.00    -0.744 OA
ENDBRANCH  93  94
ENDBRANCH  61  86
ENDBRANCH  35  36
ENDBRANCH  27  30
ENDBRANCH  25  26
ENDBRANCH  24  25
ENDBRANCH  23  24
ENDBRANCH  22  23
ENDBRANCH   1  22
TORSDOF 23
ENDMDL
MODEL 2
REMARK VINA RESULT:      -9.6      6.699     14.061
REMARK SMILES CCN(CCOC)C(=O)Cn1cccc1C(=O)NCCCCCCNC(=O)c1ccc(-c2c3nc(c(-c4c(F)cc(S(=O)(=O)[O-])cc4F)c4ccc([nH]4)c(-c4c(F)cc(S(=O)(=O)[O-])cc4F)c4nc(c(-c5c(F)cc(S(=O)(=O)[O-])cc5F)c5ccc2[nH]5)C=C4)C=C3)cc1
REMARK SMILES IDX 20 1 19 2 18 3 16 4 17 5 15 7 11 8 12 9 13 10 14 11 10 12
REMARK SMILES IDX 8 13 9 14 3 15 2 16 1 17 4 18 5 19 6 20 7 21 21 22 22 23
REMARK SMILES IDX 23 24 24 25 25 26 26 27 27 29 28 30 29 31 93 32 30 33 92 34
REMARK SMILES IDX 31 35 32 36 33 37 86 38 34 39 91 40 85 41 87 42 35 43 90 44
REMARK SMILES IDX 84 45 83 46 36 48 70 49 49 50 69 51 50 52 53 53 68 54 88 55
REMARK SMILES IDX 51 56 52 57 67 59 89 60 54 61 37 62 38 63 47 64 39 65 40 66
REMARK SMILES IDX 46 67 48 68 41 69 42 70 43 71 44 72 45 73 71 74 72 75 81 76
REMARK SMILES IDX 73 77 74 78 80 79 82 80 75 81 76 82 77 83 78 84 79 85 55 86
REMARK SMILES IDX 56 87 65 88 57 89 58 90 64 91 66 92 59 93 60 94 61 95 62 96
REMARK SMILES IDX 63 97
REMARK H PARENT 18 6 25 28 87 47 53 58
REMARK Flexibility Score: inf
ROOT
ATOM      1  C   UNL A   1      44.586  40.741  31.300  1.00  0.00     0.021 C 
ENDROOT
BRANCH   1   2
ATOM      2  C   UNL A   1      44.586  39.942  29.935  1.00  0.00     0.116 C 
BRANCH   2   3
ATOM      3  N   UNL A   1      43.211  39.800  29.177  1.00  0.00    -0.351 N 
ATOM      4  C   UNL A   1      42.593  39.300  28.004  1.00  0.00     0.267 C 
ATOM      5  O   UNL A   1      42.120  38.167  27.965  1.00  0.00    -0.268 OA
ATOM      6  H   UNL A   1      42.514  40.219  29.731  1.00  0.00     0.163 HD
BRANCH   4   7
ATOM      7  C   UNL A   1      42.379  40.044  26.807  1.00  0.00     0.107 A 
ATOM      8  N   UNL A   1      43.330  40.461  25.954  1.00  0.00    -0.334 N 
ATOM      9  C   UNL A   1      42.797  41.412  25.119  1.00  0.00     0.087 A 
ATOM     10  C   UNL A   1      41.424  41.317  25.207  1.00  0.00     0.020 A 
ATOM     11  C   UNL A   1      41.159  40.371  26.218  1.00  0.00     0.033 A 
BRANCH   8  12
ATOM     12  C   UNL A   1      44.709  40.128  26.161  1.00  0.00     0.222 C 
BRANCH  12  13
ATOM     13  C   UNL A   1      45.807  40.669  25.225  1.00  0.00     0.242 C 
ATOM     14  O   UNL A   1      46.458  39.707  24.744  1.00  0.00    -0.273 OA
BRANCH  13  15
ATOM     15  N   UNL A   1      46.174  41.967  24.752  1.00  0.00    -0.339 N 
BRANCH  15  16
ATOM     16  C   UNL A   1      46.976  41.804  23.509  1.00  0.00     0.116 C 
ATOM     17  C   UNL A   1      47.389  43.133  22.843  1.00  0.00     0.027 C 
ENDBRANCH  15  16
BRANCH  15  18
ATOM     18  C   UNL A   1      45.912  43.512  25.163  1.00  0.00     0.148 C 
BRANCH  18  19
ATOM     19  C   UNL A   1      45.847  44.349  26.717  1.00  0.00     0.181 C 
BRANCH  19  20
ATOM     20  O   UNL A   1      45.056  44.105  27.933  1.00  0.00    -0.383 OA
ATOM     21  C   UNL A   1      45.374  43.879  29.339  1.00  0.00     0.194 C 
ENDBRANCH  19  20
ENDBRANCH  18  19
ENDBRANCH  15  18
ENDBRANCH  13  15
ENDBRANCH  12  13
ENDBRANCH   8  12
ENDBRANCH   4   7
ENDBRANCH   2   3
ENDBRANCH   1   2
BRANCH   1  22
ATOM     22  C   UNL A   1      43.574  40.365  32.445  1.00  0.00     0.002 C 
BRANCH  22  23
ATOM     23  C   UNL A   1      43.901  39.179  33.361  1.00  0.00     0.002 C 
BRANCH  23  24
ATOM     24  C   UNL A   1      44.033  37.840  32.637  1.00  0.00     0.021 C 
BRANCH  24  25
ATOM     25  C   UNL A   1      45.403  37.179  32.796  1.00  0.00     0.116 C 
BRANCH  25  26
ATOM     26  N   UNL A   1      46.180  37.245  31.572  1.00  0.00    -0.352 N 
ATOM     27  C   UNL A   1      46.315  36.277  30.600  1.00  0.00     0.251 C 
ATOM     28  H   UNL A   1      46.672  38.084  31.418  1.00  0.00     0.163 HD
ATOM     29  O   UNL A   1      47.281  36.280  29.869  1.00  0.00    -0.269 OA
BRANCH  27  30
ATOM     30  C   UNL A   1      45.266  35.245  30.440  1.00  0.00     0.039 A 
ATOM     31  C   UNL A   1      44.385  35.358  29.358  1.00  0.00     0.014 A 
ATOM     32  C   UNL A   1      45.075  34.261  31.418  1.00  0.00     0.014 A 
ATOM     33  C   UNL A   1      43.324  34.468  29.242  1.00  0.00     0.010 A 
ATOM     34  C   UNL A   1      44.025  33.362  31.298  1.00  0.00     0.010 A 
ATOM     35  C   UNL A   1      43.150  33.472  30.212  1.00  0.00    -0.014 A 
BRANCH  35  36
ATOM     36  C   UNL A   1      42.105  32.449  30.006  1.00  0.00     0.031 A 
ATOM     37  C   UNL A   1      42.670  31.251  29.199  1.00  0.00     0.074 A 
ATOM     38  C   UNL A   1      40.865  32.742  30.520  1.00  0.00     0.049 A 
ATOM     39  N   UNL A   1      42.081  30.476  28.344  1.00  0.00    -0.248 NA
ATOM     40  C   UNL A   1      44.127  30.928  29.266  1.00  0.00     0.031 C 
ATOM     41  C   UNL A   1      40.529  33.976  31.277  1.00  0.00     0.029 A 
ATOM     42  N   UNL A   1      39.642  32.099  30.530  1.00  0.00    -0.354 N 
ATOM     43  C   UNL A   1      42.996  29.463  27.959  1.00  0.00     0.074 A 
ATOM     44  C   UNL A   1      44.275  29.884  28.442  1.00  0.00     0.031 C 
ATOM     45  C   UNL A   1      39.210  34.025  31.580  1.00  0.00     0.029 A 
ATOM     46  C   UNL A   1      38.551  32.832  31.089  1.00  0.00     0.049 A 
ATOM     47  H   UNL A   1      39.530  31.187  30.173  1.00  0.00     0.167 HD
ATOM     48  C   UNL A   1      42.601  28.271  27.410  1.00  0.00     0.037 A 
ATOM     49  C   UNL A   1      37.214  32.510  31.109  1.00  0.00     0.037 A 
ATOM     50  C   UNL A   1      41.176  28.233  27.385  1.00  0.00     0.049 A 
ATOM     51  C   UNL A   1      37.164  31.135  30.595  1.00  0.00     0.074 A 
ATOM     52  C   UNL A   1      40.260  28.934  26.645  1.00  0.00     0.029 A 
ATOM     53  N   UNL A   1      40.570  27.717  28.508  1.00  0.00    -0.354 N 
ATOM     54  N   UNL A   1      37.579  30.087  31.238  1.00  0.00    -0.248 NA
ATOM     55  C   UNL A   1      36.701  30.928  29.218  1.00  0.00     0.031 C 
ATOM     56  C   UNL A   1      39.298  29.277  27.613  1.00  0.00     0.029 A 
ATOM     57  C   UNL A   1      39.491  28.516  28.775  1.00  0.00     0.049 A 
ATOM     58  H   UNL A   1      40.856  26.927  29.020  1.00  0.00     0.167 HD
ATOM     59  C   UNL A   1      37.752  29.180  30.225  1.00  0.00     0.074 A 
ATOM     60  C   UNL A   1      36.919  29.620  29.120  1.00  0.00     0.031 C 
ATOM     61  C   UNL A   1      38.946  28.543  30.112  1.00  0.00     0.037 A 
BRANCH  48  62
ATOM     62  C   UNL A   1      43.281  26.956  27.118  1.00  0.00     0.058 A 
ATOM     63  C   UNL A   1      43.388  26.564  25.755  1.00  0.00     0.135 A 
ATOM     64  C   UNL A   1      43.482  25.945  28.064  1.00  0.00     0.135 A 
ATOM     65  F   UNL A   1      43.277  27.471  24.768  1.00  0.00    -0.206 F 
ATOM     66  C   UNL A   1      43.525  25.239  25.359  1.00  0.00     0.059 A 
ATOM     67  C   UNL A   1      43.667  24.608  27.687  1.00  0.00     0.059 A 
ATOM     68  F   UNL A   1      43.424  26.211  29.375  1.00  0.00    -0.206 F 
ATOM     69  C   UNL A   1      43.629  24.259  26.335  1.00  0.00     0.060 A 
BRANCH  69  70
ATOM     70  S   UNL A   1      43.679  22.534  25.802  1.00  0.00     0.124 S 
ATOM     71  O   UNL A   1      42.551  21.963  26.529  1.00  0.00    -0.237 OA
ATOM     72  O   UNL A   1      43.504  22.653  24.357  1.00  0.00    -0.237 OA
ATOM     73  O   UNL A   1      45.000  22.087  26.229  1.00  0.00    -0.744 OA
ENDBRANCH  69  70
ENDBRANCH  48  62
BRANCH  49  74
ATOM     74  C   UNL A   1      35.851  33.148  31.357  1.00  0.00     0.058 A 
ATOM     75  C   UNL A   1      35.129  33.148  32.556  1.00  0.00     0.135 A 
ATOM     76  C   UNL A   1      35.291  33.999  30.353  1.00  0.00     0.135 A 
ATOM     77  F   UNL A   1      35.433  32.292  33.540  1.00  0.00    -0.206 F 
ATOM     78  C   UNL A   1      34.070  34.051  32.798  1.00  0.00     0.059 A 
ATOM     79  C   UNL A   1      34.299  34.946  30.587  1.00  0.00     0.059 A 
ATOM     80  F   UNL A   1      35.729  33.979  29.085  1.00  0.00    -0.206 F 
ATOM     81  C   UNL A   1      33.713  34.996  31.834  1.00  0.00     0.060 A 
BRANCH  81  82
ATOM     82  S   UNL A   1      32.603  36.368  32.225  1.00  0.00     0.124 S 
ATOM     83  O   UNL A   1      31.365  35.676  32.564  1.00  0.00    -0.237 OA
ATOM     84  O   UNL A   1      33.293  37.021  33.335  1.00  0.00    -0.237 OA
ATOM     85  O   UNL A   1      32.573  37.141  30.986  1.00  0.00    -0.744 OA
ENDBRANCH  81  82
ENDBRANCH  49  74
BRANCH  61  86
ATOM     86  C   UNL A   1      39.690  28.301  31.419  1.00  0.00     0.058 A 
ATOM     87  C   UNL A   1      40.992  28.808  31.583  1.00  0.00     0.135 A 
ATOM     88  C   UNL A   1      39.200  27.542  32.496  1.00  0.00     0.135 A 
ATOM     89  F   UNL A   1      41.546  29.556  30.616  1.00  0.00    -0.206 F 
ATOM     90  C   UNL A   1      41.750  28.582  32.737  1.00  0.00     0.059 A 
ATOM     91  C   UNL A   1      39.933  27.304  33.666  1.00  0.00     0.059 A 
ATOM     92  F   UNL A   1      37.982  27.004  32.447  1.00  0.00    -0.206 F 
ATOM     93  C   UNL A   1      41.210  27.835  33.782  1.00  0.00     0.060 A 
BRANCH  93  94
ATOM     94  S   UNL A   1      42.174  27.622  35.297  1.00  0.00     0.124 S 
ATOM     95  O   UNL A   1      41.358  28.314  36.291  1.00  0.00    -0.237 OA
ATOM     96  O   UNL A   1      42.226  26.170  35.424  1.00  0.00    -0.237 OA
ATOM     97  O   UNL A   1      43.450  28.266  34.990  1.00  0.00    -0.744 OA
ENDBRANCH  93  94
ENDBRANCH  61  86
ENDBRANCH  35  36
ENDBRANCH  27  30
ENDBRANCH  25  26
ENDBRANCH  24  25
ENDBRANCH  23  24
ENDBRANCH  22  23
ENDBRANCH   1  22
TORSDOF 23
ENDMDL
MODEL 3
REMARK VINA RESULT:      -9.6      3.509      9.698
REMARK SMILES CCN(CCOC)C(=O)Cn1cccc1C(=O)NCCCCCCNC(=O)c1ccc(-c2c3nc(c(-c4c(F)cc(S(=O)(=O)[O-])cc4F)c4ccc([nH]4)c(-c4c(F)cc(S(=O)(=O)[O-])cc4F)c4nc(c(-c5c(F)cc(S(=O)(=O)[O-])cc5F)c5ccc2[nH]5)C=C4)C=C3)cc1
REMARK SMILES IDX 20 1 19 2 18 3 16 4 17 5 15 7 11 8 12 9 13 10 14 11 10 12
REMARK SMILES IDX 8 13 9 14 3 15 2 16 1 17 4 18 5 19 6 20 7 21 21 22 22 23
REMARK SMILES IDX 23 24 24 25 25 26 26 27 27 29 28 30 29 31 93 32 30 33 92 34
REMARK SMILES IDX 31 35 32 36 33 37 86 38 34 39 91 40 85 41 87 42 35 43 90 44
REMARK SMILES IDX 84 45 83 46 36 48 70 49 49 50 69 51 50 52 53 53 68 54 88 55
REMARK SMILES IDX 51 56 52 57 67 59 89 60 54 61 37 62 38 63 47 64 39 65 40 66
REMARK SMILES IDX 46 67 48 68 41 69 42 70 43 71 44 72 45 73 71 74 72 75 81 76
REMARK SMILES IDX 73 77 74 78 80 79 82 80 75 81 76 82 77 83 78 84 79 85 55 86
REMARK SMILES IDX 56 87 65 88 57 89 58 90 64 91 66 92 59 93 60 94 61 95 62 96
REMARK SMILES IDX 63 97
REMARK H PARENT 18 6 25 28 87 47 53 58
REMARK Flexibility Score: inf
ROOT
ATOM      1  C   UNL A   1      35.628  23.617  25.674  1.00  0.00     0.021 C 
ENDROOT
BRANCH   1   2
ATOM      2  C   UNL A   1      34.138  24.036  25.998  1.00  0.00     0.116 C 
BRANCH   2   3
ATOM      3  N   UNL A   1      33.794  25.574  25.969  1.00  0.00    -0.351 N 
ATOM      4  C   UNL A   1      32.946  26.551  25.389  1.00  0.00     0.267 C 
ATOM      5  O   UNL A   1      31.884  26.869  25.918  1.00  0.00    -0.268 OA
ATOM      6  H   UNL A   1      34.400  26.033  26.595  1.00  0.00     0.163 HD
BRANCH   4   7
ATOM      7  C   UNL A   1      33.246  27.308  24.220  1.00  0.00     0.107 A 
ATOM      8  N   UNL A   1      32.840  27.027  22.969  1.00  0.00    -0.334 N 
ATOM      9  C   UNL A   1      33.583  27.765  22.081  1.00  0.00     0.087 A 
ATOM     10  C   UNL A   1      34.191  28.778  22.792  1.00  0.00     0.020 A 
ATOM     11  C   UNL A   1      33.894  28.540  24.149  1.00  0.00     0.033 A 
BRANCH   8  12
ATOM     12  C   UNL A   1      31.981  25.911  22.702  1.00  0.00     0.222 C 
BRANCH  12  13
ATOM     13  C   UNL A   1      32.546  24.481  22.594  1.00  0.00     0.242 C 
ATOM     14  O   UNL A   1      33.546  24.483  21.832  1.00  0.00    -0.273 OA
BRANCH  13  15
ATOM     15  N   UNL A   1      32.233  23.229  23.208  1.00  0.00    -0.339 N 
BRANCH  15  16
ATOM     16  C   UNL A   1      30.912  23.355  23.882  1.00  0.00     0.116 C 
ATOM     17  C   UNL A   1      30.908  22.900  25.357  1.00  0.00     0.027 C 
ENDBRANCH  15  16
BRANCH  15  18
ATOM     18  C   UNL A   1      32.883  21.749  23.314  1.00  0.00     0.148 C 
BRANCH  18  19
ATOM     19  C   UNL A   1      32.215  20.125  23.121  1.00  0.00     0.181 C 
BRANCH  19  20
ATOM     20  O   UNL A   1      32.440  18.875  23.863  1.00  0.00    -0.383 OA
ATOM     21  C   UNL A   1      33.462  18.399  24.790  1.00  0.00     0.194 C 
ENDBRANCH  19  20
ENDBRANCH  18  19
ENDBRANCH  15  18
ENDBRANCH  13  15
ENDBRANCH  12  13
ENDBRANCH   8  12
ENDBRANCH   4   7
ENDBRANCH   2   3
ENDBRANCH   1   2
BRANCH   1  22
ATOM     22  C   UNL A   1      36.007  22.102  25.477  1.00  0.00     0.002 C 
BRANCH  22  23
ATOM     23  C   UNL A   1      37.269  21.754  24.676  1.00  0.00     0.002 C 
BRANCH  23  24
ATOM     24  C   UNL A   1      38.278  20.892  25.432  1.00  0.00     0.021 C 
BRANCH  24  25
ATOM     25  C   UNL A   1      39.384  21.690  26.125  1.00  0.00     0.116 C 
BRANCH  25  26
ATOM     26  N   UNL A   1      40.704  21.191  25.787  1.00  0.00    -0.352 N 
ATOM     27  C   UNL A   1      41.899  21.878  25.800  1.00  0.00     0.251 C 
ATOM     28  H   UNL A   1      40.751  20.247  25.514  1.00  0.00     0.163 HD
ATOM     29  O   UNL A   1      42.827  21.496  25.122  1.00  0.00    -0.269 OA
BRANCH  27  30
ATOM     30  C   UNL A   1      42.050  23.074  26.659  1.00  0.00     0.039 A 
ATOM     31  C   UNL A   1      41.574  23.009  27.974  1.00  0.00     0.014 A 
ATOM     32  C   UNL A   1      42.531  24.278  26.131  1.00  0.00     0.014 A 
ATOM     33  C   UNL A   1      41.603  24.148  28.770  1.00  0.00     0.010 A 
ATOM     34  C   UNL A   1      42.573  25.415  26.927  1.00  0.00     0.010 A 
ATOM     35  C   UNL A   1      42.104  25.346  28.243  1.00  0.00    -0.014 A 
BRANCH  35  36
ATOM     36  C   UNL A   1      42.258  26.511  29.138  1.00  0.00     0.031 A 
ATOM     37  C   UNL A   1      43.544  26.372  29.994  1.00  0.00     0.074 A 
ATOM     38  C   UNL A   1      41.262  27.455  29.074  1.00  0.00     0.049 A 
ATOM     39  N   UNL A   1      43.782  26.772  31.203  1.00  0.00    -0.248 NA
ATOM     40  C   UNL A   1      44.701  25.580  29.478  1.00  0.00     0.031 C 
ATOM     41  C   UNL A   1      40.089  27.393  28.163  1.00  0.00     0.029 A 
ATOM     42  N   UNL A   1      41.008  28.643  29.732  1.00  0.00    -0.354 N 
ATOM     43  C   UNL A   1      45.142  26.501  31.501  1.00  0.00     0.074 A 
ATOM     44  C   UNL A   1      45.607  25.636  30.460  1.00  0.00     0.031 C 
ATOM     45  C   UNL A   1      39.234  28.419  28.389  1.00  0.00     0.029 A 
ATOM     46  C   UNL A   1      39.759  29.271  29.436  1.00  0.00     0.049 A 
ATOM     47  H   UNL A   1      41.651  29.035  30.367  1.00  0.00     0.167 HD
ATOM     48  C   UNL A   1      45.830  27.144  32.497  1.00  0.00     0.037 A 
ATOM     49  C   UNL A   1      39.183  30.370  30.029  1.00  0.00     0.037 A 
ATOM     50  C   UNL A   1      44.975  28.128  33.075  1.00  0.00     0.049 A 
ATOM     51  C   UNL A   1      40.228  30.891  30.919  1.00  0.00     0.074 A 
ATOM     52  C   UNL A   1      43.854  28.015  33.854  1.00  0.00     0.029 A 
ATOM     53  N   UNL A   1      45.010  29.373  32.488  1.00  0.00    -0.354 N 
ATOM     54  N   UNL A   1      41.311  31.487  30.524  1.00  0.00    -0.248 NA
ATOM     55  C   UNL A   1      40.096  30.643  32.360  1.00  0.00     0.031 C 
ATOM     56  C   UNL A   1      42.993  28.964  33.274  1.00  0.00     0.029 A 
ATOM     57  C   UNL A   1      43.715  29.813  32.422  1.00  0.00     0.049 A 
ATOM     58  H   UNL A   1      45.810  29.853  32.176  1.00  0.00     0.167 HD
ATOM     59  C   UNL A   1      42.124  31.359  31.621  1.00  0.00     0.074 A 
ATOM     60  C   UNL A   1      41.257  31.150  32.765  1.00  0.00     0.031 C 
ATOM     61  C   UNL A   1      43.364  30.829  31.458  1.00  0.00     0.037 A 
BRANCH  48  62
ATOM     62  C   UNL A   1      47.281  27.242  32.897  1.00  0.00     0.058 A 
ATOM     63  C   UNL A   1      48.184  27.796  31.949  1.00  0.00     0.135 A 
ATOM     64  C   UNL A   1      47.860  26.517  33.945  1.00  0.00     0.135 A 
ATOM     65  F   UNL A   1      47.736  28.565  30.940  1.00  0.00    -0.206 F 
ATOM     66  C   UNL A   1      49.546  27.519  31.951  1.00  0.00     0.059 A 
ATOM     67  C   UNL A   1      49.238  26.263  33.992  1.00  0.00     0.059 A 
ATOM     68  F   UNL A   1      47.101  25.970  34.903  1.00  0.00    -0.206 F 
ATOM     69  C   UNL A   1      50.062  26.720  32.961  1.00  0.00     0.060 A 
BRANCH  69  70
ATOM     70  S   UNL A   1      51.809  26.268  32.876  1.00  0.00     0.124 S 
ATOM     71  O   UNL A   1      52.399  27.464  32.287  1.00  0.00    -0.237 OA
ATOM     72  O   UNL A   1      52.133  26.029  34.280  1.00  0.00    -0.237 OA
ATOM     73  O   UNL A   1      51.809  25.079  32.032  1.00  0.00    -0.744 OA
ENDBRANCH  69  70
ENDBRANCH  48  62
BRANCH  49  74
ATOM     74  C   UNL A   1      37.839  31.082  30.138  1.00  0.00     0.058 A 
ATOM     75  C   UNL A   1      36.645  30.551  30.640  1.00  0.00     0.135 A 
ATOM     76  C   UNL A   1      37.777  32.489  29.887  1.00  0.00     0.135 A 
ATOM     77  F   UNL A   1      36.489  29.228  30.783  1.00  0.00    -0.206 F 
ATOM     78  C   UNL A   1      35.564  31.369  31.037  1.00  0.00     0.059 A 
ATOM     79  C   UNL A   1      36.758  33.324  30.334  1.00  0.00     0.059 A 
ATOM     80  F   UNL A   1      38.751  33.132  29.228  1.00  0.00    -0.206 F 
ATOM     81  C   UNL A   1      35.661  32.759  30.948  1.00  0.00     0.060 A 
BRANCH  81  82
ATOM     82  S   UNL A   1      34.449  33.841  31.744  1.00  0.00     0.124 S 
ATOM     83  O   UNL A   1      33.804  32.938  32.689  1.00  0.00    -0.237 OA
ATOM     84  O   UNL A   1      35.294  34.879  32.327  1.00  0.00    -0.237 OA
ATOM     85  O   UNL A   1      33.615  34.287  30.631  1.00  0.00    -0.744 OA
ENDBRANCH  81  82
ENDBRANCH  49  74
BRANCH  61  86
ATOM     86  C   UNL A   1      44.022  31.091  30.110  1.00  0.00     0.058 A 
ATOM     87  C   UNL A   1      44.268  32.415  29.701  1.00  0.00     0.135 A 
ATOM     88  C   UNL A   1      44.369  30.100  29.176  1.00  0.00     0.135 A 
ATOM     89  F   UNL A   1      43.982  33.435  30.526  1.00  0.00    -0.206 F 
ATOM     90  C   UNL A   1      44.824  32.730  28.457  1.00  0.00     0.059 A 
ATOM     91  C   UNL A   1      44.933  30.384  27.925  1.00  0.00     0.059 A 
ATOM     92  F   UNL A   1      44.172  28.811  29.452  1.00  0.00    -0.206 F 
ATOM     93  C   UNL A   1      45.164  31.707  27.574  1.00  0.00     0.060 A 
BRANCH  93  94
ATOM     94  S   UNL A   1      45.956  32.130  26.004  1.00  0.00     0.124 S 
ATOM     95  O   UNL A   1      47.060  32.987  26.428  1.00  0.00    -0.237 OA
ATOM     96  O   UNL A   1      46.336  30.818  25.491  1.00  0.00    -0.237 OA
ATOM     97  O   UNL A   1      44.900  32.810  25.256  1.00  0.00    -0.744 OA
ENDBRANCH  93  94
ENDBRANCH  61  86
ENDBRANCH  35  36
ENDBRANCH  27  30
ENDBRANCH  25  26
ENDBRANCH  24  25
ENDBRANCH  23  24
ENDBRANCH  22  23
ENDBRANCH   1  22
TORSDOF 23
ENDMDL
