MODEL 1
REMARK VINA RESULT:     -10.2      0.000      0.000
REMARK SMILES COc1cccc(C(=O)Nc2ccc(NC(=O)[C@@H]3[C@@H](C(=O)NCCCCCCNC(=O)c4ccc(-c5c6nc(c(-c7c(F)cc(S(=O)(=O)[O-])cc7F)c7ccc([nH]7)c(-c7c(F)cc(S(=O)(=O)[O-])cc7F)c7nc(c(-c8c(F)cc(S(=O)(=O)[O-])cc8F)c8ccc5[nH]8)C=C7)C=C6)cc4)[C@@H]4C=C[C@H]3C4)cc2)c1
REMARK SMILES IDX 24 1 23 2 22 3 20 4 21 5 19 7 18 8 101 9 98 10 100 11 102 12
REMARK SMILES IDX 99 13 16 14 15 15 17 17 14 18 11 19 12 20 104 21 13 22
REMARK SMILES IDX 103 23 10 24 8 25 9 26 7 28 3 29 4 30 105 31 5 32 6 33 2 34
REMARK SMILES IDX 1 35 25 36 26 37 27 38 28 39 29 40 30 41 31 43 32 44 33 45
REMARK SMILES IDX 97 46 34 47 96 48 35 49 36 50 37 51 90 52 38 53 95 54 89 55
REMARK SMILES IDX 91 56 39 57 94 58 88 59 87 60 40 62 74 63 53 64 73 65 54 66
REMARK SMILES IDX 57 67 72 68 92 69 55 70 56 71 71 73 93 74 58 75 41 76 42 77
REMARK SMILES IDX 51 78 43 79 44 80 50 81 52 82 45 83 46 84 47 85 48 86 49 87
REMARK SMILES IDX 75 88 76 89 85 90 77 91 78 92 84 93 86 94 79 95 80 96 81 97
REMARK SMILES IDX 82 98 83 99 59 100 60 101 69 102 61 103 62 104 68 105 70 106
REMARK SMILES IDX 63 107 64 108 65 109 66 110 67 111
REMARK H PARENT 22 6 15 16 10 27 29 42 91 61 57 72
REMARK Flexibility Score: inf
ROOT
ATOM      1  C   UNL A   1      41.572  35.049  29.502  1.00  0.00     0.021 C 
ENDROOT
BRANCH   1   2
ATOM      2  C   UNL A   1      41.320  35.919  28.284  1.00  0.00     0.116 C 
BRANCH   2   3
ATOM      3  N   UNL A   1      42.473  36.258  27.474  1.00  0.00    -0.356 N 
ATOM      4  C   UNL A   1      43.176  37.416  27.311  1.00  0.00     0.224 C 
ATOM      5  O   UNL A   1      44.219  37.310  26.650  1.00  0.00    -0.275 OA
ATOM      6  H   UNL A   1      42.816  35.507  26.938  1.00  0.00     0.163 HD
BRANCH   4   7
ATOM      7  C   UNL A   1      42.745  38.825  27.767  1.00  0.00     0.098 C 
ATOM      8  C   UNL A   1      43.338  40.067  27.056  1.00  0.00     0.099 C 
ATOM      9  C   UNL A   1      43.917  40.895  28.236  1.00  0.00     0.025 C 
ATOM     10  C   UNL A   1      43.176  39.049  29.250  1.00  0.00     0.025 C 
ATOM     11  C   UNL A   1      42.809  41.316  29.173  1.00  0.00    -0.027 C 
ATOM     12  C   UNL A   1      44.511  39.789  29.114  1.00  0.00     0.017 C 
ATOM     13  C   UNL A   1      42.374  40.209  29.794  1.00  0.00    -0.027 C 
BRANCH   8  14
ATOM     14  C   UNL A   1      42.494  40.867  26.094  1.00  0.00     0.228 C 
ATOM     15  N   UNL A   1      43.087  41.853  25.328  1.00  0.00    -0.326 N 
ATOM     16  H   UNL A   1      42.481  42.220  24.645  1.00  0.00     0.169 HD
ATOM     17  O   UNL A   1      41.292  40.650  25.940  1.00  0.00    -0.274 OA
BRANCH  15  18
ATOM     18  C   UNL A   1      44.372  42.458  25.303  1.00  0.00     0.041 A 
ATOM     19  C   UNL A   1      46.710  43.864  24.613  1.00  0.00     0.041 A 
ATOM     20  C   UNL A   1      45.915  44.318  25.649  1.00  0.00     0.028 A 
ATOM     21  C   UNL A   1      46.490  42.591  24.097  1.00  0.00     0.028 A 
ATOM     22  C   UNL A   1      44.740  43.636  25.953  1.00  0.00     0.028 A 
ATOM     23  C   UNL A   1      45.330  41.882  24.456  1.00  0.00     0.028 A 
BRANCH  19  24
ATOM     24  N   UNL A   1      47.573  44.814  24.068  1.00  0.00    -0.322 N 
ATOM     25  C   UNL A   1      47.730  45.238  22.765  1.00  0.00     0.255 C 
ATOM     26  O   UNL A   1      48.502  46.176  22.559  1.00  0.00    -0.269 OA
ATOM     27  H   UNL A   1      48.167  45.253  24.719  1.00  0.00     0.170 HD
BRANCH  25  28
ATOM     28  C   UNL A   1      46.965  44.685  21.615  1.00  0.00     0.043 A 
ATOM     29  C   UNL A   1      44.999  44.494  20.199  1.00  0.00     0.119 A 
ATOM     30  C   UNL A   1      45.621  43.444  19.516  1.00  0.00     0.046 A 
ATOM     31  C   UNL A   1      45.707  45.160  21.200  1.00  0.00     0.060 A 
ATOM     32  C   UNL A   1      46.920  43.052  19.833  1.00  0.00     0.005 A 
ATOM     33  C   UNL A   1      47.586  43.663  20.890  1.00  0.00     0.014 A 
BRANCH  29  34
ATOM     34  O   UNL A   1      43.722  44.738  19.784  1.00  0.00    -0.497 OA
ATOM     35  C   UNL A   1      43.349  44.492  18.437  1.00  0.00     0.278 C 
ENDBRANCH  29  34
ENDBRANCH  25  28
ENDBRANCH  19  24
ENDBRANCH  15  18
ENDBRANCH   8  14
ENDBRANCH   4   7
ENDBRANCH   2   3
ENDBRANCH   1   2
BRANCH   1  36
ATOM     36  C   UNL A   1      40.421  34.162  29.949  1.00  0.00     0.002 C 
BRANCH  36  37
ATOM     37  C   UNL A   1      39.048  34.450  29.333  1.00  0.00     0.002 C 
BRANCH  37  38
ATOM     38  C   UNL A   1      37.811  33.977  30.105  1.00  0.00     0.021 C 
BRANCH  38  39
ATOM     39  C   UNL A   1      36.795  33.143  29.331  1.00  0.00     0.116 C 
BRANCH  39  40
ATOM     40  N   UNL A   1      36.196  32.094  30.132  1.00  0.00    -0.352 N 
ATOM     41  C   UNL A   1      36.644  30.828  30.416  1.00  0.00     0.251 C 
ATOM     42  H   UNL A   1      35.329  32.326  30.536  1.00  0.00     0.163 HD
ATOM     43  O   UNL A   1      35.902  30.052  31.010  1.00  0.00    -0.269 OA
BRANCH  41  44
ATOM     44  C   UNL A   1      37.995  30.387  30.000  1.00  0.00     0.039 A 
ATOM     45  C   UNL A   1      38.213  30.110  28.647  1.00  0.00     0.014 A 
ATOM     46  C   UNL A   1      39.029  30.201  30.923  1.00  0.00     0.014 A 
ATOM     47  C   UNL A   1      39.471  29.685  28.217  1.00  0.00     0.010 A 
ATOM     48  C   UNL A   1      40.304  29.847  30.481  1.00  0.00     0.010 A 
ATOM     49  C   UNL A   1      40.536  29.572  29.126  1.00  0.00    -0.014 A 
BRANCH  49  50
ATOM     50  C   UNL A   1      41.886  29.151  28.664  1.00  0.00     0.031 A 
ATOM     51  C   UNL A   1      43.019  30.140  28.617  1.00  0.00     0.074 A 
ATOM     52  C   UNL A   1      42.084  27.879  28.267  1.00  0.00     0.049 A 
ATOM     53  N   UNL A   1      44.262  29.956  28.251  1.00  0.00    -0.248 NA
ATOM     54  C   UNL A   1      42.712  31.524  29.012  1.00  0.00     0.031 C 
ATOM     55  C   UNL A   1      41.055  26.837  28.225  1.00  0.00     0.029 A 
ATOM     56  N   UNL A   1      43.217  27.242  27.827  1.00  0.00    -0.354 N 
ATOM     57  C   UNL A   1      44.880  31.197  28.365  1.00  0.00     0.074 A 
ATOM     58  C   UNL A   1      43.861  32.138  28.775  1.00  0.00     0.031 C 
ATOM     59  C   UNL A   1      41.612  25.684  27.818  1.00  0.00     0.029 A 
ATOM     60  C   UNL A   1      43.026  25.911  27.538  1.00  0.00     0.049 A 
ATOM     61  H   UNL A   1      44.084  27.695  27.728  1.00  0.00     0.167 HD
ATOM     62  C   UNL A   1      46.183  31.518  28.174  1.00  0.00     0.037 A 
ATOM     63  C   UNL A   1      43.894  24.977  27.103  1.00  0.00     0.037 A 
ATOM     64  C   UNL A   1      47.197  30.573  27.777  1.00  0.00     0.049 A 
ATOM     65  C   UNL A   1      45.334  25.358  26.892  1.00  0.00     0.074 A 
ATOM     66  C   UNL A   1      48.551  30.788  27.595  1.00  0.00     0.029 A 
ATOM     67  N   UNL A   1      46.965  29.234  27.497  1.00  0.00    -0.354 N 
ATOM     68  N   UNL A   1      45.914  26.523  27.064  1.00  0.00    -0.248 NA
ATOM     69  C   UNL A   1      46.241  24.294  26.441  1.00  0.00     0.031 C 
ATOM     70  C   UNL A   1      49.131  29.589  27.164  1.00  0.00     0.029 A 
ATOM     71  C   UNL A   1      48.148  28.613  27.130  1.00  0.00     0.049 A 
ATOM     72  H   UNL A   1      46.087  28.790  27.552  1.00  0.00     0.167 HD
ATOM     73  C   UNL A   1      47.260  26.324  26.773  1.00  0.00     0.074 A 
ATOM     74  C   UNL A   1      47.407  24.924  26.429  1.00  0.00     0.031 C 
ATOM     75  C   UNL A   1      48.280  27.217  26.792  1.00  0.00     0.037 A 
BRANCH  62  76
ATOM     76  C   UNL A   1      46.585  32.953  28.395  1.00  0.00     0.058 A 
ATOM     77  C   UNL A   1      46.640  33.874  27.336  1.00  0.00     0.135 A 
ATOM     78  C   UNL A   1      46.898  33.422  29.681  1.00  0.00     0.135 A 
ATOM     79  F   UNL A   1      46.364  33.481  26.082  1.00  0.00    -0.206 F 
ATOM     80  C   UNL A   1      47.031  35.195  27.536  1.00  0.00     0.059 A 
ATOM     81  C   UNL A   1      47.262  34.747  29.910  1.00  0.00     0.059 A 
ATOM     82  F   UNL A   1      46.860  32.588  30.733  1.00  0.00    -0.206 F 
ATOM     83  C   UNL A   1      47.343  35.621  28.828  1.00  0.00     0.060 A 
BRANCH  83  84
ATOM     84  S   UNL A   1      47.860  37.334  29.069  1.00  0.00     0.124 S 
ATOM     85  O   UNL A   1      49.294  37.243  28.815  1.00  0.00    -0.237 OA
ATOM     86  O   UNL A   1      47.081  38.040  28.057  1.00  0.00    -0.237 OA
ATOM     87  O   UNL A   1      47.484  37.613  30.451  1.00  0.00    -0.744 OA
ENDBRANCH  83  84
ENDBRANCH  62  76
BRANCH  63  88
ATOM     88  C   UNL A   1      43.432  23.581  26.877  1.00  0.00     0.058 A 
ATOM     89  C   UNL A   1      43.264  23.078  25.578  1.00  0.00     0.135 A 
ATOM     90  C   UNL A   1      43.159  22.719  27.951  1.00  0.00     0.135 A 
ATOM     91  F   UNL A   1      43.507  23.865  24.518  1.00  0.00    -0.206 F 
ATOM     92  C   UNL A   1      42.824  21.779  25.349  1.00  0.00     0.059 A 
ATOM     93  C   UNL A   1      42.744  21.406  27.747  1.00  0.00     0.059 A 
ATOM     94  F   UNL A   1      43.322  23.143  29.213  1.00  0.00    -0.206 F 
ATOM     95  C   UNL A   1      42.569  20.949  26.441  1.00  0.00     0.060 A 
BRANCH  95  96
ATOM     96  S   UNL A   1      42.043  19.249  26.134  1.00  0.00     0.124 S 
ATOM     97  O   UNL A   1      42.873  18.886  24.992  1.00  0.00    -0.237 OA
ATOM     98  O   UNL A   1      42.370  18.594  27.397  1.00  0.00    -0.237 OA
ATOM     99  O   UNL A   1      40.615  19.385  25.859  1.00  0.00    -0.744 OA
ENDBRANCH  95  96
ENDBRANCH  63  88
BRANCH  75 100
ATOM    100  C   UNL A   1      49.656  26.696  26.474  1.00  0.00     0.058 A 
ATOM    101  C   UNL A   1      50.208  26.794  25.186  1.00  0.00     0.135 A 
ATOM    102  C   UNL A   1      50.441  26.107  27.478  1.00  0.00     0.135 A 
ATOM    103  F   UNL A   1      49.500  27.344  24.187  1.00  0.00    -0.206 F 
ATOM    104  C   UNL A   1      51.471  26.288  24.896  1.00  0.00     0.059 A 
ATOM    105  C   UNL A   1      51.719  25.624  27.219  1.00  0.00     0.059 A 
ATOM    106  F   UNL A   1      49.969  26.000  28.731  1.00  0.00    -0.206 F 
ATOM    107  C   UNL A   1      52.218  25.701  25.920  1.00  0.00     0.060 A 
BRANCH 107 108
ATOM    108  S   UNL A   1      53.857  25.049  25.533  1.00  0.00     0.124 S 
ATOM    109  O   UNL A   1      54.409  26.116  24.705  1.00  0.00    -0.237 OA
ATOM    110  O   UNL A   1      54.454  24.898  26.856  1.00  0.00    -0.237 OA
ATOM    111  O   UNL A   1      53.570  23.799  24.836  1.00  0.00    -0.744 OA
ENDBRANCH 107 108
ENDBRANCH  75 100
ENDBRANCH  49  50
ENDBRANCH  41  44
ENDBRANCH  39  40
ENDBRANCH  38  39
ENDBRANCH  37  38
ENDBRANCH  36  37
ENDBRANCH   1  36
TORSDOF 21
ENDMDL
MODEL 2
REMARK VINA RESULT:     -10.0      3.513      9.760
REMARK SMILES COc1cccc(C(=O)Nc2ccc(NC(=O)[C@@H]3[C@@H](C(=O)NCCCCCCNC(=O)c4ccc(-c5c6nc(c(-c7c(F)cc(S(=O)(=O)[O-])cc7F)c7ccc([nH]7)c(-c7c(F)cc(S(=O)(=O)[O-])cc7F)c7nc(c(-c8c(F)cc(S(=O)(=O)[O-])cc8F)c8ccc5[nH]8)C=C7)C=C6)cc4)[C@@H]4C=C[C@H]3C4)cc2)c1
REMARK SMILES IDX 24 1 23 2 22 3 20 4 21 5 19 7 18 8 101 9 98 10 100 11 102 12
REMARK SMILES IDX 99 13 16 14 15 15 17 17 14 18 11 19 12 20 104 21 13 22
REMARK SMILES IDX 103 23 10 24 8 25 9 26 7 28 3 29 4 30 105 31 5 32 6 33 2 34
REMARK SMILES IDX 1 35 25 36 26 37 27 38 28 39 29 40 30 41 31 43 32 44 33 45
REMARK SMILES IDX 97 46 34 47 96 48 35 49 36 50 37 51 90 52 38 53 95 54 89 55
REMARK SMILES IDX 91 56 39 57 94 58 88 59 87 60 40 62 74 63 53 64 73 65 54 66
REMARK SMILES IDX 57 67 72 68 92 69 55 70 56 71 71 73 93 74 58 75 41 76 42 77
REMARK SMILES IDX 51 78 43 79 44 80 50 81 52 82 45 83 46 84 47 85 48 86 49 87
REMARK SMILES IDX 75 88 76 89 85 90 77 91 78 92 84 93 86 94 79 95 80 96 81 97
REMARK SMILES IDX 82 98 83 99 59 100 60 101 69 102 61 103 62 104 68 105 70 106
REMARK SMILES IDX 63 107 64 108 65 109 66 110 67 111
REMARK H PARENT 22 6 15 16 10 27 29 42 91 61 57 72
REMARK Flexibility Score: inf
ROOT
ATOM      1  C   UNL A   1      37.334  33.142  32.938  1.00  0.00     0.021 C 
ENDROOT
BRANCH   1   2
ATOM      2  C   UNL A   1      38.718  32.535  33.081  1.00  0.00     0.116 C 
BRANCH   2   3
ATOM      3  N   UNL A   1      38.807  31.090  33.009  1.00  0.00    -0.356 N 
ATOM      4  C   UNL A   1      39.728  30.200  33.478  1.00  0.00     0.224 C 
ATOM      5  O   UNL A   1      39.408  29.008  33.373  1.00  0.00    -0.275 OA
ATOM      6  H   UNL A   1      38.057  30.670  32.528  1.00  0.00     0.163 HD
BRANCH   4   7
ATOM      7  C   UNL A   1      41.138  30.530  34.009  1.00  0.00     0.098 C 
ATOM      8  C   UNL A   1      41.897  31.753  33.439  1.00  0.00     0.099 C 
ATOM      9  C   UNL A   1      43.247  31.137  32.979  1.00  0.00     0.025 C 
ATOM     10  C   UNL A   1      42.107  29.350  33.684  1.00  0.00     0.025 C 
ATOM     11  C   UNL A   1      43.994  30.571  34.164  1.00  0.00    -0.027 C 
ATOM     12  C   UNL A   1      42.779  29.804  32.384  1.00  0.00     0.017 C 
ATOM     13  C   UNL A   1      43.319  29.489  34.579  1.00  0.00    -0.027 C 
BRANCH   8  14
ATOM     14  C   UNL A   1      42.040  33.011  34.261  1.00  0.00     0.228 C 
ATOM     15  N   UNL A   1      42.016  34.241  33.630  1.00  0.00    -0.326 N 
ATOM     16  H   UNL A   1      41.983  34.992  34.265  1.00  0.00     0.169 HD
ATOM     17  O   UNL A   1      42.145  32.983  35.488  1.00  0.00    -0.274 OA
BRANCH  15  18
ATOM     18  C   UNL A   1      42.028  34.668  32.276  1.00  0.00     0.041 A 
ATOM     19  C   UNL A   1      42.526  34.997  29.526  1.00  0.00     0.041 A 
ATOM     20  C   UNL A   1      41.281  34.577  29.954  1.00  0.00     0.028 A 
ATOM     21  C   UNL A   1      43.430  35.497  30.459  1.00  0.00     0.028 A 
ATOM     22  C   UNL A   1      41.060  34.378  31.314  1.00  0.00     0.028 A 
ATOM     23  C   UNL A   1      43.171  35.346  31.832  1.00  0.00     0.028 A 
BRANCH  19  24
ATOM     24  N   UNL A   1      42.817  34.726  28.190  1.00  0.00    -0.322 N 
ATOM     25  C   UNL A   1      43.132  35.577  27.152  1.00  0.00     0.255 C 
ATOM     26  O   UNL A   1      43.452  35.070  26.075  1.00  0.00    -0.269 OA
ATOM     27  H   UNL A   1      42.796  33.771  27.949  1.00  0.00     0.170 HD
BRANCH  25  28
ATOM     28  C   UNL A   1      43.185  37.058  27.280  1.00  0.00     0.043 A 
ATOM     29  C   UNL A   1      44.268  39.155  27.861  1.00  0.00     0.119 A 
ATOM     30  C   UNL A   1      43.068  39.822  27.597  1.00  0.00     0.046 A 
ATOM     31  C   UNL A   1      44.341  37.781  27.629  1.00  0.00     0.060 A 
ATOM     32  C   UNL A   1      41.952  39.132  27.124  1.00  0.00     0.005 A 
ATOM     33  C   UNL A   1      42.007  37.750  26.979  1.00  0.00     0.014 A 
BRANCH  29  34
ATOM     34  O   UNL A   1      45.254  39.968  28.339  1.00  0.00    -0.497 OA
ATOM     35  C   UNL A   1      46.610  39.720  28.001  1.00  0.00     0.278 C 
ENDBRANCH  29  34
ENDBRANCH  25  28
ENDBRANCH  19  24
ENDBRANCH  15  18
ENDBRANCH   8  14
ENDBRANCH   4   7
ENDBRANCH   2   3
ENDBRANCH   1   2
BRANCH   1  36
ATOM     36  C   UNL A   1      37.188  34.262  31.919  1.00  0.00     0.002 C 
BRANCH  36  37
ATOM     37  C   UNL A   1      37.588  33.938  30.476  1.00  0.00     0.002 C 
BRANCH  37  38
ATOM     38  C   UNL A   1      36.683  32.983  29.688  1.00  0.00     0.021 C 
BRANCH  38  39
ATOM     39  C   UNL A   1      36.185  31.743  30.425  1.00  0.00     0.116 C 
BRANCH  39  40
ATOM     40  N   UNL A   1      35.481  30.816  29.562  1.00  0.00    -0.352 N 
ATOM     41  C   UNL A   1      35.965  29.874  28.688  1.00  0.00     0.251 C 
ATOM     42  H   UNL A   1      34.499  30.870  29.610  1.00  0.00     0.163 HD
ATOM     43  O   UNL A   1      35.181  29.287  27.950  1.00  0.00    -0.269 OA
BRANCH  41  44
ATOM     44  C   UNL A   1      37.414  29.577  28.614  1.00  0.00     0.039 A 
ATOM     45  C   UNL A   1      38.066  29.168  29.781  1.00  0.00     0.014 A 
ATOM     46  C   UNL A   1      38.141  29.736  27.431  1.00  0.00     0.014 A 
ATOM     47  C   UNL A   1      39.432  28.885  29.753  1.00  0.00     0.010 A 
ATOM     48  C   UNL A   1      39.490  29.382  27.387  1.00  0.00     0.010 A 
ATOM     49  C   UNL A   1      40.154  28.966  28.550  1.00  0.00    -0.014 A 
BRANCH  49  50
ATOM     50  C   UNL A   1      41.603  28.634  28.511  1.00  0.00     0.031 A 
ATOM     51  C   UNL A   1      42.057  27.242  28.161  1.00  0.00     0.074 A 
ATOM     52  C   UNL A   1      42.510  29.584  28.812  1.00  0.00     0.049 A 
ATOM     53  N   UNL A   1      43.274  26.768  28.069  1.00  0.00    -0.248 NA
ATOM     54  C   UNL A   1      41.007  26.245  27.900  1.00  0.00     0.031 C 
ATOM     55  C   UNL A   1      42.194  30.958  29.210  1.00  0.00     0.029 A 
ATOM     56  N   UNL A   1      43.881  29.542  28.829  1.00  0.00    -0.354 N 
ATOM     57  C   UNL A   1      43.135  25.422  27.748  1.00  0.00     0.074 A 
ATOM     58  C   UNL A   1      41.716  25.141  27.721  1.00  0.00     0.031 C 
ATOM     59  C   UNL A   1      43.338  31.637  29.396  1.00  0.00     0.029 A 
ATOM     60  C   UNL A   1      44.467  30.740  29.164  1.00  0.00     0.049 A 
ATOM     61  H   UNL A   1      44.397  28.731  28.619  1.00  0.00     0.167 HD
ATOM     62  C   UNL A   1      44.099  24.510  27.472  1.00  0.00     0.037 A 
ATOM     63  C   UNL A   1      45.766  31.081  29.268  1.00  0.00     0.037 A 
ATOM     64  C   UNL A   1      45.511  24.799  27.489  1.00  0.00     0.049 A 
ATOM     65  C   UNL A   1      46.819  30.051  28.963  1.00  0.00     0.074 A 
ATOM     66  C   UNL A   1      46.567  23.958  27.187  1.00  0.00     0.029 A 
ATOM     67  N   UNL A   1      46.064  26.026  27.831  1.00  0.00    -0.354 N 
ATOM     68  N   UNL A   1      46.669  28.797  28.601  1.00  0.00    -0.248 NA
ATOM     69  C   UNL A   1      48.219  30.483  29.068  1.00  0.00     0.031 C 
ATOM     70  C   UNL A   1      47.759  24.662  27.387  1.00  0.00     0.029 A 
ATOM     71  C   UNL A   1      47.446  25.959  27.761  1.00  0.00     0.049 A 
ATOM     72  H   UNL A   1      45.549  26.826  28.085  1.00  0.00     0.167 HD
ATOM     73  C   UNL A   1      47.953  28.302  28.403  1.00  0.00     0.074 A 
ATOM     74  C   UNL A   1      48.865  29.396  28.673  1.00  0.00     0.031 C 
ATOM     75  C   UNL A   1      48.342  27.057  28.030  1.00  0.00     0.037 A 
BRANCH  62  76
ATOM     76  C   UNL A   1      43.655  23.113  27.126  1.00  0.00     0.058 A 
ATOM     77  C   UNL A   1      43.198  22.220  28.110  1.00  0.00     0.135 A 
ATOM     78  C   UNL A   1      43.666  22.664  25.796  1.00  0.00     0.135 A 
ATOM     79  F   UNL A   1      43.177  22.589  29.402  1.00  0.00    -0.206 F 
ATOM     80  C   UNL A   1      42.807  20.923  27.795  1.00  0.00     0.059 A 
ATOM     81  C   UNL A   1      43.251  21.379  25.452  1.00  0.00     0.059 A 
ATOM     82  F   UNL A   1      44.090  23.473  24.812  1.00  0.00    -0.206 F 
ATOM     83  C   UNL A   1      42.841  20.510  26.461  1.00  0.00     0.060 A 
BRANCH  83  84
ATOM     84  S   UNL A   1      42.342  18.820  26.071  1.00  0.00     0.124 S 
ATOM     85  O   UNL A   1      42.530  18.156  27.357  1.00  0.00    -0.237 OA
ATOM     86  O   UNL A   1      40.958  18.993  25.644  1.00  0.00    -0.237 OA
ATOM     87  O   UNL A   1      43.274  18.424  25.019  1.00  0.00    -0.744 OA
ENDBRANCH  83  84
ENDBRANCH  62  76
BRANCH  63  88
ATOM     88  C   UNL A   1      46.143  32.471  29.639  1.00  0.00     0.058 A 
ATOM     89  C   UNL A   1      46.210  33.484  28.670  1.00  0.00     0.135 A 
ATOM     90  C   UNL A   1      46.436  32.819  30.967  1.00  0.00     0.135 A 
ATOM     91  F   UNL A   1      45.944  33.200  27.385  1.00  0.00    -0.206 F 
ATOM     92  C   UNL A   1      46.571  34.786  28.998  1.00  0.00     0.059 A 
ATOM     93  C   UNL A   1      46.773  34.121  31.325  1.00  0.00     0.059 A 
ATOM     94  F   UNL A   1      46.369  31.893  31.936  1.00  0.00    -0.206 F 
ATOM     95  C   UNL A   1      46.848  35.095  30.330  1.00  0.00     0.060 A 
BRANCH  95  96
ATOM     96  S   UNL A   1      47.270  36.800  30.754  1.00  0.00     0.124 S 
ATOM     97  O   UNL A   1      48.240  37.130  29.717  1.00  0.00    -0.237 OA
ATOM     98  O   UNL A   1      45.976  37.469  30.656  1.00  0.00    -0.237 OA
ATOM     99  O   UNL A   1      47.806  36.685  32.107  1.00  0.00    -0.744 OA
ENDBRANCH  95  96
ENDBRANCH  63  88
BRANCH  75 100
ATOM    100  C   UNL A   1      49.818  26.824  27.847  1.00  0.00     0.058 A 
ATOM    101  C   UNL A   1      50.649  26.450  28.916  1.00  0.00     0.135 A 
ATOM    102  C   UNL A   1      50.406  26.960  26.579  1.00  0.00     0.135 A 
ATOM    103  F   UNL A   1      50.141  26.311  30.151  1.00  0.00    -0.206 F 
ATOM    104  C   UNL A   1      52.016  26.260  28.742  1.00  0.00     0.059 A 
ATOM    105  C   UNL A   1      51.765  26.743  26.375  1.00  0.00     0.059 A 
ATOM    106  F   UNL A   1      49.656  27.302  25.519  1.00  0.00    -0.206 F 
ATOM    107  C   UNL A   1      52.565  26.412  27.467  1.00  0.00     0.060 A 
BRANCH 107 108
ATOM    108  S   UNL A   1      54.341  26.161  27.252  1.00  0.00     0.124 S 
ATOM    109  O   UNL A   1      54.375  24.865  26.583  1.00  0.00    -0.237 OA
ATOM    110  O   UNL A   1      54.722  27.308  26.434  1.00  0.00    -0.237 OA
ATOM    111  O   UNL A   1      54.854  26.176  28.618  1.00  0.00    -0.744 OA
ENDBRANCH 107 108
ENDBRANCH  75 100
ENDBRANCH  49  50
ENDBRANCH  41  44
ENDBRANCH  39  40
ENDBRANCH  38  39
ENDBRANCH  37  38
ENDBRANCH  36  37
ENDBRANCH   1  36
TORSDOF 21
ENDMDL
MODEL 3
REMARK VINA RESULT:      -9.8      4.845      9.654
REMARK SMILES COc1cccc(C(=O)Nc2ccc(NC(=O)[C@@H]3[C@@H](C(=O)NCCCCCCNC(=O)c4ccc(-c5c6nc(c(-c7c(F)cc(S(=O)(=O)[O-])cc7F)c7ccc([nH]7)c(-c7c(F)cc(S(=O)(=O)[O-])cc7F)c7nc(c(-c8c(F)cc(S(=O)(=O)[O-])cc8F)c8ccc5[nH]8)C=C7)C=C6)cc4)[C@@H]4C=C[C@H]3C4)cc2)c1
REMARK SMILES IDX 24 1 23 2 22 3 20 4 21 5 19 7 18 8 101 9 98 10 100 11 102 12
REMARK SMILES IDX 99 13 16 14 15 15 17 17 14 18 11 19 12 20 104 21 13 22
REMARK SMILES IDX 103 23 10 24 8 25 9 26 7 28 3 29 4 30 105 31 5 32 6 33 2 34
REMARK SMILES IDX 1 35 25 36 26 37 27 38 28 39 29 40 30 41 31 43 32 44 33 45
REMARK SMILES IDX 97 46 34 47 96 48 35 49 36 50 37 51 90 52 38 53 95 54 89 55
REMARK SMILES IDX 91 56 39 57 94 58 88 59 87 60 40 62 74 63 53 64 73 65 54 66
REMARK SMILES IDX 57 67 72 68 92 69 55 70 56 71 71 73 93 74 58 75 41 76 42 77
REMARK SMILES IDX 51 78 43 79 44 80 50 81 52 82 45 83 46 84 47 85 48 86 49 87
REMARK SMILES IDX 75 88 76 89 85 90 77 91 78 92 84 93 86 94 79 95 80 96 81 97
REMARK SMILES IDX 82 98 83 99 59 100 60 101 69 102 61 103 62 104 68 105 70 106
REMARK SMILES IDX 63 107 64 108 65 109 66 110 67 111
REMARK H PARENT 22 6 15 16 10 27 29 42 91 61 57 72
REMARK Flexibility Score: inf
ROOT
ATOM      1  C   UNL A   1      41.118  32.546  32.864  1.00  0.00     0.021 C 
ENDROOT
BRANCH   1   2
ATOM      2  C   UNL A   1      39.805  31.790  32.770  1.00  0.00     0.116 C 
BRANCH   2   3
ATOM      3  N   UNL A   1      39.182  31.405  34.021  1.00  0.00    -0.356 N 
ATOM      4  C   UNL A   1      37.919  31.570  34.509  1.00  0.00     0.224 C 
ATOM      5  O   UNL A   1      37.682  30.971  35.568  1.00  0.00    -0.275 OA
ATOM      6  H   UNL A   1      39.788  30.934  34.638  1.00  0.00     0.163 HD
BRANCH   4   7
ATOM      7  C   UNL A   1      36.825  32.497  33.938  1.00  0.00     0.098 C 
ATOM      8  C   UNL A   1      36.693  32.658  32.404  1.00  0.00     0.099 C 
ATOM      9  C   UNL A   1      36.766  34.198  32.213  1.00  0.00     0.025 C 
ATOM     10  C   UNL A   1      37.084  33.962  34.411  1.00  0.00     0.025 C 
ATOM     11  C   UNL A   1      35.602  34.867  32.906  1.00  0.00    -0.027 C 
ATOM     12  C   UNL A   1      37.847  34.574  33.232  1.00  0.00     0.017 C 
ATOM     13  C   UNL A   1      35.799  34.738  34.226  1.00  0.00    -0.027 C 
BRANCH   8  14
ATOM     14  C   UNL A   1      35.555  31.997  31.665  1.00  0.00     0.228 C 
ATOM     15  N   UNL A   1      35.794  30.842  30.943  1.00  0.00    -0.326 N 
ATOM     16  H   UNL A   1      34.967  30.423  30.613  1.00  0.00     0.169 HD
ATOM     17  O   UNL A   1      34.404  32.433  31.709  1.00  0.00    -0.274 OA
BRANCH  15  18
ATOM     18  C   UNL A   1      36.960  30.124  30.569  1.00  0.00     0.041 A 
ATOM     19  C   UNL A   1      39.593  29.201  30.202  1.00  0.00     0.041 A 
ATOM     20  C   UNL A   1      38.692  28.440  30.922  1.00  0.00     0.028 A 
ATOM     21  C   UNL A   1      39.126  30.278  29.454  1.00  0.00     0.028 A 
ATOM     22  C   UNL A   1      37.405  28.927  31.131  1.00  0.00     0.028 A 
ATOM     23  C   UNL A   1      37.805  30.727  29.626  1.00  0.00     0.028 A 
BRANCH  19  24
ATOM     24  N   UNL A   1      40.936  28.902  30.427  1.00  0.00    -0.322 N 
ATOM     25  C   UNL A   1      41.852  28.244  29.633  1.00  0.00     0.255 C 
ATOM     26  O   UNL A   1      43.019  28.199  30.025  1.00  0.00    -0.269 OA
ATOM     27  H   UNL A   1      41.288  29.212  31.292  1.00  0.00     0.170 HD
BRANCH  25  28
ATOM     28  C   UNL A   1      41.529  27.661  28.302  1.00  0.00     0.043 A 
ATOM     29  C   UNL A   1      40.421  26.074  26.833  1.00  0.00     0.119 A 
ATOM     30  C   UNL A   1      41.146  26.597  25.758  1.00  0.00     0.046 A 
ATOM     31  C   UNL A   1      40.562  26.661  28.091  1.00  0.00     0.060 A 
ATOM     32  C   UNL A   1      42.010  27.677  25.933  1.00  0.00     0.005 A 
ATOM     33  C   UNL A   1      42.211  28.199  27.206  1.00  0.00     0.014 A 
BRANCH  29  34
ATOM     34  O   UNL A   1      39.639  25.006  26.500  1.00  0.00    -0.497 OA
ATOM     35  C   UNL A   1      39.193  24.108  27.504  1.00  0.00     0.278 C 
ENDBRANCH  29  34
ENDBRANCH  25  28
ENDBRANCH  19  24
ENDBRANCH  15  18
ENDBRANCH   8  14
ENDBRANCH   4   7
ENDBRANCH   2   3
ENDBRANCH   1   2
BRANCH   1  36
ATOM     36  C   UNL A   1      41.585  33.251  31.600  1.00  0.00     0.002 C 
BRANCH  36  37
ATOM     37  C   UNL A   1      40.512  33.573  30.554  1.00  0.00     0.002 C 
BRANCH  37  38
ATOM     38  C   UNL A   1      40.581  34.941  29.867  1.00  0.00     0.021 C 
BRANCH  38  39
ATOM     39  C   UNL A   1      40.457  34.954  28.346  1.00  0.00     0.116 C 
BRANCH  39  40
ATOM     40  N   UNL A   1      40.812  36.231  27.759  1.00  0.00    -0.352 N 
ATOM     41  C   UNL A   1      41.993  36.655  27.203  1.00  0.00     0.251 C 
ATOM     42  H   UNL A   1      40.091  36.901  27.759  1.00  0.00     0.163 HD
ATOM     43  O   UNL A   1      42.115  37.834  26.888  1.00  0.00    -0.269 OA
BRANCH  41  44
ATOM     44  C   UNL A   1      43.121  35.716  27.001  1.00  0.00     0.039 A 
ATOM     45  C   UNL A   1      43.961  35.448  28.085  1.00  0.00     0.014 A 
ATOM     46  C   UNL A   1      43.385  35.136  25.757  1.00  0.00     0.014 A 
ATOM     47  C   UNL A   1      45.038  34.573  27.932  1.00  0.00     0.010 A 
ATOM     48  C   UNL A   1      44.417  34.206  25.624  1.00  0.00     0.010 A 
ATOM     49  C   UNL A   1      45.263  33.925  26.706  1.00  0.00    -0.014 A 
BRANCH  49  50
ATOM     50  C   UNL A   1      46.391  32.968  26.551  1.00  0.00     0.031 A 
ATOM     51  C   UNL A   1      47.797  33.471  26.358  1.00  0.00     0.074 A 
ATOM     52  C   UNL A   1      46.145  31.644  26.562  1.00  0.00     0.049 A 
ATOM     53  N   UNL A   1      48.906  32.792  26.213  1.00  0.00    -0.248 NA
ATOM     54  C   UNL A   1      47.979  34.930  26.299  1.00  0.00     0.031 C 
ATOM     55  C   UNL A   1      44.820  31.032  26.698  1.00  0.00     0.029 A 
ATOM     56  N   UNL A   1      46.995  30.571  26.463  1.00  0.00    -0.354 N 
ATOM     57  C   UNL A   1      49.912  33.736  26.039  1.00  0.00     0.074 A 
ATOM     58  C   UNL A   1      49.273  35.034  26.036  1.00  0.00     0.031 C 
ATOM     59  C   UNL A   1      44.952  29.695  26.709  1.00  0.00     0.029 A 
ATOM     60  C   UNL A   1      46.362  29.354  26.548  1.00  0.00     0.049 A 
ATOM     61  H   UNL A   1      47.967  30.665  26.343  1.00  0.00     0.167 HD
ATOM     62  C   UNL A   1      51.248  33.542  25.922  1.00  0.00     0.037 A 
ATOM     63  C   UNL A   1      46.860  28.103  26.507  1.00  0.00     0.037 A 
ATOM     64  C   UNL A   1      51.880  32.247  25.938  1.00  0.00     0.049 A 
ATOM     65  C   UNL A   1      48.347  27.912  26.370  1.00  0.00     0.074 A 
ATOM     66  C   UNL A   1      53.228  31.944  25.866  1.00  0.00     0.029 A 
ATOM     67  N   UNL A   1      51.204  31.037  26.029  1.00  0.00    -0.354 N 
ATOM     68  N   UNL A   1      49.290  28.820  26.269  1.00  0.00    -0.248 NA
ATOM     69  C   UNL A   1      48.838  26.528  26.356  1.00  0.00     0.031 C 
ATOM     70  C   UNL A   1      53.365  30.551  25.870  1.00  0.00     0.029 A 
ATOM     71  C   UNL A   1      52.107  29.986  26.000  1.00  0.00     0.049 A 
ATOM     72  H   UNL A   1      50.227  30.941  26.103  1.00  0.00     0.167 HD
ATOM     73  C   UNL A   1      50.489  28.116  26.211  1.00  0.00     0.074 A 
ATOM     74  C   UNL A   1      50.150  26.710  26.303  1.00  0.00     0.031 C 
ATOM     75  C   UNL A   1      51.755  28.591  26.096  1.00  0.00     0.037 A 
BRANCH  62  76
ATOM     76  C   UNL A   1      52.116  34.764  25.769  1.00  0.00     0.058 A 
ATOM     77  C   UNL A   1      52.458  35.271  24.504  1.00  0.00     0.135 A 
ATOM     78  C   UNL A   1      52.597  35.450  26.896  1.00  0.00     0.135 A 
ATOM     79  F   UNL A   1      52.039  34.649  23.390  1.00  0.00    -0.206 F 
ATOM     80  C   UNL A   1      53.277  36.387  24.361  1.00  0.00     0.059 A 
ATOM     81  C   UNL A   1      53.393  36.587  26.777  1.00  0.00     0.059 A 
ATOM     82  F   UNL A   1      52.301  35.014  28.130  1.00  0.00    -0.206 F 
ATOM     83  C   UNL A   1      53.742  37.037  25.505  1.00  0.00     0.060 A 
BRANCH  83  84
ATOM     84  S   UNL A   1      54.813  38.476  25.302  1.00  0.00     0.124 S 
ATOM     85  O   UNL A   1      55.380  38.607  26.641  1.00  0.00    -0.237 OA
ATOM     86  O   UNL A   1      55.737  38.034  24.263  1.00  0.00    -0.237 OA
ATOM     87  O   UNL A   1      53.890  39.535  24.906  1.00  0.00    -0.744 OA
ENDBRANCH  83  84
ENDBRANCH  62  76
BRANCH  63  88
ATOM     88  C   UNL A   1      45.950  26.934  26.637  1.00  0.00     0.058 A 
ATOM     89  C   UNL A   1      45.526  26.220  25.506  1.00  0.00     0.135 A 
ATOM     90  C   UNL A   1      45.492  26.501  27.891  1.00  0.00     0.135 A 
ATOM     91  F   UNL A   1      45.932  26.598  24.284  1.00  0.00    -0.206 F 
ATOM     92  C   UNL A   1      44.666  25.132  25.609  1.00  0.00     0.059 A 
ATOM     93  C   UNL A   1      44.653  25.398  28.023  1.00  0.00     0.059 A 
ATOM     94  F   UNL A   1      45.882  27.137  29.007  1.00  0.00    -0.206 F 
ATOM     95  C   UNL A   1      44.238  24.727  26.874  1.00  0.00     0.060 A 
BRANCH  95  96
ATOM     96  S   UNL A   1      43.160  23.283  27.002  1.00  0.00     0.124 S 
ATOM     97  O   UNL A   1      42.394  23.377  25.766  1.00  0.00    -0.237 OA
ATOM     98  O   UNL A   1      44.123  22.188  27.077  1.00  0.00    -0.237 OA
ATOM     99  O   UNL A   1      42.410  23.533  28.230  1.00  0.00    -0.744 OA
ENDBRANCH  95  96
ENDBRANCH  63  88
BRANCH  75 100
ATOM    100  C   UNL A   1      52.871  27.581  26.108  1.00  0.00     0.058 A 
ATOM    101  C   UNL A   1      53.494  27.177  27.300  1.00  0.00     0.135 A 
ATOM    102  C   UNL A   1      53.311  26.995  24.910  1.00  0.00     0.135 A 
ATOM    103  F   UNL A   1      53.116  27.708  28.474  1.00  0.00    -0.206 F 
ATOM    104  C   UNL A   1      54.540  26.261  27.299  1.00  0.00     0.059 A 
ATOM    105  C   UNL A   1      54.334  26.053  24.888  1.00  0.00     0.059 A 
ATOM    106  F   UNL A   1      52.741  27.334  23.742  1.00  0.00    -0.206 F 
ATOM    107  C   UNL A   1      54.956  25.706  26.086  1.00  0.00     0.060 A 
BRANCH 107 108
ATOM    108  S   UNL A   1      56.314  24.517  26.097  1.00  0.00     0.124 S 
ATOM    109  O   UNL A   1      57.072  24.947  27.267  1.00  0.00    -0.237 OA
ATOM    110  O   UNL A   1      55.614  23.243  26.227  1.00  0.00    -0.237 OA
ATOM    111  O   UNL A   1      56.968  24.736  24.810  1.00  0.00    -0.744 OA
ENDBRANCH 107 108
ENDBRANCH  75 100
ENDBRANCH  49  50
ENDBRANCH  41  44
ENDBRANCH  39  40
ENDBRANCH  38  39
ENDBRANCH  37  38
ENDBRANCH  36  37
ENDBRANCH   1  36
TORSDOF 21
ENDMDL
