MODEL 1
REMARK VINA RESULT:      -9.0      0.000      0.000
REMARK SMILES O=C(CCCc1nc(-c2ccc(Cl)c(Cl)c2)c(-c2ccccc2)o1)NCCCCCCNC(=O)c1ccc(-c2c3nc(c(-c4c(F)cc(S(=O)(=O)[O-])cc4F)c4ccc([nH]4)c(-c4c(F)cc(S(=O)(=O)[O-])cc4F)c4nc(c(-c5c(F)cc(S(=O)(=O)[O-])cc5F)c5ccc2[nH]5)C=C4)C=C3)cc1
REMARK SMILES IDX 28 1 27 2 26 3 25 4 1 5 2 6 3 8 4 9 5 10 6 11 7 12 24 13
REMARK SMILES IDX 8 14 17 15 9 16 10 17 16 18 11 19 14 20 12 21 15 22 13 23
REMARK SMILES IDX 18 24 19 25 23 26 20 27 22 28 21 29 29 30 30 31 31 32 32 33
REMARK SMILES IDX 33 34 34 36 35 37 36 38 100 39 37 40 99 41 38 42 39 43 40 44
REMARK SMILES IDX 93 45 41 46 98 47 92 48 94 49 42 50 97 51 91 52 90 53 43 55
REMARK SMILES IDX 77 56 56 57 76 58 57 59 60 60 75 61 95 62 58 63 59 64 74 66
REMARK SMILES IDX 96 67 61 68 44 69 45 70 54 71 46 72 47 73 53 74 55 75 48 76
REMARK SMILES IDX 49 77 50 78 51 79 52 80 78 81 79 82 88 83 80 84 81 85 87 86
REMARK SMILES IDX 89 87 82 88 83 89 84 90 85 91 86 92 62 93 63 94 72 95 64 96
REMARK SMILES IDX 65 97 71 98 73 99 66 100 67 101 68 102 69 103 70 104
REMARK H PARENT 25 7 32 35 94 54 60 65
REMARK Flexibility Score: inf
ROOT
ATOM      1  C   UNL A   1      34.236  34.750  31.538  1.00  0.00     0.002 C 
ENDROOT
BRANCH   1   2
ATOM      2  C   UNL A   1      33.904  33.779  32.680  1.00  0.00     0.021 C 
BRANCH   2   3
ATOM      3  C   UNL A   1      34.958  33.701  33.784  1.00  0.00     0.116 C 
BRANCH   3   4
ATOM      4  N   UNL A   1      36.156  33.034  33.320  1.00  0.00    -0.356 N 
ATOM      5  O   UNL A   1      37.626  34.714  33.867  1.00  0.00    -0.275 OA
ATOM      6  C   UNL A   1      37.402  33.604  33.398  1.00  0.00     0.220 C 
ATOM      7  H   UNL A   1      36.073  32.134  32.930  1.00  0.00     0.163 HD
BRANCH   6   8
ATOM      8  C   UNL A   1      38.499  32.725  32.840  1.00  0.00     0.100 C 
BRANCH   8   9
ATOM      9  C   UNL A   1      38.922  31.603  33.793  1.00  0.00     0.020 C 
BRANCH   9  10
ATOM     10  C   UNL A   1      39.072  30.199  33.191  1.00  0.00     0.098 C 
BRANCH  10  11
ATOM     11  C   UNL A   1      40.258  29.421  33.650  1.00  0.00     0.195 A 
ATOM     12  N   UNL A   1      40.445  28.116  33.584  1.00  0.00    -0.213 NA
ATOM     13  O   UNL A   1      41.315  30.118  34.175  1.00  0.00    -0.440 OA
ATOM     14  C   UNL A   1      41.695  27.937  34.127  1.00  0.00     0.117 A 
ATOM     15  C   UNL A   1      42.259  29.161  34.422  1.00  0.00     0.162 A 
BRANCH  14  16
ATOM     16  C   UNL A   1      42.327  26.655  34.350  1.00  0.00     0.006 A 
ATOM     17  C   UNL A   1      41.848  25.785  35.332  1.00  0.00     0.012 A 
ATOM     18  C   UNL A   1      43.402  26.258  33.541  1.00  0.00     0.032 A 
ATOM     19  C   UNL A   1      42.414  24.513  35.476  1.00  0.00     0.023 A 
ATOM     20  C   UNL A   1      43.972  24.990  33.687  1.00  0.00     0.060 A 
ATOM     21  C   UNL A   1      43.470  24.111  34.651  1.00  0.00     0.059 A 
ATOM     22  Cl  UNL A   1      45.280  24.574  32.635  1.00  0.00    -0.083 Cl
ATOM     23  Cl  UNL A   1      44.101  22.517  34.861  1.00  0.00    -0.083 Cl
ENDBRANCH  14  16
BRANCH  15  24
ATOM     24  C   UNL A   1      43.566  29.616  34.856  1.00  0.00     0.020 A 
ATOM     25  C   UNL A   1      43.754  30.171  36.126  1.00  0.00     0.012 A 
ATOM     26  C   UNL A   1      44.671  29.470  34.004  1.00  0.00     0.012 A 
ATOM     27  C   UNL A   1      45.032  30.553  36.542  1.00  0.00     0.001 A 
ATOM     28  C   UNL A   1      45.944  29.860  34.418  1.00  0.00     0.001 A 
ATOM     29  C   UNL A   1      46.125  30.396  35.690  1.00  0.00     0.000 A 
ENDBRANCH  15  24
ENDBRANCH  10  11
ENDBRANCH   9  10
ENDBRANCH   8   9
ENDBRANCH   6   8
ENDBRANCH   3   4
ENDBRANCH   2   3
ENDBRANCH   1   2
BRANCH   1  30
ATOM     30  C   UNL A   1      34.964  34.135  30.341  1.00  0.00     0.002 C 
BRANCH  30  31
ATOM     31  C   UNL A   1      34.501  32.730  29.951  1.00  0.00     0.021 C 
BRANCH  31  32
ATOM     32  C   UNL A   1      34.600  32.406  28.463  1.00  0.00     0.116 C 
BRANCH  32  33
ATOM     33  N   UNL A   1      33.974  31.139  28.121  1.00  0.00    -0.352 N 
ATOM     34  C   UNL A   1      34.561  29.905  27.967  1.00  0.00     0.251 C 
ATOM     35  H   UNL A   1      33.000  31.168  27.979  1.00  0.00     0.163 HD
ATOM     36  O   UNL A   1      33.905  28.958  27.542  1.00  0.00    -0.269 OA
BRANCH  34  37
ATOM     37  C   UNL A   1      35.994  29.735  28.291  1.00  0.00     0.039 A 
ATOM     38  C   UNL A   1      36.359  29.357  29.586  1.00  0.00     0.014 A 
ATOM     39  C   UNL A   1      36.972  29.923  27.311  1.00  0.00     0.014 A 
ATOM     40  C   UNL A   1      37.701  29.102  29.882  1.00  0.00     0.010 A 
ATOM     41  C   UNL A   1      38.301  29.610  27.592  1.00  0.00     0.010 A 
ATOM     42  C   UNL A   1      38.679  29.193  28.878  1.00  0.00    -0.014 A 
BRANCH  42  43
ATOM     43  C   UNL A   1      40.104  28.862  29.142  1.00  0.00     0.031 A 
ATOM     44  C   UNL A   1      41.034  29.925  29.664  1.00  0.00     0.074 A 
ATOM     45  C   UNL A   1      40.581  27.640  28.828  1.00  0.00     0.049 A 
ATOM     46  N   UNL A   1      42.331  29.882  29.824  1.00  0.00    -0.248 NA
ATOM     47  C   UNL A   1      40.429  31.218  30.026  1.00  0.00     0.031 C 
ATOM     48  C   UNL A   1      39.790  26.535  28.278  1.00  0.00     0.029 A 
ATOM     49  N   UNL A   1      41.853  27.127  28.905  1.00  0.00    -0.354 N 
ATOM     50  C   UNL A   1      42.701  31.143  30.274  1.00  0.00     0.074 A 
ATOM     51  C   UNL A   1      41.496  31.942  30.332  1.00  0.00     0.031 C 
ATOM     52  C   UNL A   1      40.593  25.477  28.073  1.00  0.00     0.029 A 
ATOM     53  C   UNL A   1      41.959  25.837  28.436  1.00  0.00     0.049 A 
ATOM     54  H   UNL A   1      42.617  27.635  29.261  1.00  0.00     0.167 HD
ATOM     55  C   UNL A   1      43.931  31.590  30.620  1.00  0.00     0.037 A 
ATOM     56  C   UNL A   1      43.039  25.042  28.297  1.00  0.00     0.037 A 
ATOM     57  C   UNL A   1      45.117  30.775  30.612  1.00  0.00     0.049 A 
ATOM     58  C   UNL A   1      44.393  25.561  28.707  1.00  0.00     0.074 A 
ATOM     59  C   UNL A   1      46.394  31.117  31.023  1.00  0.00     0.029 A 
ATOM     60  N   UNL A   1      45.174  29.460  30.178  1.00  0.00    -0.354 N 
ATOM     61  N   UNL A   1      44.712  26.738  29.192  1.00  0.00    -0.248 NA
ATOM     62  C   UNL A   1      45.535  24.647  28.555  1.00  0.00     0.031 C 
ATOM     63  C   UNL A   1      47.232  30.019  30.802  1.00  0.00     0.029 A 
ATOM     64  C   UNL A   1      46.467  28.980  30.296  1.00  0.00     0.049 A 
ATOM     65  H   UNL A   1      44.408  28.944  29.837  1.00  0.00     0.167 HD
ATOM     66  C   UNL A   1      46.080  26.689  29.438  1.00  0.00     0.074 A 
ATOM     67  C   UNL A   1      46.529  25.369  29.052  1.00  0.00     0.031 C 
ATOM     68  C   UNL A   1      46.891  27.651  29.940  1.00  0.00     0.037 A 
BRANCH  55  69
ATOM     69  C   UNL A   1      44.070  33.023  31.052  1.00  0.00     0.058 A 
ATOM     70  C   UNL A   1      43.972  33.397  32.401  1.00  0.00     0.135 A 
ATOM     71  C   UNL A   1      44.391  34.019  30.115  1.00  0.00     0.135 A 
ATOM     72  F   UNL A   1      43.651  32.488  33.333  1.00  0.00    -0.206 F 
ATOM     73  C   UNL A   1      44.180  34.712  32.806  1.00  0.00     0.059 A 
ATOM     74  C   UNL A   1      44.627  35.335  30.500  1.00  0.00     0.059 A 
ATOM     75  F   UNL A   1      44.493  33.712  28.812  1.00  0.00    -0.206 F 
ATOM     76  C   UNL A   1      44.513  35.673  31.848  1.00  0.00     0.060 A 
BRANCH  76  77
ATOM     77  S   UNL A   1      44.827  37.364  32.397  1.00  0.00     0.124 S 
ATOM     78  O   UNL A   1      44.108  38.135  31.386  1.00  0.00    -0.237 OA
ATOM     79  O   UNL A   1      44.242  37.372  33.734  1.00  0.00    -0.237 OA
ATOM     80  O   UNL A   1      46.282  37.472  32.351  1.00  0.00    -0.744 OA
ENDBRANCH  76  77
ENDBRANCH  55  69
BRANCH  56  81
ATOM     81  C   UNL A   1      42.899  23.666  27.748  1.00  0.00     0.058 A 
ATOM     82  C   UNL A   1      43.108  23.410  26.384  1.00  0.00     0.135 A 
ATOM     83  C   UNL A   1      42.520  22.589  28.564  1.00  0.00     0.135 A 
ATOM     84  F   UNL A   1      43.467  24.408  25.562  1.00  0.00    -0.206 F 
ATOM     85  C   UNL A   1      42.909  22.145  25.840  1.00  0.00     0.059 A 
ATOM     86  C   UNL A   1      42.341  21.309  28.048  1.00  0.00     0.059 A 
ATOM     87  F   UNL A   1      42.326  22.776  29.879  1.00  0.00    -0.206 F 
ATOM     88  C   UNL A   1      42.517  21.102  26.681  1.00  0.00     0.060 A 
BRANCH  88  89
ATOM     89  S   UNL A   1      42.262  19.462  25.968  1.00  0.00     0.124 S 
ATOM     90  O   UNL A   1      42.728  18.600  27.048  1.00  0.00    -0.237 OA
ATOM     91  O   UNL A   1      40.825  19.453  25.717  1.00  0.00    -0.237 OA
ATOM     92  O   UNL A   1      43.099  19.485  24.772  1.00  0.00    -0.744 OA
ENDBRANCH  88  89
ENDBRANCH  56  81
BRANCH  68  93
ATOM     93  C   UNL A   1      48.335  27.303  30.165  1.00  0.00     0.058 A 
ATOM     94  C   UNL A   1      49.331  27.645  29.239  1.00  0.00     0.135 A 
ATOM     95  C   UNL A   1      48.734  26.686  31.363  1.00  0.00     0.135 A 
ATOM     96  F   UNL A   1      49.001  28.227  28.075  1.00  0.00    -0.206 F 
ATOM     97  C   UNL A   1      50.674  27.377  29.486  1.00  0.00     0.059 A 
ATOM     98  C   UNL A   1      50.073  26.434  31.643  1.00  0.00     0.059 A 
ATOM     99  F   UNL A   1      47.819  26.348  32.287  1.00  0.00    -0.206 F 
ATOM    100  C   UNL A   1      51.035  26.776  30.694  1.00  0.00     0.060 A 
BRANCH 100 101
ATOM    101  S   UNL A   1      52.785  26.487  31.030  1.00  0.00     0.124 S 
ATOM    102  O   UNL A   1      52.726  25.367  31.963  1.00  0.00    -0.237 OA
ATOM    103  O   UNL A   1      53.312  26.180  29.703  1.00  0.00    -0.237 OA
ATOM    104  O   UNL A   1      53.236  27.754  31.597  1.00  0.00    -0.744 OA
ENDBRANCH 100 101
ENDBRANCH  68  93
ENDBRANCH  42  43
ENDBRANCH  34  37
ENDBRANCH  32  33
ENDBRANCH  31  32
ENDBRANCH  30  31
ENDBRANCH   1  30
TORSDOF 21
ENDMDL
MODEL 2
REMARK VINA RESULT:      -9.0      5.134     11.206
REMARK SMILES O=C(CCCc1nc(-c2ccc(Cl)c(Cl)c2)c(-c2ccccc2)o1)NCCCCCCNC(=O)c1ccc(-c2c3nc(c(-c4c(F)cc(S(=O)(=O)[O-])cc4F)c4ccc([nH]4)c(-c4c(F)cc(S(=O)(=O)[O-])cc4F)c4nc(c(-c5c(F)cc(S(=O)(=O)[O-])cc5F)c5ccc2[nH]5)C=C4)C=C3)cc1
REMARK SMILES IDX 28 1 27 2 26 3 25 4 1 5 2 6 3 8 4 9 5 10 6 11 7 12 24 13
REMARK SMILES IDX 8 14 17 15 9 16 10 17 16 18 11 19 14 20 12 21 15 22 13 23
REMARK SMILES IDX 18 24 19 25 23 26 20 27 22 28 21 29 29 30 30 31 31 32 32 33
REMARK SMILES IDX 33 34 34 36 35 37 36 38 100 39 37 40 99 41 38 42 39 43 40 44
REMARK SMILES IDX 93 45 41 46 98 47 92 48 94 49 42 50 97 51 91 52 90 53 43 55
REMARK SMILES IDX 77 56 56 57 76 58 57 59 60 60 75 61 95 62 58 63 59 64 74 66
REMARK SMILES IDX 96 67 61 68 44 69 45 70 54 71 46 72 47 73 53 74 55 75 48 76
REMARK SMILES IDX 49 77 50 78 51 79 52 80 78 81 79 82 88 83 80 84 81 85 87 86
REMARK SMILES IDX 89 87 82 88 83 89 84 90 85 91 86 92 62 93 63 94 72 95 64 96
REMARK SMILES IDX 65 97 71 98 73 99 66 100 67 101 68 102 69 103 70 104
REMARK H PARENT 25 7 32 35 94 54 60 65
REMARK Flexibility Score: inf
ROOT
ATOM      1  C   UNL A   1      33.764  30.932  27.291  1.00  0.00     0.002 C 
ENDROOT
BRANCH   1   2
ATOM      2  C   UNL A   1      33.379  29.606  26.621  1.00  0.00     0.021 C 
BRANCH   2   3
ATOM      3  C   UNL A   1      32.136  28.930  27.199  1.00  0.00     0.116 C 
BRANCH   3   4
ATOM      4  N   UNL A   1      31.329  28.334  26.156  1.00  0.00    -0.356 N 
ATOM      5  O   UNL A   1      31.944  26.156  26.556  1.00  0.00    -0.275 OA
ATOM      6  C   UNL A   1      31.304  26.983  25.917  1.00  0.00     0.220 C 
ATOM      7  H   UNL A   1      30.777  28.923  25.593  1.00  0.00     0.163 HD
BRANCH   6   8
ATOM      8  C   UNL A   1      30.398  26.594  24.770  1.00  0.00     0.100 C 
BRANCH   8   9
ATOM      9  C   UNL A   1      31.000  26.891  23.393  1.00  0.00     0.020 C 
BRANCH   9  10
ATOM     10  C   UNL A   1      31.210  25.696  22.454  1.00  0.00     0.098 C 
BRANCH  10  11
ATOM     11  C   UNL A   1      31.945  24.537  23.036  1.00  0.00     0.195 A 
ATOM     12  N   UNL A   1      31.576  23.269  23.052  1.00  0.00    -0.213 NA
ATOM     13  O   UNL A   1      33.173  24.774  23.595  1.00  0.00    -0.440 OA
ATOM     14  C   UNL A   1      32.614  22.634  23.690  1.00  0.00     0.117 A 
ATOM     15  C   UNL A   1      33.623  23.536  23.959  1.00  0.00     0.162 A 
BRANCH  14  16
ATOM     16  C   UNL A   1      32.646  21.227  24.025  1.00  0.00     0.006 A 
ATOM     17  C   UNL A   1      32.848  20.812  25.344  1.00  0.00     0.012 A 
ATOM     18  C   UNL A   1      32.424  20.268  23.026  1.00  0.00     0.032 A 
ATOM     19  C   UNL A   1      32.787  19.452  25.666  1.00  0.00     0.023 A 
ATOM     20  C   UNL A   1      32.369  18.908  23.346  1.00  0.00     0.060 A 
ATOM     21  C   UNL A   1      32.541  18.499  24.671  1.00  0.00     0.059 A 
ATOM     22  Cl  UNL A   1      32.071  17.794  22.057  1.00  0.00    -0.083 Cl
ATOM     23  Cl  UNL A   1      32.449  16.840  25.143  1.00  0.00    -0.083 Cl
ENDBRANCH  14  16
BRANCH  15  24
ATOM     24  C   UNL A   1      34.981  23.444  24.459  1.00  0.00     0.020 A 
ATOM     25  C   UNL A   1      35.947  22.682  23.795  1.00  0.00     0.012 A 
ATOM     26  C   UNL A   1      35.347  24.157  25.612  1.00  0.00     0.012 A 
ATOM     27  C   UNL A   1      37.262  22.652  24.265  1.00  0.00     0.001 A 
ATOM     28  C   UNL A   1      36.658  24.119  26.084  1.00  0.00     0.001 A 
ATOM     29  C   UNL A   1      37.617  23.371  25.407  1.00  0.00     0.000 A 
ENDBRANCH  15  24
ENDBRANCH  10  11
ENDBRANCH   9  10
ENDBRANCH   8   9
ENDBRANCH   6   8
ENDBRANCH   3   4
ENDBRANCH   2   3
ENDBRANCH   1   2
BRANCH   1  30
ATOM     30  C   UNL A   1      35.143  30.959  27.955  1.00  0.00     0.002 C 
BRANCH  30  31
ATOM     31  C   UNL A   1      35.660  32.351  28.324  1.00  0.00     0.021 C 
BRANCH  31  32
ATOM     32  C   UNL A   1      36.709  32.377  29.431  1.00  0.00     0.116 C 
BRANCH  32  33
ATOM     33  N   UNL A   1      36.335  31.567  30.581  1.00  0.00    -0.352 N 
ATOM     34  C   UNL A   1      36.933  30.424  31.057  1.00  0.00     0.251 C 
ATOM     35  H   UNL A   1      35.549  31.879  31.085  1.00  0.00     0.163 HD
ATOM     36  O   UNL A   1      36.407  29.785  31.964  1.00  0.00    -0.269 OA
BRANCH  34  37
ATOM     37  C   UNL A   1      38.197  29.955  30.448  1.00  0.00     0.039 A 
ATOM     38  C   UNL A   1      38.280  29.841  29.058  1.00  0.00     0.014 A 
ATOM     39  C   UNL A   1      39.303  29.654  31.247  1.00  0.00     0.014 A 
ATOM     40  C   UNL A   1      39.496  29.488  28.463  1.00  0.00     0.010 A 
ATOM     41  C   UNL A   1      40.528  29.363  30.650  1.00  0.00     0.010 A 
ATOM     42  C   UNL A   1      40.639  29.281  29.253  1.00  0.00    -0.014 A 
BRANCH  42  43
ATOM     43  C   UNL A   1      41.961  28.973  28.649  1.00  0.00     0.031 A 
ATOM     44  C   UNL A   1      42.257  27.577  28.169  1.00  0.00     0.074 A 
ATOM     45  C   UNL A   1      42.923  29.919  28.615  1.00  0.00     0.049 A 
ATOM     46  N   UNL A   1      43.387  27.071  27.747  1.00  0.00    -0.248 NA
ATOM     47  C   UNL A   1      41.143  26.615  28.196  1.00  0.00     0.031 C 
ATOM     48  C   UNL A   1      42.773  31.299  29.086  1.00  0.00     0.029 A 
ATOM     49  N   UNL A   1      44.226  29.857  28.185  1.00  0.00    -0.354 N 
ATOM     50  C   UNL A   1      43.129  25.730  27.487  1.00  0.00     0.074 A 
ATOM     51  C   UNL A   1      41.744  25.491  27.829  1.00  0.00     0.031 C 
ATOM     52  C   UNL A   1      43.935  31.952  28.915  1.00  0.00     0.029 A 
ATOM     53  C   UNL A   1      44.923  31.031  28.362  1.00  0.00     0.049 A 
ATOM     54  H   UNL A   1      44.624  29.050  27.790  1.00  0.00     0.167 HD
ATOM     55  C   UNL A   1      43.968  24.789  26.996  1.00  0.00     0.037 A 
ATOM     56  C   UNL A   1      46.216  31.326  28.123  1.00  0.00     0.037 A 
ATOM     57  C   UNL A   1      45.329  25.044  26.606  1.00  0.00     0.049 A 
ATOM     58  C   UNL A   1      47.123  30.261  27.559  1.00  0.00     0.074 A 
ATOM     59  C   UNL A   1      46.231  24.172  26.021  1.00  0.00     0.029 A 
ATOM     60  N   UNL A   1      45.982  26.258  26.754  1.00  0.00    -0.354 N 
ATOM     61  N   UNL A   1      46.841  29.015  27.260  1.00  0.00    -0.248 NA
ATOM     62  C   UNL A   1      48.519  30.640  27.297  1.00  0.00     0.031 C 
ATOM     63  C   UNL A   1      47.444  24.848  25.850  1.00  0.00     0.029 A 
ATOM     64  C   UNL A   1      47.282  26.154  26.286  1.00  0.00     0.049 A 
ATOM     65  H   UNL A   1      45.582  27.073  27.134  1.00  0.00     0.167 HD
ATOM     66  C   UNL A   1      48.014  28.476  26.740  1.00  0.00     0.074 A 
ATOM     67  C   UNL A   1      49.006  29.530  26.761  1.00  0.00     0.031 C 
ATOM     68  C   UNL A   1      48.246  27.222  26.283  1.00  0.00     0.037 A 
BRANCH  55  69
ATOM     69  C   UNL A   1      43.446  23.389  26.833  1.00  0.00     0.058 A 
ATOM     70  C   UNL A   1      43.042  22.894  25.583  1.00  0.00     0.135 A 
ATOM     71  C   UNL A   1      43.430  22.506  27.925  1.00  0.00     0.135 A 
ATOM     72  F   UNL A   1      43.022  23.701  24.512  1.00  0.00    -0.206 F 
ATOM     73  C   UNL A   1      42.635  21.574  25.423  1.00  0.00     0.059 A 
ATOM     74  C   UNL A   1      43.050  21.175  27.783  1.00  0.00     0.059 A 
ATOM     75  F   UNL A   1      43.803  22.931  29.143  1.00  0.00    -0.206 F 
ATOM     76  C   UNL A   1      42.648  20.720  26.528  1.00  0.00     0.060 A 
BRANCH  76  77
ATOM     77  S   UNL A   1      42.161  18.997  26.292  1.00  0.00     0.124 S 
ATOM     78  O   UNL A   1      40.816  19.148  25.745  1.00  0.00    -0.237 OA
ATOM     79  O   UNL A   1      43.174  18.512  25.360  1.00  0.00    -0.237 OA
ATOM     80  O   UNL A   1      42.232  18.436  27.638  1.00  0.00    -0.744 OA
ENDBRANCH  76  77
ENDBRANCH  55  69
BRANCH  56  81
ATOM     81  C   UNL A   1      46.748  32.686  28.409  1.00  0.00     0.058 A 
ATOM     82  C   UNL A   1      46.748  33.682  27.422  1.00  0.00     0.135 A 
ATOM     83  C   UNL A   1      47.299  33.006  29.660  1.00  0.00     0.135 A 
ATOM     84  F   UNL A   1      46.238  33.424  26.208  1.00  0.00    -0.206 F 
ATOM     85  C   UNL A   1      47.309  34.935  27.649  1.00  0.00     0.059 A 
ATOM     86  C   UNL A   1      47.841  34.261  29.921  1.00  0.00     0.059 A 
ATOM     87  F   UNL A   1      47.306  32.095  30.646  1.00  0.00    -0.206 F 
ATOM     88  C   UNL A   1      47.861  35.212  28.901  1.00  0.00     0.060 A 
BRANCH  88  89
ATOM     89  S   UNL A   1      48.586  36.841  29.189  1.00  0.00     0.124 S 
ATOM     90  O   UNL A   1      48.276  37.052  30.599  1.00  0.00    -0.237 OA
ATOM     91  O   UNL A   1      49.992  36.615  28.871  1.00  0.00    -0.237 OA
ATOM     92  O   UNL A   1      47.867  37.696  28.249  1.00  0.00    -0.744 OA
ENDBRANCH  88  89
ENDBRANCH  56  81
BRANCH  68  93
ATOM     93  C   UNL A   1      49.603  26.927  25.709  1.00  0.00     0.058 A 
ATOM     94  C   UNL A   1      49.902  27.161  24.359  1.00  0.00     0.135 A 
ATOM     95  C   UNL A   1      50.639  26.476  26.544  1.00  0.00     0.135 A 
ATOM     96  F   UNL A   1      48.945  27.584  23.518  1.00  0.00    -0.206 F 
ATOM     97  C   UNL A   1      51.180  26.948  23.852  1.00  0.00     0.059 A 
ATOM     98  C   UNL A   1      51.931  26.282  26.065  1.00  0.00     0.059 A 
ATOM     99  F   UNL A   1      50.407  26.247  27.847  1.00  0.00    -0.206 F 
ATOM    100  C   UNL A   1      52.189  26.514  24.715  1.00  0.00     0.060 A 
BRANCH 100 101
ATOM    101  S   UNL A   1      53.857  26.296  24.058  1.00  0.00     0.124 S 
ATOM    102  O   UNL A   1      54.313  25.121  24.793  1.00  0.00    -0.237 OA
ATOM    103  O   UNL A   1      53.610  26.097  22.633  1.00  0.00    -0.237 OA
ATOM    104  O   UNL A   1      54.523  27.549  24.402  1.00  0.00    -0.744 OA
ENDBRANCH 100 101
ENDBRANCH  68  93
ENDBRANCH  42  43
ENDBRANCH  34  37
ENDBRANCH  32  33
ENDBRANCH  31  32
ENDBRANCH  30  31
ENDBRANCH   1  30
TORSDOF 21
ENDMDL
MODEL 3
REMARK VINA RESULT:      -8.7      1.748      2.635
REMARK SMILES O=C(CCCc1nc(-c2ccc(Cl)c(Cl)c2)c(-c2ccccc2)o1)NCCCCCCNC(=O)c1ccc(-c2c3nc(c(-c4c(F)cc(S(=O)(=O)[O-])cc4F)c4ccc([nH]4)c(-c4c(F)cc(S(=O)(=O)[O-])cc4F)c4nc(c(-c5c(F)cc(S(=O)(=O)[O-])cc5F)c5ccc2[nH]5)C=C4)C=C3)cc1
REMARK SMILES IDX 28 1 27 2 26 3 25 4 1 5 2 6 3 8 4 9 5 10 6 11 7 12 24 13
REMARK SMILES IDX 8 14 17 15 9 16 10 17 16 18 11 19 14 20 12 21 15 22 13 23
REMARK SMILES IDX 18 24 19 25 23 26 20 27 22 28 21 29 29 30 30 31 31 32 32 33
REMARK SMILES IDX 33 34 34 36 35 37 36 38 100 39 37 40 99 41 38 42 39 43 40 44
REMARK SMILES IDX 93 45 41 46 98 47 92 48 94 49 42 50 97 51 91 52 90 53 43 55
REMARK SMILES IDX 77 56 56 57 76 58 57 59 60 60 75 61 95 62 58 63 59 64 74 66
REMARK SMILES IDX 96 67 61 68 44 69 45 70 54 71 46 72 47 73 53 74 55 75 48 76
REMARK SMILES IDX 49 77 50 78 51 79 52 80 78 81 79 82 88 83 80 84 81 85 87 86
REMARK SMILES IDX 89 87 82 88 83 89 84 90 85 91 86 92 62 93 63 94 72 95 64 96
REMARK SMILES IDX 65 97 71 98 73 99 66 100 67 101 68 102 69 103 70 104
REMARK H PARENT 25 7 32 35 94 54 60 65
REMARK Flexibility Score: inf
ROOT
ATOM      1  C   UNL A   1      35.847  33.962  32.615  1.00  0.00     0.002 C 
ENDROOT
BRANCH   1   2
ATOM      2  C   UNL A   1      35.563  33.334  33.986  1.00  0.00     0.021 C 
BRANCH   2   3
ATOM      3  C   UNL A   1      36.807  32.983  34.802  1.00  0.00     0.116 C 
BRANCH   3   4
ATOM      4  N   UNL A   1      37.313  31.673  34.450  1.00  0.00    -0.356 N 
ATOM      5  O   UNL A   1      39.379  32.371  33.723  1.00  0.00    -0.275 OA
ATOM      6  C   UNL A   1      38.568  31.476  33.931  1.00  0.00     0.220 C 
ATOM      7  H   UNL A   1      36.731  30.891  34.586  1.00  0.00     0.163 HD
BRANCH   6   8
ATOM      8  C   UNL A   1      38.871  30.025  33.630  1.00  0.00     0.100 C 
BRANCH   8   9
ATOM      9  C   UNL A   1      40.353  29.670  33.780  1.00  0.00     0.020 C 
BRANCH   9  10
ATOM     10  C   UNL A   1      40.949  29.756  35.191  1.00  0.00     0.098 C 
BRANCH  10  11
ATOM     11  C   UNL A   1      41.965  28.718  35.529  1.00  0.00     0.195 A 
ATOM     12  N   UNL A   1      42.677  28.613  36.636  1.00  0.00    -0.213 NA
ATOM     13  O   UNL A   1      42.182  27.716  34.620  1.00  0.00    -0.440 OA
ATOM     14  C   UNL A   1      43.435  27.485  36.431  1.00  0.00     0.117 A 
ATOM     15  C   UNL A   1      43.084  26.894  35.234  1.00  0.00     0.162 A 
BRANCH  14  16
ATOM     16  C   UNL A   1      44.446  26.988  37.338  1.00  0.00     0.006 A 
ATOM     17  C   UNL A   1      44.108  26.114  38.374  1.00  0.00     0.012 A 
ATOM     18  C   UNL A   1      45.789  27.347  37.149  1.00  0.00     0.032 A 
ATOM     19  C   UNL A   1      45.110  25.572  39.187  1.00  0.00     0.023 A 
ATOM     20  C   UNL A   1      46.790  26.812  37.965  1.00  0.00     0.060 A 
ATOM     21  C   UNL A   1      46.451  25.914  38.980  1.00  0.00     0.059 A 
ATOM     22  Cl  UNL A   1      48.421  27.292  37.650  1.00  0.00    -0.083 Cl
ATOM     23  Cl  UNL A   1      47.639  25.186  40.001  1.00  0.00    -0.083 Cl
ENDBRANCH  14  16
BRANCH  15  24
ATOM     24  C   UNL A   1      43.408  25.648  34.566  1.00  0.00     0.020 A 
ATOM     25  C   UNL A   1      43.014  24.417  35.099  1.00  0.00     0.012 A 
ATOM     26  C   UNL A   1      44.101  25.674  33.346  1.00  0.00     0.012 A 
ATOM     27  C   UNL A   1      43.290  23.233  34.410  1.00  0.00     0.001 A 
ATOM     28  C   UNL A   1      44.383  24.491  32.664  1.00  0.00     0.001 A 
ATOM     29  C   UNL A   1      43.972  23.271  33.194  1.00  0.00     0.000 A 
ENDBRANCH  15  24
ENDBRANCH  10  11
ENDBRANCH   9  10
ENDBRANCH   8   9
ENDBRANCH   6   8
ENDBRANCH   3   4
ENDBRANCH   2   3
ENDBRANCH   1   2
BRANCH   1  30
ATOM     30  C   UNL A   1      35.941  32.978  31.446  1.00  0.00     0.002 C 
BRANCH  30  31
ATOM     31  C   UNL A   1      34.653  32.800  30.641  1.00  0.00     0.021 C 
BRANCH  31  32
ATOM     32  C   UNL A   1      34.831  32.815  29.125  1.00  0.00     0.116 C 
BRANCH  32  33
ATOM     33  N   UNL A   1      34.039  31.795  28.456  1.00  0.00    -0.352 N 
ATOM     34  C   UNL A   1      34.434  30.554  28.014  1.00  0.00     0.251 C 
ATOM     35  H   UNL A   1      33.095  32.023  28.296  1.00  0.00     0.163 HD
ATOM     36  O   UNL A   1      33.670  29.865  27.344  1.00  0.00    -0.269 OA
BRANCH  34  37
ATOM     37  C   UNL A   1      35.796  30.069  28.327  1.00  0.00     0.039 A 
ATOM     38  C   UNL A   1      36.802  30.199  27.366  1.00  0.00     0.014 A 
ATOM     39  C   UNL A   1      36.083  29.511  29.575  1.00  0.00     0.014 A 
ATOM     40  C   UNL A   1      38.113  29.830  27.680  1.00  0.00     0.010 A 
ATOM     41  C   UNL A   1      37.401  29.202  29.908  1.00  0.00     0.010 A 
ATOM     42  C   UNL A   1      38.430  29.361  28.966  1.00  0.00    -0.014 A 
BRANCH  42  43
ATOM     43  C   UNL A   1      39.824  29.027  29.355  1.00  0.00     0.031 A 
ATOM     44  C   UNL A   1      40.686  30.068  30.020  1.00  0.00     0.074 A 
ATOM     45  C   UNL A   1      40.344  27.825  29.031  1.00  0.00     0.049 A 
ATOM     46  N   UNL A   1      41.961  30.025  30.307  1.00  0.00    -0.248 NA
ATOM     47  C   UNL A   1      40.033  31.337  30.383  1.00  0.00     0.031 C 
ATOM     48  C   UNL A   1      39.625  26.744  28.350  1.00  0.00     0.029 A 
ATOM     49  N   UNL A   1      41.608  27.317  29.209  1.00  0.00    -0.354 N 
ATOM     50  C   UNL A   1      42.269  31.265  30.854  1.00  0.00     0.074 A 
ATOM     51  C   UNL A   1      41.056  32.052  30.831  1.00  0.00     0.031 C 
ATOM     52  C   UNL A   1      40.456  25.704  28.173  1.00  0.00     0.029 A 
ATOM     53  C   UNL A   1      41.776  26.053  28.689  1.00  0.00     0.049 A 
ATOM     54  H   UNL A   1      42.327  27.811  29.664  1.00  0.00     0.167 HD
ATOM     55  C   UNL A   1      43.453  31.701  31.342  1.00  0.00     0.037 A 
ATOM     56  C   UNL A   1      42.873  25.273  28.620  1.00  0.00     0.037 A 
ATOM     57  C   UNL A   1      44.644  30.895  31.413  1.00  0.00     0.049 A 
ATOM     58  C   UNL A   1      44.174  25.780  29.189  1.00  0.00     0.074 A 
ATOM     59  C   UNL A   1      45.869  31.224  31.967  1.00  0.00     0.029 A 
ATOM     60  N   UNL A   1      44.759  29.604  30.922  1.00  0.00    -0.354 N 
ATOM     61  N   UNL A   1      44.428  26.933  29.761  1.00  0.00    -0.248 NA
ATOM     62  C   UNL A   1      45.335  24.882  29.107  1.00  0.00     0.031 C 
ATOM     63  C   UNL A   1      46.738  30.145  31.777  1.00  0.00     0.029 A 
ATOM     64  C   UNL A   1      46.039  29.128  31.145  1.00  0.00     0.049 A 
ATOM     65  H   UNL A   1      44.037  29.101  30.481  1.00  0.00     0.167 HD
ATOM     66  C   UNL A   1      45.766  26.880  30.140  1.00  0.00     0.074 A 
ATOM     67  C   UNL A   1      46.267  25.584  29.736  1.00  0.00     0.031 C 
ATOM     68  C   UNL A   1      46.511  27.821  30.768  1.00  0.00     0.037 A 
BRANCH  55  69
ATOM     69  C   UNL A   1      43.532  33.111  31.857  1.00  0.00     0.058 A 
ATOM     70  C   UNL A   1      43.299  33.416  33.207  1.00  0.00     0.135 A 
ATOM     71  C   UNL A   1      43.931  34.156  31.007  1.00  0.00     0.135 A 
ATOM     72  F   UNL A   1      42.899  32.458  34.057  1.00  0.00    -0.206 F 
ATOM     73  C   UNL A   1      43.450  34.710  33.695  1.00  0.00     0.059 A 
ATOM     74  C   UNL A   1      44.112  35.452  31.478  1.00  0.00     0.059 A 
ATOM     75  F   UNL A   1      44.163  33.916  29.706  1.00  0.00    -0.206 F 
ATOM     76  C   UNL A   1      43.864  35.720  32.823  1.00  0.00     0.060 A 
BRANCH  76  77
ATOM     77  S   UNL A   1      44.102  37.384  33.484  1.00  0.00     0.124 S 
ATOM     78  O   UNL A   1      44.151  38.178  32.260  1.00  0.00    -0.237 OA
ATOM     79  O   UNL A   1      42.912  37.565  34.309  1.00  0.00    -0.237 OA
ATOM     80  O   UNL A   1      45.360  37.282  34.217  1.00  0.00    -0.744 OA
ENDBRANCH  76  77
ENDBRANCH  55  69
BRANCH  56  81
ATOM     81  C   UNL A   1      42.805  23.926  27.992  1.00  0.00     0.058 A 
ATOM     82  C   UNL A   1      42.820  23.780  26.597  1.00  0.00     0.135 A 
ATOM     83  C   UNL A   1      42.686  22.763  28.769  1.00  0.00     0.135 A 
ATOM     84  F   UNL A   1      42.926  24.862  25.810  1.00  0.00    -0.206 F 
ATOM     85  C   UNL A   1      42.681  22.535  25.992  1.00  0.00     0.059 A 
ATOM     86  C   UNL A   1      42.574  21.504  28.188  1.00  0.00     0.059 A 
ATOM     87  F   UNL A   1      42.686  22.845  30.109  1.00  0.00    -0.206 F 
ATOM     88  C   UNL A   1      42.551  21.402  26.797  1.00  0.00     0.060 A 
BRANCH  88  89
ATOM     89  S   UNL A   1      42.374  19.789  26.004  1.00  0.00     0.124 S 
ATOM     90  O   UNL A   1      42.557  18.888  27.136  1.00  0.00    -0.237 OA
ATOM     91  O   UNL A   1      41.023  19.860  25.456  1.00  0.00    -0.237 OA
ATOM     92  O   UNL A   1      43.445  19.786  25.013  1.00  0.00    -0.744 OA
ENDBRANCH  88  89
ENDBRANCH  56  81
BRANCH  68  93
ATOM     93  C   UNL A   1      47.930  27.471  31.119  1.00  0.00     0.058 A 
ATOM     94  C   UNL A   1      48.267  26.902  32.356  1.00  0.00     0.135 A 
ATOM     95  C   UNL A   1      48.953  27.635  30.169  1.00  0.00     0.135 A 
ATOM     96  F   UNL A   1      47.328  26.733  33.300  1.00  0.00    -0.206 F 
ATOM     97  C   UNL A   1      49.573  26.520  32.646  1.00  0.00     0.059 A 
ATOM     98  C   UNL A   1      50.259  27.235  30.428  1.00  0.00     0.059 A 
ATOM     99  F   UNL A   1      48.679  28.164  28.966  1.00  0.00    -0.206 F 
ATOM    100  C   UNL A   1      50.561  26.685  31.672  1.00  0.00     0.060 A 
BRANCH 100 101
ATOM    101  S   UNL A   1      52.240  26.131  32.039  1.00  0.00     0.124 S 
ATOM    102  O   UNL A   1      52.376  26.506  33.442  1.00  0.00    -0.237 OA
ATOM    103  O   UNL A   1      52.163  24.697  31.771  1.00  0.00    -0.237 OA
ATOM    104  O   UNL A   1      53.061  26.893  31.102  1.00  0.00    -0.744 OA
ENDBRANCH 100 101
ENDBRANCH  68  93
ENDBRANCH  42  43
ENDBRANCH  34  37
ENDBRANCH  32  33
ENDBRANCH  31  32
ENDBRANCH  30  31
ENDBRANCH   1  30
TORSDOF 21
ENDMDL
