MODEL 1
REMARK VINA RESULT:     -12.4      0.000      0.000
REMARK SMILES CC(C)Cc1cc2c(cc1Cl)C=C(C(=O)NCCCCCCNC(=O)c1ccc(-c3c4nc(c(-c5c(F)cc(S(=O)(=O)[O-])cc5F)c5ccc([nH]5)c(-c5c(F)cc(S(=O)(=O)[O-])cc5F)c5nc(c(-c6c(F)cc(S(=O)(=O)[O-])cc6F)c6ccc3[nH]6)C=C5)C=C4)cc1)[C@H](C(F)(F)F)O2
REMARK SMILES IDX 20 1 19 2 18 3 17 4 16 5 14 6 15 7 13 9 5 10 6 11 10 12 7 13
REMARK SMILES IDX 9 14 11 15 8 16 97 17 12 18 92 19 4 20 2 21 1 22 3 23 93 24
REMARK SMILES IDX 94 25 95 26 96 27 21 28 22 29 23 30 24 31 25 33 26 34 27 35
REMARK SMILES IDX 91 36 28 37 90 38 29 39 30 40 31 41 84 42 32 43 89 44 83 45
REMARK SMILES IDX 85 46 33 47 88 48 82 49 81 50 34 52 68 53 47 54 67 55 48 56
REMARK SMILES IDX 51 57 66 58 86 59 49 60 50 61 65 63 87 64 52 65 35 66 36 67
REMARK SMILES IDX 45 68 37 69 38 70 44 71 46 72 39 73 40 74 41 75 42 76 43 77
REMARK SMILES IDX 69 78 70 79 79 80 71 81 72 82 78 83 80 84 73 85 74 86 75 87
REMARK SMILES IDX 76 88 77 89 53 90 54 91 63 92 55 93 56 94 62 95 64 96 57 97
REMARK SMILES IDX 58 98 59 99 60 100 61 101
REMARK H PARENT 16 8 23 32 85 51 51 62
REMARK Flexibility Score: inf
ROOT
ATOM      1  C   UNL A   1      33.885  30.476  27.409  1.00  0.00     0.002 C 
ENDROOT
BRANCH   1   2
ATOM      2  C   UNL A   1      32.438  30.471  26.902  1.00  0.00     0.002 C 
BRANCH   2   3
ATOM      3  C   UNL A   1      31.840  29.088  26.624  1.00  0.00     0.021 C 
BRANCH   3   4
ATOM      4  C   UNL A   1      31.352  28.894  25.190  1.00  0.00     0.116 C 
BRANCH   4   5
ATOM      5  N   UNL A   1      32.391  29.204  24.220  1.00  0.00    -0.352 N 
ATOM      6  C   UNL A   1      33.273  28.527  23.447  1.00  0.00     0.251 C 
ATOM      7  O   UNL A   1      33.968  29.231  22.705  1.00  0.00    -0.270 OA
ATOM      8  H   UNL A   1      32.478  30.176  24.090  1.00  0.00     0.163 HD
BRANCH   6   9
ATOM      9  C   UNL A   1      33.454  27.043  23.426  1.00  0.00     0.067 C 
ATOM     10  C   UNL A   1      34.431  22.242  24.717  1.00  0.00    -0.025 A 
ATOM     11  C   UNL A   1      34.229  22.934  23.516  1.00  0.00     0.052 A 
ATOM     12  C   UNL A   1      34.264  22.964  25.915  1.00  0.00     0.045 A 
ATOM     13  C   UNL A   1      33.974  24.302  23.503  1.00  0.00     0.128 A 
ATOM     14  C   UNL A   1      33.995  24.343  25.898  1.00  0.00     0.032 A 
ATOM     15  Cl  UNL A   1      34.384  22.203  27.463  1.00  0.00    -0.084 Cl
ATOM     16  C   UNL A   1      33.872  25.022  24.685  1.00  0.00     0.019 A 
ATOM     17  O   UNL A   1      33.899  24.868  22.268  1.00  0.00    -0.475 OA
ATOM     18  C   UNL A   1      33.690  26.467  24.621  1.00  0.00     0.025 C 
ATOM     19  C   UNL A   1      33.333  26.199  22.188  1.00  0.00     0.314 C 
BRANCH  10  20
ATOM     20  C   UNL A   1      34.780  20.765  24.696  1.00  0.00     0.040 C 
BRANCH  20  21
ATOM     21  C   UNL A   1      33.601  19.767  24.821  1.00  0.00    -0.013 C 
ATOM     22  C   UNL A   1      32.438  20.124  23.887  1.00  0.00     0.008 C 
ATOM     23  C   UNL A   1      34.076  18.343  24.520  1.00  0.00     0.008 C 
ENDBRANCH  20  21
ENDBRANCH  10  20
BRANCH  19  24
ATOM     24  C   UNL A   1      31.894  26.099  21.659  1.00  0.00     0.429 C 
ATOM     25  F   UNL A   1      31.174  25.135  22.275  1.00  0.00    -0.167 F 
ATOM     26  F   UNL A   1      31.233  27.267  21.860  1.00  0.00    -0.167 F 
ATOM     27  F   UNL A   1      31.846  25.830  20.334  1.00  0.00    -0.167 F 
ENDBRANCH  19  24
ENDBRANCH   6   9
ENDBRANCH   4   5
ENDBRANCH   3   4
ENDBRANCH   2   3
ENDBRANCH   1   2
BRANCH   1  28
ATOM     28  C   UNL A   1      34.401  31.821  27.924  1.00  0.00     0.021 C 
BRANCH  28  29
ATOM     29  C   UNL A   1      35.726  31.758  28.676  1.00  0.00     0.116 C 
BRANCH  29  30
ATOM     30  N   UNL A   1      35.552  31.454  30.087  1.00  0.00    -0.352 N 
ATOM     31  C   UNL A   1      36.314  30.650  30.902  1.00  0.00     0.251 C 
ATOM     32  H   UNL A   1      34.779  31.882  30.520  1.00  0.00     0.163 HD
ATOM     33  O   UNL A   1      35.928  30.378  32.035  1.00  0.00    -0.269 OA
BRANCH  31  34
ATOM     34  C   UNL A   1      37.586  30.093  30.393  1.00  0.00     0.039 A 
ATOM     35  C   UNL A   1      38.523  29.547  31.273  1.00  0.00     0.014 A 
ATOM     36  C   UNL A   1      37.852  30.143  29.022  1.00  0.00     0.014 A 
ATOM     37  C   UNL A   1      39.785  29.198  30.803  1.00  0.00     0.010 A 
ATOM     38  C   UNL A   1      39.095  29.720  28.542  1.00  0.00     0.010 A 
ATOM     39  C   UNL A   1      40.088  29.288  29.435  1.00  0.00    -0.014 A 
BRANCH  39  40
ATOM     40  C   UNL A   1      41.454  28.939  28.965  1.00  0.00     0.031 A 
ATOM     41  C   UNL A   1      42.578  29.938  29.058  1.00  0.00     0.074 A 
ATOM     42  C   UNL A   1      41.696  27.694  28.509  1.00  0.00     0.049 A 
ATOM     43  N   UNL A   1      43.834  29.800  28.718  1.00  0.00    -0.248 NA
ATOM     44  C   UNL A   1      42.249  31.266  29.602  1.00  0.00     0.031 C 
ATOM     45  C   UNL A   1      40.692  26.634  28.385  1.00  0.00     0.029 A 
ATOM     46  N   UNL A   1      42.860  27.098  28.095  1.00  0.00    -0.354 N 
ATOM     47  C   UNL A   1      44.442  31.020  28.991  1.00  0.00     0.074 A 
ATOM     48  C   UNL A   1      43.410  31.899  29.498  1.00  0.00     0.031 C 
ATOM     49  C   UNL A   1      41.293  25.506  27.980  1.00  0.00     0.029 A 
ATOM     50  C   UNL A   1      42.710  25.774  27.759  1.00  0.00     0.049 A 
ATOM     51  H   UNL A   1      43.720  27.574  28.043  1.00  0.00     0.167 HD
ATOM     52  C   UNL A   1      45.743  31.370  28.846  1.00  0.00     0.037 A 
ATOM     53  C   UNL A   1      43.609  24.876  27.314  1.00  0.00     0.037 A 
ATOM     54  C   UNL A   1      46.770  30.484  28.361  1.00  0.00     0.049 A 
ATOM     55  C   UNL A   1      45.036  25.300  27.121  1.00  0.00     0.074 A 
ATOM     56  C   UNL A   1      48.119  30.744  28.192  1.00  0.00     0.029 A 
ATOM     57  N   UNL A   1      46.565  29.170  27.971  1.00  0.00    -0.354 N 
ATOM     58  N   UNL A   1      45.589  26.462  27.378  1.00  0.00    -0.248 NA
ATOM     59  C   UNL A   1      45.958  24.301  26.567  1.00  0.00     0.031 C 
ATOM     60  C   UNL A   1      48.724  29.595  27.667  1.00  0.00     0.029 A 
ATOM     61  C   UNL A   1      47.758  28.609  27.545  1.00  0.00     0.049 A 
ATOM     62  H   UNL A   1      45.698  28.703  27.993  1.00  0.00     0.167 HD
ATOM     63  C   UNL A   1      46.925  26.333  27.018  1.00  0.00     0.074 A 
ATOM     64  C   UNL A   1      47.101  24.973  26.547  1.00  0.00     0.031 C 
ATOM     65  C   UNL A   1      47.914  27.258  27.068  1.00  0.00     0.037 A 
BRANCH  52  66
ATOM     66  C   UNL A   1      46.132  32.775  29.213  1.00  0.00     0.058 A 
ATOM     67  C   UNL A   1      46.471  33.125  30.528  1.00  0.00     0.135 A 
ATOM     68  C   UNL A   1      46.212  33.774  28.228  1.00  0.00     0.135 A 
ATOM     69  F   UNL A   1      46.396  32.214  31.511  1.00  0.00    -0.206 F 
ATOM     70  C   UNL A   1      46.854  34.421  30.860  1.00  0.00     0.059 A 
ATOM     71  C   UNL A   1      46.613  35.072  28.533  1.00  0.00     0.059 A 
ATOM     72  F   UNL A   1      45.899  33.492  26.953  1.00  0.00    -0.206 F 
ATOM     73  C   UNL A   1      46.920  35.388  29.856  1.00  0.00     0.060 A 
BRANCH  73  74
ATOM     74  S   UNL A   1      47.420  37.064  30.306  1.00  0.00     0.124 S 
ATOM     75  O   UNL A   1      46.177  37.801  30.102  1.00  0.00    -0.237 OA
ATOM     76  O   UNL A   1      47.839  36.902  31.695  1.00  0.00    -0.237 OA
ATOM     77  O   UNL A   1      48.491  37.366  29.361  1.00  0.00    -0.744 OA
ENDBRANCH  73  74
ENDBRANCH  52  66
BRANCH  53  78
ATOM     78  C   UNL A   1      43.174  23.485  27.024  1.00  0.00     0.058 A 
ATOM     79  C   UNL A   1      42.964  23.056  25.707  1.00  0.00     0.135 A 
ATOM     80  C   UNL A   1      43.011  22.546  28.055  1.00  0.00     0.135 A 
ATOM     81  F   UNL A   1      43.102  23.920  24.690  1.00  0.00    -0.206 F 
ATOM     82  C   UNL A   1      42.609  21.742  25.418  1.00  0.00     0.059 A 
ATOM     83  C   UNL A   1      42.680  21.222  27.790  1.00  0.00     0.059 A 
ATOM     84  F   UNL A   1      43.214  22.907  29.332  1.00  0.00    -0.206 F 
ATOM     85  C   UNL A   1      42.477  20.830  26.467  1.00  0.00     0.060 A 
BRANCH  85  86
ATOM     86  S   UNL A   1      42.093  19.110  26.075  1.00  0.00     0.124 S 
ATOM     87  O   UNL A   1      42.982  18.860  24.947  1.00  0.00    -0.237 OA
ATOM     88  O   UNL A   1      42.431  18.429  27.321  1.00  0.00    -0.237 OA
ATOM     89  O   UNL A   1      40.668  19.149  25.760  1.00  0.00    -0.744 OA
ENDBRANCH  85  86
ENDBRANCH  53  78
BRANCH  65  90
ATOM     90  C   UNL A   1      49.277  26.836  26.600  1.00  0.00     0.058 A 
ATOM     91  C   UNL A   1      50.138  26.104  27.432  1.00  0.00     0.135 A 
ATOM     92  C   UNL A   1      49.700  27.109  25.290  1.00  0.00     0.135 A 
ATOM     93  F   UNL A   1      49.780  25.825  28.696  1.00  0.00    -0.206 F 
ATOM     94  C   UNL A   1      51.380  25.668  26.985  1.00  0.00     0.059 A 
ATOM     95  C   UNL A   1      50.930  26.663  24.815  1.00  0.00     0.059 A 
ATOM     96  F   UNL A   1      48.909  27.800  24.453  1.00  0.00    -0.206 F 
ATOM     97  C   UNL A   1      51.766  25.949  25.673  1.00  0.00     0.060 A 
BRANCH  97  98
ATOM     98  S   UNL A   1      53.362  25.337  25.092  1.00  0.00     0.124 S 
ATOM     99  O   UNL A   1      53.312  23.940  25.512  1.00  0.00    -0.237 OA
ATOM    100  O   UNL A   1      53.281  25.570  23.654  1.00  0.00    -0.237 OA
ATOM    101  O   UNL A   1      54.325  26.172  25.803  1.00  0.00    -0.744 OA
ENDBRANCH  97  98
ENDBRANCH  65  90
ENDBRANCH  39  40
ENDBRANCH  31  34
ENDBRANCH  29  30
ENDBRANCH  28  29
ENDBRANCH   1  28
TORSDOF 19
ENDMDL
MODEL 2
REMARK VINA RESULT:     -12.3      6.201     11.714
REMARK SMILES CC(C)Cc1cc2c(cc1Cl)C=C(C(=O)NCCCCCCNC(=O)c1ccc(-c3c4nc(c(-c5c(F)cc(S(=O)(=O)[O-])cc5F)c5ccc([nH]5)c(-c5c(F)cc(S(=O)(=O)[O-])cc5F)c5nc(c(-c6c(F)cc(S(=O)(=O)[O-])cc6F)c6ccc3[nH]6)C=C5)C=C4)cc1)[C@H](C(F)(F)F)O2
REMARK SMILES IDX 20 1 19 2 18 3 17 4 16 5 14 6 15 7 13 9 5 10 6 11 10 12 7 13
REMARK SMILES IDX 9 14 11 15 8 16 97 17 12 18 92 19 4 20 2 21 1 22 3 23 93 24
REMARK SMILES IDX 94 25 95 26 96 27 21 28 22 29 23 30 24 31 25 33 26 34 27 35
REMARK SMILES IDX 91 36 28 37 90 38 29 39 30 40 31 41 84 42 32 43 89 44 83 45
REMARK SMILES IDX 85 46 33 47 88 48 82 49 81 50 34 52 68 53 47 54 67 55 48 56
REMARK SMILES IDX 51 57 66 58 86 59 49 60 50 61 65 63 87 64 52 65 35 66 36 67
REMARK SMILES IDX 45 68 37 69 38 70 44 71 46 72 39 73 40 74 41 75 42 76 43 77
REMARK SMILES IDX 69 78 70 79 79 80 71 81 72 82 78 83 80 84 73 85 74 86 75 87
REMARK SMILES IDX 76 88 77 89 53 90 54 91 63 92 55 93 56 94 62 95 64 96 57 97
REMARK SMILES IDX 58 98 59 99 60 100 61 101
REMARK H PARENT 16 8 23 32 85 51 51 62
REMARK Flexibility Score: inf
ROOT
ATOM      1  C   UNL A   1      40.379  21.319  26.988  1.00  0.00     0.002 C 
ENDROOT
BRANCH   1   2
ATOM      2  C   UNL A   1      39.159  21.662  26.126  1.00  0.00     0.002 C 
BRANCH   2   3
ATOM      3  C   UNL A   1      38.680  23.115  26.209  1.00  0.00     0.021 C 
BRANCH   3   4
ATOM      4  C   UNL A   1      37.299  23.355  25.603  1.00  0.00     0.116 C 
BRANCH   4   5
ATOM      5  N   UNL A   1      36.283  22.525  26.233  1.00  0.00    -0.352 N 
ATOM      6  C   UNL A   1      34.933  22.499  26.334  1.00  0.00     0.251 C 
ATOM      7  O   UNL A   1      34.472  21.538  26.960  1.00  0.00    -0.270 OA
ATOM      8  H   UNL A   1      36.690  21.774  26.721  1.00  0.00     0.163 HD
BRANCH   6   9
ATOM      9  C   UNL A   1      33.996  23.514  25.759  1.00  0.00     0.067 C 
ATOM     10  C   UNL A   1      31.574  27.824  24.653  1.00  0.00    -0.025 A 
ATOM     11  C   UNL A   1      31.338  26.460  24.438  1.00  0.00     0.052 A 
ATOM     12  C   UNL A   1      32.799  28.182  25.248  1.00  0.00     0.045 A 
ATOM     13  C   UNL A   1      32.232  25.492  24.886  1.00  0.00     0.128 A 
ATOM     14  C   UNL A   1      33.705  27.202  25.689  1.00  0.00     0.032 A 
ATOM     15  Cl  UNL A   1      33.255  29.835  25.473  1.00  0.00    -0.084 Cl
ATOM     16  C   UNL A   1      33.410  25.847  25.528  1.00  0.00     0.019 A 
ATOM     17  O   UNL A   1      31.834  24.204  24.703  1.00  0.00    -0.475 OA
ATOM     18  C   UNL A   1      34.273  24.798  26.056  1.00  0.00     0.025 C 
ATOM     19  C   UNL A   1      32.841  23.175  24.858  1.00  0.00     0.314 C 
BRANCH  10  20
ATOM     20  C   UNL A   1      30.546  28.853  24.219  1.00  0.00     0.040 C 
BRANCH  20  21
ATOM     21  C   UNL A   1      29.817  28.588  22.877  1.00  0.00    -0.013 C 
ATOM     22  C   UNL A   1      28.323  28.304  23.075  1.00  0.00     0.008 C 
ATOM     23  C   UNL A   1      29.988  29.783  21.935  1.00  0.00     0.008 C 
ENDBRANCH  20  21
ENDBRANCH  10  20
BRANCH  19  24
ATOM     24  C   UNL A   1      33.279  22.691  23.466  1.00  0.00     0.429 C 
ATOM     25  F   UNL A   1      32.361  22.947  22.508  1.00  0.00    -0.167 F 
ATOM     26  F   UNL A   1      34.423  23.313  23.086  1.00  0.00    -0.167 F 
ATOM     27  F   UNL A   1      33.512  21.358  23.432  1.00  0.00    -0.167 F 
ENDBRANCH  19  24
ENDBRANCH   6   9
ENDBRANCH   4   5
ENDBRANCH   3   4
ENDBRANCH   2   3
ENDBRANCH   1   2
BRANCH   1  28
ATOM     28  C   UNL A   1      41.728  21.798  26.446  1.00  0.00     0.021 C 
BRANCH  28  29
ATOM     29  C   UNL A   1      42.132  23.204  26.874  1.00  0.00     0.116 C 
BRANCH  29  30
ATOM     30  N   UNL A   1      42.104  24.152  25.772  1.00  0.00    -0.352 N 
ATOM     31  C   UNL A   1      41.842  25.502  25.795  1.00  0.00     0.251 C 
ATOM     32  H   UNL A   1      42.297  23.774  24.884  1.00  0.00     0.163 HD
ATOM     33  O   UNL A   1      41.702  26.120  24.744  1.00  0.00    -0.269 OA
BRANCH  31  34
ATOM     34  C   UNL A   1      41.702  26.195  27.094  1.00  0.00     0.039 A 
ATOM     35  C   UNL A   1      40.625  25.912  27.936  1.00  0.00     0.014 A 
ATOM     36  C   UNL A   1      42.647  27.158  27.458  1.00  0.00     0.014 A 
ATOM     37  C   UNL A   1      40.407  26.699  29.062  1.00  0.00     0.010 A 
ATOM     38  C   UNL A   1      42.466  27.897  28.631  1.00  0.00     0.010 A 
ATOM     39  C   UNL A   1      41.320  27.706  29.418  1.00  0.00    -0.014 A 
BRANCH  39  40
ATOM     40  C   UNL A   1      41.046  28.553  30.607  1.00  0.00     0.031 A 
ATOM     41  C   UNL A   1      41.936  28.485  31.821  1.00  0.00     0.074 A 
ATOM     42  C   UNL A   1      40.027  29.434  30.568  1.00  0.00     0.049 A 
ATOM     43  N   UNL A   1      41.863  29.165  32.937  1.00  0.00    -0.248 NA
ATOM     44  C   UNL A   1      43.054  27.528  31.778  1.00  0.00     0.031 C 
ATOM     45  C   UNL A   1      39.104  29.603  29.444  1.00  0.00     0.029 A 
ATOM     46  N   UNL A   1      39.612  30.370  31.481  1.00  0.00    -0.354 N 
ATOM     47  C   UNL A   1      42.909  28.711  33.732  1.00  0.00     0.074 A 
ATOM     48  C   UNL A   1      43.587  27.675  32.983  1.00  0.00     0.031 C 
ATOM     49  C   UNL A   1      38.270  30.619  29.709  1.00  0.00     0.029 A 
ATOM     50  C   UNL A   1      38.557  31.134  31.043  1.00  0.00     0.049 A 
ATOM     51  H   UNL A   1      40.031  30.483  32.365  1.00  0.00     0.167 HD
ATOM     52  C   UNL A   1      43.278  29.129  34.967  1.00  0.00     0.037 A 
ATOM     53  C   UNL A   1      37.887  32.133  31.651  1.00  0.00     0.037 A 
ATOM     54  C   UNL A   1      42.612  30.176  35.700  1.00  0.00     0.049 A 
ATOM     55  C   UNL A   1      38.289  32.550  33.036  1.00  0.00     0.074 A 
ATOM     56  C   UNL A   1      42.920  30.679  36.952  1.00  0.00     0.029 A 
ATOM     57  N   UNL A   1      41.507  30.881  35.247  1.00  0.00    -0.354 N 
ATOM     58  N   UNL A   1      39.277  32.102  33.774  1.00  0.00    -0.248 NA
ATOM     59  C   UNL A   1      37.480  33.594  33.676  1.00  0.00     0.031 C 
ATOM     60  C   UNL A   1      41.980  31.666  37.271  1.00  0.00     0.029 A 
ATOM     61  C   UNL A   1      41.109  31.803  36.202  1.00  0.00     0.049 A 
ATOM     62  H   UNL A   1      41.069  30.745  34.376  1.00  0.00     0.167 HD
ATOM     63  C   UNL A   1      39.209  32.812  34.966  1.00  0.00     0.074 A 
ATOM     64  C   UNL A   1      38.098  33.734  34.842  1.00  0.00     0.031 C 
ATOM     65  C   UNL A   1      39.994  32.705  36.067  1.00  0.00     0.037 A 
BRANCH  52  66
ATOM     66  C   UNL A   1      44.456  28.452  35.610  1.00  0.00     0.058 A 
ATOM     67  C   UNL A   1      45.765  28.921  35.425  1.00  0.00     0.135 A 
ATOM     68  C   UNL A   1      44.269  27.347  36.458  1.00  0.00     0.135 A 
ATOM     69  F   UNL A   1      46.001  29.962  34.611  1.00  0.00    -0.206 F 
ATOM     70  C   UNL A   1      46.851  28.307  36.040  1.00  0.00     0.059 A 
ATOM     71  C   UNL A   1      45.339  26.731  37.101  1.00  0.00     0.059 A 
ATOM     72  F   UNL A   1      43.037  26.859  36.670  1.00  0.00    -0.206 F 
ATOM     73  C   UNL A   1      46.628  27.210  36.876  1.00  0.00     0.060 A 
BRANCH  73  74
ATOM     74  S   UNL A   1      48.050  26.427  37.666  1.00  0.00     0.124 S 
ATOM     75  O   UNL A   1      48.859  27.589  38.022  1.00  0.00    -0.237 OA
ATOM     76  O   UNL A   1      47.435  25.718  38.784  1.00  0.00    -0.237 OA
ATOM     77  O   UNL A   1      48.601  25.578  36.614  1.00  0.00    -0.744 OA
ENDBRANCH  73  74
ENDBRANCH  52  66
BRANCH  53  78
ATOM     78  C   UNL A   1      36.768  32.803  30.939  1.00  0.00     0.058 A 
ATOM     79  C   UNL A   1      35.435  32.499  31.247  1.00  0.00     0.135 A 
ATOM     80  C   UNL A   1      37.011  33.796  29.977  1.00  0.00     0.135 A 
ATOM     81  F   UNL A   1      35.155  31.552  32.154  1.00  0.00    -0.206 F 
ATOM     82  C   UNL A   1      34.378  33.157  30.627  1.00  0.00     0.059 A 
ATOM     83  C   UNL A   1      35.972  34.484  29.361  1.00  0.00     0.059 A 
ATOM     84  F   UNL A   1      38.272  34.131  29.659  1.00  0.00    -0.206 F 
ATOM     85  C   UNL A   1      34.657  34.155  29.690  1.00  0.00     0.060 A 
BRANCH  85  86
ATOM     86  S   UNL A   1      33.280  35.057  28.950  1.00  0.00     0.124 S 
ATOM     87  O   UNL A   1      32.752  34.071  28.014  1.00  0.00    -0.237 OA
ATOM     88  O   UNL A   1      32.445  35.348  30.111  1.00  0.00    -0.237 OA
ATOM     89  O   UNL A   1      33.926  36.219  28.347  1.00  0.00    -0.744 OA
ENDBRANCH  85  86
ENDBRANCH  53  78
BRANCH  65  90
ATOM     90  C   UNL A   1      39.679  33.605  37.226  1.00  0.00     0.058 A 
ATOM     91  C   UNL A   1      38.780  33.212  38.230  1.00  0.00     0.135 A 
ATOM     92  C   UNL A   1      40.328  34.841  37.370  1.00  0.00     0.135 A 
ATOM     93  F   UNL A   1      38.129  32.042  38.133  1.00  0.00    -0.206 F 
ATOM     94  C   UNL A   1      38.524  34.021  39.331  1.00  0.00     0.059 A 
ATOM     95  C   UNL A   1      40.104  35.657  38.475  1.00  0.00     0.059 A 
ATOM     96  F   UNL A   1      41.203  35.259  36.441  1.00  0.00    -0.206 F 
ATOM     97  C   UNL A   1      39.195  35.241  39.447  1.00  0.00     0.060 A 
BRANCH  97  98
ATOM     98  S   UNL A   1      38.887  36.260  40.906  1.00  0.00     0.124 S 
ATOM     99  O   UNL A   1      40.185  36.220  41.571  1.00  0.00    -0.237 OA
ATOM    100  O   UNL A   1      38.515  37.542  40.318  1.00  0.00    -0.237 OA
ATOM    101  O   UNL A   1      37.808  35.555  41.591  1.00  0.00    -0.744 OA
ENDBRANCH  97  98
ENDBRANCH  65  90
ENDBRANCH  39  40
ENDBRANCH  31  34
ENDBRANCH  29  30
ENDBRANCH  28  29
ENDBRANCH   1  28
TORSDOF 19
ENDMDL
MODEL 3
REMARK VINA RESULT:     -12.2      0.753      7.998
REMARK SMILES CC(C)Cc1cc2c(cc1Cl)C=C(C(=O)NCCCCCCNC(=O)c1ccc(-c3c4nc(c(-c5c(F)cc(S(=O)(=O)[O-])cc5F)c5ccc([nH]5)c(-c5c(F)cc(S(=O)(=O)[O-])cc5F)c5nc(c(-c6c(F)cc(S(=O)(=O)[O-])cc6F)c6ccc3[nH]6)C=C5)C=C4)cc1)[C@H](C(F)(F)F)O2
REMARK SMILES IDX 20 1 19 2 18 3 17 4 16 5 14 6 15 7 13 9 5 10 6 11 10 12 7 13
REMARK SMILES IDX 9 14 11 15 8 16 97 17 12 18 92 19 4 20 2 21 1 22 3 23 93 24
REMARK SMILES IDX 94 25 95 26 96 27 21 28 22 29 23 30 24 31 25 33 26 34 27 35
REMARK SMILES IDX 91 36 28 37 90 38 29 39 30 40 31 41 84 42 32 43 89 44 83 45
REMARK SMILES IDX 85 46 33 47 88 48 82 49 81 50 34 52 68 53 47 54 67 55 48 56
REMARK SMILES IDX 51 57 66 58 86 59 49 60 50 61 65 63 87 64 52 65 35 66 36 67
REMARK SMILES IDX 45 68 37 69 38 70 44 71 46 72 39 73 40 74 41 75 42 76 43 77
REMARK SMILES IDX 69 78 70 79 79 80 71 81 72 82 78 83 80 84 73 85 74 86 75 87
REMARK SMILES IDX 76 88 77 89 53 90 54 91 63 92 55 93 56 94 62 95 64 96 57 97
REMARK SMILES IDX 58 98 59 99 60 100 61 101
REMARK H PARENT 16 8 23 32 85 51 51 62
REMARK Flexibility Score: inf
ROOT
ATOM      1  C   UNL A   1      33.979  30.455  27.305  1.00  0.00     0.002 C 
ENDROOT
BRANCH   1   2
ATOM      2  C   UNL A   1      32.491  30.424  26.939  1.00  0.00     0.002 C 
BRANCH   2   3
ATOM      3  C   UNL A   1      31.853  29.032  26.886  1.00  0.00     0.021 C 
BRANCH   3   4
ATOM      4  C   UNL A   1      31.516  28.551  25.476  1.00  0.00     0.116 C 
BRANCH   4   5
ATOM      5  N   UNL A   1      32.568  28.884  24.528  1.00  0.00    -0.352 N 
ATOM      6  C   UNL A   1      33.459  28.225  23.749  1.00  0.00     0.251 C 
ATOM      7  O   UNL A   1      34.164  28.947  23.034  1.00  0.00    -0.270 OA
ATOM      8  H   UNL A   1      32.657  29.858  24.422  1.00  0.00     0.163 HD
BRANCH   6   9
ATOM      9  C   UNL A   1      33.640  26.742  23.695  1.00  0.00     0.067 C 
ATOM     10  C   UNL A   1      34.571  21.907  24.888  1.00  0.00    -0.025 A 
ATOM     11  C   UNL A   1      34.409  22.631  23.699  1.00  0.00     0.052 A 
ATOM     12  C   UNL A   1      34.366  22.596  26.098  1.00  0.00     0.045 A 
ATOM     13  C   UNL A   1      34.155  23.999  23.715  1.00  0.00     0.128 A 
ATOM     14  C   UNL A   1      34.099  23.976  26.110  1.00  0.00     0.032 A 
ATOM     15  Cl  UNL A   1      34.435  21.794  27.628  1.00  0.00    -0.084 Cl
ATOM     16  C   UNL A   1      34.016  24.688  24.912  1.00  0.00     0.019 A 
ATOM     17  O   UNL A   1      34.120  24.598  22.494  1.00  0.00    -0.475 OA
ATOM     18  C   UNL A   1      33.837  26.134  24.880  1.00  0.00     0.025 C 
ATOM     19  C   UNL A   1      33.559  25.931  22.431  1.00  0.00     0.314 C 
BRANCH  10  20
ATOM     20  C   UNL A   1      34.920  20.430  24.838  1.00  0.00     0.040 C 
BRANCH  20  21
ATOM     21  C   UNL A   1      33.828  19.472  24.295  1.00  0.00    -0.013 C 
ATOM     22  C   UNL A   1      34.269  18.005  24.344  1.00  0.00     0.008 C 
ATOM     23  C   UNL A   1      32.531  19.642  25.090  1.00  0.00     0.008 C 
ENDBRANCH  20  21
ENDBRANCH  10  20
BRANCH  19  24
ATOM     24  C   UNL A   1      32.136  25.848  21.854  1.00  0.00     0.429 C 
ATOM     25  F   UNL A   1      31.354  26.883  22.235  1.00  0.00    -0.167 F 
ATOM     26  F   UNL A   1      32.173  25.867  20.498  1.00  0.00    -0.167 F 
ATOM     27  F   UNL A   1      31.492  24.718  22.227  1.00  0.00    -0.167 F 
ENDBRANCH  19  24
ENDBRANCH   6   9
ENDBRANCH   4   5
ENDBRANCH   3   4
ENDBRANCH   2   3
ENDBRANCH   1   2
BRANCH   1  28
ATOM     28  C   UNL A   1      34.529  31.820  27.727  1.00  0.00     0.021 C 
BRANCH  28  29
ATOM     29  C   UNL A   1      35.788  31.770  28.585  1.00  0.00     0.116 C 
BRANCH  29  30
ATOM     30  N   UNL A   1      35.586  31.051  29.833  1.00  0.00    -0.352 N 
ATOM     31  C   UNL A   1      36.450  30.222  30.507  1.00  0.00     0.251 C 
ATOM     32  H   UNL A   1      34.704  31.174  30.253  1.00  0.00     0.163 HD
ATOM     33  O   UNL A   1      36.055  29.569  31.467  1.00  0.00    -0.269 OA
BRANCH  31  34
ATOM     34  C   UNL A   1      37.851  30.101  30.047  1.00  0.00     0.039 A 
ATOM     35  C   UNL A   1      38.137  29.858  28.702  1.00  0.00     0.014 A 
ATOM     36  C   UNL A   1      38.886  30.206  30.980  1.00  0.00     0.014 A 
ATOM     37  C   UNL A   1      39.442  29.565  28.319  1.00  0.00     0.010 A 
ATOM     38  C   UNL A   1      40.206  29.985  30.577  1.00  0.00     0.010 A 
ATOM     39  C   UNL A   1      40.490  29.616  29.253  1.00  0.00    -0.014 A 
BRANCH  39  40
ATOM     40  C   UNL A   1      41.869  29.267  28.824  1.00  0.00     0.031 A 
ATOM     41  C   UNL A   1      42.200  27.870  28.366  1.00  0.00     0.074 A 
ATOM     42  C   UNL A   1      42.811  30.229  28.788  1.00  0.00     0.049 A 
ATOM     43  N   UNL A   1      43.341  27.393  27.936  1.00  0.00    -0.248 NA
ATOM     44  C   UNL A   1      41.112  26.880  28.394  1.00  0.00     0.031 C 
ATOM     45  C   UNL A   1      42.607  31.622  29.194  1.00  0.00     0.029 A 
ATOM     46  N   UNL A   1      44.117  30.194  28.368  1.00  0.00    -0.354 N 
ATOM     47  C   UNL A   1      43.113  26.050  27.658  1.00  0.00     0.074 A 
ATOM     48  C   UNL A   1      41.733  25.779  27.995  1.00  0.00     0.031 C 
ATOM     49  C   UNL A   1      43.727  32.318  28.950  1.00  0.00     0.029 A 
ATOM     50  C   UNL A   1      44.746  31.415  28.428  1.00  0.00     0.049 A 
ATOM     51  H   UNL A   1      44.560  29.373  28.053  1.00  0.00     0.167 HD
ATOM     52  C   UNL A   1      43.973  25.132  27.154  1.00  0.00     0.037 A 
ATOM     53  C   UNL A   1      46.005  31.767  28.108  1.00  0.00     0.037 A 
ATOM     54  C   UNL A   1      45.341  25.412  26.800  1.00  0.00     0.049 A 
ATOM     55  C   UNL A   1      46.951  30.722  27.591  1.00  0.00     0.074 A 
ATOM     56  C   UNL A   1      46.286  24.550  26.270  1.00  0.00     0.029 A 
ATOM     57  N   UNL A   1      45.959  26.646  26.936  1.00  0.00    -0.354 N 
ATOM     58  N   UNL A   1      46.719  29.456  27.342  1.00  0.00    -0.248 NA
ATOM     59  C   UNL A   1      48.331  31.148  27.325  1.00  0.00     0.031 C 
ATOM     60  C   UNL A   1      47.485  25.256  26.117  1.00  0.00     0.029 A 
ATOM     61  C   UNL A   1      47.277  26.566  26.517  1.00  0.00     0.049 A 
ATOM     62  H   UNL A   1      45.524  27.460  27.281  1.00  0.00     0.167 HD
ATOM     63  C   UNL A   1      47.923  28.932  26.889  1.00  0.00     0.074 A 
ATOM     64  C   UNL A   1      48.875  30.025  26.876  1.00  0.00     0.031 C 
ATOM     65  C   UNL A   1      48.215  27.660  26.522  1.00  0.00     0.037 A 
BRANCH  52  66
ATOM     66  C   UNL A   1      43.463  23.731  26.958  1.00  0.00     0.058 A 
ATOM     67  C   UNL A   1      43.361  22.830  28.028  1.00  0.00     0.135 A 
ATOM     68  C   UNL A   1      43.027  23.299  25.694  1.00  0.00     0.135 A 
ATOM     69  F   UNL A   1      43.778  23.185  29.254  1.00  0.00    -0.206 F 
ATOM     70  C   UNL A   1      42.866  21.542  27.849  1.00  0.00     0.059 A 
ATOM     71  C   UNL A   1      42.508  22.022  25.496  1.00  0.00     0.059 A 
ATOM     72  F   UNL A   1      43.102  24.123  24.636  1.00  0.00    -0.206 F 
ATOM     73  C   UNL A   1      42.443  21.146  26.579  1.00  0.00     0.060 A 
BRANCH  73  74
ATOM     74  S   UNL A   1      41.803  19.471  26.366  1.00  0.00     0.124 S 
ATOM     75  O   UNL A   1      42.559  19.019  25.202  1.00  0.00    -0.237 OA
ATOM     76  O   UNL A   1      42.155  18.840  27.634  1.00  0.00    -0.237 OA
ATOM     77  O   UNL A   1      40.375  19.678  26.146  1.00  0.00    -0.744 OA
ENDBRANCH  73  74
ENDBRANCH  52  66
BRANCH  53  78
ATOM     78  C   UNL A   1      46.434  33.181  28.268  1.00  0.00     0.058 A 
ATOM     79  C   UNL A   1      46.303  34.097  27.215  1.00  0.00     0.135 A 
ATOM     80  C   UNL A   1      46.933  33.654  29.492  1.00  0.00     0.135 A 
ATOM     81  F   UNL A   1      45.837  33.688  26.025  1.00  0.00    -0.206 F 
ATOM     82  C   UNL A   1      46.650  35.435  27.368  1.00  0.00     0.059 A 
ATOM     83  C   UNL A   1      47.265  34.992  29.676  1.00  0.00     0.059 A 
ATOM     84  F   UNL A   1      47.064  32.818  30.534  1.00  0.00    -0.206 F 
ATOM     85  C   UNL A   1      47.123  35.875  28.606  1.00  0.00     0.060 A 
BRANCH  85  86
ATOM     86  S   UNL A   1      47.496  37.629  28.816  1.00  0.00     0.124 S 
ATOM     87  O   UNL A   1      48.938  37.599  29.025  1.00  0.00    -0.237 OA
ATOM     88  O   UNL A   1      47.044  38.192  27.548  1.00  0.00    -0.237 OA
ATOM     89  O   UNL A   1      46.696  38.004  29.979  1.00  0.00    -0.744 OA
ENDBRANCH  85  86
ENDBRANCH  53  78
BRANCH  65  90
ATOM     90  C   UNL A   1      49.620  27.377  26.076  1.00  0.00     0.058 A 
ATOM     91  C   UNL A   1      50.627  27.059  27.002  1.00  0.00     0.135 A 
ATOM     92  C   UNL A   1      49.949  27.360  24.712  1.00  0.00     0.135 A 
ATOM     93  F   UNL A   1      50.363  27.070  28.317  1.00  0.00    -0.206 F 
ATOM     94  C   UNL A   1      51.918  26.747  26.589  1.00  0.00     0.059 A 
ATOM     95  C   UNL A   1      51.229  27.029  24.276  1.00  0.00     0.059 A 
ATOM     96  F   UNL A   1      49.019  27.649  23.788  1.00  0.00    -0.206 F 
ATOM     97  C   UNL A   1      52.208  26.731  25.223  1.00  0.00     0.060 A 
BRANCH  97  98
ATOM     98  S   UNL A   1      53.876  26.279  24.701  1.00  0.00     0.124 S 
ATOM     99  O   UNL A   1      53.681  24.904  24.251  1.00  0.00    -0.237 OA
ATOM    100  O   UNL A   1      54.150  27.256  23.653  1.00  0.00    -0.237 OA
ATOM    101  O   UNL A   1      54.668  26.435  25.918  1.00  0.00    -0.744 OA
ENDBRANCH  97  98
ENDBRANCH  65  90
ENDBRANCH  39  40
ENDBRANCH  31  34
ENDBRANCH  29  30
ENDBRANCH  28  29
ENDBRANCH   1  28
TORSDOF 19
ENDMDL
