MODEL 1
REMARK VINA RESULT:     -11.0      0.000      0.000
REMARK SMILES O=C1NC(=O)/C(=C/c2ccc(OCc3cn(-c4ccc(C(=O)NCCCCCCNC(=O)c5ccc(-c6c7nc(c(-c8c(F)cc(S(=O)(=O)[O-])cc8F)c8ccc([nH]8)c(-c8c(F)cc(S(=O)(=O)[O-])cc8F)c8nc(c(-c9c(F)cc(S(=O)(=O)[O-])cc9F)c9ccc6[nH]9)C=C8)C=C7)cc5)cc4)nn3)cc2)S1
REMARK SMILES IDX 25 1 24 2 23 3 21 4 22 5 20 7 17 8 18 9 100 10 19 11 99 12
REMARK SMILES IDX 16 13 14 14 15 15 102 16 101 17 13 18 12 19 11 20 8 21 9 22
REMARK SMILES IDX 104 23 10 24 103 25 7 26 1 27 2 28 3 29 105 30 4 31 6 33
REMARK SMILES IDX 5 34 26 35 27 36 28 37 29 38 30 39 31 40 32 42 33 43 34 44
REMARK SMILES IDX 98 45 35 46 97 47 36 48 37 49 38 50 91 51 39 52 96 53 90 54
REMARK SMILES IDX 92 55 40 56 95 57 89 58 88 59 41 61 75 62 54 63 74 64 55 65
REMARK SMILES IDX 58 66 73 67 93 68 56 69 57 70 72 72 94 73 59 74 42 75 43 76
REMARK SMILES IDX 52 77 44 78 45 79 51 80 53 81 46 82 47 83 48 84 49 85 50 86
REMARK SMILES IDX 76 87 77 88 86 89 78 90 79 91 85 92 87 93 80 94 81 95 82 96
REMARK SMILES IDX 83 97 84 98 60 99 61 100 70 101 62 102 63 103 69 104 71 105
REMARK SMILES IDX 64 106 65 107 66 108 67 109 68 110
REMARK H PARENT 23 6 3 32 30 41 92 60 58 71
REMARK Flexibility Score: inf
ROOT
ATOM      1  C   UNL A   1      35.322  33.028  28.002  1.00  0.00     0.021 C 
ENDROOT
BRANCH   1   2
ATOM      2  C   UNL A   1      34.250  31.946  28.141  1.00  0.00     0.116 C 
BRANCH   2   3
ATOM      3  N   UNL A   1      33.000  32.413  27.582  1.00  0.00    -0.352 N 
ATOM      4  C   UNL A   1      32.002  31.795  26.877  1.00  0.00     0.251 C 
ATOM      5  O   UNL A   1      31.048  32.492  26.528  1.00  0.00    -0.269 OA
ATOM      6  H   UNL A   1      32.832  33.370  27.740  1.00  0.00     0.163 HD
BRANCH   4   7
ATOM      7  C   UNL A   1      31.969  30.327  26.614  1.00  0.00     0.039 A 
ATOM      8  C   UNL A   1      31.557  27.617  25.999  1.00  0.00     0.066 A 
ATOM      9  C   UNL A   1      31.448  28.586  24.996  1.00  0.00     0.029 A 
ATOM     10  C   UNL A   1      31.965  27.985  27.282  1.00  0.00     0.029 A 
ATOM     11  C   UNL A   1      31.621  29.934  25.314  1.00  0.00     0.016 A 
ATOM     12  C   UNL A   1      32.234  29.331  27.559  1.00  0.00     0.016 A 
BRANCH   8  13
ATOM     13  N   UNL A   1      31.255  26.273  25.695  1.00  0.00    -0.220 N 
ATOM     14  C   UNL A   1      31.164  24.251  24.877  1.00  0.00     0.120 A 
ATOM     15  C   UNL A   1      31.792  25.468  24.713  1.00  0.00     0.144 A 
ATOM     16  N   UNL A   1      30.333  24.333  25.961  1.00  0.00    -0.131 NA
ATOM     17  N   UNL A   1      30.417  25.548  26.469  1.00  0.00    -0.062 NA
BRANCH  14  18
ATOM     18  C   UNL A   1      31.345  22.946  24.175  1.00  0.00     0.289 C 
BRANCH  18  19
ATOM     19  O   UNL A   1      32.337  22.926  23.135  1.00  0.00    -0.487 OA
BRANCH  19  20
ATOM     20  C   UNL A   1      33.600  22.494  23.438  1.00  0.00     0.119 A 
ATOM     21  C   UNL A   1      36.068  21.614  24.460  1.00  0.00    -0.024 A 
ATOM     22  C   UNL A   1      34.886  20.962  24.817  1.00  0.00     0.012 A 
ATOM     23  C   UNL A   1      36.015  22.643  23.515  1.00  0.00     0.012 A 
ATOM     24  C   UNL A   1      33.659  21.407  24.312  1.00  0.00     0.047 A 
ATOM     25  C   UNL A   1      34.791  23.059  22.988  1.00  0.00     0.047 A 
BRANCH  21  26
ATOM     26  C   UNL A   1      37.346  21.224  25.061  1.00  0.00     0.029 C 
ATOM     27  O   UNL A   1      40.024  24.853  27.281  1.00  0.00    -0.261 OA
ATOM     28  C   UNL A   1      39.505  23.819  26.911  1.00  0.00     0.290 C 
ATOM     29  N   UNL A   1      40.095  22.593  26.927  1.00  0.00    -0.282 N 
ATOM     30  S   UNL A   1      37.932  23.701  26.148  1.00  0.00    -0.022 SA
ATOM     31  C   UNL A   1      39.471  21.574  26.275  1.00  0.00     0.265 C 
ATOM     32  H   UNL A   1      40.948  22.448  27.396  1.00  0.00     0.174 HD
ATOM     33  C   UNL A   1      38.159  22.037  25.752  1.00  0.00     0.083 C 
ATOM     34  O   UNL A   1      39.953  20.466  26.092  1.00  0.00    -0.268 OA
ENDBRANCH  21  26
ENDBRANCH  19  20
ENDBRANCH  18  19
ENDBRANCH  14  18
ENDBRANCH   8  13
ENDBRANCH   4   7
ENDBRANCH   2   3
ENDBRANCH   1   2
BRANCH   1  35
ATOM     35  C   UNL A   1      36.738  32.501  28.268  1.00  0.00     0.002 C 
BRANCH  35  36
ATOM     36  C   UNL A   1      36.946  31.838  29.640  1.00  0.00     0.002 C 
BRANCH  36  37
ATOM     37  C   UNL A   1      36.766  32.746  30.868  1.00  0.00     0.021 C 
BRANCH  37  38
ATOM     38  C   UNL A   1      38.015  32.853  31.728  1.00  0.00     0.116 C 
BRANCH  38  39
ATOM     39  N   UNL A   1      37.694  32.814  33.160  1.00  0.00    -0.352 N 
ATOM     40  C   UNL A   1      37.944  31.824  34.093  1.00  0.00     0.251 C 
ATOM     41  H   UNL A   1      37.232  33.611  33.508  1.00  0.00     0.163 HD
ATOM     42  O   UNL A   1      37.298  31.770  35.134  1.00  0.00    -0.269 OA
BRANCH  40  43
ATOM     43  C   UNL A   1      39.012  30.850  33.820  1.00  0.00     0.039 A 
ATOM     44  C   UNL A   1      38.805  29.672  33.095  1.00  0.00     0.014 A 
ATOM     45  C   UNL A   1      40.270  31.160  34.316  1.00  0.00     0.014 A 
ATOM     46  C   UNL A   1      39.896  28.839  32.851  1.00  0.00     0.010 A 
ATOM     47  C   UNL A   1      41.361  30.507  33.839  1.00  0.00     0.010 A 
ATOM     48  C   UNL A   1      41.169  29.274  33.240  1.00  0.00    -0.014 A 
BRANCH  48  49
ATOM     49  C   UNL A   1      42.380  28.504  33.026  1.00  0.00     0.031 A 
ATOM     50  C   UNL A   1      42.717  27.590  34.142  1.00  0.00     0.074 A 
ATOM     51  C   UNL A   1      42.913  28.388  31.788  1.00  0.00     0.049 A 
ATOM     52  N   UNL A   1      43.680  27.708  34.993  1.00  0.00    -0.248 NA
ATOM     53  C   UNL A   1      41.756  26.527  34.479  1.00  0.00     0.031 C 
ATOM     54  C   UNL A   1      42.408  28.936  30.520  1.00  0.00     0.029 A 
ATOM     55  N   UNL A   1      43.944  27.609  31.377  1.00  0.00    -0.354 N 
ATOM     56  C   UNL A   1      43.601  26.575  35.796  1.00  0.00     0.074 A 
ATOM     57  C   UNL A   1      42.269  26.063  35.621  1.00  0.00     0.031 C 
ATOM     58  C   UNL A   1      42.974  28.280  29.485  1.00  0.00     0.029 A 
ATOM     59  C   UNL A   1      43.988  27.382  30.002  1.00  0.00     0.049 A 
ATOM     60  H   UNL A   1      44.609  27.233  31.999  1.00  0.00     0.167 HD
ATOM     61  C   UNL A   1      44.723  25.984  36.299  1.00  0.00     0.037 A 
ATOM     62  C   UNL A   1      44.759  26.453  29.378  1.00  0.00     0.037 A 
ATOM     63  C   UNL A   1      45.874  26.841  36.119  1.00  0.00     0.049 A 
ATOM     64  C   UNL A   1      45.841  26.088  30.343  1.00  0.00     0.074 A 
ATOM     65  C   UNL A   1      46.168  28.147  36.469  1.00  0.00     0.029 A 
ATOM     66  N   UNL A   1      46.759  26.518  35.114  1.00  0.00    -0.354 N 
ATOM     67  N   UNL A   1      46.763  26.925  30.747  1.00  0.00    -0.248 NA
ATOM     68  C   UNL A   1      45.584  24.972  31.245  1.00  0.00     0.031 C 
ATOM     69  C   UNL A   1      46.825  28.690  35.325  1.00  0.00     0.029 A 
ATOM     70  C   UNL A   1      46.990  27.663  34.394  1.00  0.00     0.049 A 
ATOM     71  H   UNL A   1      47.153  25.631  34.945  1.00  0.00     0.167 HD
ATOM     72  C   UNL A   1      46.891  26.690  32.112  1.00  0.00     0.074 A 
ATOM     73  C   UNL A   1      46.185  25.431  32.347  1.00  0.00     0.031 C 
ATOM     74  C   UNL A   1      47.280  27.677  32.975  1.00  0.00     0.037 A 
BRANCH  61  75
ATOM     75  C   UNL A   1      44.870  24.508  36.593  1.00  0.00     0.058 A 
ATOM     76  C   UNL A   1      45.429  24.116  37.828  1.00  0.00     0.135 A 
ATOM     77  C   UNL A   1      44.736  23.475  35.637  1.00  0.00     0.135 A 
ATOM     78  F   UNL A   1      45.602  25.009  38.815  1.00  0.00    -0.206 F 
ATOM     79  C   UNL A   1      45.902  22.824  38.060  1.00  0.00     0.059 A 
ATOM     80  C   UNL A   1      45.144  22.168  35.871  1.00  0.00     0.059 A 
ATOM     81  F   UNL A   1      44.296  23.692  34.393  1.00  0.00    -0.206 F 
ATOM     82  C   UNL A   1      45.767  21.861  37.067  1.00  0.00     0.060 A 
BRANCH  82  83
ATOM     83  S   UNL A   1      46.469  20.224  37.318  1.00  0.00     0.124 S 
ATOM     84  O   UNL A   1      45.849  19.474  36.232  1.00  0.00    -0.237 OA
ATOM     85  O   UNL A   1      47.898  20.486  37.183  1.00  0.00    -0.237 OA
ATOM     86  O   UNL A   1      46.026  19.872  38.663  1.00  0.00    -0.744 OA
ENDBRANCH  82  83
ENDBRANCH  61  75
BRANCH  62  87
ATOM     87  C   UNL A   1      44.399  25.619  28.196  1.00  0.00     0.058 A 
ATOM     88  C   UNL A   1      45.131  25.689  26.997  1.00  0.00     0.135 A 
ATOM     89  C   UNL A   1      43.491  24.543  28.298  1.00  0.00     0.135 A 
ATOM     90  F   UNL A   1      46.034  26.665  26.816  1.00  0.00    -0.206 F 
ATOM     91  C   UNL A   1      45.008  24.727  25.984  1.00  0.00     0.059 A 
ATOM     92  C   UNL A   1      43.339  23.583  27.298  1.00  0.00     0.059 A 
ATOM     93  F   UNL A   1      42.783  24.334  29.418  1.00  0.00    -0.206 F 
ATOM     94  C   UNL A   1      44.121  23.664  26.154  1.00  0.00     0.060 A 
BRANCH  94  95
ATOM     95  S   UNL A   1      44.083  22.320  24.941  1.00  0.00     0.124 S 
ATOM     96  O   UNL A   1      42.689  21.896  25.005  1.00  0.00    -0.237 OA
ATOM     97  O   UNL A   1      44.490  23.001  23.717  1.00  0.00    -0.237 OA
ATOM     98  O   UNL A   1      45.054  21.365  25.471  1.00  0.00    -0.744 OA
ENDBRANCH  94  95
ENDBRANCH  62  87
BRANCH  74  99
ATOM     99  C   UNL A   1      47.845  28.963  32.423  1.00  0.00     0.058 A 
ATOM    100  C   UNL A   1      49.178  29.145  32.012  1.00  0.00     0.135 A 
ATOM    101  C   UNL A   1      46.944  30.000  32.132  1.00  0.00     0.135 A 
ATOM    102  F   UNL A   1      50.081  28.164  32.141  1.00  0.00    -0.206 F 
ATOM    103  C   UNL A   1      49.603  30.320  31.385  1.00  0.00     0.059 A 
ATOM    104  C   UNL A   1      47.337  31.164  31.477  1.00  0.00     0.059 A 
ATOM    105  F   UNL A   1      45.643  29.864  32.437  1.00  0.00    -0.206 F 
ATOM    106  C   UNL A   1      48.673  31.326  31.122  1.00  0.00     0.060 A 
BRANCH 106 107
ATOM    107  S   UNL A   1      49.207  32.823  30.266  1.00  0.00     0.124 S 
ATOM    108  O   UNL A   1      48.864  33.863  31.229  1.00  0.00    -0.237 OA
ATOM    109  O   UNL A   1      50.634  32.585  30.070  1.00  0.00    -0.237 OA
ATOM    110  O   UNL A   1      48.409  32.819  29.042  1.00  0.00    -0.744 OA
ENDBRANCH 106 107
ENDBRANCH  74  99
ENDBRANCH  48  49
ENDBRANCH  40  43
ENDBRANCH  38  39
ENDBRANCH  37  38
ENDBRANCH  36  37
ENDBRANCH  35  36
ENDBRANCH   1  35
TORSDOF 21
ENDMDL
MODEL 2
REMARK VINA RESULT:     -11.0      4.936     12.133
REMARK SMILES O=C1NC(=O)/C(=C/c2ccc(OCc3cn(-c4ccc(C(=O)NCCCCCCNC(=O)c5ccc(-c6c7nc(c(-c8c(F)cc(S(=O)(=O)[O-])cc8F)c8ccc([nH]8)c(-c8c(F)cc(S(=O)(=O)[O-])cc8F)c8nc(c(-c9c(F)cc(S(=O)(=O)[O-])cc9F)c9ccc6[nH]9)C=C8)C=C7)cc5)cc4)nn3)cc2)S1
REMARK SMILES IDX 25 1 24 2 23 3 21 4 22 5 20 7 17 8 18 9 100 10 19 11 99 12
REMARK SMILES IDX 16 13 14 14 15 15 102 16 101 17 13 18 12 19 11 20 8 21 9 22
REMARK SMILES IDX 104 23 10 24 103 25 7 26 1 27 2 28 3 29 105 30 4 31 6 33
REMARK SMILES IDX 5 34 26 35 27 36 28 37 29 38 30 39 31 40 32 42 33 43 34 44
REMARK SMILES IDX 98 45 35 46 97 47 36 48 37 49 38 50 91 51 39 52 96 53 90 54
REMARK SMILES IDX 92 55 40 56 95 57 89 58 88 59 41 61 75 62 54 63 74 64 55 65
REMARK SMILES IDX 58 66 73 67 93 68 56 69 57 70 72 72 94 73 59 74 42 75 43 76
REMARK SMILES IDX 52 77 44 78 45 79 51 80 53 81 46 82 47 83 48 84 49 85 50 86
REMARK SMILES IDX 76 87 77 88 86 89 78 90 79 91 85 92 87 93 80 94 81 95 82 96
REMARK SMILES IDX 83 97 84 98 60 99 61 100 70 101 62 102 63 103 69 104 71 105
REMARK SMILES IDX 64 106 65 107 66 108 67 109 68 110
REMARK H PARENT 23 6 3 32 30 41 92 60 58 71
REMARK Flexibility Score: inf
ROOT
ATOM      1  C   UNL A   1      46.902  22.331  36.413  1.00  0.00     0.021 C 
ENDROOT
BRANCH   1   2
ATOM      2  C   UNL A   1      45.504  22.950  36.385  1.00  0.00     0.116 C 
BRANCH   2   3
ATOM      3  N   UNL A   1      44.779  22.483  35.222  1.00  0.00    -0.352 N 
ATOM      4  C   UNL A   1      43.787  23.033  34.457  1.00  0.00     0.251 C 
ATOM      5  O   UNL A   1      43.366  22.357  33.516  1.00  0.00    -0.269 OA
ATOM      6  H   UNL A   1      45.057  21.588  34.919  1.00  0.00     0.163 HD
BRANCH   4   7
ATOM      7  C   UNL A   1      43.280  24.424  34.641  1.00  0.00     0.039 A 
ATOM      8  C   UNL A   1      41.996  26.910  34.880  1.00  0.00     0.066 A 
ATOM      9  C   UNL A   1      41.551  25.818  35.633  1.00  0.00     0.029 A 
ATOM     10  C   UNL A   1      43.136  26.790  34.085  1.00  0.00     0.029 A 
ATOM     11  C   UNL A   1      42.171  24.577  35.485  1.00  0.00     0.016 A 
ATOM     12  C   UNL A   1      43.809  25.563  34.027  1.00  0.00     0.016 A 
BRANCH   8  13
ATOM     13  N   UNL A   1      41.282  28.125  34.940  1.00  0.00    -0.220 N 
ATOM     14  C   UNL A   1      40.170  29.956  34.518  1.00  0.00     0.120 A 
ATOM     15  C   UNL A   1      40.817  28.905  33.902  1.00  0.00     0.144 A 
ATOM     16  N   UNL A   1      40.209  29.757  35.872  1.00  0.00    -0.131 NA
ATOM     17  N   UNL A   1      40.855  28.633  36.117  1.00  0.00    -0.062 NA
BRANCH  14  18
ATOM     18  C   UNL A   1      39.401  31.106  33.956  1.00  0.00     0.289 C 
BRANCH  18  19
ATOM     19  O   UNL A   1      38.946  30.953  32.602  1.00  0.00    -0.487 OA
BRANCH  19  20
ATOM     20  C   UNL A   1      37.995  31.815  32.126  1.00  0.00     0.119 A 
ATOM     21  C   UNL A   1      35.907  33.262  30.920  1.00  0.00    -0.024 A 
ATOM     22  C   UNL A   1      35.647  32.040  31.540  1.00  0.00     0.012 A 
ATOM     23  C   UNL A   1      37.195  33.799  30.992  1.00  0.00     0.012 A 
ATOM     24  C   UNL A   1      36.689  31.318  32.134  1.00  0.00     0.047 A 
ATOM     25  C   UNL A   1      38.224  33.091  31.617  1.00  0.00     0.047 A 
BRANCH  21  26
ATOM     26  C   UNL A   1      34.845  33.977  30.206  1.00  0.00     0.029 C 
ATOM     27  O   UNL A   1      32.072  37.205  32.884  1.00  0.00    -0.261 OA
ATOM     28  C   UNL A   1      32.675  36.578  32.035  1.00  0.00     0.290 C 
ATOM     29  N   UNL A   1      32.307  36.467  30.730  1.00  0.00    -0.282 N 
ATOM     30  S   UNL A   1      34.075  35.569  32.336  1.00  0.00    -0.022 SA
ATOM     31  C   UNL A   1      32.957  35.553  29.957  1.00  0.00     0.265 C 
ATOM     32  H   UNL A   1      31.593  37.031  30.355  1.00  0.00     0.174 HD
ATOM     33  C   UNL A   1      34.054  34.922  30.736  1.00  0.00     0.083 C 
ATOM     34  O   UNL A   1      32.637  35.252  28.817  1.00  0.00    -0.268 OA
ENDBRANCH  21  26
ENDBRANCH  19  20
ENDBRANCH  18  19
ENDBRANCH  14  18
ENDBRANCH   8  13
ENDBRANCH   4   7
ENDBRANCH   2   3
ENDBRANCH   1   2
BRANCH   1  35
ATOM     35  C   UNL A   1      47.277  21.645  35.093  1.00  0.00     0.002 C 
BRANCH  35  36
ATOM     36  C   UNL A   1      48.465  20.672  35.172  1.00  0.00     0.002 C 
BRANCH  36  37
ATOM     37  C   UNL A   1      49.838  21.297  35.470  1.00  0.00     0.021 C 
BRANCH  37  38
ATOM     38  C   UNL A   1      50.119  22.552  34.660  1.00  0.00     0.116 C 
BRANCH  38  39
ATOM     39  N   UNL A   1      50.259  23.734  35.520  1.00  0.00    -0.352 N 
ATOM     40  C   UNL A   1      50.052  25.069  35.225  1.00  0.00     0.251 C 
ATOM     41  H   UNL A   1      50.543  23.549  36.445  1.00  0.00     0.163 HD
ATOM     42  O   UNL A   1      50.562  25.946  35.912  1.00  0.00    -0.269 OA
BRANCH  40  43
ATOM     43  C   UNL A   1      49.192  25.414  34.082  1.00  0.00     0.039 A 
ATOM     44  C   UNL A   1      47.810  25.201  34.074  1.00  0.00     0.014 A 
ATOM     45  C   UNL A   1      49.824  25.983  32.985  1.00  0.00     0.014 A 
ATOM     46  C   UNL A   1      47.080  25.607  32.958  1.00  0.00     0.010 A 
ATOM     47  C   UNL A   1      49.087  26.627  32.044  1.00  0.00     0.010 A 
ATOM     48  C   UNL A   1      47.742  26.315  31.948  1.00  0.00    -0.014 A 
BRANCH  48  49
ATOM     49  C   UNL A   1      47.086  26.803  30.748  1.00  0.00     0.031 A 
ATOM     50  C   UNL A   1      46.369  28.085  30.932  1.00  0.00     0.074 A 
ATOM     51  C   UNL A   1      47.419  26.309  29.533  1.00  0.00     0.049 A 
ATOM     52  N   UNL A   1      45.094  28.277  30.961  1.00  0.00    -0.248 NA
ATOM     53  C   UNL A   1      47.155  29.265  31.331  1.00  0.00     0.031 C 
ATOM     54  C   UNL A   1      48.437  25.299  29.204  1.00  0.00     0.029 A 
ATOM     55  N   UNL A   1      47.023  26.731  28.307  1.00  0.00    -0.354 N 
ATOM     56  C   UNL A   1      44.932  29.651  31.103  1.00  0.00     0.074 A 
ATOM     57  C   UNL A   1      46.187  30.143  31.603  1.00  0.00     0.031 C 
ATOM     58  C   UNL A   1      48.742  25.374  27.891  1.00  0.00     0.029 A 
ATOM     59  C   UNL A   1      47.842  26.317  27.258  1.00  0.00     0.049 A 
ATOM     60  H   UNL A   1      46.221  27.286  28.168  1.00  0.00     0.167 HD
ATOM     61  C   UNL A   1      43.889  30.305  30.515  1.00  0.00     0.037 A 
ATOM     62  C   UNL A   1      47.805  26.801  25.988  1.00  0.00     0.037 A 
ATOM     63  C   UNL A   1      42.908  29.363  30.024  1.00  0.00     0.049 A 
ATOM     64  C   UNL A   1      46.475  27.464  25.828  1.00  0.00     0.074 A 
ATOM     65  C   UNL A   1      42.190  28.329  30.600  1.00  0.00     0.029 A 
ATOM     66  N   UNL A   1      42.874  29.127  28.667  1.00  0.00    -0.354 N 
ATOM     67  N   UNL A   1      45.336  26.818  25.866  1.00  0.00    -0.248 NA
ATOM     68  C   UNL A   1      46.391  28.882  26.154  1.00  0.00     0.031 C 
ATOM     69  C   UNL A   1      42.228  27.279  29.635  1.00  0.00     0.029 A 
ATOM     70  C   UNL A   1      42.866  27.765  28.492  1.00  0.00     0.049 A 
ATOM     71  H   UNL A   1      42.858  29.808  27.956  1.00  0.00     0.167 HD
ATOM     72  C   UNL A   1      44.489  27.624  26.618  1.00  0.00     0.074 A 
ATOM     73  C   UNL A   1      45.177  28.911  26.713  1.00  0.00     0.031 C 
ATOM     74  C   UNL A   1      43.466  27.096  27.357  1.00  0.00     0.037 A 
BRANCH  61  75
ATOM     75  C   UNL A   1      43.922  31.739  30.036  1.00  0.00     0.058 A 
ATOM     76  C   UNL A   1      42.839  32.585  30.354  1.00  0.00     0.135 A 
ATOM     77  C   UNL A   1      44.822  32.249  29.072  1.00  0.00     0.135 A 
ATOM     78  F   UNL A   1      41.920  32.210  31.259  1.00  0.00    -0.206 F 
ATOM     79  C   UNL A   1      42.617  33.798  29.702  1.00  0.00     0.059 A 
ATOM     80  C   UNL A   1      44.653  33.482  28.455  1.00  0.00     0.059 A 
ATOM     81  F   UNL A   1      45.857  31.545  28.603  1.00  0.00    -0.206 F 
ATOM     82  C   UNL A   1      43.525  34.229  28.741  1.00  0.00     0.060 A 
BRANCH  82  83
ATOM     83  S   UNL A   1      43.191  35.738  27.820  1.00  0.00     0.124 S 
ATOM     84  O   UNL A   1      42.256  36.417  28.707  1.00  0.00    -0.237 OA
ATOM     85  O   UNL A   1      44.522  36.327  27.716  1.00  0.00    -0.237 OA
ATOM     86  O   UNL A   1      42.631  35.246  26.564  1.00  0.00    -0.744 OA
ENDBRANCH  82  83
ENDBRANCH  61  75
BRANCH  62  87
ATOM     87  C   UNL A   1      48.959  27.048  25.076  1.00  0.00     0.058 A 
ATOM     88  C   UNL A   1      48.942  26.620  23.737  1.00  0.00     0.135 A 
ATOM     89  C   UNL A   1      49.998  27.940  25.422  1.00  0.00     0.135 A 
ATOM     90  F   UNL A   1      47.980  25.788  23.308  1.00  0.00    -0.206 F 
ATOM     91  C   UNL A   1      49.866  27.083  22.788  1.00  0.00     0.059 A 
ATOM     92  C   UNL A   1      50.936  28.403  24.501  1.00  0.00     0.059 A 
ATOM     93  F   UNL A   1      50.081  28.467  26.653  1.00  0.00    -0.206 F 
ATOM     94  C   UNL A   1      50.849  27.993  23.177  1.00  0.00     0.060 A 
BRANCH  94  95
ATOM     95  S   UNL A   1      51.931  28.737  21.931  1.00  0.00     0.124 S 
ATOM     96  O   UNL A   1      51.200  29.952  21.586  1.00  0.00    -0.237 OA
ATOM     97  O   UNL A   1      53.171  28.926  22.675  1.00  0.00    -0.237 OA
ATOM     98  O   UNL A   1      51.985  27.719  20.884  1.00  0.00    -0.744 OA
ENDBRANCH  94  95
ENDBRANCH  62  87
BRANCH  74  99
ATOM     99  C   UNL A   1      43.068  25.656  27.146  1.00  0.00     0.058 A 
ATOM    100  C   UNL A   1      43.757  24.545  27.666  1.00  0.00     0.135 A 
ATOM    101  C   UNL A   1      41.828  25.404  26.537  1.00  0.00     0.135 A 
ATOM    102  F   UNL A   1      44.889  24.701  28.366  1.00  0.00    -0.206 F 
ATOM    103  C   UNL A   1      43.259  23.245  27.545  1.00  0.00     0.059 A 
ATOM    104  C   UNL A   1      41.296  24.122  26.436  1.00  0.00     0.059 A 
ATOM    105  F   UNL A   1      41.086  26.425  26.078  1.00  0.00    -0.206 F 
ATOM    106  C   UNL A   1      42.026  23.043  26.926  1.00  0.00     0.060 A 
BRANCH 106 107
ATOM    107  S   UNL A   1      41.355  21.371  26.815  1.00  0.00     0.124 S 
ATOM    108  O   UNL A   1      40.793  21.179  28.147  1.00  0.00    -0.237 OA
ATOM    109  O   UNL A   1      40.387  21.488  25.728  1.00  0.00    -0.237 OA
ATOM    110  O   UNL A   1      42.527  20.553  26.509  1.00  0.00    -0.744 OA
ENDBRANCH 106 107
ENDBRANCH  74  99
ENDBRANCH  48  49
ENDBRANCH  40  43
ENDBRANCH  38  39
ENDBRANCH  37  38
ENDBRANCH  36  37
ENDBRANCH  35  36
ENDBRANCH   1  35
TORSDOF 21
ENDMDL
MODEL 3
REMARK VINA RESULT:     -10.9      4.969     11.547
REMARK SMILES O=C1NC(=O)/C(=C/c2ccc(OCc3cn(-c4ccc(C(=O)NCCCCCCNC(=O)c5ccc(-c6c7nc(c(-c8c(F)cc(S(=O)(=O)[O-])cc8F)c8ccc([nH]8)c(-c8c(F)cc(S(=O)(=O)[O-])cc8F)c8nc(c(-c9c(F)cc(S(=O)(=O)[O-])cc9F)c9ccc6[nH]9)C=C8)C=C7)cc5)cc4)nn3)cc2)S1
REMARK SMILES IDX 25 1 24 2 23 3 21 4 22 5 20 7 17 8 18 9 100 10 19 11 99 12
REMARK SMILES IDX 16 13 14 14 15 15 102 16 101 17 13 18 12 19 11 20 8 21 9 22
REMARK SMILES IDX 104 23 10 24 103 25 7 26 1 27 2 28 3 29 105 30 4 31 6 33
REMARK SMILES IDX 5 34 26 35 27 36 28 37 29 38 30 39 31 40 32 42 33 43 34 44
REMARK SMILES IDX 98 45 35 46 97 47 36 48 37 49 38 50 91 51 39 52 96 53 90 54
REMARK SMILES IDX 92 55 40 56 95 57 89 58 88 59 41 61 75 62 54 63 74 64 55 65
REMARK SMILES IDX 58 66 73 67 93 68 56 69 57 70 72 72 94 73 59 74 42 75 43 76
REMARK SMILES IDX 52 77 44 78 45 79 51 80 53 81 46 82 47 83 48 84 49 85 50 86
REMARK SMILES IDX 76 87 77 88 86 89 78 90 79 91 85 92 87 93 80 94 81 95 82 96
REMARK SMILES IDX 83 97 84 98 60 99 61 100 70 101 62 102 63 103 69 104 71 105
REMARK SMILES IDX 64 106 65 107 66 108 67 109 68 110
REMARK H PARENT 23 6 3 32 30 41 92 60 58 71
REMARK Flexibility Score: inf
ROOT
ATOM      1  C   UNL A   1      44.064  25.433  29.885  1.00  0.00     0.021 C 
ENDROOT
BRANCH   1   2
ATOM      2  C   UNL A   1      43.415  26.195  28.730  1.00  0.00     0.116 C 
BRANCH   2   3
ATOM      3  N   UNL A   1      43.871  27.570  28.725  1.00  0.00    -0.352 N 
ATOM      4  C   UNL A   1      43.216  28.772  28.712  1.00  0.00     0.251 C 
ATOM      5  O   UNL A   1      43.912  29.789  28.702  1.00  0.00    -0.269 OA
ATOM      6  H   UNL A   1      44.852  27.658  28.734  1.00  0.00     0.163 HD
BRANCH   4   7
ATOM      7  C   UNL A   1      41.733  28.902  28.816  1.00  0.00     0.039 A 
ATOM      8  C   UNL A   1      38.972  29.411  28.750  1.00  0.00     0.066 A 
ATOM      9  C   UNL A   1      39.632  28.985  27.592  1.00  0.00     0.029 A 
ATOM     10  C   UNL A   1      39.665  29.489  29.958  1.00  0.00     0.029 A 
ATOM     11  C   UNL A   1      41.010  28.766  27.623  1.00  0.00     0.016 A 
ATOM     12  C   UNL A   1      41.027  29.166  29.994  1.00  0.00     0.016 A 
BRANCH   8  13
ATOM     13  N   UNL A   1      37.605  29.753  28.677  1.00  0.00    -0.220 N 
ATOM     14  C   UNL A   1      35.608  30.396  28.075  1.00  0.00     0.120 A 
ATOM     15  C   UNL A   1      36.904  30.286  27.617  1.00  0.00     0.144 A 
ATOM     16  N   UNL A   1      35.550  29.885  29.344  1.00  0.00    -0.131 NA
ATOM     17  N   UNL A   1      36.754  29.470  29.689  1.00  0.00    -0.062 NA
BRANCH  14  18
ATOM     18  C   UNL A   1      34.355  30.840  27.394  1.00  0.00     0.289 C 
BRANCH  18  19
ATOM     19  O   UNL A   1      33.184  30.051  27.660  1.00  0.00    -0.487 OA
BRANCH  19  20
ATOM     20  C   UNL A   1      32.893  29.004  26.828  1.00  0.00     0.119 A 
ATOM     21  C   UNL A   1      32.306  26.617  25.462  1.00  0.00    -0.024 A 
ATOM     22  C   UNL A   1      31.553  26.992  26.576  1.00  0.00     0.012 A 
ATOM     23  C   UNL A   1      33.286  27.489  24.980  1.00  0.00     0.012 A 
ATOM     24  C   UNL A   1      31.853  28.177  27.258  1.00  0.00     0.047 A 
ATOM     25  C   UNL A   1      33.556  28.688  25.644  1.00  0.00     0.047 A 
BRANCH  21  26
ATOM     26  C   UNL A   1      32.070  25.330  24.802  1.00  0.00     0.029 C 
ATOM     27  O   UNL A   1      35.047  21.505  26.135  1.00  0.00    -0.261 OA
ATOM     28  C   UNL A   1      34.158  22.238  25.752  1.00  0.00     0.290 C 
ATOM     29  N   UNL A   1      33.247  21.934  24.789  1.00  0.00    -0.282 N 
ATOM     30  S   UNL A   1      33.938  23.900  26.262  1.00  0.00    -0.022 SA
ATOM     31  C   UNL A   1      32.458  22.937  24.315  1.00  0.00     0.265 C 
ATOM     32  H   UNL A   1      33.161  21.016  24.444  1.00  0.00     0.174 HD
ATOM     33  C   UNL A   1      32.716  24.187  25.077  1.00  0.00     0.083 C 
ATOM     34  O   UNL A   1      31.702  22.837  23.360  1.00  0.00    -0.268 OA
ENDBRANCH  21  26
ENDBRANCH  19  20
ENDBRANCH  18  19
ENDBRANCH  14  18
ENDBRANCH   8  13
ENDBRANCH   4   7
ENDBRANCH   2   3
ENDBRANCH   1   2
BRANCH   1  35
ATOM     35  C   UNL A   1      44.263  26.301  31.135  1.00  0.00     0.002 C 
BRANCH  35  36
ATOM     36  C   UNL A   1      45.216  25.720  32.193  1.00  0.00     0.002 C 
BRANCH  36  37
ATOM     37  C   UNL A   1      44.674  24.544  33.024  1.00  0.00     0.021 C 
BRANCH  37  38
ATOM     38  C   UNL A   1      44.421  24.899  34.480  1.00  0.00     0.116 C 
BRANCH  38  39
ATOM     39  N   UNL A   1      43.153  24.339  34.963  1.00  0.00    -0.352 N 
ATOM     40  C   UNL A   1      42.054  24.982  35.504  1.00  0.00     0.251 C 
ATOM     41  H   UNL A   1      43.073  23.360  34.893  1.00  0.00     0.163 HD
ATOM     42  O   UNL A   1      41.248  24.367  36.193  1.00  0.00    -0.269 OA
BRANCH  40  43
ATOM     43  C   UNL A   1      41.862  26.412  35.219  1.00  0.00     0.039 A 
ATOM     44  C   UNL A   1      41.689  26.917  33.926  1.00  0.00     0.014 A 
ATOM     45  C   UNL A   1      41.851  27.263  36.315  1.00  0.00     0.014 A 
ATOM     46  C   UNL A   1      41.467  28.284  33.769  1.00  0.00     0.010 A 
ATOM     47  C   UNL A   1      41.356  28.521  36.184  1.00  0.00     0.010 A 
ATOM     48  C   UNL A   1      41.310  29.072  34.916  1.00  0.00    -0.014 A 
BRANCH  48  49
ATOM     49  C   UNL A   1      41.060  30.501  34.880  1.00  0.00     0.031 A 
ATOM     50  C   UNL A   1      39.854  30.883  34.110  1.00  0.00     0.074 A 
ATOM     51  C   UNL A   1      41.667  31.329  35.761  1.00  0.00     0.049 A 
ATOM     52  N   UNL A   1      39.805  31.471  32.963  1.00  0.00    -0.248 NA
ATOM     53  C   UNL A   1      38.551  30.374  34.570  1.00  0.00     0.031 C 
ATOM     54  C   UNL A   1      42.590  30.983  36.853  1.00  0.00     0.029 A 
ATOM     55  N   UNL A   1      41.456  32.652  35.969  1.00  0.00    -0.354 N 
ATOM     56  C   UNL A   1      38.452  31.651  32.699  1.00  0.00     0.074 A 
ATOM     57  C   UNL A   1      37.760  30.725  33.554  1.00  0.00     0.031 C 
ATOM     58  C   UNL A   1      42.653  32.004  37.735  1.00  0.00     0.029 A 
ATOM     59  C   UNL A   1      41.908  33.126  37.199  1.00  0.00     0.049 A 
ATOM     60  H   UNL A   1      41.018  33.232  35.304  1.00  0.00     0.167 HD
ATOM     61  C   UNL A   1      38.002  32.751  32.028  1.00  0.00     0.037 A 
ATOM     62  C   UNL A   1      41.601  34.334  37.742  1.00  0.00     0.037 A 
ATOM     63  C   UNL A   1      39.104  33.469  31.430  1.00  0.00     0.049 A 
ATOM     64  C   UNL A   1      41.119  35.191  36.616  1.00  0.00     0.074 A 
ATOM     65  C   UNL A   1      40.128  33.119  30.567  1.00  0.00     0.029 A 
ATOM     66  N   UNL A   1      39.518  34.631  32.044  1.00  0.00    -0.354 N 
ATOM     67  N   UNL A   1      41.878  35.569  35.619  1.00  0.00    -0.248 NA
ATOM     68  C   UNL A   1      39.689  35.183  36.334  1.00  0.00     0.031 C 
ATOM     69  C   UNL A   1      41.285  33.770  31.092  1.00  0.00     0.029 A 
ATOM     70  C   UNL A   1      40.882  34.559  32.172  1.00  0.00     0.049 A 
ATOM     71  H   UNL A   1      38.941  35.374  32.335  1.00  0.00     0.167 HD
ATOM     72  C   UNL A   1      41.082  35.433  34.487  1.00  0.00     0.074 A 
ATOM     73  C   UNL A   1      39.724  35.253  34.999  1.00  0.00     0.031 C 
ATOM     74  C   UNL A   1      41.622  35.165  33.259  1.00  0.00     0.037 A 
BRANCH  61  75
ATOM     75  C   UNL A   1      36.647  33.395  32.226  1.00  0.00     0.058 A 
ATOM     76  C   UNL A   1      35.837  33.627  31.095  1.00  0.00     0.135 A 
ATOM     77  C   UNL A   1      36.218  34.028  33.415  1.00  0.00     0.135 A 
ATOM     78  F   UNL A   1      36.141  33.075  29.909  1.00  0.00    -0.206 F 
ATOM     79  C   UNL A   1      34.741  34.490  31.122  1.00  0.00     0.059 A 
ATOM     80  C   UNL A   1      35.095  34.843  33.477  1.00  0.00     0.059 A 
ATOM     81  F   UNL A   1      36.913  33.974  34.555  1.00  0.00    -0.206 F 
ATOM     82  C   UNL A   1      34.389  35.106  32.318  1.00  0.00     0.060 A 
BRANCH  82  83
ATOM     83  S   UNL A   1      33.046  36.302  32.338  1.00  0.00     0.124 S 
ATOM     84  O   UNL A   1      33.363  37.073  33.534  1.00  0.00    -0.237 OA
ATOM     85  O   UNL A   1      33.233  36.986  31.063  1.00  0.00    -0.237 OA
ATOM     86  O   UNL A   1      31.853  35.464  32.423  1.00  0.00    -0.744 OA
ENDBRANCH  82  83
ENDBRANCH  61  75
BRANCH  62  87
ATOM     87  C   UNL A   1      41.346  34.646  39.178  1.00  0.00     0.058 A 
ATOM     88  C   UNL A   1      41.973  35.730  39.817  1.00  0.00     0.135 A 
ATOM     89  C   UNL A   1      40.282  34.048  39.887  1.00  0.00     0.135 A 
ATOM     90  F   UNL A   1      42.982  36.377  39.211  1.00  0.00    -0.206 F 
ATOM     91  C   UNL A   1      41.544  36.223  41.058  1.00  0.00     0.059 A 
ATOM     92  C   UNL A   1      39.846  34.510  41.129  1.00  0.00     0.059 A 
ATOM     93  F   UNL A   1      39.565  33.048  39.354  1.00  0.00    -0.206 F 
ATOM     94  C   UNL A   1      40.462  35.616  41.697  1.00  0.00     0.060 A 
BRANCH  94  95
ATOM     95  S   UNL A   1      39.782  36.350  43.205  1.00  0.00     0.124 S 
ATOM     96  O   UNL A   1      39.684  37.758  42.837  1.00  0.00    -0.237 OA
ATOM     97  O   UNL A   1      38.517  35.637  43.350  1.00  0.00    -0.237 OA
ATOM     98  O   UNL A   1      40.789  36.035  44.215  1.00  0.00    -0.744 OA
ENDBRANCH  94  95
ENDBRANCH  62  87
BRANCH  74  99
ATOM     99  C   UNL A   1      43.113  35.289  33.063  1.00  0.00     0.058 A 
ATOM    100  C   UNL A   1      43.801  36.501  32.867  1.00  0.00     0.135 A 
ATOM    101  C   UNL A   1      43.896  34.141  33.265  1.00  0.00     0.135 A 
ATOM    102  F   UNL A   1      43.141  37.664  32.782  1.00  0.00    -0.206 F 
ATOM    103  C   UNL A   1      45.197  36.558  32.826  1.00  0.00     0.059 A 
ATOM    104  C   UNL A   1      45.287  34.181  33.264  1.00  0.00     0.059 A 
ATOM    105  F   UNL A   1      43.305  32.963  33.525  1.00  0.00    -0.206 F 
ATOM    106  C   UNL A   1      45.932  35.390  33.025  1.00  0.00     0.060 A 
BRANCH 106 107
ATOM    107  S   UNL A   1      47.736  35.470  33.026  1.00  0.00     0.124 S 
ATOM    108  O   UNL A   1      47.997  36.471  31.997  1.00  0.00    -0.237 OA
ATOM    109  O   UNL A   1      48.036  35.874  34.396  1.00  0.00    -0.237 OA
ATOM    110  O   UNL A   1      48.138  34.107  32.685  1.00  0.00    -0.744 OA
ENDBRANCH 106 107
ENDBRANCH  74  99
ENDBRANCH  48  49
ENDBRANCH  40  43
ENDBRANCH  38  39
ENDBRANCH  37  38
ENDBRANCH  36  37
ENDBRANCH  35  36
ENDBRANCH   1  35
TORSDOF 21
ENDMDL
