MODEL 1
REMARK VINA RESULT:     -11.3      0.000      0.000
REMARK SMILES Cc1cc(S[C@@H](C)c2ccc(C(=O)NCCCCCCNC(=O)c3ccc(-c4c5nc(c(-c6c(F)cc(S(=O)(=O)[O-])cc6F)c6ccc([nH]6)c(-c6c(F)cc(S(=O)(=O)[O-])cc6F)c6nc(c(-c7c(F)cc(S(=O)(=O)[O-])cc7F)c7ccc4[nH]7)C=C6)C=C5)cc3)o2)n(C)n1
REMARK SMILES IDX 17 1 16 2 15 3 14 4 12 5 13 6 11 8 8 9 9 10 90 11 10 12 6 13
REMARK SMILES IDX 7 14 5 15 4 16 1 17 2 18 3 19 93 20 91 21 92 22 18 23 19 24
REMARK SMILES IDX 20 25 21 26 22 27 23 29 24 30 25 31 89 32 26 33 88 34 27 35
REMARK SMILES IDX 28 36 29 37 82 38 30 39 87 40 81 41 83 42 31 43 86 44 80 45
REMARK SMILES IDX 79 46 32 48 66 49 45 50 65 51 46 52 49 53 64 54 84 55 47 56
REMARK SMILES IDX 48 57 63 59 85 60 50 61 33 62 34 63 43 64 35 65 36 66 42 67
REMARK SMILES IDX 44 68 37 69 38 70 39 71 40 72 41 73 67 74 68 75 77 76 69 77
REMARK SMILES IDX 70 78 76 79 78 80 71 81 72 82 73 83 74 84 75 85 51 86 52 87
REMARK SMILES IDX 61 88 53 89 54 90 60 91 62 92 55 93 56 94 57 95 58 96 59 97
REMARK H PARENT 14 7 21 28 83 47 49 58
REMARK Flexibility Score: inf
ROOT
ATOM      1  C   UNL A   1      33.735  28.634  26.546  1.00  0.00     0.002 C 
ENDROOT
BRANCH   1   2
ATOM      2  C   UNL A   1      33.125  29.512  25.444  1.00  0.00     0.021 C 
BRANCH   2   3
ATOM      3  C   UNL A   1      31.619  29.721  25.601  1.00  0.00     0.116 C 
BRANCH   3   4
ATOM      4  N   UNL A   1      31.005  29.976  24.318  1.00  0.00    -0.349 N 
ATOM      5  C   UNL A   1      30.520  29.137  23.346  1.00  0.00     0.286 C 
ATOM      6  O   UNL A   1      30.056  29.706  22.354  1.00  0.00    -0.266 OA
ATOM      7  H   UNL A   1      30.917  30.932  24.100  1.00  0.00     0.163 HD
BRANCH   5   8
ATOM      8  C   UNL A   1      30.546  27.689  23.478  1.00  0.00     0.191 A 
ATOM      9  C   UNL A   1      31.568  25.733  23.188  1.00  0.00     0.118 A 
ATOM     10  C   UNL A   1      30.367  25.460  23.805  1.00  0.00     0.047 A 
ATOM     11  O   UNL A   1      31.659  27.070  22.969  1.00  0.00    -0.455 OA
ATOM     12  C   UNL A   1      29.735  26.711  24.027  1.00  0.00     0.056 A 
BRANCH   9  13
ATOM     13  C   UNL A   1      32.713  24.855  22.790  1.00  0.00     0.116 C 
ATOM     14  C   UNL A   1      32.923  24.847  21.276  1.00  0.00     0.028 C 
BRANCH  13  15
ATOM     15  S   UNL A   1      32.737  23.181  23.508  1.00  0.00    -0.096 SA
BRANCH  15  16
ATOM     16  C   UNL A   1      34.239  22.984  24.363  1.00  0.00     0.095 A 
ATOM     17  C   UNL A   1      37.580  23.478  25.803  1.00  0.00     0.069 C 
ATOM     18  C   UNL A   1      36.241  23.059  25.327  1.00  0.00     0.061 A 
ATOM     19  C   UNL A   1      35.287  23.835  24.634  1.00  0.00     0.060 A 
ATOM     20  N   UNL A   1      35.809  21.810  25.528  1.00  0.00    -0.178 NA
ATOM     21  N   UNL A   1      34.616  21.770  24.886  1.00  0.00    -0.262 N 
ATOM     22  C   UNL A   1      33.946  20.493  24.829  1.00  0.00     0.175 C 
ENDBRANCH  15  16
ENDBRANCH  13  15
ENDBRANCH   9  13
ENDBRANCH   5   8
ENDBRANCH   3   4
ENDBRANCH   2   3
ENDBRANCH   1   2
BRANCH   1  23
ATOM     23  C   UNL A   1      34.786  29.329  27.423  1.00  0.00     0.002 C 
BRANCH  23  24
ATOM     24  C   UNL A   1      34.570  30.831  27.630  1.00  0.00     0.021 C 
BRANCH  24  25
ATOM     25  C   UNL A   1      35.646  31.512  28.469  1.00  0.00     0.116 C 
BRANCH  25  26
ATOM     26  N   UNL A   1      35.514  31.191  29.880  1.00  0.00    -0.352 N 
ATOM     27  C   UNL A   1      36.378  30.510  30.701  1.00  0.00     0.251 C 
ATOM     28  H   UNL A   1      34.685  31.505  30.308  1.00  0.00     0.163 HD
ATOM     29  O   UNL A   1      36.002  30.134  31.807  1.00  0.00    -0.269 OA
BRANCH  27  30
ATOM     30  C   UNL A   1      37.754  30.220  30.245  1.00  0.00     0.039 A 
ATOM     31  C   UNL A   1      38.764  30.060  31.197  1.00  0.00     0.014 A 
ATOM     32  C   UNL A   1      38.051  30.120  28.882  1.00  0.00     0.014 A 
ATOM     33  C   UNL A   1      40.061  29.745  30.784  1.00  0.00     0.010 A 
ATOM     34  C   UNL A   1      39.327  29.741  28.476  1.00  0.00     0.010 A 
ATOM     35  C   UNL A   1      40.346  29.553  29.421  1.00  0.00    -0.014 A 
BRANCH  35  36
ATOM     36  C   UNL A   1      41.702  29.148  28.972  1.00  0.00     0.031 A 
ATOM     37  C   UNL A   1      42.812  30.161  28.901  1.00  0.00     0.074 A 
ATOM     38  C   UNL A   1      41.917  27.879  28.570  1.00  0.00     0.049 A 
ATOM     39  N   UNL A   1      44.043  30.008  28.484  1.00  0.00    -0.248 NA
ATOM     40  C   UNL A   1      42.489  31.532  29.330  1.00  0.00     0.031 C 
ATOM     41  C   UNL A   1      40.906  26.819  28.543  1.00  0.00     0.029 A 
ATOM     42  N   UNL A   1      43.051  27.267  28.098  1.00  0.00    -0.354 N 
ATOM     43  C   UNL A   1      44.637  31.261  28.589  1.00  0.00     0.074 A 
ATOM     44  C   UNL A   1      43.618  32.173  29.059  1.00  0.00     0.031 C 
ATOM     45  C   UNL A   1      41.470  25.684  28.101  1.00  0.00     0.029 A 
ATOM     46  C   UNL A   1      42.870  25.941  27.779  1.00  0.00     0.049 A 
ATOM     47  H   UNL A   1      43.911  27.733  27.997  1.00  0.00     0.167 HD
ATOM     48  C   UNL A   1      45.921  31.611  28.339  1.00  0.00     0.037 A 
ATOM     49  C   UNL A   1      43.733  25.036  27.278  1.00  0.00     0.037 A 
ATOM     50  C   UNL A   1      46.937  30.692  27.898  1.00  0.00     0.049 A 
ATOM     51  C   UNL A   1      45.155  25.448  27.012  1.00  0.00     0.074 A 
ATOM     52  C   UNL A   1      48.281  30.935  27.678  1.00  0.00     0.029 A 
ATOM     53  N   UNL A   1      46.720  29.352  27.607  1.00  0.00    -0.354 N 
ATOM     54  N   UNL A   1      45.717  26.622  27.183  1.00  0.00    -0.248 NA
ATOM     55  C   UNL A   1      46.063  24.416  26.492  1.00  0.00     0.031 C 
ATOM     56  C   UNL A   1      48.869  29.754  27.213  1.00  0.00     0.029 A 
ATOM     57  C   UNL A   1      47.902  28.762  27.189  1.00  0.00     0.049 A 
ATOM     58  H   UNL A   1      45.856  28.889  27.686  1.00  0.00     0.167 HD
ATOM     59  C   UNL A   1      47.050  26.461  26.818  1.00  0.00     0.074 A 
ATOM     60  C   UNL A   1      47.211  25.076  26.426  1.00  0.00     0.031 C 
ATOM     61  C   UNL A   1      48.048  27.379  26.810  1.00  0.00     0.037 A 
BRANCH  48  62
ATOM     62  C   UNL A   1      46.304  33.052  28.544  1.00  0.00     0.058 A 
ATOM     63  C   UNL A   1      46.280  33.978  27.488  1.00  0.00     0.135 A 
ATOM     64  C   UNL A   1      46.663  33.522  29.818  1.00  0.00     0.135 A 
ATOM     65  F   UNL A   1      45.958  33.580  26.248  1.00  0.00    -0.206 F 
ATOM     66  C   UNL A   1      46.628  35.311  27.681  1.00  0.00     0.059 A 
ATOM     67  C   UNL A   1      46.988  34.858  30.039  1.00  0.00     0.059 A 
ATOM     68  F   UNL A   1      46.702  32.681  30.863  1.00  0.00    -0.206 F 
ATOM     69  C   UNL A   1      46.983  35.741  28.960  1.00  0.00     0.060 A 
BRANCH  69  70
ATOM     70  S   UNL A   1      47.430  37.474  29.194  1.00  0.00     0.124 S 
ATOM     71  O   UNL A   1      46.169  38.143  28.889  1.00  0.00    -0.237 OA
ATOM     72  O   UNL A   1      47.841  37.505  30.594  1.00  0.00    -0.237 OA
ATOM     73  O   UNL A   1      48.501  37.683  28.224  1.00  0.00    -0.744 OA
ENDBRANCH  69  70
ENDBRANCH  48  62
BRANCH  49  74
ATOM     74  C   UNL A   1      43.279  23.644  27.018  1.00  0.00     0.058 A 
ATOM     75  C   UNL A   1      43.033  23.198  25.711  1.00  0.00     0.135 A 
ATOM     76  C   UNL A   1      43.102  22.727  28.066  1.00  0.00     0.135 A 
ATOM     77  F   UNL A   1      43.183  24.040  24.677  1.00  0.00    -0.206 F 
ATOM     78  C   UNL A   1      42.614  21.898  25.451  1.00  0.00     0.059 A 
ATOM     79  C   UNL A   1      42.707  21.414  27.829  1.00  0.00     0.059 A 
ATOM     80  F   UNL A   1      43.342  23.098  29.333  1.00  0.00    -0.206 F 
ATOM     81  C   UNL A   1      42.457  21.012  26.518  1.00  0.00     0.060 A 
BRANCH  81  82
ATOM     82  S   UNL A   1      41.961  19.311  26.166  1.00  0.00     0.124 S 
ATOM     83  O   UNL A   1      40.525  19.459  25.965  1.00  0.00    -0.237 OA
ATOM     84  O   UNL A   1      42.746  19.003  24.975  1.00  0.00    -0.237 OA
ATOM     85  O   UNL A   1      42.359  18.591  27.373  1.00  0.00    -0.744 OA
ENDBRANCH  81  82
ENDBRANCH  49  74
BRANCH  61  86
ATOM     86  C   UNL A   1      49.414  26.913  26.393  1.00  0.00     0.058 A 
ATOM     87  C   UNL A   1      50.307  26.333  27.308  1.00  0.00     0.135 A 
ATOM     88  C   UNL A   1      49.809  26.984  25.047  1.00  0.00     0.135 A 
ATOM     89  F   UNL A   1      49.981  26.249  28.608  1.00  0.00    -0.206 F 
ATOM     90  C   UNL A   1      51.550  25.855  26.906  1.00  0.00     0.059 A 
ATOM     91  C   UNL A   1      51.036  26.488  24.617  1.00  0.00     0.059 A 
ATOM     92  F   UNL A   1      48.988  27.521  24.130  1.00  0.00    -0.206 F 
ATOM     93  C   UNL A   1      51.904  25.933  25.557  1.00  0.00     0.060 A 
BRANCH  93  94
ATOM     94  S   UNL A   1      53.498  25.262  25.041  1.00  0.00     0.124 S 
ATOM     95  O   UNL A   1      53.312  23.837  25.295  1.00  0.00    -0.237 OA
ATOM     96  O   UNL A   1      53.561  25.653  23.636  1.00  0.00    -0.237 OA
ATOM     97  O   UNL A   1      54.451  25.938  25.916  1.00  0.00    -0.744 OA
ENDBRANCH  93  94
ENDBRANCH  61  86
ENDBRANCH  35  36
ENDBRANCH  27  30
ENDBRANCH  25  26
ENDBRANCH  24  25
ENDBRANCH  23  24
ENDBRANCH   1  23
TORSDOF 19
ENDMDL
MODEL 2
REMARK VINA RESULT:     -11.3      0.975      1.678
REMARK SMILES Cc1cc(S[C@@H](C)c2ccc(C(=O)NCCCCCCNC(=O)c3ccc(-c4c5nc(c(-c6c(F)cc(S(=O)(=O)[O-])cc6F)c6ccc([nH]6)c(-c6c(F)cc(S(=O)(=O)[O-])cc6F)c6nc(c(-c7c(F)cc(S(=O)(=O)[O-])cc7F)c7ccc4[nH]7)C=C6)C=C5)cc3)o2)n(C)n1
REMARK SMILES IDX 17 1 16 2 15 3 14 4 12 5 13 6 11 8 8 9 9 10 90 11 10 12 6 13
REMARK SMILES IDX 7 14 5 15 4 16 1 17 2 18 3 19 93 20 91 21 92 22 18 23 19 24
REMARK SMILES IDX 20 25 21 26 22 27 23 29 24 30 25 31 89 32 26 33 88 34 27 35
REMARK SMILES IDX 28 36 29 37 82 38 30 39 87 40 81 41 83 42 31 43 86 44 80 45
REMARK SMILES IDX 79 46 32 48 66 49 45 50 65 51 46 52 49 53 64 54 84 55 47 56
REMARK SMILES IDX 48 57 63 59 85 60 50 61 33 62 34 63 43 64 35 65 36 66 42 67
REMARK SMILES IDX 44 68 37 69 38 70 39 71 40 72 41 73 67 74 68 75 77 76 69 77
REMARK SMILES IDX 70 78 76 79 78 80 71 81 72 82 73 83 74 84 75 85 51 86 52 87
REMARK SMILES IDX 61 88 53 89 54 90 60 91 62 92 55 93 56 94 57 95 58 96 59 97
REMARK H PARENT 14 7 21 28 83 47 49 58
REMARK Flexibility Score: inf
ROOT
ATOM      1  C   UNL A   1      33.790  28.710  26.492  1.00  0.00     0.002 C 
ENDROOT
BRANCH   1   2
ATOM      2  C   UNL A   1      33.293  29.548  25.305  1.00  0.00     0.021 C 
BRANCH   2   3
ATOM      3  C   UNL A   1      31.834  29.987  25.443  1.00  0.00     0.116 C 
BRANCH   3   4
ATOM      4  N   UNL A   1      31.060  29.542  24.307  1.00  0.00    -0.349 N 
ATOM      5  C   UNL A   1      30.666  28.294  23.892  1.00  0.00     0.286 C 
ATOM      6  O   UNL A   1      30.002  28.279  22.852  1.00  0.00    -0.266 OA
ATOM      7  H   UNL A   1      30.758  30.272  23.719  1.00  0.00     0.163 HD
BRANCH   5   8
ATOM      8  C   UNL A   1      31.000  27.084  24.626  1.00  0.00     0.191 A 
ATOM      9  C   UNL A   1      32.326  25.329  24.973  1.00  0.00     0.118 A 
ATOM     10  C   UNL A   1      31.325  25.257  25.917  1.00  0.00     0.047 A 
ATOM     11  O   UNL A   1      32.112  26.413  24.183  1.00  0.00    -0.455 OA
ATOM     12  C   UNL A   1      30.505  26.398  25.721  1.00  0.00     0.056 A 
BRANCH   9  13
ATOM     13  C   UNL A   1      33.538  24.485  24.729  1.00  0.00     0.116 C 
ATOM     14  C   UNL A   1      33.508  23.834  23.347  1.00  0.00     0.028 C 
BRANCH  13  15
ATOM     15  S   UNL A   1      33.982  23.309  26.048  1.00  0.00    -0.096 SA
BRANCH  15  16
ATOM     16  C   UNL A   1      33.582  21.708  25.497  1.00  0.00     0.095 A 
ATOM     17  C   UNL A   1      33.696  18.327  24.070  1.00  0.00     0.069 C 
ATOM     18  C   UNL A   1      33.414  19.646  24.684  1.00  0.00     0.061 A 
ATOM     19  C   UNL A   1      34.335  20.665  25.007  1.00  0.00     0.060 A 
ATOM     20  N   UNL A   1      32.162  19.996  24.995  1.00  0.00    -0.178 NA
ATOM     21  N   UNL A   1      32.280  21.272  25.434  1.00  0.00    -0.262 N 
ATOM     22  C   UNL A   1      31.057  21.975  25.743  1.00  0.00     0.175 C 
ENDBRANCH  15  16
ENDBRANCH  13  15
ENDBRANCH   9  13
ENDBRANCH   5   8
ENDBRANCH   3   4
ENDBRANCH   2   3
ENDBRANCH   1   2
BRANCH   1  23
ATOM     23  C   UNL A   1      34.880  29.374  27.344  1.00  0.00     0.002 C 
BRANCH  23  24
ATOM     24  C   UNL A   1      34.668  30.864  27.626  1.00  0.00     0.021 C 
BRANCH  24  25
ATOM     25  C   UNL A   1      35.744  31.499  28.501  1.00  0.00     0.116 C 
BRANCH  25  26
ATOM     26  N   UNL A   1      35.591  31.128  29.898  1.00  0.00    -0.352 N 
ATOM     27  C   UNL A   1      36.438  30.409  30.704  1.00  0.00     0.251 C 
ATOM     28  H   UNL A   1      34.760  31.436  30.327  1.00  0.00     0.163 HD
ATOM     29  O   UNL A   1      36.045  29.997  31.791  1.00  0.00    -0.269 OA
BRANCH  27  30
ATOM     30  C   UNL A   1      37.816  30.121  30.253  1.00  0.00     0.039 A 
ATOM     31  C   UNL A   1      38.812  29.910  31.211  1.00  0.00     0.014 A 
ATOM     32  C   UNL A   1      38.130  30.073  28.891  1.00  0.00     0.014 A 
ATOM     33  C   UNL A   1      40.110  29.596  30.801  1.00  0.00     0.010 A 
ATOM     34  C   UNL A   1      39.406  29.695  28.486  1.00  0.00     0.010 A 
ATOM     35  C   UNL A   1      40.411  29.456  29.436  1.00  0.00    -0.014 A 
BRANCH  35  36
ATOM     36  C   UNL A   1      41.768  29.053  28.987  1.00  0.00     0.031 A 
ATOM     37  C   UNL A   1      42.878  30.066  28.924  1.00  0.00     0.074 A 
ATOM     38  C   UNL A   1      41.983  27.786  28.580  1.00  0.00     0.049 A 
ATOM     39  N   UNL A   1      44.110  29.915  28.509  1.00  0.00    -0.248 NA
ATOM     40  C   UNL A   1      42.555  31.435  29.359  1.00  0.00     0.031 C 
ATOM     41  C   UNL A   1      40.972  26.727  28.546  1.00  0.00     0.029 A 
ATOM     42  N   UNL A   1      43.118  27.176  28.107  1.00  0.00    -0.354 N 
ATOM     43  C   UNL A   1      44.704  31.167  28.621  1.00  0.00     0.074 A 
ATOM     44  C   UNL A   1      43.684  32.077  29.094  1.00  0.00     0.031 C 
ATOM     45  C   UNL A   1      41.536  25.594  28.098  1.00  0.00     0.029 A 
ATOM     46  C   UNL A   1      42.937  25.852  27.781  1.00  0.00     0.049 A 
ATOM     47  H   UNL A   1      43.979  27.642  28.010  1.00  0.00     0.167 HD
ATOM     48  C   UNL A   1      45.989  31.519  28.376  1.00  0.00     0.037 A 
ATOM     49  C   UNL A   1      43.801  24.949  27.278  1.00  0.00     0.037 A 
ATOM     50  C   UNL A   1      47.005  30.601  27.933  1.00  0.00     0.049 A 
ATOM     51  C   UNL A   1      45.224  25.362  27.017  1.00  0.00     0.074 A 
ATOM     52  C   UNL A   1      48.349  30.845  27.717  1.00  0.00     0.029 A 
ATOM     53  N   UNL A   1      46.789  29.263  27.635  1.00  0.00    -0.354 N 
ATOM     54  N   UNL A   1      45.786  26.535  27.195  1.00  0.00    -0.248 NA
ATOM     55  C   UNL A   1      46.133  24.332  26.494  1.00  0.00     0.031 C 
ATOM     56  C   UNL A   1      48.938  29.666  27.247  1.00  0.00     0.029 A 
ATOM     57  C   UNL A   1      47.971  28.674  27.216  1.00  0.00     0.049 A 
ATOM     58  H   UNL A   1      45.924  28.800  27.710  1.00  0.00     0.167 HD
ATOM     59  C   UNL A   1      47.119  26.375  26.832  1.00  0.00     0.074 A 
ATOM     60  C   UNL A   1      47.281  24.992  26.433  1.00  0.00     0.031 C 
ATOM     61  C   UNL A   1      48.117  27.293  26.831  1.00  0.00     0.037 A 
BRANCH  48  62
ATOM     62  C   UNL A   1      46.371  32.958  28.589  1.00  0.00     0.058 A 
ATOM     63  C   UNL A   1      46.847  33.418  29.828  1.00  0.00     0.135 A 
ATOM     64  C   UNL A   1      46.297  33.881  27.534  1.00  0.00     0.135 A 
ATOM     65  F   UNL A   1      46.925  32.582  30.875  1.00  0.00    -0.206 F 
ATOM     66  C   UNL A   1      47.206  34.749  30.022  1.00  0.00     0.059 A 
ATOM     67  C   UNL A   1      46.678  35.211  27.698  1.00  0.00     0.059 A 
ATOM     68  F   UNL A   1      45.850  33.496  26.328  1.00  0.00    -0.206 F 
ATOM     69  C   UNL A   1      47.116  35.638  28.950  1.00  0.00     0.060 A 
BRANCH  69  70
ATOM     70  S   UNL A   1      47.588  37.360  29.217  1.00  0.00     0.124 S 
ATOM     71  O   UNL A   1      46.429  37.868  29.945  1.00  0.00    -0.237 OA
ATOM     72  O   UNL A   1      48.816  37.231  29.994  1.00  0.00    -0.237 OA
ATOM     73  O   UNL A   1      47.756  37.880  27.864  1.00  0.00    -0.744 OA
ENDBRANCH  69  70
ENDBRANCH  48  62
BRANCH  49  74
ATOM     74  C   UNL A   1      43.347  23.558  27.010  1.00  0.00     0.058 A 
ATOM     75  C   UNL A   1      43.110  23.118  25.700  1.00  0.00     0.135 A 
ATOM     76  C   UNL A   1      43.163  22.638  28.053  1.00  0.00     0.135 A 
ATOM     77  F   UNL A   1      43.267  23.963  24.669  1.00  0.00    -0.206 F 
ATOM     78  C   UNL A   1      42.690  21.819  25.432  1.00  0.00     0.059 A 
ATOM     79  C   UNL A   1      42.768  21.327  27.809  1.00  0.00     0.059 A 
ATOM     80  F   UNL A   1      43.395  23.004  29.322  1.00  0.00    -0.206 F 
ATOM     81  C   UNL A   1      42.526  20.929  26.495  1.00  0.00     0.060 A 
BRANCH  81  82
ATOM     82  S   UNL A   1      42.031  19.230  26.133  1.00  0.00     0.124 S 
ATOM     83  O   UNL A   1      42.834  18.935  24.953  1.00  0.00    -0.237 OA
ATOM     84  O   UNL A   1      42.410  18.533  27.358  1.00  0.00    -0.237 OA
ATOM     85  O   UNL A   1      40.592  19.342  25.907  1.00  0.00    -0.744 OA
ENDBRANCH  81  82
ENDBRANCH  49  74
BRANCH  61  86
ATOM     86  C   UNL A   1      49.485  26.829  26.414  1.00  0.00     0.058 A 
ATOM     87  C   UNL A   1      50.354  26.193  27.315  1.00  0.00     0.135 A 
ATOM     88  C   UNL A   1      49.904  26.960  25.080  1.00  0.00     0.135 A 
ATOM     89  F   UNL A   1      50.005  26.051  28.603  1.00  0.00    -0.206 F 
ATOM     90  C   UNL A   1      51.597  25.718  26.911  1.00  0.00     0.059 A 
ATOM     91  C   UNL A   1      51.131  26.468  24.648  1.00  0.00     0.059 A 
ATOM     92  F   UNL A   1      49.106  27.552  24.177  1.00  0.00    -0.206 F 
ATOM     93  C   UNL A   1      51.975  25.856  25.574  1.00  0.00     0.060 A 
BRANCH  93  94
ATOM     94  S   UNL A   1      53.569  25.189  25.052  1.00  0.00     0.124 S 
ATOM     95  O   UNL A   1      53.605  25.580  23.647  1.00  0.00    -0.237 OA
ATOM     96  O   UNL A   1      54.503  25.888  25.929  1.00  0.00    -0.237 OA
ATOM     97  O   UNL A   1      53.437  23.757  25.302  1.00  0.00    -0.744 OA
ENDBRANCH  93  94
ENDBRANCH  61  86
ENDBRANCH  35  36
ENDBRANCH  27  30
ENDBRANCH  25  26
ENDBRANCH  24  25
ENDBRANCH  23  24
ENDBRANCH   1  23
TORSDOF 19
ENDMDL
MODEL 3
REMARK VINA RESULT:     -11.2      4.830      6.135
REMARK SMILES Cc1cc(S[C@@H](C)c2ccc(C(=O)NCCCCCCNC(=O)c3ccc(-c4c5nc(c(-c6c(F)cc(S(=O)(=O)[O-])cc6F)c6ccc([nH]6)c(-c6c(F)cc(S(=O)(=O)[O-])cc6F)c6nc(c(-c7c(F)cc(S(=O)(=O)[O-])cc7F)c7ccc4[nH]7)C=C6)C=C5)cc3)o2)n(C)n1
REMARK SMILES IDX 17 1 16 2 15 3 14 4 12 5 13 6 11 8 8 9 9 10 90 11 10 12 6 13
REMARK SMILES IDX 7 14 5 15 4 16 1 17 2 18 3 19 93 20 91 21 92 22 18 23 19 24
REMARK SMILES IDX 20 25 21 26 22 27 23 29 24 30 25 31 89 32 26 33 88 34 27 35
REMARK SMILES IDX 28 36 29 37 82 38 30 39 87 40 81 41 83 42 31 43 86 44 80 45
REMARK SMILES IDX 79 46 32 48 66 49 45 50 65 51 46 52 49 53 64 54 84 55 47 56
REMARK SMILES IDX 48 57 63 59 85 60 50 61 33 62 34 63 43 64 35 65 36 66 42 67
REMARK SMILES IDX 44 68 37 69 38 70 39 71 40 72 41 73 67 74 68 75 77 76 69 77
REMARK SMILES IDX 70 78 76 79 78 80 71 81 72 82 73 83 74 84 75 85 51 86 52 87
REMARK SMILES IDX 61 88 53 89 54 90 60 91 62 92 55 93 56 94 57 95 58 96 59 97
REMARK H PARENT 14 7 21 28 83 47 49 58
REMARK Flexibility Score: inf
ROOT
ATOM      1  C   UNL A   1      31.050  27.735  25.333  1.00  0.00     0.002 C 
ENDROOT
BRANCH   1   2
ATOM      2  C   UNL A   1      31.134  28.446  23.974  1.00  0.00     0.021 C 
BRANCH   2   3
ATOM      3  C   UNL A   1      30.541  27.629  22.826  1.00  0.00     0.116 C 
BRANCH   3   4
ATOM      4  N   UNL A   1      31.585  27.153  21.948  1.00  0.00    -0.349 N 
ATOM      5  C   UNL A   1      32.271  25.966  21.890  1.00  0.00     0.286 C 
ATOM      6  O   UNL A   1      33.118  25.900  20.995  1.00  0.00    -0.266 OA
ATOM      7  H   UNL A   1      31.856  27.805  21.260  1.00  0.00     0.163 HD
BRANCH   5   8
ATOM      8  C   UNL A   1      32.015  24.869  22.809  1.00  0.00     0.191 A 
ATOM      9  C   UNL A   1      32.617  23.613  24.546  1.00  0.00     0.118 A 
ATOM     10  C   UNL A   1      31.394  23.138  24.124  1.00  0.00     0.047 A 
ATOM     11  O   UNL A   1      32.999  24.635  23.736  1.00  0.00    -0.455 OA
ATOM     12  C   UNL A   1      30.992  23.966  23.044  1.00  0.00     0.056 A 
BRANCH   9  13
ATOM     13  C   UNL A   1      33.501  23.230  25.692  1.00  0.00     0.116 C 
ATOM     14  C   UNL A   1      32.768  23.325  27.030  1.00  0.00     0.028 C 
BRANCH  13  15
ATOM     15  S   UNL A   1      35.147  24.007  25.738  1.00  0.00    -0.096 SA
BRANCH  15  16
ATOM     16  C   UNL A   1      36.338  22.757  25.524  1.00  0.00     0.095 A 
ATOM     17  C   UNL A   1      38.045  19.571  24.877  1.00  0.00     0.069 C 
ATOM     18  C   UNL A   1      37.579  20.945  25.184  1.00  0.00     0.061 A 
ATOM     19  C   UNL A   1      36.271  21.461  25.066  1.00  0.00     0.060 A 
ATOM     20  N   UNL A   1      38.434  21.865  25.640  1.00  0.00    -0.178 NA
ATOM     21  N   UNL A   1      37.650  22.941  25.893  1.00  0.00    -0.262 N 
ATOM     22  C   UNL A   1      38.282  24.080  26.514  1.00  0.00     0.175 C 
ENDBRANCH  15  16
ENDBRANCH  13  15
ENDBRANCH   9  13
ENDBRANCH   5   8
ENDBRANCH   3   4
ENDBRANCH   2   3
ENDBRANCH   1   2
BRANCH   1  23
ATOM     23  C   UNL A   1      32.331  27.009  25.766  1.00  0.00     0.002 C 
BRANCH  23  24
ATOM     24  C   UNL A   1      33.224  27.788  26.735  1.00  0.00     0.021 C 
BRANCH  24  25
ATOM     25  C   UNL A   1      34.177  28.771  26.063  1.00  0.00     0.116 C 
BRANCH  25  26
ATOM     26  N   UNL A   1      33.933  30.138  26.491  1.00  0.00    -0.352 N 
ATOM     27  C   UNL A   1      34.553  30.863  27.479  1.00  0.00     0.251 C 
ATOM     28  H   UNL A   1      33.220  30.612  26.005  1.00  0.00     0.163 HD
ATOM     29  O   UNL A   1      34.065  31.924  27.856  1.00  0.00    -0.269 OA
BRANCH  27  30
ATOM     30  C   UNL A   1      35.797  30.356  28.095  1.00  0.00     0.039 A 
ATOM     31  C   UNL A   1      37.022  30.658  27.494  1.00  0.00     0.014 A 
ATOM     32  C   UNL A   1      35.756  29.573  29.253  1.00  0.00     0.014 A 
ATOM     33  C   UNL A   1      38.209  30.221  28.087  1.00  0.00     0.010 A 
ATOM     34  C   UNL A   1      36.942  29.196  29.877  1.00  0.00     0.010 A 
ATOM     35  C   UNL A   1      38.180  29.513  29.300  1.00  0.00    -0.014 A 
BRANCH  35  36
ATOM     36  C   UNL A   1      39.436  29.103  29.979  1.00  0.00     0.031 A 
ATOM     37  C   UNL A   1      39.913  29.840  31.200  1.00  0.00     0.074 A 
ATOM     38  C   UNL A   1      40.176  28.105  29.459  1.00  0.00     0.049 A 
ATOM     39  N   UNL A   1      41.007  29.664  31.895  1.00  0.00    -0.248 NA
ATOM     40  C   UNL A   1      39.062  30.938  31.689  1.00  0.00     0.031 C 
ATOM     41  C   UNL A   1      39.844  27.349  28.248  1.00  0.00     0.029 A 
ATOM     42  N   UNL A   1      41.365  27.559  29.873  1.00  0.00    -0.354 N 
ATOM     43  C   UNL A   1      40.983  30.631  32.893  1.00  0.00     0.074 A 
ATOM     44  C   UNL A   1      39.793  31.425  32.682  1.00  0.00     0.031 C 
ATOM     45  C   UNL A   1      40.794  26.425  28.031  1.00  0.00     0.029 A 
ATOM     46  C   UNL A   1      41.819  26.544  29.063  1.00  0.00     0.049 A 
ATOM     47  H   UNL A   1      41.848  27.865  30.674  1.00  0.00     0.167 HD
ATOM     48  C   UNL A   1      41.861  30.824  33.907  1.00  0.00     0.037 A 
ATOM     49  C   UNL A   1      42.938  25.796  29.140  1.00  0.00     0.037 A 
ATOM     50  C   UNL A   1      43.029  30.012  34.125  1.00  0.00     0.049 A 
ATOM     51  C   UNL A   1      43.896  26.026  30.276  1.00  0.00     0.074 A 
ATOM     52  C   UNL A   1      43.947  30.086  35.159  1.00  0.00     0.029 A 
ATOM     53  N   UNL A   1      43.444  28.979  33.297  1.00  0.00    -0.354 N 
ATOM     54  N   UNL A   1      43.821  26.901  31.252  1.00  0.00    -0.248 NA
ATOM     55  C   UNL A   1      45.086  25.166  30.329  1.00  0.00     0.031 C 
ATOM     56  C   UNL A   1      44.939  29.126  34.932  1.00  0.00     0.029 A 
ATOM     57  C   UNL A   1      44.615  28.422  33.783  1.00  0.00     0.049 A 
ATOM     58  H   UNL A   1      42.975  28.685  32.483  1.00  0.00     0.167 HD
ATOM     59  C   UNL A   1      44.939  26.678  32.048  1.00  0.00     0.074 A 
ATOM     60  C   UNL A   1      45.668  25.581  31.446  1.00  0.00     0.031 C 
ATOM     61  C   UNL A   1      45.324  27.324  33.176  1.00  0.00     0.037 A 
BRANCH  48  62
ATOM     62  C   UNL A   1      41.588  31.953  34.862  1.00  0.00     0.058 A 
ATOM     63  C   UNL A   1      40.730  31.796  35.962  1.00  0.00     0.135 A 
ATOM     64  C   UNL A   1      42.220  33.197  34.698  1.00  0.00     0.135 A 
ATOM     65  F   UNL A   1      40.089  30.634  36.159  1.00  0.00    -0.206 F 
ATOM     66  C   UNL A   1      40.483  32.841  36.848  1.00  0.00     0.059 A 
ATOM     67  C   UNL A   1      42.009  34.247  35.588  1.00  0.00     0.059 A 
ATOM     68  F   UNL A   1      43.051  33.402  33.664  1.00  0.00    -0.206 F 
ATOM     69  C   UNL A   1      41.127  34.063  36.652  1.00  0.00     0.060 A 
BRANCH  69  70
ATOM     70  S   UNL A   1      40.797  35.407  37.811  1.00  0.00     0.124 S 
ATOM     71  O   UNL A   1      41.269  34.829  39.066  1.00  0.00    -0.237 OA
ATOM     72  O   UNL A   1      41.609  36.493  37.270  1.00  0.00    -0.237 OA
ATOM     73  O   UNL A   1      39.354  35.597  37.711  1.00  0.00    -0.744 OA
ENDBRANCH  69  70
ENDBRANCH  48  62
BRANCH  49  74
ATOM     74  C   UNL A   1      43.198  24.746  28.120  1.00  0.00     0.058 A 
ATOM     75  C   UNL A   1      43.880  25.047  26.933  1.00  0.00     0.135 A 
ATOM     76  C   UNL A   1      42.790  23.418  28.321  1.00  0.00     0.135 A 
ATOM     77  F   UNL A   1      44.285  26.304  26.693  1.00  0.00    -0.206 F 
ATOM     78  C   UNL A   1      44.136  24.074  25.972  1.00  0.00     0.059 A 
ATOM     79  C   UNL A   1      43.056  22.422  27.387  1.00  0.00     0.059 A 
ATOM     80  F   UNL A   1      42.151  23.074  29.450  1.00  0.00    -0.206 F 
ATOM     81  C   UNL A   1      43.722  22.763  26.211  1.00  0.00     0.060 A 
BRANCH  81  82
ATOM     82  S   UNL A   1      44.105  21.496  24.981  1.00  0.00     0.124 S 
ATOM     83  O   UNL A   1      43.992  22.250  23.738  1.00  0.00    -0.237 OA
ATOM     84  O   UNL A   1      45.453  21.093  25.365  1.00  0.00    -0.237 OA
ATOM     85  O   UNL A   1      43.071  20.489  25.206  1.00  0.00    -0.744 OA
ENDBRANCH  81  82
ENDBRANCH  49  74
BRANCH  61  86
ATOM     86  C   UNL A   1      46.576  26.844  33.856  1.00  0.00     0.058 A 
ATOM     87  C   UNL A   1      46.550  25.808  34.802  1.00  0.00     0.135 A 
ATOM     88  C   UNL A   1      47.825  27.382  33.506  1.00  0.00     0.135 A 
ATOM     89  F   UNL A   1      45.382  25.265  35.178  1.00  0.00    -0.206 F 
ATOM     90  C   UNL A   1      47.719  25.332  35.389  1.00  0.00     0.059 A 
ATOM     91  C   UNL A   1      49.008  26.904  34.060  1.00  0.00     0.059 A 
ATOM     92  F   UNL A   1      47.905  28.369  32.599  1.00  0.00    -0.206 F 
ATOM     93  C   UNL A   1      48.944  25.884  35.008  1.00  0.00     0.060 A 
BRANCH  93  94
ATOM     94  S   UNL A   1      50.456  25.222  35.739  1.00  0.00     0.124 S 
ATOM     95  O   UNL A   1      51.358  26.363  35.630  1.00  0.00    -0.237 OA
ATOM     96  O   UNL A   1      50.025  24.881  37.091  1.00  0.00    -0.237 OA
ATOM     97  O   UNL A   1      50.777  24.083  34.884  1.00  0.00    -0.744 OA
ENDBRANCH  93  94
ENDBRANCH  61  86
ENDBRANCH  35  36
ENDBRANCH  27  30
ENDBRANCH  25  26
ENDBRANCH  24  25
ENDBRANCH  23  24
ENDBRANCH   1  23
TORSDOF 19
ENDMDL
