MODEL 1
REMARK VINA RESULT:     -12.0      0.000      0.000
REMARK SMILES Cc1cc(C)n(CC(=O)N[C@H]2C=C[C@@H](C(=O)NCCCCCCNC(=O)c3ccc(-c4c5nc(c(-c6c(F)cc(S(=O)(=O)[O-])cc6F)c6ccc([nH]6)c(-c6c(F)cc(S(=O)(=O)[O-])cc6F)c6nc(c(-c7c(F)cc(S(=O)(=O)[O-])cc7F)c7ccc4[nH]7)C=C6)C=C5)cc3)C2)n1
REMARK SMILES IDX 20 1 19 2 18 3 17 4 15 5 16 6 14 8 11 9 12 10 93 11 13 12
REMARK SMILES IDX 10 13 8 14 9 15 7 17 6 18 1 19 2 20 3 21 94 22 4 23 5 24
REMARK SMILES IDX 21 25 22 26 23 27 24 28 25 29 26 31 27 32 28 33 92 34 29 35
REMARK SMILES IDX 91 36 30 37 31 38 32 39 85 40 33 41 90 42 84 43 86 44 34 45
REMARK SMILES IDX 89 46 83 47 82 48 35 50 69 51 48 52 68 53 49 54 52 55 67 56
REMARK SMILES IDX 87 57 50 58 51 59 66 61 88 62 53 63 36 64 37 65 46 66 38 67
REMARK SMILES IDX 39 68 45 69 47 70 40 71 41 72 42 73 43 74 44 75 70 76 71 77
REMARK SMILES IDX 80 78 72 79 73 80 79 81 81 82 74 83 75 84 76 85 77 86 78 87
REMARK SMILES IDX 54 88 55 89 64 90 56 91 57 92 63 93 65 94 58 95 59 96 60 97
REMARK SMILES IDX 61 98 62 99
REMARK H PARENT 17 7 10 16 24 30 86 49 52 60
REMARK Flexibility Score: inf
ROOT
ATOM      1  C   UNL A   1      40.218  22.075  26.602  1.00  0.00     0.002 C 
ENDROOT
BRANCH   1   2
ATOM      2  C   UNL A   1      38.937  21.463  25.994  1.00  0.00     0.021 C 
BRANCH   2   3
ATOM      3  C   UNL A   1      37.706  22.379  25.666  1.00  0.00     0.116 C 
BRANCH   3   4
ATOM      4  N   UNL A   1      36.290  22.192  26.320  1.00  0.00    -0.356 N 
ATOM      5  C   UNL A   1      34.924  22.032  26.271  1.00  0.00     0.227 C 
ATOM      6  O   UNL A   1      34.555  21.534  27.365  1.00  0.00    -0.274 OA
ATOM      7  H   UNL A   1      36.484  22.186  27.285  1.00  0.00     0.163 HD
BRANCH   5   8
ATOM      8  C   UNL A   1      33.639  22.310  25.226  1.00  0.00     0.103 C 
ATOM      9  C   UNL A   1      32.649  23.470  23.208  1.00  0.00     0.106 C 
ATOM     10  C   UNL A   1      32.710  22.004  23.017  1.00  0.00    -0.006 C 
ATOM     11  C   UNL A   1      33.321  23.714  24.603  1.00  0.00     0.047 C 
ATOM     12  C   UNL A   1      33.149  21.380  24.128  1.00  0.00    -0.016 C 
BRANCH   9  13
ATOM     13  N   UNL A   1      32.943  24.340  22.054  1.00  0.00    -0.348 N 
ATOM     14  C   UNL A   1      32.592  25.499  21.435  1.00  0.00     0.242 C 
ATOM     15  O   UNL A   1      33.239  25.756  20.406  1.00  0.00    -0.273 OA
ATOM     16  H   UNL A   1      33.670  23.924  21.535  1.00  0.00     0.164 HD
BRANCH  14  17
ATOM     17  C   UNL A   1      31.553  26.513  21.856  1.00  0.00     0.244 C 
BRANCH  17  18
ATOM     18  N   UNL A   1      32.097  27.581  22.645  1.00  0.00    -0.260 N 
ATOM     19  C   UNL A   1      33.710  27.678  25.798  1.00  0.00     0.069 C 
ATOM     20  C   UNL A   1      32.906  27.926  24.563  1.00  0.00     0.060 A 
ATOM     21  C   UNL A   1      31.747  28.696  24.364  1.00  0.00     0.048 A 
ATOM     22  N   UNL A   1      33.191  27.315  23.411  1.00  0.00    -0.178 NA
ATOM     23  C   UNL A   1      31.400  28.681  23.044  1.00  0.00     0.036 A 
ATOM     24  C   UNL A   1      30.314  29.434  22.357  1.00  0.00     0.066 C 
ENDBRANCH  17  18
ENDBRANCH  14  17
ENDBRANCH   9  13
ENDBRANCH   5   8
ENDBRANCH   3   4
ENDBRANCH   2   3
ENDBRANCH   1   2
BRANCH   1  25
ATOM     25  C   UNL A   1      40.937  21.245  27.701  1.00  0.00     0.002 C 
BRANCH  25  26
ATOM     26  C   UNL A   1      42.032  20.228  27.296  1.00  0.00     0.021 C 
BRANCH  26  27
ATOM     27  C   UNL A   1      42.109  19.894  25.813  1.00  0.00     0.116 C 
BRANCH  27  28
ATOM     28  N   UNL A   1      43.478  19.884  25.291  1.00  0.00    -0.352 N 
ATOM     29  C   UNL A   1      44.280  20.963  24.943  1.00  0.00     0.251 C 
ATOM     30  H   UNL A   1      43.883  18.995  25.171  1.00  0.00     0.163 HD
ATOM     31  O   UNL A   1      45.242  20.822  24.217  1.00  0.00    -0.269 OA
BRANCH  29  32
ATOM     32  C   UNL A   1      43.961  22.280  25.528  1.00  0.00     0.039 A 
ATOM     33  C   UNL A   1      43.157  23.222  24.877  1.00  0.00     0.014 A 
ATOM     34  C   UNL A   1      44.545  22.572  26.756  1.00  0.00     0.014 A 
ATOM     35  C   UNL A   1      42.940  24.451  25.496  1.00  0.00     0.010 A 
ATOM     36  C   UNL A   1      44.163  23.675  27.453  1.00  0.00     0.010 A 
ATOM     37  C   UNL A   1      43.468  24.663  26.777  1.00  0.00    -0.014 A 
BRANCH  37  38
ATOM     38  C   UNL A   1      43.302  25.911  27.497  1.00  0.00     0.031 A 
ATOM     39  C   UNL A   1      44.318  26.938  27.154  1.00  0.00     0.074 A 
ATOM     40  C   UNL A   1      42.159  26.169  28.172  1.00  0.00     0.049 A 
ATOM     41  N   UNL A   1      45.263  27.400  27.901  1.00  0.00    -0.248 NA
ATOM     42  C   UNL A   1      44.415  27.365  25.747  1.00  0.00     0.031 C 
ATOM     43  C   UNL A   1      40.934  25.356  28.260  1.00  0.00     0.029 A 
ATOM     44  N   UNL A   1      41.804  27.294  28.841  1.00  0.00    -0.354 N 
ATOM     45  C   UNL A   1      45.919  28.358  27.132  1.00  0.00     0.074 A 
ATOM     46  C   UNL A   1      45.512  28.124  25.773  1.00  0.00     0.031 C 
ATOM     47  C   UNL A   1      39.915  26.110  28.730  1.00  0.00     0.029 A 
ATOM     48  C   UNL A   1      40.447  27.393  29.144  1.00  0.00     0.049 A 
ATOM     49  H   UNL A   1      42.455  27.988  29.092  1.00  0.00     0.167 HD
ATOM     50  C   UNL A   1      46.546  29.421  27.711  1.00  0.00     0.037 A 
ATOM     51  C   UNL A   1      39.829  28.489  29.656  1.00  0.00     0.037 A 
ATOM     52  C   UNL A   1      46.700  29.209  29.130  1.00  0.00     0.049 A 
ATOM     53  C   UNL A   1      40.907  29.335  30.247  1.00  0.00     0.074 A 
ATOM     54  C   UNL A   1      47.368  28.275  29.897  1.00  0.00     0.029 A 
ATOM     55  N   UNL A   1      45.760  29.774  29.959  1.00  0.00    -0.354 N 
ATOM     56  N   UNL A   1      41.647  28.957  31.259  1.00  0.00    -0.248 NA
ATOM     57  C   UNL A   1      41.497  30.353  29.391  1.00  0.00     0.031 C 
ATOM     58  C   UNL A   1      46.481  27.983  30.974  1.00  0.00     0.029 A 
ATOM     59  C   UNL A   1      45.364  28.815  30.859  1.00  0.00     0.049 A 
ATOM     60  H   UNL A   1      45.428  30.701  29.915  1.00  0.00     0.167 HD
ATOM     61  C   UNL A   1      42.934  29.377  30.943  1.00  0.00     0.074 A 
ATOM     62  C   UNL A   1      42.767  30.275  29.800  1.00  0.00     0.031 C 
ATOM     63  C   UNL A   1      44.036  28.736  31.436  1.00  0.00     0.037 A 
BRANCH  50  64
ATOM     64  C   UNL A   1      46.698  30.788  27.083  1.00  0.00     0.058 A 
ATOM     65  C   UNL A   1      47.981  31.370  27.010  1.00  0.00     0.135 A 
ATOM     66  C   UNL A   1      45.623  31.657  26.792  1.00  0.00     0.135 A 
ATOM     67  F   UNL A   1      49.079  30.640  27.265  1.00  0.00    -0.206 F 
ATOM     68  C   UNL A   1      48.175  32.726  26.743  1.00  0.00     0.059 A 
ATOM     69  C   UNL A   1      45.798  32.999  26.469  1.00  0.00     0.059 A 
ATOM     70  F   UNL A   1      44.344  31.281  26.897  1.00  0.00    -0.206 F 
ATOM     71  C   UNL A   1      47.073  33.535  26.489  1.00  0.00     0.060 A 
BRANCH  71  72
ATOM     72  S   UNL A   1      47.312  35.303  26.246  1.00  0.00     0.124 S 
ATOM     73  O   UNL A   1      45.999  35.710  25.761  1.00  0.00    -0.237 OA
ATOM     74  O   UNL A   1      47.666  35.746  27.590  1.00  0.00    -0.237 OA
ATOM     75  O   UNL A   1      48.394  35.365  25.267  1.00  0.00    -0.744 OA
ENDBRANCH  71  72
ENDBRANCH  50  64
BRANCH  51  76
ATOM     76  C   UNL A   1      38.489  29.030  29.290  1.00  0.00     0.058 A 
ATOM     77  C   UNL A   1      37.518  29.309  30.267  1.00  0.00     0.135 A 
ATOM     78  C   UNL A   1      38.242  29.556  28.004  1.00  0.00     0.135 A 
ATOM     79  F   UNL A   1      37.682  28.867  31.524  1.00  0.00    -0.206 F 
ATOM     80  C   UNL A   1      36.390  30.100  30.000  1.00  0.00     0.059 A 
ATOM     81  C   UNL A   1      37.126  30.341  27.713  1.00  0.00     0.059 A 
ATOM     82  F   UNL A   1      39.129  29.398  27.011  1.00  0.00    -0.206 F 
ATOM     83  C   UNL A   1      36.214  30.630  28.721  1.00  0.00     0.060 A 
BRANCH  83  84
ATOM     84  S   UNL A   1      34.858  31.790  28.410  1.00  0.00     0.124 S 
ATOM     85  O   UNL A   1      35.502  32.786  27.562  1.00  0.00    -0.237 OA
ATOM     86  O   UNL A   1      33.867  30.941  27.759  1.00  0.00    -0.237 OA
ATOM     87  O   UNL A   1      34.495  32.252  29.748  1.00  0.00    -0.744 OA
ENDBRANCH  83  84
ENDBRANCH  51  76
BRANCH  63  88
ATOM     88  C   UNL A   1      43.851  27.714  32.534  1.00  0.00     0.058 A 
ATOM     89  C   UNL A   1      43.847  26.320  32.341  1.00  0.00     0.135 A 
ATOM     90  C   UNL A   1      43.885  28.171  33.859  1.00  0.00     0.135 A 
ATOM     91  F   UNL A   1      43.906  25.794  31.111  1.00  0.00    -0.206 F 
ATOM     92  C   UNL A   1      43.856  25.424  33.416  1.00  0.00     0.059 A 
ATOM     93  C   UNL A   1      43.924  27.300  34.944  1.00  0.00     0.059 A 
ATOM     94  F   UNL A   1      43.949  29.489  34.111  1.00  0.00    -0.206 F 
ATOM     95  C   UNL A   1      43.902  25.926  34.716  1.00  0.00     0.060 A 
BRANCH  95  96
ATOM     96  S   UNL A   1      44.007  24.778  36.108  1.00  0.00     0.124 S 
ATOM     97  O   UNL A   1      45.447  24.691  36.326  1.00  0.00    -0.237 OA
ATOM     98  O   UNL A   1      43.250  25.469  37.148  1.00  0.00    -0.237 OA
ATOM     99  O   UNL A   1      43.378  23.562  35.596  1.00  0.00    -0.744 OA
ENDBRANCH  95  96
ENDBRANCH  63  88
ENDBRANCH  37  38
ENDBRANCH  29  32
ENDBRANCH  27  28
ENDBRANCH  26  27
ENDBRANCH  25  26
ENDBRANCH   1  25
TORSDOF 19
ENDMDL
MODEL 2
REMARK VINA RESULT:     -11.7      2.552      5.037
REMARK SMILES Cc1cc(C)n(CC(=O)N[C@H]2C=C[C@@H](C(=O)NCCCCCCNC(=O)c3ccc(-c4c5nc(c(-c6c(F)cc(S(=O)(=O)[O-])cc6F)c6ccc([nH]6)c(-c6c(F)cc(S(=O)(=O)[O-])cc6F)c6nc(c(-c7c(F)cc(S(=O)(=O)[O-])cc7F)c7ccc4[nH]7)C=C6)C=C5)cc3)C2)n1
REMARK SMILES IDX 20 1 19 2 18 3 17 4 15 5 16 6 14 8 11 9 12 10 93 11 13 12
REMARK SMILES IDX 10 13 8 14 9 15 7 17 6 18 1 19 2 20 3 21 94 22 4 23 5 24
REMARK SMILES IDX 21 25 22 26 23 27 24 28 25 29 26 31 27 32 28 33 92 34 29 35
REMARK SMILES IDX 91 36 30 37 31 38 32 39 85 40 33 41 90 42 84 43 86 44 34 45
REMARK SMILES IDX 89 46 83 47 82 48 35 50 69 51 48 52 68 53 49 54 52 55 67 56
REMARK SMILES IDX 87 57 50 58 51 59 66 61 88 62 53 63 36 64 37 65 46 66 38 67
REMARK SMILES IDX 39 68 45 69 47 70 40 71 41 72 42 73 43 74 44 75 70 76 71 77
REMARK SMILES IDX 80 78 72 79 73 80 79 81 81 82 74 83 75 84 76 85 77 86 78 87
REMARK SMILES IDX 54 88 55 89 64 90 56 91 57 92 63 93 65 94 58 95 59 96 60 97
REMARK SMILES IDX 61 98 62 99
REMARK H PARENT 17 7 10 16 24 30 86 49 52 60
REMARK Flexibility Score: inf
ROOT
ATOM      1  C   UNL A   1      33.780  25.407  25.738  1.00  0.00     0.002 C 
ENDROOT
BRANCH   1   2
ATOM      2  C   UNL A   1      33.926  26.941  25.842  1.00  0.00     0.021 C 
BRANCH   2   3
ATOM      3  C   UNL A   1      33.350  27.865  24.714  1.00  0.00     0.116 C 
BRANCH   3   4
ATOM      4  N   UNL A   1      32.663  27.316  23.411  1.00  0.00    -0.356 N 
ATOM      5  C   UNL A   1      31.983  26.365  22.687  1.00  0.00     0.227 C 
ATOM      6  O   UNL A   1      31.443  26.939  21.708  1.00  0.00    -0.274 OA
ATOM      7  H   UNL A   1      32.787  28.048  22.764  1.00  0.00     0.163 HD
BRANCH   5   8
ATOM      8  C   UNL A   1      31.683  24.713  22.707  1.00  0.00     0.103 C 
ATOM      9  C   UNL A   1      32.405  22.347  23.238  1.00  0.00     0.106 C 
ATOM     10  C   UNL A   1      31.221  22.745  24.032  1.00  0.00    -0.006 C 
ATOM     11  C   UNL A   1      32.784  23.631  22.424  1.00  0.00     0.047 C 
ATOM     12  C   UNL A   1      30.781  23.970  23.680  1.00  0.00    -0.016 C 
BRANCH   9  13
ATOM     13  N   UNL A   1      33.438  21.519  23.888  1.00  0.00    -0.348 N 
ATOM     14  C   UNL A   1      33.639  20.398  24.630  1.00  0.00     0.242 C 
ATOM     15  O   UNL A   1      34.827  20.168  24.914  1.00  0.00    -0.273 OA
ATOM     16  H   UNL A   1      34.314  21.938  23.722  1.00  0.00     0.164 HD
BRANCH  14  17
ATOM     17  C   UNL A   1      32.618  19.395  25.115  1.00  0.00     0.244 C 
BRANCH  17  18
ATOM     18  N   UNL A   1      32.876  18.061  24.653  1.00  0.00    -0.260 N 
ATOM     19  C   UNL A   1      35.466  15.735  25.312  1.00  0.00     0.069 C 
ATOM     20  C   UNL A   1      34.382  16.585  24.734  1.00  0.00     0.060 A 
ATOM     21  C   UNL A   1      34.130  16.970  23.405  1.00  0.00     0.048 A 
ATOM     22  N   UNL A   1      33.485  17.196  25.511  1.00  0.00    -0.178 NA
ATOM     23  C   UNL A   1      32.980  17.702  23.344  1.00  0.00     0.036 A 
ATOM     24  C   UNL A   1      32.272  18.227  22.142  1.00  0.00     0.066 C 
ENDBRANCH  17  18
ENDBRANCH  14  17
ENDBRANCH   9  13
ENDBRANCH   5   8
ENDBRANCH   3   4
ENDBRANCH   2   3
ENDBRANCH   1   2
BRANCH   1  25
ATOM     25  C   UNL A   1      34.915  24.643  25.003  1.00  0.00     0.002 C 
BRANCH  25  26
ATOM     26  C   UNL A   1      35.799  23.646  25.791  1.00  0.00     0.021 C 
BRANCH  26  27
ATOM     27  C   UNL A   1      37.302  23.829  25.637  1.00  0.00     0.116 C 
BRANCH  27  28
ATOM     28  N   UNL A   1      38.075  22.651  26.038  1.00  0.00    -0.352 N 
ATOM     29  C   UNL A   1      39.344  22.597  26.600  1.00  0.00     0.251 C 
ATOM     30  H   UNL A   1      37.635  21.782  25.892  1.00  0.00     0.163 HD
ATOM     31  O   UNL A   1      40.001  21.576  26.571  1.00  0.00    -0.269 OA
BRANCH  29  32
ATOM     32  C   UNL A   1      39.850  23.802  27.284  1.00  0.00     0.039 A 
ATOM     33  C   UNL A   1      41.174  23.923  27.723  1.00  0.00     0.014 A 
ATOM     34  C   UNL A   1      38.928  24.814  27.523  1.00  0.00     0.014 A 
ATOM     35  C   UNL A   1      41.549  25.087  28.389  1.00  0.00     0.010 A 
ATOM     36  C   UNL A   1      39.342  26.028  27.976  1.00  0.00     0.010 A 
ATOM     37  C   UNL A   1      40.612  26.120  28.520  1.00  0.00    -0.014 A 
BRANCH  37  38
ATOM     38  C   UNL A   1      40.907  27.365  29.203  1.00  0.00     0.031 A 
ATOM     39  C   UNL A   1      41.990  28.155  28.566  1.00  0.00     0.074 A 
ATOM     40  C   UNL A   1      40.060  27.853  30.139  1.00  0.00     0.049 A 
ATOM     41  N   UNL A   1      43.172  28.394  29.022  1.00  0.00    -0.248 NA
ATOM     42  C   UNL A   1      41.803  28.571  27.164  1.00  0.00     0.031 C 
ATOM     43  C   UNL A   1      38.759  27.320  30.575  1.00  0.00     0.029 A 
ATOM     44  N   UNL A   1      40.137  29.018  30.827  1.00  0.00    -0.354 N 
ATOM     45  C   UNL A   1      43.791  29.200  28.069  1.00  0.00     0.074 A 
ATOM     46  C   UNL A   1      43.003  29.076  26.873  1.00  0.00     0.031 C 
ATOM     47  C   UNL A   1      38.080  28.268  31.259  1.00  0.00     0.029 A 
ATOM     48  C   UNL A   1      38.959  29.402  31.466  1.00  0.00     0.049 A 
ATOM     49  H   UNL A   1      40.962  29.554  30.872  1.00  0.00     0.167 HD
ATOM     50  C   UNL A   1      44.756  30.096  28.420  1.00  0.00     0.037 A 
ATOM     51  C   UNL A   1      38.741  30.597  32.072  1.00  0.00     0.037 A 
ATOM     52  C   UNL A   1      45.227  29.836  29.759  1.00  0.00     0.049 A 
ATOM     53  C   UNL A   1      40.089  31.185  32.328  1.00  0.00     0.074 A 
ATOM     54  C   UNL A   1      45.862  28.771  30.367  1.00  0.00     0.029 A 
ATOM     55  N   UNL A   1      44.677  30.579  30.778  1.00  0.00    -0.354 N 
ATOM     56  N   UNL A   1      40.971  30.644  33.130  1.00  0.00    -0.248 NA
ATOM     57  C   UNL A   1      40.635  32.064  31.305  1.00  0.00     0.031 C 
ATOM     58  C   UNL A   1      45.246  28.661  31.649  1.00  0.00     0.029 A 
ATOM     59  C   UNL A   1      44.339  29.714  31.790  1.00  0.00     0.049 A 
ATOM     60  H   UNL A   1      44.548  31.555  30.781  1.00  0.00     0.167 HD
ATOM     61  C   UNL A   1      42.189  30.783  32.474  1.00  0.00     0.074 A 
ATOM     62  C   UNL A   1      41.922  31.710  31.375  1.00  0.00     0.031 C 
ATOM     63  C   UNL A   1      43.222  29.914  32.693  1.00  0.00     0.037 A 
BRANCH  50  64
ATOM     64  C   UNL A   1      45.022  31.406  27.716  1.00  0.00     0.058 A 
ATOM     65  C   UNL A   1      46.243  31.580  27.029  1.00  0.00     0.135 A 
ATOM     66  C   UNL A   1      44.261  32.582  27.901  1.00  0.00     0.135 A 
ATOM     67  F   UNL A   1      47.050  30.534  26.794  1.00  0.00    -0.206 F 
ATOM     68  C   UNL A   1      46.704  32.834  26.627  1.00  0.00     0.059 A 
ATOM     69  C   UNL A   1      44.676  33.833  27.458  1.00  0.00     0.059 A 
ATOM     70  F   UNL A   1      43.122  32.599  28.602  1.00  0.00    -0.206 F 
ATOM     71  C   UNL A   1      45.918  33.957  26.860  1.00  0.00     0.060 A 
BRANCH  71  72
ATOM     72  S   UNL A   1      46.555  35.586  26.434  1.00  0.00     0.124 S 
ATOM     73  O   UNL A   1      47.602  35.760  27.434  1.00  0.00    -0.237 OA
ATOM     74  O   UNL A   1      47.007  35.383  25.062  1.00  0.00    -0.237 OA
ATOM     75  O   UNL A   1      45.390  36.453  26.582  1.00  0.00    -0.744 OA
ENDBRANCH  71  72
ENDBRANCH  50  64
BRANCH  51  76
ATOM     76  C   UNL A   1      37.497  31.418  32.041  1.00  0.00     0.058 A 
ATOM     77  C   UNL A   1      36.861  31.833  33.225  1.00  0.00     0.135 A 
ATOM     78  C   UNL A   1      37.071  32.053  30.855  1.00  0.00     0.135 A 
ATOM     79  F   UNL A   1      37.219  31.299  34.403  1.00  0.00    -0.206 F 
ATOM     80  C   UNL A   1      35.894  32.849  33.240  1.00  0.00     0.059 A 
ATOM     81  C   UNL A   1      36.108  33.062  30.845  1.00  0.00     0.059 A 
ATOM     82  F   UNL A   1      37.649  31.774  29.677  1.00  0.00    -0.206 F 
ATOM     83  C   UNL A   1      35.539  33.474  32.044  1.00  0.00     0.060 A 
BRANCH  83  84
ATOM     84  S   UNL A   1      34.422  34.900  32.073  1.00  0.00     0.124 S 
ATOM     85  O   UNL A   1      35.200  35.877  32.826  1.00  0.00    -0.237 OA
ATOM     86  O   UNL A   1      34.244  35.182  30.654  1.00  0.00    -0.237 OA
ATOM     87  O   UNL A   1      33.237  34.387  32.757  1.00  0.00    -0.744 OA
ENDBRANCH  83  84
ENDBRANCH  51  76
BRANCH  63  88
ATOM     88  C   UNL A   1      43.119  28.941  33.844  1.00  0.00     0.058 A 
ATOM     89  C   UNL A   1      43.374  29.260  35.192  1.00  0.00     0.135 A 
ATOM     90  C   UNL A   1      42.540  27.689  33.588  1.00  0.00     0.135 A 
ATOM     91  F   UNL A   1      43.841  30.467  35.537  1.00  0.00    -0.206 F 
ATOM     92  C   UNL A   1      43.084  28.369  36.231  1.00  0.00     0.059 A 
ATOM     93  C   UNL A   1      42.216  26.799  34.608  1.00  0.00     0.059 A 
ATOM     94  F   UNL A   1      42.218  27.347  32.330  1.00  0.00    -0.206 F 
ATOM     95  C   UNL A   1      42.497  27.141  35.928  1.00  0.00     0.060 A 
BRANCH  95  96
ATOM     96  S   UNL A   1      42.035  26.022  37.270  1.00  0.00     0.124 S 
ATOM     97  O   UNL A   1      40.640  26.381  37.502  1.00  0.00    -0.237 OA
ATOM     98  O   UNL A   1      42.260  24.706  36.678  1.00  0.00    -0.237 OA
ATOM     99  O   UNL A   1      42.958  26.378  38.344  1.00  0.00    -0.744 OA
ENDBRANCH  95  96
ENDBRANCH  63  88
ENDBRANCH  37  38
ENDBRANCH  29  32
ENDBRANCH  27  28
ENDBRANCH  26  27
ENDBRANCH  25  26
ENDBRANCH   1  25
TORSDOF 19
ENDMDL
MODEL 3
REMARK VINA RESULT:     -11.6      1.270      2.107
REMARK SMILES Cc1cc(C)n(CC(=O)N[C@H]2C=C[C@@H](C(=O)NCCCCCCNC(=O)c3ccc(-c4c5nc(c(-c6c(F)cc(S(=O)(=O)[O-])cc6F)c6ccc([nH]6)c(-c6c(F)cc(S(=O)(=O)[O-])cc6F)c6nc(c(-c7c(F)cc(S(=O)(=O)[O-])cc7F)c7ccc4[nH]7)C=C6)C=C5)cc3)C2)n1
REMARK SMILES IDX 20 1 19 2 18 3 17 4 15 5 16 6 14 8 11 9 12 10 93 11 13 12
REMARK SMILES IDX 10 13 8 14 9 15 7 17 6 18 1 19 2 20 3 21 94 22 4 23 5 24
REMARK SMILES IDX 21 25 22 26 23 27 24 28 25 29 26 31 27 32 28 33 92 34 29 35
REMARK SMILES IDX 91 36 30 37 31 38 32 39 85 40 33 41 90 42 84 43 86 44 34 45
REMARK SMILES IDX 89 46 83 47 82 48 35 50 69 51 48 52 68 53 49 54 52 55 67 56
REMARK SMILES IDX 87 57 50 58 51 59 66 61 88 62 53 63 36 64 37 65 46 66 38 67
REMARK SMILES IDX 39 68 45 69 47 70 40 71 41 72 42 73 43 74 44 75 70 76 71 77
REMARK SMILES IDX 80 78 72 79 73 80 79 81 81 82 74 83 75 84 76 85 77 86 78 87
REMARK SMILES IDX 54 88 55 89 64 90 56 91 57 92 63 93 65 94 58 95 59 96 60 97
REMARK SMILES IDX 61 98 62 99
REMARK H PARENT 17 7 10 16 24 30 86 49 52 60
REMARK Flexibility Score: inf
ROOT
ATOM      1  C   UNL A   1      40.847  21.731  27.939  1.00  0.00     0.002 C 
ENDROOT
BRANCH   1   2
ATOM      2  C   UNL A   1      40.204  22.308  26.658  1.00  0.00     0.021 C 
BRANCH   2   3
ATOM      3  C   UNL A   1      39.263  21.414  25.778  1.00  0.00     0.116 C 
BRANCH   3   4
ATOM      4  N   UNL A   1      37.975  21.957  25.059  1.00  0.00    -0.356 N 
ATOM      5  C   UNL A   1      36.616  22.128  24.935  1.00  0.00     0.227 C 
ATOM      6  O   UNL A   1      36.419  23.116  24.182  1.00  0.00    -0.274 OA
ATOM      7  H   UNL A   1      38.336  22.431  24.275  1.00  0.00     0.163 HD
BRANCH   5   8
ATOM      8  C   UNL A   1      35.184  21.424  25.456  1.00  0.00     0.103 C 
ATOM      9  C   UNL A   1      32.841  21.623  26.391  1.00  0.00     0.106 C 
ATOM     10  C   UNL A   1      32.837  21.033  25.033  1.00  0.00    -0.006 C 
ATOM     11  C   UNL A   1      34.345  21.966  26.666  1.00  0.00     0.047 C 
ATOM     12  C   UNL A   1      34.091  20.840  24.576  1.00  0.00    -0.016 C 
BRANCH   9  13
ATOM     13  N   UNL A   1      31.763  22.563  26.749  1.00  0.00    -0.348 N 
ATOM     14  C   UNL A   1      31.392  23.871  26.718  1.00  0.00     0.242 C 
ATOM     15  O   UNL A   1      30.272  24.106  27.203  1.00  0.00    -0.273 OA
ATOM     16  H   UNL A   1      31.035  22.049  27.168  1.00  0.00     0.164 HD
BRANCH  14  17
ATOM     17  C   UNL A   1      32.146  25.050  26.145  1.00  0.00     0.244 C 
BRANCH  17  18
ATOM     18  N   UNL A   1      31.283  26.102  25.689  1.00  0.00    -0.260 N 
ATOM     19  C   UNL A   1      30.639  27.481  22.490  1.00  0.00     0.069 C 
ATOM     20  C   UNL A   1      30.867  27.208  23.941  1.00  0.00     0.060 A 
ATOM     21  C   UNL A   1      31.311  28.053  24.973  1.00  0.00     0.048 A 
ATOM     22  N   UNL A   1      30.732  25.982  24.449  1.00  0.00    -0.178 NA
ATOM     23  C   UNL A   1      31.305  27.379  26.160  1.00  0.00     0.036 A 
ATOM     24  C   UNL A   1      31.592  27.897  27.528  1.00  0.00     0.066 C 
ENDBRANCH  17  18
ENDBRANCH  14  17
ENDBRANCH   9  13
ENDBRANCH   5   8
ENDBRANCH   3   4
ENDBRANCH   2   3
ENDBRANCH   1   2
BRANCH   1  25
ATOM     25  C   UNL A   1      42.235  21.051  27.781  1.00  0.00     0.002 C 
BRANCH  25  26
ATOM     26  C   UNL A   1      42.348  19.720  26.999  1.00  0.00     0.021 C 
BRANCH  26  27
ATOM     27  C   UNL A   1      42.535  19.850  25.495  1.00  0.00     0.116 C 
BRANCH  27  28
ATOM     28  N   UNL A   1      43.941  19.861  25.083  1.00  0.00    -0.352 N 
ATOM     29  C   UNL A   1      44.765  20.952  24.844  1.00  0.00     0.251 C 
ATOM     30  H   UNL A   1      44.357  18.977  24.960  1.00  0.00     0.163 HD
ATOM     31  O   UNL A   1      45.783  20.840  24.192  1.00  0.00    -0.269 OA
BRANCH  29  32
ATOM     32  C   UNL A   1      44.398  22.244  25.455  1.00  0.00     0.039 A 
ATOM     33  C   UNL A   1      43.429  23.092  24.907  1.00  0.00     0.014 A 
ATOM     34  C   UNL A   1      45.103  22.615  26.595  1.00  0.00     0.014 A 
ATOM     35  C   UNL A   1      43.176  24.307  25.539  1.00  0.00     0.010 A 
ATOM     36  C   UNL A   1      44.708  23.691  27.327  1.00  0.00     0.010 A 
ATOM     37  C   UNL A   1      43.839  24.594  26.739  1.00  0.00    -0.014 A 
BRANCH  37  38
ATOM     38  C   UNL A   1      43.647  25.835  27.465  1.00  0.00     0.031 A 
ATOM     39  C   UNL A   1      44.647  26.881  27.135  1.00  0.00     0.074 A 
ATOM     40  C   UNL A   1      42.495  26.069  28.133  1.00  0.00     0.049 A 
ATOM     41  N   UNL A   1      45.579  27.356  27.890  1.00  0.00    -0.248 NA
ATOM     42  C   UNL A   1      44.746  27.318  25.731  1.00  0.00     0.031 C 
ATOM     43  C   UNL A   1      41.284  25.234  28.208  1.00  0.00     0.029 A 
ATOM     44  N   UNL A   1      42.115  27.184  28.806  1.00  0.00    -0.354 N 
ATOM     45  C   UNL A   1      46.223  28.330  27.131  1.00  0.00     0.074 A 
ATOM     46  C   UNL A   1      45.829  28.096  25.769  1.00  0.00     0.031 C 
ATOM     47  C   UNL A   1      40.249  25.968  28.675  1.00  0.00     0.029 A 
ATOM     48  C   UNL A   1      40.755  27.258  29.100  1.00  0.00     0.049 A 
ATOM     49  H   UNL A   1      42.752  27.888  29.066  1.00  0.00     0.167 HD
ATOM     50  C   UNL A   1      46.827  29.400  27.721  1.00  0.00     0.037 A 
ATOM     51  C   UNL A   1      40.115  28.339  29.614  1.00  0.00     0.037 A 
ATOM     52  C   UNL A   1      46.975  29.183  29.139  1.00  0.00     0.049 A 
ATOM     53  C   UNL A   1      41.173  29.201  30.217  1.00  0.00     0.074 A 
ATOM     54  C   UNL A   1      47.654  28.257  29.906  1.00  0.00     0.029 A 
ATOM     55  N   UNL A   1      46.019  29.727  29.966  1.00  0.00    -0.354 N 
ATOM     56  N   UNL A   1      41.913  28.831  31.232  1.00  0.00    -0.248 NA
ATOM     57  C   UNL A   1      41.751  30.234  29.370  1.00  0.00     0.031 C 
ATOM     58  C   UNL A   1      46.765  27.943  30.976  1.00  0.00     0.029 A 
ATOM     59  C   UNL A   1      45.635  28.756  30.858  1.00  0.00     0.049 A 
ATOM     60  H   UNL A   1      45.672  30.647  29.925  1.00  0.00     0.167 HD
ATOM     61  C   UNL A   1      43.194  29.275  30.927  1.00  0.00     0.074 A 
ATOM     62  C   UNL A   1      43.020  30.176  29.788  1.00  0.00     0.031 C 
ATOM     63  C   UNL A   1      44.304  28.650  31.424  1.00  0.00     0.037 A 
BRANCH  50  64
ATOM     64  C   UNL A   1      46.959  30.773  27.101  1.00  0.00     0.058 A 
ATOM     65  C   UNL A   1      48.222  31.403  27.095  1.00  0.00     0.135 A 
ATOM     66  C   UNL A   1      45.869  31.601  26.754  1.00  0.00     0.135 A 
ATOM     67  F   UNL A   1      49.331  30.716  27.408  1.00  0.00    -0.206 F 
ATOM     68  C   UNL A   1      48.377  32.766  26.839  1.00  0.00     0.059 A 
ATOM     69  C   UNL A   1      46.009  32.949  26.441  1.00  0.00     0.059 A 
ATOM     70  F   UNL A   1      44.601  31.176  26.793  1.00  0.00    -0.206 F 
ATOM     71  C   UNL A   1      47.260  33.534  26.527  1.00  0.00     0.060 A 
BRANCH  71  72
ATOM     72  S   UNL A   1      47.444  35.310  26.297  1.00  0.00     0.124 S 
ATOM     73  O   UNL A   1      48.009  35.372  24.954  1.00  0.00    -0.237 OA
ATOM     74  O   UNL A   1      46.068  35.775  26.435  1.00  0.00    -0.237 OA
ATOM     75  O   UNL A   1      48.342  35.698  27.379  1.00  0.00    -0.744 OA
ENDBRANCH  71  72
ENDBRANCH  50  64
BRANCH  51  76
ATOM     76  C   UNL A   1      38.768  28.859  29.241  1.00  0.00     0.058 A 
ATOM     77  C   UNL A   1      37.776  29.091  30.211  1.00  0.00     0.135 A 
ATOM     78  C   UNL A   1      38.527  29.412  27.966  1.00  0.00     0.135 A 
ATOM     79  F   UNL A   1      37.932  28.621  31.458  1.00  0.00    -0.206 F 
ATOM     80  C   UNL A   1      36.635  29.862  29.946  1.00  0.00     0.059 A 
ATOM     81  C   UNL A   1      37.397  30.178  27.678  1.00  0.00     0.059 A 
ATOM     82  F   UNL A   1      39.432  29.300  26.982  1.00  0.00    -0.206 F 
ATOM     83  C   UNL A   1      36.464  30.420  28.679  1.00  0.00     0.060 A 
BRANCH  83  84
ATOM     84  S   UNL A   1      35.087  31.557  28.377  1.00  0.00     0.124 S 
ATOM     85  O   UNL A   1      34.710  31.943  29.731  1.00  0.00    -0.237 OA
ATOM     86  O   UNL A   1      35.715  32.596  27.568  1.00  0.00    -0.237 OA
ATOM     87  O   UNL A   1      34.113  30.727  27.671  1.00  0.00    -0.744 OA
ENDBRANCH  83  84
ENDBRANCH  51  76
BRANCH  63  88
ATOM     88  C   UNL A   1      44.129  27.619  32.515  1.00  0.00     0.058 A 
ATOM     89  C   UNL A   1      43.840  27.914  33.861  1.00  0.00     0.135 A 
ATOM     90  C   UNL A   1      44.050  26.273  32.130  1.00  0.00     0.135 A 
ATOM     91  F   UNL A   1      43.802  29.180  34.295  1.00  0.00    -0.206 F 
ATOM     92  C   UNL A   1      43.508  26.915  34.782  1.00  0.00     0.059 A 
ATOM     93  C   UNL A   1      43.693  25.265  33.022  1.00  0.00     0.059 A 
ATOM     94  F   UNL A   1      44.258  25.931  30.848  1.00  0.00    -0.206 F 
ATOM     95  C   UNL A   1      43.429  25.592  34.349  1.00  0.00     0.060 A 
BRANCH  95  96
ATOM     96  S   UNL A   1      42.912  24.307  35.510  1.00  0.00     0.124 S 
ATOM     97  O   UNL A   1      43.474  23.104  34.906  1.00  0.00    -0.237 OA
ATOM     98  O   UNL A   1      43.532  24.738  36.760  1.00  0.00    -0.237 OA
ATOM     99  O   UNL A   1      41.453  24.393  35.487  1.00  0.00    -0.744 OA
ENDBRANCH  95  96
ENDBRANCH  63  88
ENDBRANCH  37  38
ENDBRANCH  29  32
ENDBRANCH  27  28
ENDBRANCH  26  27
ENDBRANCH  25  26
ENDBRANCH   1  25
TORSDOF 19
ENDMDL
