MODEL 1
REMARK VINA RESULT:     -12.0      0.000      0.000
REMARK SMILES Cc1cc(Nc2ccc(C(=O)NCCCCCCNC(=O)c3ccc(-c4c5nc(c(-c6c(F)cc(S(=O)(=O)[O-])cc6F)c6ccc([nH]6)c(-c6c(F)cc(S(=O)(=O)[O-])cc6F)c6nc(c(-c7c(F)cc(S(=O)(=O)[O-])cc7F)c7ccc4[nH]7)C=C6)C=C5)cc3)cc2)nc(C(C)C)n1
REMARK SMILES IDX 15 1 14 2 13 3 12 4 10 5 11 6 9 8 6 9 7 10 89 11 8 12 88 13
REMARK SMILES IDX 5 14 4 16 1 17 2 18 3 19 95 20 91 21 90 22 92 23 93 24 94 25
REMARK SMILES IDX 16 26 17 27 18 28 19 29 20 30 21 32 22 33 23 34 87 35 24 36
REMARK SMILES IDX 86 37 25 38 26 39 27 40 80 41 28 42 85 43 79 44 81 45 29 46
REMARK SMILES IDX 84 47 78 48 77 49 30 51 64 52 43 53 63 54 44 55 47 56 62 57
REMARK SMILES IDX 82 58 45 59 46 60 61 62 83 63 48 64 31 65 32 66 41 67 33 68
REMARK SMILES IDX 34 69 40 70 42 71 35 72 36 73 37 74 38 75 39 76 65 77 66 78
REMARK SMILES IDX 75 79 67 80 68 81 74 82 76 83 69 84 70 85 71 86 72 87 73 88
REMARK SMILES IDX 49 89 50 90 59 91 51 92 52 93 58 94 60 95 53 96 54 97 55 98
REMARK SMILES IDX 56 99 57 100
REMARK H PARENT 12 7 5 15 19 31 81 50 47 61
REMARK Flexibility Score: inf
ROOT
ATOM      1  C   UNL A   1      34.888  23.136  26.069  1.00  0.00     0.002 C 
ENDROOT
BRANCH   1   2
ATOM      2  C   UNL A   1      35.186  21.695  26.505  1.00  0.00     0.021 C 
BRANCH   2   3
ATOM      3  C   UNL A   1      35.316  20.724  25.329  1.00  0.00     0.116 C 
BRANCH   3   4
ATOM      4  N   UNL A   1      34.263  19.726  25.396  1.00  0.00    -0.352 N 
ATOM      5  C   UNL A   1      32.914  19.787  25.157  1.00  0.00     0.251 C 
ATOM      6  O   UNL A   1      32.255  18.757  25.311  1.00  0.00    -0.269 OA
ATOM      7  H   UNL A   1      34.578  18.833  25.665  1.00  0.00     0.163 HD
BRANCH   5   8
ATOM      8  C   UNL A   1      32.233  21.010  24.653  1.00  0.00     0.039 A 
ATOM      9  C   UNL A   1      31.198  23.392  23.562  1.00  0.00     0.040 A 
ATOM     10  C   UNL A   1      31.828  22.459  22.738  1.00  0.00     0.027 A 
ATOM     11  C   UNL A   1      30.979  23.067  24.905  1.00  0.00     0.027 A 
ATOM     12  C   UNL A   1      32.362  21.289  23.284  1.00  0.00     0.016 A 
ATOM     13  C   UNL A   1      31.471  21.874  25.443  1.00  0.00     0.016 A 
BRANCH   9  14
ATOM     14  N   UNL A   1      30.693  24.584  23.016  1.00  0.00    -0.340 N 
ATOM     15  H   UNL A   1      30.007  24.511  22.314  1.00  0.00     0.168 HD
BRANCH  14  16
ATOM     16  C   UNL A   1      31.098  25.877  23.404  1.00  0.00     0.134 A 
ATOM     17  C   UNL A   1      33.649  27.551  25.585  1.00  0.00     0.067 C 
ATOM     18  C   UNL A   1      32.494  27.296  24.666  1.00  0.00     0.043 A 
ATOM     19  C   UNL A   1      32.160  26.014  24.276  1.00  0.00     0.070 A 
ATOM     20  N   UNL A   1      31.798  28.374  24.264  1.00  0.00    -0.238 NA
ATOM     21  C   UNL A   1      30.759  28.156  23.438  1.00  0.00     0.133 A 
ATOM     22  N   UNL A   1      30.389  26.944  22.992  1.00  0.00    -0.216 NA
BRANCH  21  23
ATOM     23  C   UNL A   1      29.910  29.335  23.019  1.00  0.00     0.051 C 
ATOM     24  C   UNL A   1      28.461  28.902  22.790  1.00  0.00     0.016 C 
ATOM     25  C   UNL A   1      29.990  30.469  24.041  1.00  0.00     0.016 C 
ENDBRANCH  21  23
ENDBRANCH  14  16
ENDBRANCH   9  14
ENDBRANCH   5   8
ENDBRANCH   3   4
ENDBRANCH   2   3
ENDBRANCH   1   2
BRANCH   1  26
ATOM     26  C   UNL A   1      36.028  23.830  25.314  1.00  0.00     0.002 C 
BRANCH  26  27
ATOM     27  C   UNL A   1      37.435  23.334  25.665  1.00  0.00     0.021 C 
BRANCH  27  28
ATOM     28  C   UNL A   1      38.315  24.366  26.366  1.00  0.00     0.116 C 
BRANCH  28  29
ATOM     29  N   UNL A   1      39.727  24.135  26.107  1.00  0.00    -0.352 N 
ATOM     30  C   UNL A   1      40.820  24.838  26.547  1.00  0.00     0.251 C 
ATOM     31  H   UNL A   1      39.928  23.361  25.531  1.00  0.00     0.163 HD
ATOM     32  O   UNL A   1      41.920  24.632  26.045  1.00  0.00    -0.269 OA
BRANCH  30  33
ATOM     33  C   UNL A   1      40.670  25.848  27.618  1.00  0.00     0.039 A 
ATOM     34  C   UNL A   1      39.678  25.663  28.585  1.00  0.00     0.014 A 
ATOM     35  C   UNL A   1      41.483  26.985  27.655  1.00  0.00     0.014 A 
ATOM     36  C   UNL A   1      39.532  26.596  29.614  1.00  0.00     0.010 A 
ATOM     37  C   UNL A   1      41.382  27.878  28.718  1.00  0.00     0.010 A 
ATOM     38  C   UNL A   1      40.400  27.698  29.704  1.00  0.00    -0.014 A 
BRANCH  38  39
ATOM     39  C   UNL A   1      40.288  28.667  30.823  1.00  0.00     0.031 A 
ATOM     40  C   UNL A   1      41.177  28.545  32.031  1.00  0.00     0.074 A 
ATOM     41  C   UNL A   1      39.348  29.632  30.772  1.00  0.00     0.049 A 
ATOM     42  N   UNL A   1      41.221  29.292  33.103  1.00  0.00    -0.248 NA
ATOM     43  C   UNL A   1      42.124  27.419  32.045  1.00  0.00     0.031 C 
ATOM     44  C   UNL A   1      38.393  29.822  29.679  1.00  0.00     0.029 A 
ATOM     45  N   UNL A   1      39.043  30.633  31.658  1.00  0.00    -0.354 N 
ATOM     46  C   UNL A   1      42.184  28.720  33.927  1.00  0.00     0.074 A 
ATOM     47  C   UNL A   1      42.663  27.533  33.250  1.00  0.00     0.031 C 
ATOM     48  C   UNL A   1      37.637  30.899  29.939  1.00  0.00     0.029 A 
ATOM     49  C   UNL A   1      38.029  31.456  31.229  1.00  0.00     0.049 A 
ATOM     50  H   UNL A   1      39.507  30.751  32.518  1.00  0.00     0.167 HD
ATOM     51  C   UNL A   1      42.642  29.154  35.127  1.00  0.00     0.037 A 
ATOM     52  C   UNL A   1      37.485  32.544  31.807  1.00  0.00     0.037 A 
ATOM     53  C   UNL A   1      42.177  30.348  35.783  1.00  0.00     0.049 A 
ATOM     54  C   UNL A   1      38.014  33.013  33.134  1.00  0.00     0.074 A 
ATOM     55  C   UNL A   1      42.628  30.918  36.960  1.00  0.00     0.029 A 
ATOM     56  N   UNL A   1      41.146  31.155  35.321  1.00  0.00    -0.354 N 
ATOM     57  N   UNL A   1      38.978  32.504  33.864  1.00  0.00    -0.248 NA
ATOM     58  C   UNL A   1      37.384  34.206  33.713  1.00  0.00     0.031 C 
ATOM     59  C   UNL A   1      41.842  32.043  37.233  1.00  0.00     0.029 A 
ATOM     60  C   UNL A   1      40.929  32.201  36.203  1.00  0.00     0.049 A 
ATOM     61  H   UNL A   1      40.643  31.005  34.487  1.00  0.00     0.167 HD
ATOM     62  C   UNL A   1      39.086  33.329  34.977  1.00  0.00     0.074 A 
ATOM     63  C   UNL A   1      38.097  34.376  34.818  1.00  0.00     0.031 C 
ATOM     64  C   UNL A   1      39.932  33.231  36.034  1.00  0.00     0.037 A 
BRANCH  51  65
ATOM     65  C   UNL A   1      43.693  28.317  35.806  1.00  0.00     0.058 A 
ATOM     66  C   UNL A   1      45.064  28.539  35.599  1.00  0.00     0.135 A 
ATOM     67  C   UNL A   1      43.325  27.273  36.670  1.00  0.00     0.135 A 
ATOM     68  F   UNL A   1      45.475  29.515  34.774  1.00  0.00    -0.206 F 
ATOM     69  C   UNL A   1      46.031  27.724  36.180  1.00  0.00     0.059 A 
ATOM     70  C   UNL A   1      44.276  26.464  37.287  1.00  0.00     0.059 A 
ATOM     71  F   UNL A   1      42.029  27.019  36.909  1.00  0.00    -0.206 F 
ATOM     72  C   UNL A   1      45.625  26.682  37.016  1.00  0.00     0.060 A 
BRANCH  72  73
ATOM     73  S   UNL A   1      46.885  25.607  37.733  1.00  0.00     0.124 S 
ATOM     74  O   UNL A   1      46.082  24.467  38.167  1.00  0.00    -0.237 OA
ATOM     75  O   UNL A   1      47.773  25.361  36.601  1.00  0.00    -0.237 OA
ATOM     76  O   UNL A   1      47.453  26.419  38.805  1.00  0.00    -0.744 OA
ENDBRANCH  72  73
ENDBRANCH  51  65
BRANCH  52  77
ATOM     77  C   UNL A   1      36.416  33.296  31.100  1.00  0.00     0.058 A 
ATOM     78  C   UNL A   1      36.720  34.085  29.982  1.00  0.00     0.135 A 
ATOM     79  C   UNL A   1      35.072  33.209  31.496  1.00  0.00     0.135 A 
ATOM     80  F   UNL A   1      37.992  34.202  29.570  1.00  0.00    -0.206 F 
ATOM     81  C   UNL A   1      35.732  34.767  29.280  1.00  0.00     0.059 A 
ATOM     82  C   UNL A   1      34.063  33.865  30.798  1.00  0.00     0.059 A 
ATOM     83  F   UNL A   1      34.729  32.455  32.551  1.00  0.00    -0.206 F 
ATOM     84  C   UNL A   1      34.403  34.645  29.692  1.00  0.00     0.060 A 
BRANCH  84  85
ATOM     85  S   UNL A   1      33.120  35.473  28.728  1.00  0.00     0.124 S 
ATOM     86  O   UNL A   1      33.903  36.433  27.960  1.00  0.00    -0.237 OA
ATOM     87  O   UNL A   1      32.544  34.366  27.971  1.00  0.00    -0.237 OA
ATOM     88  O   UNL A   1      32.249  36.043  29.751  1.00  0.00    -0.744 OA
ENDBRANCH  84  85
ENDBRANCH  52  77
BRANCH  64  89
ATOM     89  C   UNL A   1      39.833  34.297  37.090  1.00  0.00     0.058 A 
ATOM     90  C   UNL A   1      39.173  34.070  38.307  1.00  0.00     0.135 A 
ATOM     91  C   UNL A   1      40.422  35.556  36.888  1.00  0.00     0.135 A 
ATOM     92  F   UNL A   1      38.587  32.887  38.548  1.00  0.00    -0.206 F 
ATOM     93  C   UNL A   1      39.070  35.066  39.275  1.00  0.00     0.059 A 
ATOM     94  C   UNL A   1      40.356  36.556  37.852  1.00  0.00     0.059 A 
ATOM     95  F   UNL A   1      41.075  35.822  35.745  1.00  0.00    -0.206 F 
ATOM     96  C   UNL A   1      39.663  36.307  39.036  1.00  0.00     0.060 A 
BRANCH  96  97
ATOM     97  S   UNL A   1      39.533  37.589  40.301  1.00  0.00     0.124 S 
ATOM     98  O   UNL A   1      40.917  38.035  40.409  1.00  0.00    -0.237 OA
ATOM     99  O   UNL A   1      38.607  38.539  39.692  1.00  0.00    -0.237 OA
ATOM    100  O   UNL A   1      39.011  36.869  41.460  1.00  0.00    -0.744 OA
ENDBRANCH  96  97
ENDBRANCH  64  89
ENDBRANCH  38  39
ENDBRANCH  30  33
ENDBRANCH  28  29
ENDBRANCH  27  28
ENDBRANCH  26  27
ENDBRANCH   1  26
TORSDOF 19
ENDMDL
MODEL 2
REMARK VINA RESULT:     -11.9      3.128      8.952
REMARK SMILES Cc1cc(Nc2ccc(C(=O)NCCCCCCNC(=O)c3ccc(-c4c5nc(c(-c6c(F)cc(S(=O)(=O)[O-])cc6F)c6ccc([nH]6)c(-c6c(F)cc(S(=O)(=O)[O-])cc6F)c6nc(c(-c7c(F)cc(S(=O)(=O)[O-])cc7F)c7ccc4[nH]7)C=C6)C=C5)cc3)cc2)nc(C(C)C)n1
REMARK SMILES IDX 15 1 14 2 13 3 12 4 10 5 11 6 9 8 6 9 7 10 89 11 8 12 88 13
REMARK SMILES IDX 5 14 4 16 1 17 2 18 3 19 95 20 91 21 90 22 92 23 93 24 94 25
REMARK SMILES IDX 16 26 17 27 18 28 19 29 20 30 21 32 22 33 23 34 87 35 24 36
REMARK SMILES IDX 86 37 25 38 26 39 27 40 80 41 28 42 85 43 79 44 81 45 29 46
REMARK SMILES IDX 84 47 78 48 77 49 30 51 64 52 43 53 63 54 44 55 47 56 62 57
REMARK SMILES IDX 82 58 45 59 46 60 61 62 83 63 48 64 31 65 32 66 41 67 33 68
REMARK SMILES IDX 34 69 40 70 42 71 35 72 36 73 37 74 38 75 39 76 65 77 66 78
REMARK SMILES IDX 75 79 67 80 68 81 74 82 76 83 69 84 70 85 71 86 72 87 73 88
REMARK SMILES IDX 49 89 50 90 59 91 51 92 52 93 58 94 60 95 53 96 54 97 55 98
REMARK SMILES IDX 56 99 57 100
REMARK H PARENT 12 7 5 15 19 31 81 50 47 61
REMARK Flexibility Score: inf
ROOT
ATOM      1  C   UNL A   1      34.930  25.026  25.525  1.00  0.00     0.002 C 
ENDROOT
BRANCH   1   2
ATOM      2  C   UNL A   1      34.879  23.522  25.224  1.00  0.00     0.021 C 
BRANCH   2   3
ATOM      3  C   UNL A   1      34.453  22.679  26.429  1.00  0.00     0.116 C 
BRANCH   3   4
ATOM      4  N   UNL A   1      33.627  21.569  25.987  1.00  0.00    -0.352 N 
ATOM      5  C   UNL A   1      32.378  21.511  25.424  1.00  0.00     0.251 C 
ATOM      6  O   UNL A   1      31.917  20.400  25.160  1.00  0.00    -0.269 OA
ATOM      7  H   UNL A   1      34.045  20.687  26.116  1.00  0.00     0.163 HD
BRANCH   5   8
ATOM      8  C   UNL A   1      31.597  22.723  25.054  1.00  0.00     0.039 A 
ATOM      9  C   UNL A   1      29.907  24.918  24.540  1.00  0.00     0.040 A 
ATOM     10  C   UNL A   1      30.223  24.568  25.853  1.00  0.00     0.027 A 
ATOM     11  C   UNL A   1      30.542  24.242  23.492  1.00  0.00     0.027 A 
ATOM     12  C   UNL A   1      31.043  23.465  26.108  1.00  0.00     0.016 A 
ATOM     13  C   UNL A   1      31.400  23.168  23.746  1.00  0.00     0.016 A 
BRANCH   9  14
ATOM     14  N   UNL A   1      29.056  26.006  24.287  1.00  0.00    -0.340 N 
ATOM     15  H   UNL A   1      28.121  25.935  24.588  1.00  0.00     0.168 HD
BRANCH  14  16
ATOM     16  C   UNL A   1      29.446  27.193  23.635  1.00  0.00     0.134 A 
ATOM     17  C   UNL A   1      32.561  29.041  22.662  1.00  0.00     0.067 C 
ATOM     18  C   UNL A   1      31.129  28.664  22.889  1.00  0.00     0.043 A 
ATOM     19  C   UNL A   1      30.792  27.469  23.492  1.00  0.00     0.070 A 
ATOM     20  N   UNL A   1      30.204  29.557  22.493  1.00  0.00    -0.238 NA
ATOM     21  C   UNL A   1      28.915  29.228  22.693  1.00  0.00     0.133 A 
ATOM     22  N   UNL A   1      28.506  28.074  23.247  1.00  0.00    -0.216 NA
BRANCH  21  23
ATOM     23  C   UNL A   1      27.848  30.234  22.324  1.00  0.00     0.051 C 
ATOM     24  C   UNL A   1      27.628  31.228  23.465  1.00  0.00     0.016 C 
ATOM     25  C   UNL A   1      28.192  30.957  21.023  1.00  0.00     0.016 C 
ENDBRANCH  21  23
ENDBRANCH  14  16
ENDBRANCH   9  14
ENDBRANCH   5   8
ENDBRANCH   3   4
ENDBRANCH   2   3
ENDBRANCH   1   2
BRANCH   1  26
ATOM     26  C   UNL A   1      33.655  25.798  25.164  1.00  0.00     0.002 C 
BRANCH  26  27
ATOM     27  C   UNL A   1      33.402  27.059  25.997  1.00  0.00     0.021 C 
BRANCH  27  28
ATOM     28  C   UNL A   1      34.439  28.164  25.806  1.00  0.00     0.116 C 
BRANCH  28  29
ATOM     29  N   UNL A   1      33.926  29.460  26.220  1.00  0.00    -0.352 N 
ATOM     30  C   UNL A   1      34.350  30.281  27.235  1.00  0.00     0.251 C 
ATOM     31  H   UNL A   1      33.164  29.798  25.695  1.00  0.00     0.163 HD
ATOM     32  O   UNL A   1      33.656  31.232  27.580  1.00  0.00    -0.269 OA
BRANCH  30  33
ATOM     33  C   UNL A   1      35.635  30.014  27.917  1.00  0.00     0.039 A 
ATOM     34  C   UNL A   1      35.616  29.543  29.233  1.00  0.00     0.014 A 
ATOM     35  C   UNL A   1      36.854  30.252  27.275  1.00  0.00     0.014 A 
ATOM     36  C   UNL A   1      36.818  29.269  29.888  1.00  0.00     0.010 A 
ATOM     37  C   UNL A   1      38.050  29.914  27.905  1.00  0.00     0.010 A 
ATOM     38  C   UNL A   1      38.044  29.427  29.221  1.00  0.00    -0.014 A 
BRANCH  38  39
ATOM     39  C   UNL A   1      39.326  29.088  29.890  1.00  0.00     0.031 A 
ATOM     40  C   UNL A   1      39.760  29.825  31.127  1.00  0.00     0.074 A 
ATOM     41  C   UNL A   1      40.124  28.144  29.351  1.00  0.00     0.049 A 
ATOM     42  N   UNL A   1      40.844  29.670  31.843  1.00  0.00    -0.248 NA
ATOM     43  C   UNL A   1      38.872  30.894  31.608  1.00  0.00     0.031 C 
ATOM     44  C   UNL A   1      39.836  27.396  28.126  1.00  0.00     0.029 A 
ATOM     45  N   UNL A   1      41.335  27.653  29.765  1.00  0.00    -0.354 N 
ATOM     46  C   UNL A   1      40.778  30.630  32.847  1.00  0.00     0.074 A 
ATOM     47  C   UNL A   1      39.571  31.396  32.616  1.00  0.00     0.031 C 
ATOM     48  C   UNL A   1      40.823  26.512  27.910  1.00  0.00     0.029 A 
ATOM     49  C   UNL A   1      41.827  26.653  28.960  1.00  0.00     0.049 A 
ATOM     50  H   UNL A   1      41.808  27.985  30.562  1.00  0.00     0.167 HD
ATOM     51  C   UNL A   1      41.632  30.842  33.877  1.00  0.00     0.037 A 
ATOM     52  C   UNL A   1      42.954  25.924  29.064  1.00  0.00     0.037 A 
ATOM     53  C   UNL A   1      42.819  30.062  34.114  1.00  0.00     0.049 A 
ATOM     54  C   UNL A   1      43.884  26.170  30.220  1.00  0.00     0.074 A 
ATOM     55  C   UNL A   1      43.709  30.143  35.170  1.00  0.00     0.029 A 
ATOM     56  N   UNL A   1      43.287  29.059  33.276  1.00  0.00    -0.354 N 
ATOM     57  N   UNL A   1      43.767  27.030  31.203  1.00  0.00    -0.248 NA
ATOM     58  C   UNL A   1      45.095  25.342  30.282  1.00  0.00     0.031 C 
ATOM     59  C   UNL A   1      44.739  29.220  34.948  1.00  0.00     0.029 A 
ATOM     60  C   UNL A   1      44.467  28.533  33.776  1.00  0.00     0.049 A 
ATOM     61  H   UNL A   1      42.844  28.765  32.446  1.00  0.00     0.167 HD
ATOM     62  C   UNL A   1      44.878  26.831  32.015  1.00  0.00     0.074 A 
ATOM     63  C   UNL A   1      45.647  25.760  31.412  1.00  0.00     0.031 C 
ATOM     64  C   UNL A   1      45.227  27.473  33.158  1.00  0.00     0.037 A 
BRANCH  51  65
ATOM     65  C   UNL A   1      41.311  31.974  34.816  1.00  0.00     0.058 A 
ATOM     66  C   UNL A   1      40.445  31.807  35.909  1.00  0.00     0.135 A 
ATOM     67  C   UNL A   1      41.871  33.247  34.617  1.00  0.00     0.135 A 
ATOM     68  F   UNL A   1      39.871  30.616  36.142  1.00  0.00    -0.206 F 
ATOM     69  C   UNL A   1      40.103  32.871  36.738  1.00  0.00     0.059 A 
ATOM     70  C   UNL A   1      41.566  34.319  35.451  1.00  0.00     0.059 A 
ATOM     71  F   UNL A   1      42.709  33.463  33.591  1.00  0.00    -0.206 F 
ATOM     72  C   UNL A   1      40.662  34.127  36.494  1.00  0.00     0.060 A 
BRANCH  72  73
ATOM     73  S   UNL A   1      40.181  35.509  37.551  1.00  0.00     0.124 S 
ATOM     74  O   UNL A   1      39.027  34.952  38.250  1.00  0.00    -0.237 OA
ATOM     75  O   UNL A   1      41.375  35.714  38.366  1.00  0.00    -0.237 OA
ATOM     76  O   UNL A   1      39.885  36.576  36.601  1.00  0.00    -0.744 OA
ENDBRANCH  72  73
ENDBRANCH  51  65
BRANCH  52  77
ATOM     77  C   UNL A   1      43.231  24.852  28.072  1.00  0.00     0.058 A 
ATOM     78  C   UNL A   1      43.928  25.139  26.890  1.00  0.00     0.135 A 
ATOM     79  C   UNL A   1      42.847  23.522  28.301  1.00  0.00     0.135 A 
ATOM     80  F   UNL A   1      44.310  26.398  26.625  1.00  0.00    -0.206 F 
ATOM     81  C   UNL A   1      44.232  24.147  25.964  1.00  0.00     0.059 A 
ATOM     82  C   UNL A   1      43.159  22.508  27.401  1.00  0.00     0.059 A 
ATOM     83  F   UNL A   1      42.191  23.195  29.425  1.00  0.00    -0.206 F 
ATOM     84  C   UNL A   1      43.849  22.831  26.233  1.00  0.00     0.060 A 
BRANCH  84  85
ATOM     85  S   UNL A   1      44.316  21.539  25.061  1.00  0.00     0.124 S 
ATOM     86  O   UNL A   1      44.234  22.250  23.791  1.00  0.00    -0.237 OA
ATOM     87  O   UNL A   1      45.660  21.189  25.511  1.00  0.00    -0.237 OA
ATOM     88  O   UNL A   1      43.304  20.510  25.276  1.00  0.00    -0.744 OA
ENDBRANCH  84  85
ENDBRANCH  52  77
BRANCH  64  89
ATOM     89  C   UNL A   1      46.488  27.019  33.840  1.00  0.00     0.058 A 
ATOM     90  C   UNL A   1      46.482  25.983  34.786  1.00  0.00     0.135 A 
ATOM     91  C   UNL A   1      47.721  27.616  33.528  1.00  0.00     0.135 A 
ATOM     92  F   UNL A   1      45.330  25.383  35.126  1.00  0.00    -0.206 F 
ATOM     93  C   UNL A   1      47.649  25.576  35.426  1.00  0.00     0.059 A 
ATOM     94  C   UNL A   1      48.904  27.206  34.134  1.00  0.00     0.059 A 
ATOM     95  F   UNL A   1      47.783  28.604  32.622  1.00  0.00    -0.206 F 
ATOM     96  C   UNL A   1      48.855  26.197  35.094  1.00  0.00     0.060 A 
BRANCH  96  97
ATOM     97  S   UNL A   1      50.366  25.656  35.923  1.00  0.00     0.124 S 
ATOM     98  O   UNL A   1      51.305  25.595  34.808  1.00  0.00    -0.237 OA
ATOM     99  O   UNL A   1      50.597  26.727  36.888  1.00  0.00    -0.237 OA
ATOM    100  O   UNL A   1      49.992  24.369  36.502  1.00  0.00    -0.744 OA
ENDBRANCH  96  97
ENDBRANCH  64  89
ENDBRANCH  38  39
ENDBRANCH  30  33
ENDBRANCH  28  29
ENDBRANCH  27  28
ENDBRANCH  26  27
ENDBRANCH   1  26
TORSDOF 19
ENDMDL
MODEL 3
REMARK VINA RESULT:     -11.8      5.456     12.557
REMARK SMILES Cc1cc(Nc2ccc(C(=O)NCCCCCCNC(=O)c3ccc(-c4c5nc(c(-c6c(F)cc(S(=O)(=O)[O-])cc6F)c6ccc([nH]6)c(-c6c(F)cc(S(=O)(=O)[O-])cc6F)c6nc(c(-c7c(F)cc(S(=O)(=O)[O-])cc7F)c7ccc4[nH]7)C=C6)C=C5)cc3)cc2)nc(C(C)C)n1
REMARK SMILES IDX 15 1 14 2 13 3 12 4 10 5 11 6 9 8 6 9 7 10 89 11 8 12 88 13
REMARK SMILES IDX 5 14 4 16 1 17 2 18 3 19 95 20 91 21 90 22 92 23 93 24 94 25
REMARK SMILES IDX 16 26 17 27 18 28 19 29 20 30 21 32 22 33 23 34 87 35 24 36
REMARK SMILES IDX 86 37 25 38 26 39 27 40 80 41 28 42 85 43 79 44 81 45 29 46
REMARK SMILES IDX 84 47 78 48 77 49 30 51 64 52 43 53 63 54 44 55 47 56 62 57
REMARK SMILES IDX 82 58 45 59 46 60 61 62 83 63 48 64 31 65 32 66 41 67 33 68
REMARK SMILES IDX 34 69 40 70 42 71 35 72 36 73 37 74 38 75 39 76 65 77 66 78
REMARK SMILES IDX 75 79 67 80 68 81 74 82 76 83 69 84 70 85 71 86 72 87 73 88
REMARK SMILES IDX 49 89 50 90 59 91 51 92 52 93 58 94 60 95 53 96 54 97 55 98
REMARK SMILES IDX 56 99 57 100
REMARK H PARENT 12 7 5 15 19 31 81 50 47 61
REMARK Flexibility Score: inf
ROOT
ATOM      1  C   UNL A   1      33.073  34.836  29.410  1.00  0.00     0.002 C 
ENDROOT
BRANCH   1   2
ATOM      2  C   UNL A   1      32.533  36.122  30.050  1.00  0.00     0.021 C 
BRANCH   2   3
ATOM      3  C   UNL A   1      33.616  37.175  30.298  1.00  0.00     0.116 C 
BRANCH   3   4
ATOM      4  N   UNL A   1      33.671  37.502  31.711  1.00  0.00    -0.352 N 
ATOM      5  C   UNL A   1      34.107  36.802  32.807  1.00  0.00     0.251 C 
ATOM      6  O   UNL A   1      34.017  37.344  33.910  1.00  0.00    -0.269 OA
ATOM      7  H   UNL A   1      33.329  38.400  31.925  1.00  0.00     0.163 HD
BRANCH   5   8
ATOM      8  C   UNL A   1      34.746  35.461  32.713  1.00  0.00     0.039 A 
ATOM      9  C   UNL A   1      35.892  32.890  32.824  1.00  0.00     0.040 A 
ATOM     10  C   UNL A   1      34.599  33.102  33.301  1.00  0.00     0.027 A 
ATOM     11  C   UNL A   1      36.554  33.941  32.180  1.00  0.00     0.027 A 
ATOM     12  C   UNL A   1      34.040  34.383  33.267  1.00  0.00     0.016 A 
ATOM     13  C   UNL A   1      35.976  35.212  32.102  1.00  0.00     0.016 A 
BRANCH   9  14
ATOM     14  N   UNL A   1      36.465  31.610  32.891  1.00  0.00    -0.340 N 
ATOM     15  H   UNL A   1      35.945  30.856  32.527  1.00  0.00     0.168 HD
BRANCH  14  16
ATOM     16  C   UNL A   1      37.732  31.326  33.440  1.00  0.00     0.134 A 
ATOM     17  C   UNL A   1      40.407  28.703  33.277  1.00  0.00     0.067 C 
ATOM     18  C   UNL A   1      39.604  29.911  33.651  1.00  0.00     0.043 A 
ATOM     19  C   UNL A   1      38.388  30.174  33.054  1.00  0.00     0.070 A 
ATOM     20  N   UNL A   1      40.124  30.704  34.605  1.00  0.00    -0.238 NA
ATOM     21  C   UNL A   1      39.411  31.792  34.948  1.00  0.00     0.133 A 
ATOM     22  N   UNL A   1      38.234  32.131  34.394  1.00  0.00    -0.216 NA
BRANCH  21  23
ATOM     23  C   UNL A   1      39.928  32.672  36.064  1.00  0.00     0.051 C 
ATOM     24  C   UNL A   1      41.079  31.987  36.800  1.00  0.00     0.016 C 
ATOM     25  C   UNL A   1      40.349  34.044  35.541  1.00  0.00     0.016 C 
ENDBRANCH  21  23
ENDBRANCH  14  16
ENDBRANCH   9  14
ENDBRANCH   5   8
ENDBRANCH   3   4
ENDBRANCH   2   3
ENDBRANCH   1   2
BRANCH   1  26
ATOM     26  C   UNL A   1      34.397  35.001  28.652  1.00  0.00     0.002 C 
BRANCH  26  27
ATOM     27  C   UNL A   1      35.074  33.691  28.237  1.00  0.00     0.021 C 
BRANCH  27  28
ATOM     28  C   UNL A   1      34.837  32.524  29.191  1.00  0.00     0.116 C 
BRANCH  28  29
ATOM     29  N   UNL A   1      34.135  31.429  28.540  1.00  0.00    -0.352 N 
ATOM     30  C   UNL A   1      34.634  30.261  28.020  1.00  0.00     0.251 C 
ATOM     31  H   UNL A   1      33.160  31.542  28.460  1.00  0.00     0.163 HD
ATOM     32  O   UNL A   1      33.924  29.558  27.308  1.00  0.00    -0.269 OA
BRANCH  30  33
ATOM     33  C   UNL A   1      36.028  29.856  28.309  1.00  0.00     0.039 A 
ATOM     34  C   UNL A   1      36.994  30.002  27.310  1.00  0.00     0.014 A 
ATOM     35  C   UNL A   1      36.376  29.310  29.548  1.00  0.00     0.014 A 
ATOM     36  C   UNL A   1      38.318  29.641  27.569  1.00  0.00     0.010 A 
ATOM     37  C   UNL A   1      37.708  29.015  29.828  1.00  0.00     0.010 A 
ATOM     38  C   UNL A   1      38.691  29.169  28.839  1.00  0.00    -0.014 A 
BRANCH  38  39
ATOM     39  C   UNL A   1      40.105  28.833  29.142  1.00  0.00     0.031 A 
ATOM     40  C   UNL A   1      40.991  29.824  29.847  1.00  0.00     0.074 A 
ATOM     41  C   UNL A   1      40.606  27.649  28.736  1.00  0.00     0.049 A 
ATOM     42  N   UNL A   1      42.248  29.709  30.191  1.00  0.00    -0.248 NA
ATOM     43  C   UNL A   1      40.392  31.123  30.188  1.00  0.00     0.031 C 
ATOM     44  C   UNL A   1      39.862  26.627  27.999  1.00  0.00     0.029 A 
ATOM     45  N   UNL A   1      41.856  27.106  28.887  1.00  0.00    -0.354 N 
ATOM     46  C   UNL A   1      42.596  30.924  30.772  1.00  0.00     0.074 A 
ATOM     47  C   UNL A   1      41.430  31.778  30.687  1.00  0.00     0.031 C 
ATOM     48  C   UNL A   1      40.657  25.564  27.798  1.00  0.00     0.029 A 
ATOM     49  C   UNL A   1      41.973  25.842  28.362  1.00  0.00     0.049 A 
ATOM     50  H   UNL A   1      42.598  27.578  29.330  1.00  0.00     0.167 HD
ATOM     51  C   UNL A   1      43.771  31.288  31.341  1.00  0.00     0.037 A 
ATOM     52  C   UNL A   1      43.022  24.996  28.347  1.00  0.00     0.037 A 
ATOM     53  C   UNL A   1      44.919  30.424  31.443  1.00  0.00     0.049 A 
ATOM     54  C   UNL A   1      44.313  25.417  28.992  1.00  0.00     0.074 A 
ATOM     55  C   UNL A   1      46.128  30.667  32.068  1.00  0.00     0.029 A 
ATOM     56  N   UNL A   1      45.002  29.151  30.896  1.00  0.00    -0.354 N 
ATOM     57  N   UNL A   1      44.601  26.540  29.605  1.00  0.00    -0.248 NA
ATOM     58  C   UNL A   1      45.419  24.452  28.948  1.00  0.00     0.031 C 
ATOM     59  C   UNL A   1      46.959  29.558  31.862  1.00  0.00     0.029 A 
ATOM     60  C   UNL A   1      46.251  28.606  31.147  1.00  0.00     0.049 A 
ATOM     61  H   UNL A   1      44.278  28.700  30.403  1.00  0.00     0.167 HD
ATOM     62  C   UNL A   1      45.915  26.409  30.040  1.00  0.00     0.074 A 
ATOM     63  C   UNL A   1      46.359  25.091  29.631  1.00  0.00     0.031 C 
ATOM     64  C   UNL A   1      46.682  27.297  30.722  1.00  0.00     0.037 A 
BRANCH  51  65
ATOM     65  C   UNL A   1      43.867  32.688  31.886  1.00  0.00     0.058 A 
ATOM     66  C   UNL A   1      43.594  32.979  33.233  1.00  0.00     0.135 A 
ATOM     67  C   UNL A   1      44.231  33.755  31.049  1.00  0.00     0.135 A 
ATOM     68  F   UNL A   1      43.230  32.000  34.077  1.00  0.00    -0.206 F 
ATOM     69  C   UNL A   1      43.624  34.283  33.718  1.00  0.00     0.059 A 
ATOM     70  C   UNL A   1      44.298  35.064  31.520  1.00  0.00     0.059 A 
ATOM     71  F   UNL A   1      44.508  33.535  29.755  1.00  0.00    -0.206 F 
ATOM     72  C   UNL A   1      43.968  35.320  32.849  1.00  0.00     0.060 A 
BRANCH  72  73
ATOM     73  S   UNL A   1      43.967  37.012  33.479  1.00  0.00     0.124 S 
ATOM     74  O   UNL A   1      44.889  36.903  34.606  1.00  0.00    -0.237 OA
ATOM     75  O   UNL A   1      44.455  37.776  32.334  1.00  0.00    -0.237 OA
ATOM     76  O   UNL A   1      42.570  37.242  33.832  1.00  0.00    -0.744 OA
ENDBRANCH  72  73
ENDBRANCH  51  65
BRANCH  52  77
ATOM     77  C   UNL A   1      42.869  23.645  27.748  1.00  0.00     0.058 A 
ATOM     78  C   UNL A   1      42.493  22.552  28.543  1.00  0.00     0.135 A 
ATOM     79  C   UNL A   1      43.052  23.425  26.374  1.00  0.00     0.135 A 
ATOM     80  F   UNL A   1      42.313  22.713  29.863  1.00  0.00    -0.206 F 
ATOM     81  C   UNL A   1      42.306  21.286  27.999  1.00  0.00     0.059 A 
ATOM     82  C   UNL A   1      42.850  22.172  25.803  1.00  0.00     0.059 A 
ATOM     83  F   UNL A   1      43.397  24.442  25.570  1.00  0.00    -0.206 F 
ATOM     84  C   UNL A   1      42.481  21.108  26.625  1.00  0.00     0.060 A 
BRANCH  84  85
ATOM     85  S   UNL A   1      42.161  19.476  25.919  1.00  0.00     0.124 S 
ATOM     86  O   UNL A   1      42.552  18.599  27.016  1.00  0.00    -0.237 OA
ATOM     87  O   UNL A   1      40.732  19.542  25.632  1.00  0.00    -0.237 OA
ATOM     88  O   UNL A   1      43.027  19.445  24.744  1.00  0.00    -0.744 OA
ENDBRANCH  84  85
ENDBRANCH  52  77
BRANCH  64  89
ATOM     89  C   UNL A   1      48.076  26.860  31.082  1.00  0.00     0.058 A 
ATOM     90  C   UNL A   1      48.348  26.178  32.278  1.00  0.00     0.135 A 
ATOM     91  C   UNL A   1      49.148  27.113  30.211  1.00  0.00     0.135 A 
ATOM     92  F   UNL A   1      47.361  25.918  33.149  1.00  0.00    -0.206 F 
ATOM     93  C   UNL A   1      49.642  25.790  32.614  1.00  0.00     0.059 A 
ATOM     94  C   UNL A   1      50.445  26.709  30.514  1.00  0.00     0.059 A 
ATOM     95  F   UNL A   1      48.940  27.753  29.050  1.00  0.00    -0.206 F 
ATOM     96  C   UNL A   1      50.684  26.063  31.726  1.00  0.00     0.060 A 
BRANCH  96  97
ATOM     97  S   UNL A   1      52.358  25.547  32.167  1.00  0.00     0.124 S 
ATOM     98  O   UNL A   1      53.108  25.945  30.981  1.00  0.00    -0.237 OA
ATOM     99  O   UNL A   1      52.620  26.327  33.373  1.00  0.00    -0.237 OA
ATOM    100  O   UNL A   1      52.224  24.108  32.375  1.00  0.00    -0.744 OA
ENDBRANCH  96  97
ENDBRANCH  64  89
ENDBRANCH  38  39
ENDBRANCH  30  33
ENDBRANCH  28  29
ENDBRANCH  27  28
ENDBRANCH  26  27
ENDBRANCH   1  26
TORSDOF 19
ENDMDL
