MODEL 1
REMARK VINA RESULT:     -14.9      0.000      0.000
REMARK SMILES Cc1ccc(-c2cc(C(=O)NCCCCCCNC(=O)c3ccc(-c4c5nc(c(-c6c(F)cc(S(=O)(=O)[O-])cc6F)c6ccc([nH]6)c(-c6c(F)cc(S(=O)(=O)[O-])cc6F)c6nc(c(-c7c(F)cc(S(=O)(=O)[O-])cc7F)c7ccc4[nH]7)C=C6)C=C5)cc3)c3c(-c4cccc([N+](=O)[O-])c4)[nH]nc3n2)cc1
REMARK SMILES IDX 15 1 14 2 13 3 12 4 11 5 9 6 10 7 8 9 6 10 7 11 101 12
REMARK SMILES IDX 100 13 87 14 99 15 88 16 98 17 5 19 1 20 2 21 3 22 103 23
REMARK SMILES IDX 4 24 102 25 89 26 90 27 97 28 91 29 93 30 92 31 94 32 95 33
REMARK SMILES IDX 96 34 16 35 17 36 18 37 19 38 20 40 21 41 22 42 86 43 23 44
REMARK SMILES IDX 85 45 24 46 25 47 26 48 79 49 27 50 84 51 78 52 80 53 28 54
REMARK SMILES IDX 83 55 77 56 76 57 29 59 63 60 42 61 62 62 43 63 46 64 61 65
REMARK SMILES IDX 81 66 44 67 45 68 60 70 82 71 47 72 30 73 31 74 40 75 32 76
REMARK SMILES IDX 33 77 39 78 41 79 34 80 35 81 36 82 37 83 38 84 64 85 65 86
REMARK SMILES IDX 74 87 66 88 67 89 73 90 75 91 68 92 69 93 70 94 71 95 72 96
REMARK SMILES IDX 48 97 49 98 58 99 50 100 51 101 57 102 59 103 52 104 53 105
REMARK SMILES IDX 54 106 55 107 56 108
REMARK H PARENT 11 8 98 18 18 39 80 58 46 69
REMARK Flexibility Score: inf
ROOT
ATOM      1  C   UNL A   1      32.453  29.189  26.049  1.00  0.00     0.002 C 
ENDROOT
BRANCH   1   2
ATOM      2  C   UNL A   1      33.397  28.593  24.991  1.00  0.00     0.002 C 
BRANCH   2   3
ATOM      3  C   UNL A   1      33.309  29.189  23.577  1.00  0.00     0.021 C 
BRANCH   3   4
ATOM      4  C   UNL A   1      33.981  28.350  22.490  1.00  0.00     0.116 C 
BRANCH   4   5
ATOM      5  N   UNL A   1      33.057  27.408  21.890  1.00  0.00    -0.352 N 
ATOM      6  C   UNL A   1      32.414  26.266  22.279  1.00  0.00     0.252 C 
ATOM      7  O   UNL A   1      31.519  25.929  21.509  1.00  0.00    -0.269 OA
ATOM      8  H   UNL A   1      32.835  27.655  20.963  1.00  0.00     0.163 HD
BRANCH   6   9
ATOM      9  C   UNL A   1      32.679  25.505  23.529  1.00  0.00     0.055 A 
ATOM     10  C   UNL A   1      34.163  24.107  24.958  1.00  0.00     0.074 A 
ATOM     11  C   UNL A   1      33.767  24.640  23.702  1.00  0.00     0.043 A 
ATOM     12  N   UNL A   1      33.487  24.240  26.126  1.00  0.00    -0.226 NA
ATOM     13  C   UNL A   1      32.342  24.951  25.985  1.00  0.00     0.182 A 
ATOM     14  C   UNL A   1      31.943  25.563  24.736  1.00  0.00     0.059 A 
ATOM     15  N   UNL A   1      31.470  25.192  26.964  1.00  0.00    -0.154 NA
ATOM     16  C   UNL A   1      30.713  26.142  25.025  1.00  0.00     0.076 A 
ATOM     17  N   UNL A   1      30.505  25.893  26.360  1.00  0.00    -0.275 N 
ATOM     18  H   UNL A   1      29.703  26.208  26.837  1.00  0.00     0.190 HD
BRANCH  10  19
ATOM     19  C   UNL A   1      35.471  23.436  25.038  1.00  0.00     0.000 A 
ATOM     20  C   UNL A   1      39.101  21.172  25.667  1.00  0.00     0.044 C 
ATOM     21  C   UNL A   1      37.861  21.971  25.400  1.00  0.00    -0.051 A 
ATOM     22  C   UNL A   1      37.736  23.273  25.903  1.00  0.00     0.004 A 
ATOM     23  C   UNL A   1      36.803  21.421  24.673  1.00  0.00     0.004 A 
ATOM     24  C   UNL A   1      36.555  24.002  25.717  1.00  0.00     0.010 A 
ATOM     25  C   UNL A   1      35.625  22.147  24.492  1.00  0.00     0.010 A 
ENDBRANCH  10  19
BRANCH  16  26
ATOM     26  C   UNL A   1      29.693  26.822  24.241  1.00  0.00     0.007 A 
ATOM     27  C   UNL A   1      28.370  26.356  24.251  1.00  0.00     0.011 A 
ATOM     28  C   UNL A   1      30.009  28.002  23.553  1.00  0.00     0.096 A 
ATOM     29  C   UNL A   1      27.356  27.091  23.630  1.00  0.00     0.008 A 
ATOM     30  C   UNL A   1      28.981  28.751  22.968  1.00  0.00     0.270 A 
ATOM     31  C   UNL A   1      27.655  28.299  23.001  1.00  0.00     0.085 A 
BRANCH  30  32
ATOM     32  N   UNL A   1      29.290  30.052  22.364  1.00  0.00     0.062 N 
ATOM     33  O   UNL A   1      28.952  31.071  22.985  1.00  0.00    -0.258 OA
ATOM     34  O   UNL A   1      29.841  30.058  21.253  1.00  0.00    -0.258 OA
ENDBRANCH  30  32
ENDBRANCH  16  26
ENDBRANCH   6   9
ENDBRANCH   4   5
ENDBRANCH   3   4
ENDBRANCH   2   3
ENDBRANCH   1   2
BRANCH   1  35
ATOM     35  C   UNL A   1      33.109  29.974  27.186  1.00  0.00     0.021 C 
BRANCH  35  36
ATOM     36  C   UNL A   1      34.613  29.760  27.285  1.00  0.00     0.116 C 
BRANCH  36  37
ATOM     37  N   UNL A   1      35.329  30.987  27.593  1.00  0.00    -0.352 N 
ATOM     38  C   UNL A   1      36.479  31.121  28.358  1.00  0.00     0.251 C 
ATOM     39  H   UNL A   1      34.956  31.816  27.217  1.00  0.00     0.163 HD
ATOM     40  O   UNL A   1      36.825  32.172  28.844  1.00  0.00    -0.269 OA
BRANCH  38  41
ATOM     41  C   UNL A   1      37.353  29.929  28.409  1.00  0.00     0.039 A 
ATOM     42  C   UNL A   1      37.398  29.230  29.622  1.00  0.00     0.014 A 
ATOM     43  C   UNL A   1      38.290  29.705  27.408  1.00  0.00     0.014 A 
ATOM     44  C   UNL A   1      38.483  28.401  29.895  1.00  0.00     0.010 A 
ATOM     45  C   UNL A   1      39.402  28.946  27.714  1.00  0.00     0.010 A 
ATOM     46  C   UNL A   1      39.519  28.322  28.968  1.00  0.00    -0.014 A 
BRANCH  46  47
ATOM     47  C   UNL A   1      40.800  27.671  29.227  1.00  0.00     0.031 A 
ATOM     48  C   UNL A   1      41.028  26.273  28.782  1.00  0.00     0.074 A 
ATOM     49  C   UNL A   1      41.830  28.386  29.728  1.00  0.00     0.049 A 
ATOM     50  N   UNL A   1      42.025  25.537  29.146  1.00  0.00    -0.248 NA
ATOM     51  C   UNL A   1      40.100  25.575  27.900  1.00  0.00     0.031 C 
ATOM     52  C   UNL A   1      43.250  28.064  29.624  1.00  0.00     0.029 A 
ATOM     53  N   UNL A   1      41.786  29.465  30.607  1.00  0.00    -0.354 N 
ATOM     54  C   UNL A   1      42.031  24.408  28.355  1.00  0.00     0.074 A 
ATOM     55  C   UNL A   1      40.781  24.458  27.633  1.00  0.00     0.031 C 
ATOM     56  C   UNL A   1      43.928  28.756  30.550  1.00  0.00     0.029 A 
ATOM     57  C   UNL A   1      42.949  29.412  31.398  1.00  0.00     0.049 A 
ATOM     58  H   UNL A   1      41.072  30.141  30.666  1.00  0.00     0.167 HD
ATOM     59  C   UNL A   1      43.151  23.628  28.304  1.00  0.00     0.037 A 
ATOM     60  C   UNL A   1      42.885  29.257  32.755  1.00  0.00     0.037 A 
ATOM     61  C   UNL A   1      44.162  24.090  29.254  1.00  0.00     0.049 A 
ATOM     62  C   UNL A   1      43.562  28.008  33.271  1.00  0.00     0.074 A 
ATOM     63  C   UNL A   1      45.283  24.893  29.116  1.00  0.00     0.029 A 
ATOM     64  N   UNL A   1      43.931  23.971  30.620  1.00  0.00    -0.354 N 
ATOM     65  N   UNL A   1      43.883  26.986  32.526  1.00  0.00    -0.248 NA
ATOM     66  C   UNL A   1      43.917  27.801  34.674  1.00  0.00     0.031 C 
ATOM     67  C   UNL A   1      45.698  25.298  30.408  1.00  0.00     0.029 A 
ATOM     68  C   UNL A   1      44.838  24.732  31.333  1.00  0.00     0.049 A 
ATOM     69  H   UNL A   1      43.221  23.420  31.023  1.00  0.00     0.167 HD
ATOM     70  C   UNL A   1      44.427  25.997  33.305  1.00  0.00     0.074 A 
ATOM     71  C   UNL A   1      44.458  26.571  34.638  1.00  0.00     0.031 C 
ATOM     72  C   UNL A   1      44.790  24.787  32.786  1.00  0.00     0.037 A 
BRANCH  59  73
ATOM     73  C   UNL A   1      43.439  22.647  27.180  1.00  0.00     0.058 A 
ATOM     74  C   UNL A   1      42.726  21.431  27.081  1.00  0.00     0.135 A 
ATOM     75  C   UNL A   1      44.451  22.808  26.215  1.00  0.00     0.135 A 
ATOM     76  F   UNL A   1      41.658  21.176  27.847  1.00  0.00    -0.206 F 
ATOM     77  C   UNL A   1      43.079  20.409  26.197  1.00  0.00     0.059 A 
ATOM     78  C   UNL A   1      44.864  21.779  25.361  1.00  0.00     0.059 A 
ATOM     79  F   UNL A   1      45.050  23.992  26.028  1.00  0.00    -0.206 F 
ATOM     80  C   UNL A   1      44.181  20.572  25.371  1.00  0.00     0.060 A 
BRANCH  80  81
ATOM     81  S   UNL A   1      44.697  19.198  24.325  1.00  0.00     0.124 S 
ATOM     82  O   UNL A   1      44.511  19.744  22.983  1.00  0.00    -0.237 OA
ATOM     83  O   UNL A   1      46.080  18.999  24.744  1.00  0.00    -0.237 OA
ATOM     84  O   UNL A   1      43.771  18.129  24.688  1.00  0.00    -0.744 OA
ENDBRANCH  80  81
ENDBRANCH  59  73
BRANCH  60  85
ATOM     85  C   UNL A   1      41.687  29.899  33.360  1.00  0.00     0.058 A 
ATOM     86  C   UNL A   1      41.711  31.298  33.512  1.00  0.00     0.135 A 
ATOM     87  C   UNL A   1      40.436  29.268  33.325  1.00  0.00     0.135 A 
ATOM     88  F   UNL A   1      42.888  31.945  33.576  1.00  0.00    -0.206 F 
ATOM     89  C   UNL A   1      40.552  32.059  33.439  1.00  0.00     0.059 A 
ATOM     90  C   UNL A   1      39.256  30.013  33.261  1.00  0.00     0.059 A 
ATOM     91  F   UNL A   1      40.352  27.937  33.195  1.00  0.00    -0.206 F 
ATOM     92  C   UNL A   1      39.337  31.407  33.235  1.00  0.00     0.060 A 
BRANCH  92  93
ATOM     93  S   UNL A   1      37.918  32.410  32.735  1.00  0.00     0.124 S 
ATOM     94  O   UNL A   1      37.505  33.008  33.999  1.00  0.00    -0.237 OA
ATOM     95  O   UNL A   1      38.529  33.327  31.773  1.00  0.00    -0.237 OA
ATOM     96  O   UNL A   1      36.997  31.433  32.167  1.00  0.00    -0.744 OA
ENDBRANCH  92  93
ENDBRANCH  60  85
BRANCH  72  97
ATOM     97  C   UNL A   1      45.217  23.569  33.576  1.00  0.00     0.058 A 
ATOM     98  C   UNL A   1      46.514  23.369  34.076  1.00  0.00     0.135 A 
ATOM     99  C   UNL A   1      44.258  22.606  33.977  1.00  0.00     0.135 A 
ATOM    100  F   UNL A   1      47.488  24.267  33.868  1.00  0.00    -0.206 F 
ATOM    101  C   UNL A   1      46.856  22.262  34.857  1.00  0.00     0.059 A 
ATOM    102  C   UNL A   1      44.564  21.524  34.800  1.00  0.00     0.059 A 
ATOM    103  F   UNL A   1      42.976  22.691  33.590  1.00  0.00    -0.206 F 
ATOM    104  C   UNL A   1      45.875  21.343  35.214  1.00  0.00     0.060 A 
BRANCH 104 105
ATOM    105  S   UNL A   1      46.284  19.947  36.280  1.00  0.00     0.124 S 
ATOM    106  O   UNL A   1      45.654  20.344  37.535  1.00  0.00    -0.237 OA
ATOM    107  O   UNL A   1      45.663  18.817  35.595  1.00  0.00    -0.237 OA
ATOM    108  O   UNL A   1      47.744  19.947  36.274  1.00  0.00    -0.744 OA
ENDBRANCH 104 105
ENDBRANCH  72  97
ENDBRANCH  46  47
ENDBRANCH  38  41
ENDBRANCH  36  37
ENDBRANCH  35  36
ENDBRANCH   1  35
TORSDOF 19
ENDMDL
MODEL 2
REMARK VINA RESULT:     -14.5      1.737      4.668
REMARK SMILES Cc1ccc(-c2cc(C(=O)NCCCCCCNC(=O)c3ccc(-c4c5nc(c(-c6c(F)cc(S(=O)(=O)[O-])cc6F)c6ccc([nH]6)c(-c6c(F)cc(S(=O)(=O)[O-])cc6F)c6nc(c(-c7c(F)cc(S(=O)(=O)[O-])cc7F)c7ccc4[nH]7)C=C6)C=C5)cc3)c3c(-c4cccc([N+](=O)[O-])c4)[nH]nc3n2)cc1
REMARK SMILES IDX 15 1 14 2 13 3 12 4 11 5 9 6 10 7 8 9 6 10 7 11 101 12
REMARK SMILES IDX 100 13 87 14 99 15 88 16 98 17 5 19 1 20 2 21 3 22 103 23
REMARK SMILES IDX 4 24 102 25 89 26 90 27 97 28 91 29 93 30 92 31 94 32 95 33
REMARK SMILES IDX 96 34 16 35 17 36 18 37 19 38 20 40 21 41 22 42 86 43 23 44
REMARK SMILES IDX 85 45 24 46 25 47 26 48 79 49 27 50 84 51 78 52 80 53 28 54
REMARK SMILES IDX 83 55 77 56 76 57 29 59 63 60 42 61 62 62 43 63 46 64 61 65
REMARK SMILES IDX 81 66 44 67 45 68 60 70 82 71 47 72 30 73 31 74 40 75 32 76
REMARK SMILES IDX 33 77 39 78 41 79 34 80 35 81 36 82 37 83 38 84 64 85 65 86
REMARK SMILES IDX 74 87 66 88 67 89 73 90 75 91 68 92 69 93 70 94 71 95 72 96
REMARK SMILES IDX 48 97 49 98 58 99 50 100 51 101 57 102 59 103 52 104 53 105
REMARK SMILES IDX 54 106 55 107 56 108
REMARK H PARENT 11 8 98 18 18 39 80 58 46 69
REMARK Flexibility Score: inf
ROOT
ATOM      1  C   UNL A   1      32.749  28.313  25.583  1.00  0.00     0.002 C 
ENDROOT
BRANCH   1   2
ATOM      2  C   UNL A   1      33.185  27.129  26.461  1.00  0.00     0.002 C 
BRANCH   2   3
ATOM      3  C   UNL A   1      33.769  25.909  25.731  1.00  0.00     0.021 C 
BRANCH   3   4
ATOM      4  C   UNL A   1      33.630  24.587  26.486  1.00  0.00     0.116 C 
BRANCH   4   5
ATOM      5  N   UNL A   1      32.257  24.123  26.508  1.00  0.00    -0.352 N 
ATOM      6  C   UNL A   1      31.208  24.090  25.632  1.00  0.00     0.252 C 
ATOM      7  O   UNL A   1      30.288  23.369  26.006  1.00  0.00    -0.269 OA
ATOM      8  H   UNL A   1      32.018  23.730  27.378  1.00  0.00     0.163 HD
BRANCH   6   9
ATOM      9  C   UNL A   1      31.156  24.779  24.315  1.00  0.00     0.055 A 
ATOM     10  C   UNL A   1      30.438  26.679  22.874  1.00  0.00     0.074 A 
ATOM     11  C   UNL A   1      30.319  25.867  24.034  1.00  0.00     0.043 A 
ATOM     12  N   UNL A   1      31.268  26.450  21.827  1.00  0.00    -0.226 NA
ATOM     13  C   UNL A   1      32.002  25.322  21.982  1.00  0.00     0.182 A 
ATOM     14  C   UNL A   1      31.954  24.509  23.178  1.00  0.00     0.059 A 
ATOM     15  N   UNL A   1      32.863  24.843  21.084  1.00  0.00    -0.154 NA
ATOM     16  C   UNL A   1      32.812  23.452  22.899  1.00  0.00     0.076 A 
ATOM     17  N   UNL A   1      33.320  23.723  21.652  1.00  0.00    -0.275 N 
ATOM     18  H   UNL A   1      33.974  23.135  21.208  1.00  0.00     0.190 HD
BRANCH  10  19
ATOM     19  C   UNL A   1      29.677  27.938  22.836  1.00  0.00     0.000 A 
ATOM     20  C   UNL A   1      27.648  31.739  23.204  1.00  0.00     0.044 C 
ATOM     21  C   UNL A   1      28.344  30.423  23.022  1.00  0.00    -0.051 A 
ATOM     22  C   UNL A   1      27.656  29.223  23.250  1.00  0.00     0.004 A 
ATOM     23  C   UNL A   1      29.690  30.374  22.654  1.00  0.00     0.004 A 
ATOM     24  C   UNL A   1      28.315  27.991  23.150  1.00  0.00     0.010 A 
ATOM     25  C   UNL A   1      30.345  29.146  22.559  1.00  0.00     0.010 A 
ENDBRANCH  10  19
BRANCH  16  26
ATOM     26  C   UNL A   1      33.170  22.217  23.581  1.00  0.00     0.007 A 
ATOM     27  C   UNL A   1      32.300  21.117  23.551  1.00  0.00     0.011 A 
ATOM     28  C   UNL A   1      34.428  22.091  24.187  1.00  0.00     0.096 A 
ATOM     29  C   UNL A   1      32.701  19.882  24.066  1.00  0.00     0.008 A 
ATOM     30  C   UNL A   1      34.837  20.840  24.664  1.00  0.00     0.270 A 
ATOM     31  C   UNL A   1      33.977  19.734  24.610  1.00  0.00     0.085 A 
BRANCH  30  32
ATOM     32  N   UNL A   1      36.202  20.673  25.176  1.00  0.00     0.062 N 
ATOM     33  O   UNL A   1      36.713  21.631  25.776  1.00  0.00    -0.258 OA
ATOM     34  O   UNL A   1      36.776  19.598  24.954  1.00  0.00    -0.258 OA
ENDBRANCH  30  32
ENDBRANCH  16  26
ENDBRANCH   6   9
ENDBRANCH   4   5
ENDBRANCH   3   4
ENDBRANCH   2   3
ENDBRANCH   1   2
BRANCH   1  35
ATOM     35  C   UNL A   1      33.250  29.696  26.001  1.00  0.00     0.021 C 
BRANCH  35  36
ATOM     36  C   UNL A   1      34.233  29.661  27.164  1.00  0.00     0.116 C 
BRANCH  36  37
ATOM     37  N   UNL A   1      34.946  30.917  27.326  1.00  0.00    -0.352 N 
ATOM     38  C   UNL A   1      36.132  31.130  28.014  1.00  0.00     0.251 C 
ATOM     39  H   UNL A   1      34.540  31.707  26.900  1.00  0.00     0.163 HD
ATOM     40  O   UNL A   1      36.486  32.223  28.388  1.00  0.00    -0.269 OA
BRANCH  38  41
ATOM     41  C   UNL A   1      37.025  29.957  28.121  1.00  0.00     0.039 A 
ATOM     42  C   UNL A   1      37.076  29.314  29.365  1.00  0.00     0.014 A 
ATOM     43  C   UNL A   1      37.969  29.703  27.134  1.00  0.00     0.014 A 
ATOM     44  C   UNL A   1      38.174  28.516  29.679  1.00  0.00     0.010 A 
ATOM     45  C   UNL A   1      39.093  28.977  27.478  1.00  0.00     0.010 A 
ATOM     46  C   UNL A   1      39.215  28.412  28.760  1.00  0.00    -0.014 A 
BRANCH  46  47
ATOM     47  C   UNL A   1      40.505  27.795  29.052  1.00  0.00     0.031 A 
ATOM     48  C   UNL A   1      40.763  26.387  28.660  1.00  0.00     0.074 A 
ATOM     49  C   UNL A   1      41.518  28.546  29.536  1.00  0.00     0.049 A 
ATOM     50  N   UNL A   1      41.770  25.683  29.058  1.00  0.00    -0.248 NA
ATOM     51  C   UNL A   1      39.855  25.641  27.796  1.00  0.00     0.031 C 
ATOM     52  C   UNL A   1      42.944  28.247  29.455  1.00  0.00     0.029 A 
ATOM     53  N   UNL A   1      41.446  29.655  30.375  1.00  0.00    -0.354 N 
ATOM     54  C   UNL A   1      41.804  24.527  28.308  1.00  0.00     0.074 A 
ATOM     55  C   UNL A   1      40.559  24.527  27.574  1.00  0.00     0.031 C 
ATOM     56  C   UNL A   1      43.600  28.985  30.361  1.00  0.00     0.029 A 
ATOM     57  C   UNL A   1      42.602  29.652  31.177  1.00  0.00     0.049 A 
ATOM     58  H   UNL A   1      40.719  30.319  30.404  1.00  0.00     0.167 HD
ATOM     59  C   UNL A   1      42.938  23.767  28.294  1.00  0.00     0.037 A 
ATOM     60  C   UNL A   1      42.529  29.544  32.538  1.00  0.00     0.037 A 
ATOM     61  C   UNL A   1      43.932  24.281  29.235  1.00  0.00     0.049 A 
ATOM     62  C   UNL A   1      43.225  28.328  33.104  1.00  0.00     0.074 A 
ATOM     63  C   UNL A   1      45.039  25.100  29.077  1.00  0.00     0.029 A 
ATOM     64  N   UNL A   1      43.692  24.206  30.602  1.00  0.00    -0.354 N 
ATOM     65  N   UNL A   1      43.571  27.286  32.398  1.00  0.00    -0.248 NA
ATOM     66  C   UNL A   1      43.571  28.178  34.516  1.00  0.00     0.031 C 
ATOM     67  C   UNL A   1      45.436  25.558  30.357  1.00  0.00     0.029 A 
ATOM     68  C   UNL A   1      44.578  25.009  31.294  1.00  0.00     0.049 A 
ATOM     69  H   UNL A   1      42.988  23.657  31.019  1.00  0.00     0.167 HD
ATOM     70  C   UNL A   1      44.126  26.336  33.216  1.00  0.00     0.074 A 
ATOM     71  C   UNL A   1      44.135  26.957  34.528  1.00  0.00     0.031 C 
ATOM     72  C   UNL A   1      44.516  25.115  32.745  1.00  0.00     0.037 A 
BRANCH  59  73
ATOM     73  C   UNL A   1      43.253  22.752  27.208  1.00  0.00     0.058 A 
ATOM     74  C   UNL A   1      42.553  21.527  27.138  1.00  0.00     0.135 A 
ATOM     75  C   UNL A   1      44.281  22.890  26.255  1.00  0.00     0.135 A 
ATOM     76  F   UNL A   1      41.475  21.286  27.894  1.00  0.00    -0.206 F 
ATOM     77  C   UNL A   1      42.931  20.478  26.295  1.00  0.00     0.059 A 
ATOM     78  C   UNL A   1      44.717  21.837  25.443  1.00  0.00     0.059 A 
ATOM     79  F   UNL A   1      44.872  24.073  26.039  1.00  0.00    -0.206 F 
ATOM     80  C   UNL A   1      44.045  20.625  25.482  1.00  0.00     0.060 A 
BRANCH  80  81
ATOM     81  S   UNL A   1      44.591  19.222  24.491  1.00  0.00     0.124 S 
ATOM     82  O   UNL A   1      43.590  18.208  24.813  1.00  0.00    -0.237 OA
ATOM     83  O   UNL A   1      44.533  19.763  23.137  1.00  0.00    -0.237 OA
ATOM     84  O   UNL A   1      45.931  18.948  25.000  1.00  0.00    -0.744 OA
ENDBRANCH  80  81
ENDBRANCH  59  73
BRANCH  60  85
ATOM     85  C   UNL A   1      41.315  30.185  33.110  1.00  0.00     0.058 A 
ATOM     86  C   UNL A   1      41.354  31.578  33.313  1.00  0.00     0.135 A 
ATOM     87  C   UNL A   1      40.057  29.577  32.995  1.00  0.00     0.135 A 
ATOM     88  F   UNL A   1      42.536  32.202  33.453  1.00  0.00    -0.206 F 
ATOM     89  C   UNL A   1      40.210  32.360  33.213  1.00  0.00     0.059 A 
ATOM     90  C   UNL A   1      38.893  30.344  32.904  1.00  0.00     0.059 A 
ATOM     91  F   UNL A   1      39.959  28.253  32.813  1.00  0.00    -0.206 F 
ATOM     92  C   UNL A   1      38.997  31.736  32.931  1.00  0.00     0.060 A 
BRANCH  92  93
ATOM     93  S   UNL A   1      37.618  32.781  32.403  1.00  0.00     0.124 S 
ATOM     94  O   UNL A   1      36.470  31.909  32.627  1.00  0.00    -0.237 OA
ATOM     95  O   UNL A   1      37.738  33.914  33.319  1.00  0.00    -0.237 OA
ATOM     96  O   UNL A   1      37.929  33.071  31.008  1.00  0.00    -0.744 OA
ENDBRANCH  92  93
ENDBRANCH  60  85
BRANCH  72  97
ATOM     97  C   UNL A   1      44.958  23.934  33.581  1.00  0.00     0.058 A 
ATOM     98  C   UNL A   1      44.122  22.863  33.936  1.00  0.00     0.135 A 
ATOM     99  C   UNL A   1      46.320  23.786  33.943  1.00  0.00     0.135 A 
ATOM    100  F   UNL A   1      42.838  22.824  33.554  1.00  0.00    -0.206 F 
ATOM    101  C   UNL A   1      44.582  21.757  34.656  1.00  0.00     0.059 A 
ATOM    102  C   UNL A   1      46.812  22.667  34.612  1.00  0.00     0.059 A 
ATOM    103  F   UNL A   1      47.231  24.724  33.643  1.00  0.00    -0.206 F 
ATOM    104  C   UNL A   1      45.929  21.667  34.991  1.00  0.00     0.060 A 
BRANCH 104 105
ATOM    105  S   UNL A   1      46.552  20.214  35.858  1.00  0.00     0.124 S 
ATOM    106  O   UNL A   1      46.180  20.516  37.237  1.00  0.00    -0.237 OA
ATOM    107  O   UNL A   1      45.816  19.117  35.235  1.00  0.00    -0.237 OA
ATOM    108  O   UNL A   1      47.981  20.244  35.565  1.00  0.00    -0.744 OA
ENDBRANCH 104 105
ENDBRANCH  72  97
ENDBRANCH  46  47
ENDBRANCH  38  41
ENDBRANCH  36  37
ENDBRANCH  35  36
ENDBRANCH   1  35
TORSDOF 19
ENDMDL
MODEL 3
REMARK VINA RESULT:     -14.0      4.849     11.314
REMARK SMILES Cc1ccc(-c2cc(C(=O)NCCCCCCNC(=O)c3ccc(-c4c5nc(c(-c6c(F)cc(S(=O)(=O)[O-])cc6F)c6ccc([nH]6)c(-c6c(F)cc(S(=O)(=O)[O-])cc6F)c6nc(c(-c7c(F)cc(S(=O)(=O)[O-])cc7F)c7ccc4[nH]7)C=C6)C=C5)cc3)c3c(-c4cccc([N+](=O)[O-])c4)[nH]nc3n2)cc1
REMARK SMILES IDX 15 1 14 2 13 3 12 4 11 5 9 6 10 7 8 9 6 10 7 11 101 12
REMARK SMILES IDX 100 13 87 14 99 15 88 16 98 17 5 19 1 20 2 21 3 22 103 23
REMARK SMILES IDX 4 24 102 25 89 26 90 27 97 28 91 29 93 30 92 31 94 32 95 33
REMARK SMILES IDX 96 34 16 35 17 36 18 37 19 38 20 40 21 41 22 42 86 43 23 44
REMARK SMILES IDX 85 45 24 46 25 47 26 48 79 49 27 50 84 51 78 52 80 53 28 54
REMARK SMILES IDX 83 55 77 56 76 57 29 59 63 60 42 61 62 62 43 63 46 64 61 65
REMARK SMILES IDX 81 66 44 67 45 68 60 70 82 71 47 72 30 73 31 74 40 75 32 76
REMARK SMILES IDX 33 77 39 78 41 79 34 80 35 81 36 82 37 83 38 84 64 85 65 86
REMARK SMILES IDX 74 87 66 88 67 89 73 90 75 91 68 92 69 93 70 94 71 95 72 96
REMARK SMILES IDX 48 97 49 98 58 99 50 100 51 101 57 102 59 103 52 104 53 105
REMARK SMILES IDX 54 106 55 107 56 108
REMARK H PARENT 11 8 98 18 18 39 80 58 46 69
REMARK Flexibility Score: inf
ROOT
ATOM      1  C   UNL A   1      36.887  21.242  25.641  1.00  0.00     0.002 C 
ENDROOT
BRANCH   1   2
ATOM      2  C   UNL A   1      35.408  21.194  26.059  1.00  0.00     0.002 C 
BRANCH   2   3
ATOM      3  C   UNL A   1      34.842  22.457  26.729  1.00  0.00     0.021 C 
BRANCH   3   4
ATOM      4  C   UNL A   1      33.775  22.190  27.790  1.00  0.00     0.116 C 
BRANCH   4   5
ATOM      5  N   UNL A   1      32.442  22.181  27.221  1.00  0.00    -0.352 N 
ATOM      6  C   UNL A   1      31.793  22.828  26.207  1.00  0.00     0.252 C 
ATOM      7  O   UNL A   1      30.714  22.318  25.920  1.00  0.00    -0.269 OA
ATOM      8  H   UNL A   1      31.851  21.544  27.684  1.00  0.00     0.163 HD
BRANCH   6   9
ATOM      9  C   UNL A   1      32.319  23.993  25.445  1.00  0.00     0.055 A 
ATOM     10  C   UNL A   1      32.961  26.394  25.301  1.00  0.00     0.074 A 
ATOM     11  C   UNL A   1      32.251  25.317  25.897  1.00  0.00     0.043 A 
ATOM     12  N   UNL A   1      33.684  26.331  24.155  1.00  0.00    -0.226 NA
ATOM     13  C   UNL A   1      33.664  25.098  23.595  1.00  0.00     0.182 A 
ATOM     14  C   UNL A   1      33.006  23.964  24.208  1.00  0.00     0.059 A 
ATOM     15  N   UNL A   1      34.255  24.774  22.446  1.00  0.00    -0.154 NA
ATOM     16  C   UNL A   1      33.192  22.934  23.294  1.00  0.00     0.076 A 
ATOM     17  N   UNL A   1      33.947  23.483  22.286  1.00  0.00    -0.275 N 
ATOM     18  H   UNL A   1      34.240  22.963  21.503  1.00  0.00     0.190 HD
BRANCH  10  19
ATOM     19  C   UNL A   1      33.012  27.671  26.031  1.00  0.00     0.000 A 
ATOM     20  C   UNL A   1      33.174  31.658  27.698  1.00  0.00     0.044 C 
ATOM     21  C   UNL A   1      33.099  30.257  27.168  1.00  0.00    -0.051 A 
ATOM     22  C   UNL A   1      34.246  29.453  27.130  1.00  0.00     0.004 A 
ATOM     23  C   UNL A   1      31.895  29.746  26.678  1.00  0.00     0.004 A 
ATOM     24  C   UNL A   1      34.201  28.168  26.574  1.00  0.00     0.010 A 
ATOM     25  C   UNL A   1      31.854  28.467  26.121  1.00  0.00     0.010 A 
ENDBRANCH  10  19
BRANCH  16  26
ATOM     26  C   UNL A   1      32.723  21.561  23.191  1.00  0.00     0.007 A 
ATOM     27  C   UNL A   1      32.064  21.126  22.032  1.00  0.00     0.011 A 
ATOM     28  C   UNL A   1      33.015  20.643  24.210  1.00  0.00     0.096 A 
ATOM     29  C   UNL A   1      31.751  19.775  21.860  1.00  0.00     0.008 A 
ATOM     30  C   UNL A   1      32.734  19.286  24.011  1.00  0.00     0.270 A 
ATOM     31  C   UNL A   1      32.099  18.847  22.841  1.00  0.00     0.085 A 
BRANCH  30  32
ATOM     32  N   UNL A   1      33.159  18.305  25.017  1.00  0.00     0.062 N 
ATOM     33  O   UNL A   1      32.538  18.275  26.091  1.00  0.00    -0.258 OA
ATOM     34  O   UNL A   1      34.132  17.586  24.749  1.00  0.00    -0.258 OA
ENDBRANCH  30  32
ENDBRANCH  16  26
ENDBRANCH   6   9
ENDBRANCH   4   5
ENDBRANCH   3   4
ENDBRANCH   2   3
ENDBRANCH   1   2
BRANCH   1  35
ATOM     35  C   UNL A   1      37.336  22.474  24.853  1.00  0.00     0.021 C 
BRANCH  35  36
ATOM     36  C   UNL A   1      37.911  23.579  25.730  1.00  0.00     0.116 C 
BRANCH  36  37
ATOM     37  N   UNL A   1      38.899  23.083  26.673  1.00  0.00    -0.352 N 
ATOM     38  C   UNL A   1      39.870  23.815  27.340  1.00  0.00     0.251 C 
ATOM     39  H   UNL A   1      38.877  22.116  26.859  1.00  0.00     0.163 HD
ATOM     40  O   UNL A   1      40.848  23.309  27.837  1.00  0.00    -0.269 OA
BRANCH  38  41
ATOM     41  C   UNL A   1      39.554  25.244  27.553  1.00  0.00     0.039 A 
ATOM     42  C   UNL A   1      40.226  26.167  26.741  1.00  0.00     0.014 A 
ATOM     43  C   UNL A   1      38.862  25.647  28.689  1.00  0.00     0.014 A 
ATOM     44  C   UNL A   1      40.330  27.494  27.153  1.00  0.00     0.010 A 
ATOM     45  C   UNL A   1      39.034  26.943  29.133  1.00  0.00     0.010 A 
ATOM     46  C   UNL A   1      39.796  27.859  28.386  1.00  0.00    -0.014 A 
BRANCH  46  47
ATOM     47  C   UNL A   1      40.028  29.150  29.027  1.00  0.00     0.031 A 
ATOM     48  C   UNL A   1      38.971  30.192  29.005  1.00  0.00     0.074 A 
ATOM     49  C   UNL A   1      41.136  29.343  29.775  1.00  0.00     0.049 A 
ATOM     50  N   UNL A   1      39.146  31.427  29.342  1.00  0.00    -0.248 NA
ATOM     51  C   UNL A   1      37.614  29.916  28.551  1.00  0.00     0.031 C 
ATOM     52  C   UNL A   1      41.319  30.337  30.827  1.00  0.00     0.029 A 
ATOM     53  N   UNL A   1      42.402  28.791  29.599  1.00  0.00    -0.354 N 
ATOM     54  C   UNL A   1      37.908  32.026  29.423  1.00  0.00     0.074 A 
ATOM     55  C   UNL A   1      36.992  31.054  28.870  1.00  0.00     0.031 C 
ATOM     56  C   UNL A   1      42.629  30.495  31.061  1.00  0.00     0.029 A 
ATOM     57  C   UNL A   1      43.341  29.739  30.047  1.00  0.00     0.049 A 
ATOM     58  H   UNL A   1      42.605  27.900  29.230  1.00  0.00     0.167 HD
ATOM     59  C   UNL A   1      37.779  33.222  30.070  1.00  0.00     0.037 A 
ATOM     60  C   UNL A   1      44.271  30.278  29.202  1.00  0.00     0.037 A 
ATOM     61  C   UNL A   1      39.082  33.747  30.475  1.00  0.00     0.049 A 
ATOM     62  C   UNL A   1      44.174  31.779  29.046  1.00  0.00     0.074 A 
ATOM     63  C   UNL A   1      39.780  33.708  31.672  1.00  0.00     0.029 A 
ATOM     64  N   UNL A   1      39.987  34.170  29.508  1.00  0.00    -0.354 N 
ATOM     65  N   UNL A   1      43.128  32.485  29.379  1.00  0.00    -0.248 NA
ATOM     66  C   UNL A   1      45.241  32.604  28.483  1.00  0.00     0.031 C 
ATOM     67  C   UNL A   1      41.126  34.062  31.411  1.00  0.00     0.029 A 
ATOM     68  C   UNL A   1      41.244  34.330  30.058  1.00  0.00     0.049 A 
ATOM     69  H   UNL A   1      39.763  34.333  28.563  1.00  0.00     0.167 HD
ATOM     70  C   UNL A   1      43.337  33.801  29.058  1.00  0.00     0.074 A 
ATOM     71  C   UNL A   1      44.689  33.829  28.531  1.00  0.00     0.031 C 
ATOM     72  C   UNL A   1      42.372  34.751  29.240  1.00  0.00     0.037 A 
BRANCH  59  73
ATOM     73  C   UNL A   1      36.457  33.751  30.598  1.00  0.00     0.058 A 
ATOM     74  C   UNL A   1      35.457  34.214  29.714  1.00  0.00     0.135 A 
ATOM     75  C   UNL A   1      36.141  33.899  31.962  1.00  0.00     0.135 A 
ATOM     76  F   UNL A   1      35.551  34.039  28.390  1.00  0.00    -0.206 F 
ATOM     77  C   UNL A   1      34.312  34.891  30.142  1.00  0.00     0.059 A 
ATOM     78  C   UNL A   1      35.033  34.625  32.416  1.00  0.00     0.059 A 
ATOM     79  F   UNL A   1      36.870  33.301  32.913  1.00  0.00    -0.206 F 
ATOM     80  C   UNL A   1      34.131  35.134  31.495  1.00  0.00     0.060 A 
BRANCH  80  81
ATOM     81  S   UNL A   1      32.712  36.115  32.021  1.00  0.00     0.124 S 
ATOM     82  O   UNL A   1      32.309  36.768  30.777  1.00  0.00    -0.237 OA
ATOM     83  O   UNL A   1      31.803  35.091  32.524  1.00  0.00    -0.237 OA
ATOM     84  O   UNL A   1      33.273  37.008  33.031  1.00  0.00    -0.744 OA
ENDBRANCH  80  81
ENDBRANCH  59  73
BRANCH  60  85
ATOM     85  C   UNL A   1      44.721  29.330  28.147  1.00  0.00     0.058 A 
ATOM     86  C   UNL A   1      45.725  28.407  28.495  1.00  0.00     0.135 A 
ATOM     87  C   UNL A   1      43.896  29.019  27.058  1.00  0.00     0.135 A 
ATOM     88  F   UNL A   1      46.556  28.672  29.517  1.00  0.00    -0.206 F 
ATOM     89  C   UNL A   1      45.785  27.145  27.916  1.00  0.00     0.059 A 
ATOM     90  C   UNL A   1      43.946  27.761  26.453  1.00  0.00     0.059 A 
ATOM     91  F   UNL A   1      42.932  29.868  26.675  1.00  0.00    -0.206 F 
ATOM     92  C   UNL A   1      44.839  26.808  26.950  1.00  0.00     0.060 A 
BRANCH  92  93
ATOM     93  S   UNL A   1      44.671  25.061  26.512  1.00  0.00     0.124 S 
ATOM     94  O   UNL A   1      45.882  24.484  27.084  1.00  0.00    -0.237 OA
ATOM     95  O   UNL A   1      43.423  24.706  27.187  1.00  0.00    -0.237 OA
ATOM     96  O   UNL A   1      44.607  25.083  25.055  1.00  0.00    -0.744 OA
ENDBRANCH  92  93
ENDBRANCH  60  85
BRANCH  72  97
ATOM     97  C   UNL A   1      42.423  36.181  28.749  1.00  0.00     0.058 A 
ATOM     98  C   UNL A   1      43.019  37.237  29.459  1.00  0.00     0.135 A 
ATOM     99  C   UNL A   1      41.975  36.504  27.444  1.00  0.00     0.135 A 
ATOM    100  F   UNL A   1      43.587  37.039  30.657  1.00  0.00    -0.206 F 
ATOM    101  C   UNL A   1      43.104  38.533  28.946  1.00  0.00     0.059 A 
ATOM    102  C   UNL A   1      42.100  37.777  26.891  1.00  0.00     0.059 A 
ATOM    103  F   UNL A   1      41.408  35.584  26.650  1.00  0.00    -0.206 F 
ATOM    104  C   UNL A   1      42.642  38.796  27.660  1.00  0.00     0.060 A 
BRANCH 104 105
ATOM    105  S   UNL A   1      42.808  40.447  26.956  1.00  0.00     0.124 S 
ATOM    106  O   UNL A   1      43.675  40.190  25.809  1.00  0.00    -0.237 OA
ATOM    107  O   UNL A   1      41.431  40.809  26.634  1.00  0.00    -0.237 OA
ATOM    108  O   UNL A   1      43.408  41.210  28.046  1.00  0.00    -0.744 OA
ENDBRANCH 104 105
ENDBRANCH  72  97
ENDBRANCH  46  47
ENDBRANCH  38  41
ENDBRANCH  36  37
ENDBRANCH  35  36
ENDBRANCH   1  35
TORSDOF 19
ENDMDL
