MODEL 1
REMARK VINA RESULT:     -10.4      0.000      0.000
REMARK SMILES C[C@@H]1[C@@H](C(=O)NCCCCCCNC(=O)c2ccc(-c3c4nc(c(-c5c(F)cc(S(=O)(=O)[O-])cc5F)c5ccc([nH]5)c(-c5c(F)cc(S(=O)(=O)[O-])cc5F)c5nc(c(-c6c(F)cc(S(=O)(=O)[O-])cc6F)c6ccc3[nH]6)C=C5)C=C4)cc2)CC[N@@H+]1CCCOCC(F)(F)F
REMARK SMILES IDX 8 1 7 2 6 3 4 4 5 5 3 7 1 8 2 9 84 10 82 11 83 12 85 14
REMARK SMILES IDX 86 15 87 16 88 17 89 18 90 19 91 20 92 21 93 22 9 23 10 24
REMARK SMILES IDX 11 25 12 26 13 27 14 28 15 30 16 31 17 32 81 33 18 34 80 35
REMARK SMILES IDX 19 36 20 37 21 38 74 39 22 40 79 41 73 42 75 43 23 44 78 45
REMARK SMILES IDX 72 46 71 47 24 49 58 50 37 51 57 52 38 53 41 54 56 55 76 56
REMARK SMILES IDX 39 57 40 58 55 60 77 61 42 62 25 63 26 64 35 65 27 66 28 67
REMARK SMILES IDX 34 68 36 69 29 70 30 71 31 72 32 73 33 74 59 75 60 76 69 77
REMARK SMILES IDX 61 78 62 79 68 80 70 81 63 82 64 83 65 84 66 85 67 86 43 87
REMARK SMILES IDX 44 88 53 89 45 90 46 91 52 92 54 93 47 94 48 95 49 96 50 97
REMARK SMILES IDX 51 98
REMARK H PARENT 6 6 84 13 13 29 75 48 41 59
REMARK Flexibility Score: inf
ROOT
ATOM      1  C   UNL A   1      37.113  22.377  24.750  1.00  0.00     0.021 C 
ENDROOT
BRANCH   1   2
ATOM      2  C   UNL A   1      36.383  23.569  25.352  1.00  0.00     0.116 C 
BRANCH   2   3
ATOM      3  N   UNL A   1      35.388  23.203  26.347  1.00  0.00    -0.356 N 
ATOM      4  C   UNL A   1      34.031  23.073  26.213  1.00  0.00     0.229 C 
ATOM      5  O   UNL A   1      33.390  22.762  27.217  1.00  0.00    -0.275 OA
ATOM      6  H   UNL A   1      35.742  23.023  27.248  1.00  0.00     0.163 HD
BRANCH   4   7
ATOM      7  C   UNL A   1      33.369  23.369  24.861  1.00  0.00     0.142 C 
ATOM      8  C   UNL A   1      33.940  24.885  22.901  1.00  0.00     0.076 C 
ATOM      9  C   UNL A   1      33.543  24.846  24.378  1.00  0.00     0.193 C 
ATOM     10  N   UNL A   1      32.280  25.534  24.744  1.00  0.00    -0.332 N 
ATOM     11  C   UNL A   1      31.857  23.281  24.948  1.00  0.00     0.081 C 
ATOM     12  C   UNL A   1      31.520  24.615  25.559  1.00  0.00     0.263 C 
ATOM     13  H   UNL A   1      32.604  26.370  25.231  1.00  0.00     0.348 HD
BRANCH  10  14
ATOM     14  C   UNL A   1      31.498  26.349  23.818  1.00  0.00     0.264 C 
BRANCH  14  15
ATOM     15  C   UNL A   1      30.321  27.239  24.277  1.00  0.00     0.090 C 
BRANCH  15  16
ATOM     16  C   UNL A   1      30.006  28.574  23.580  1.00  0.00     0.166 C 
BRANCH  16  17
ATOM     17  O   UNL A   1      28.764  28.636  22.880  1.00  0.00    -0.372 OA
BRANCH  17  18
ATOM     18  C   UNL A   1      28.411  29.887  22.274  1.00  0.00     0.275 C 
BRANCH  18  19
ATOM     19  C   UNL A   1      28.063  31.093  23.169  1.00  0.00     0.411 C 
ATOM     20  F   UNL A   1      29.121  31.602  23.837  1.00  0.00    -0.168 F 
ATOM     21  F   UNL A   1      27.576  32.102  22.399  1.00  0.00    -0.168 F 
ATOM     22  F   UNL A   1      27.112  30.791  24.078  1.00  0.00    -0.168 F 
ENDBRANCH  18  19
ENDBRANCH  17  18
ENDBRANCH  16  17
ENDBRANCH  15  16
ENDBRANCH  14  15
ENDBRANCH  10  14
ENDBRANCH   4   7
ENDBRANCH   2   3
ENDBRANCH   1   2
BRANCH   1  23
ATOM     23  C   UNL A   1      38.183  21.753  25.649  1.00  0.00     0.002 C 
BRANCH  23  24
ATOM     24  C   UNL A   1      39.101  22.729  26.392  1.00  0.00     0.002 C 
BRANCH  24  25
ATOM     25  C   UNL A   1      40.382  22.137  26.988  1.00  0.00     0.021 C 
BRANCH  25  26
ATOM     26  C   UNL A   1      41.513  23.127  27.250  1.00  0.00     0.116 C 
BRANCH  26  27
ATOM     27  N   UNL A   1      41.779  23.997  26.119  1.00  0.00    -0.352 N 
ATOM     28  C   UNL A   1      41.749  25.365  26.038  1.00  0.00     0.251 C 
ATOM     29  H   UNL A   1      42.019  23.534  25.284  1.00  0.00     0.163 HD
ATOM     30  O   UNL A   1      41.883  25.907  24.939  1.00  0.00    -0.269 OA
BRANCH  28  31
ATOM     31  C   UNL A   1      41.529  26.193  27.245  1.00  0.00     0.039 A 
ATOM     32  C   UNL A   1      42.488  27.154  27.577  1.00  0.00     0.014 A 
ATOM     33  C   UNL A   1      40.411  26.014  28.065  1.00  0.00     0.014 A 
ATOM     34  C   UNL A   1      42.302  27.964  28.700  1.00  0.00     0.010 A 
ATOM     35  C   UNL A   1      40.191  26.874  29.142  1.00  0.00     0.010 A 
ATOM     36  C   UNL A   1      41.138  27.851  29.478  1.00  0.00    -0.014 A 
BRANCH  36  37
ATOM     37  C   UNL A   1      40.912  28.746  30.643  1.00  0.00     0.031 A 
ATOM     38  C   UNL A   1      41.756  28.611  31.882  1.00  0.00     0.074 A 
ATOM     39  C   UNL A   1      39.922  29.661  30.598  1.00  0.00     0.049 A 
ATOM     40  N   UNL A   1      41.696  29.291  33.000  1.00  0.00    -0.248 NA
ATOM     41  C   UNL A   1      42.788  27.563  31.876  1.00  0.00     0.031 C 
ATOM     42  C   UNL A   1      39.004  29.856  29.473  1.00  0.00     0.029 A 
ATOM     43  N   UNL A   1      39.520  30.596  31.519  1.00  0.00    -0.354 N 
ATOM     44  C   UNL A   1      42.673  28.750  33.828  1.00  0.00     0.074 A 
ATOM     45  C   UNL A   1      43.273  27.648  33.108  1.00  0.00     0.031 C 
ATOM     46  C   UNL A   1      38.168  30.867  29.759  1.00  0.00     0.029 A 
ATOM     47  C   UNL A   1      38.463  31.368  31.097  1.00  0.00     0.049 A 
ATOM     48  H   UNL A   1      39.948  30.704  32.399  1.00  0.00     0.167 HD
ATOM     49  C   UNL A   1      43.057  29.151  35.065  1.00  0.00     0.037 A 
ATOM     50  C   UNL A   1      37.803  32.365  31.719  1.00  0.00     0.037 A 
ATOM     51  C   UNL A   1      42.470  30.263  35.769  1.00  0.00     0.049 A 
ATOM     52  C   UNL A   1      38.242  32.788  33.095  1.00  0.00     0.074 A 
ATOM     53  C   UNL A   1      42.826  30.783  37.001  1.00  0.00     0.029 A 
ATOM     54  N   UNL A   1      41.407  31.023  35.307  1.00  0.00    -0.354 N 
ATOM     55  N   UNL A   1      39.215  32.309  33.833  1.00  0.00    -0.248 NA
ATOM     56  C   UNL A   1      37.498  33.890  33.721  1.00  0.00     0.031 C 
ATOM     57  C   UNL A   1      41.944  31.826  37.307  1.00  0.00     0.029 A 
ATOM     58  C   UNL A   1      41.074  31.991  36.240  1.00  0.00     0.049 A 
ATOM     59  H   UNL A   1      40.953  30.894  34.443  1.00  0.00     0.167 HD
ATOM     60  C   UNL A   1      39.216  33.068  35.000  1.00  0.00     0.074 A 
ATOM     61  C   UNL A   1      38.159  34.048  34.860  1.00  0.00     0.031 C 
ATOM     62  C   UNL A   1      40.019  32.963  36.088  1.00  0.00     0.037 A 
BRANCH  49  63
ATOM     63  C   UNL A   1      44.166  28.386  35.737  1.00  0.00     0.058 A 
ATOM     64  C   UNL A   1      45.516  28.721  35.540  1.00  0.00     0.135 A 
ATOM     65  C   UNL A   1      43.877  27.332  36.618  1.00  0.00     0.135 A 
ATOM     66  F   UNL A   1      45.853  29.711  34.698  1.00  0.00    -0.206 F 
ATOM     67  C   UNL A   1      46.539  28.019  36.169  1.00  0.00     0.059 A 
ATOM     68  C   UNL A   1      44.884  26.636  37.282  1.00  0.00     0.059 A 
ATOM     69  F   UNL A   1      42.605  26.969  36.844  1.00  0.00    -0.206 F 
ATOM     70  C   UNL A   1      46.214  26.978  37.040  1.00  0.00     0.060 A 
BRANCH  70  71
ATOM     71  S   UNL A   1      47.554  26.082  37.851  1.00  0.00     0.124 S 
ATOM     72  O   UNL A   1      47.524  24.807  37.140  1.00  0.00    -0.237 OA
ATOM     73  O   UNL A   1      48.708  26.932  37.578  1.00  0.00    -0.237 OA
ATOM     74  O   UNL A   1      47.133  26.031  39.248  1.00  0.00    -0.744 OA
ENDBRANCH  70  71
ENDBRANCH  49  63
BRANCH  50  75
ATOM     75  C   UNL A   1      36.670  33.048  31.036  1.00  0.00     0.058 A 
ATOM     76  C   UNL A   1      35.342  32.806  31.418  1.00  0.00     0.135 A 
ATOM     77  C   UNL A   1      36.893  33.961  29.993  1.00  0.00     0.135 A 
ATOM     78  F   UNL A   1      35.077  31.937  32.405  1.00  0.00    -0.206 F 
ATOM     79  C   UNL A   1      34.274  33.427  30.779  1.00  0.00     0.059 A 
ATOM     80  C   UNL A   1      35.843  34.617  29.357  1.00  0.00     0.059 A 
ATOM     81  F   UNL A   1      38.145  34.241  29.600  1.00  0.00    -0.206 F 
ATOM     82  C   UNL A   1      34.536  34.333  29.750  1.00  0.00     0.060 A 
BRANCH  82  83
ATOM     83  S   UNL A   1      33.145  35.167  28.955  1.00  0.00     0.124 S 
ATOM     84  O   UNL A   1      32.714  34.161  27.990  1.00  0.00    -0.237 OA
ATOM     85  O   UNL A   1      32.245  35.400  30.080  1.00  0.00    -0.237 OA
ATOM     86  O   UNL A   1      33.753  36.367  28.388  1.00  0.00    -0.744 OA
ENDBRANCH  82  83
ENDBRANCH  50  75
BRANCH  62  87
ATOM     87  C   UNL A   1      39.805  33.948  37.204  1.00  0.00     0.058 A 
ATOM     88  C   UNL A   1      39.024  33.633  38.327  1.00  0.00     0.135 A 
ATOM     89  C   UNL A   1      40.425  35.208  37.170  1.00  0.00     0.135 A 
ATOM     90  F   UNL A   1      38.404  32.445  38.408  1.00  0.00    -0.206 F 
ATOM     91  C   UNL A   1      38.842  34.542  39.365  1.00  0.00     0.059 A 
ATOM     92  C   UNL A   1      40.282  36.122  38.210  1.00  0.00     0.059 A 
ATOM     93  F   UNL A   1      41.192  35.557  36.125  1.00  0.00    -0.206 F 
ATOM     94  C   UNL A   1      39.477  35.784  39.297  1.00  0.00     0.060 A 
BRANCH  94  95
ATOM     95  S   UNL A   1      39.255  36.943  40.663  1.00  0.00     0.124 S 
ATOM     96  O   UNL A   1      40.619  37.422  40.867  1.00  0.00    -0.237 OA
ATOM     97  O   UNL A   1      38.320  37.913  40.101  1.00  0.00    -0.237 OA
ATOM     98  O   UNL A   1      38.716  36.109  41.733  1.00  0.00    -0.744 OA
ENDBRANCH  94  95
ENDBRANCH  62  87
ENDBRANCH  36  37
ENDBRANCH  28  31
ENDBRANCH  26  27
ENDBRANCH  25  26
ENDBRANCH  24  25
ENDBRANCH  23  24
ENDBRANCH   1  23
TORSDOF 22
ENDMDL
MODEL 2
REMARK VINA RESULT:     -10.4      1.895      2.455
REMARK SMILES C[C@@H]1[C@@H](C(=O)NCCCCCCNC(=O)c2ccc(-c3c4nc(c(-c5c(F)cc(S(=O)(=O)[O-])cc5F)c5ccc([nH]5)c(-c5c(F)cc(S(=O)(=O)[O-])cc5F)c5nc(c(-c6c(F)cc(S(=O)(=O)[O-])cc6F)c6ccc3[nH]6)C=C5)C=C4)cc2)CC[N@@H+]1CCCOCC(F)(F)F
REMARK SMILES IDX 8 1 7 2 6 3 4 4 5 5 3 7 1 8 2 9 84 10 82 11 83 12 85 14
REMARK SMILES IDX 86 15 87 16 88 17 89 18 90 19 91 20 92 21 93 22 9 23 10 24
REMARK SMILES IDX 11 25 12 26 13 27 14 28 15 30 16 31 17 32 81 33 18 34 80 35
REMARK SMILES IDX 19 36 20 37 21 38 74 39 22 40 79 41 73 42 75 43 23 44 78 45
REMARK SMILES IDX 72 46 71 47 24 49 58 50 37 51 57 52 38 53 41 54 56 55 76 56
REMARK SMILES IDX 39 57 40 58 55 60 77 61 42 62 25 63 26 64 35 65 27 66 28 67
REMARK SMILES IDX 34 68 36 69 29 70 30 71 31 72 32 73 33 74 59 75 60 76 69 77
REMARK SMILES IDX 61 78 62 79 68 80 70 81 63 82 64 83 65 84 66 85 67 86 43 87
REMARK SMILES IDX 44 88 53 89 45 90 46 91 52 92 54 93 47 94 48 95 49 96 50 97
REMARK SMILES IDX 51 98
REMARK H PARENT 6 6 84 13 13 29 75 48 41 59
REMARK Flexibility Score: inf
ROOT
ATOM      1  C   UNL A   1      36.402  21.322  25.040  1.00  0.00     0.021 C 
ENDROOT
BRANCH   1   2
ATOM      2  C   UNL A   1      35.207  21.446  25.974  1.00  0.00     0.116 C 
BRANCH   2   3
ATOM      3  N   UNL A   1      33.977  20.899  25.425  1.00  0.00    -0.356 N 
ATOM      4  C   UNL A   1      32.903  21.551  24.880  1.00  0.00     0.229 C 
ATOM      5  O   UNL A   1      31.960  20.861  24.490  1.00  0.00    -0.275 OA
ATOM      6  H   UNL A   1      33.907  19.917  25.448  1.00  0.00     0.163 HD
BRANCH   4   7
ATOM      7  C   UNL A   1      32.889  23.084  24.830  1.00  0.00     0.142 C 
ATOM      8  C   UNL A   1      31.078  24.850  25.092  1.00  0.00     0.076 C 
ATOM      9  C   UNL A   1      31.576  23.688  24.231  1.00  0.00     0.193 C 
ATOM     10  N   UNL A   1      31.895  24.000  22.815  1.00  0.00    -0.332 N 
ATOM     11  C   UNL A   1      33.915  23.620  23.850  1.00  0.00     0.081 C 
ATOM     12  C   UNL A   1      33.196  23.434  22.540  1.00  0.00     0.263 C 
ATOM     13  H   UNL A   1      31.125  23.568  22.303  1.00  0.00     0.348 HD
BRANCH  10  14
ATOM     14  C   UNL A   1      31.622  25.288  22.183  1.00  0.00     0.264 C 
BRANCH  14  15
ATOM     15  C   UNL A   1      32.743  26.248  21.724  1.00  0.00     0.090 C 
BRANCH  15  16
ATOM     16  C   UNL A   1      33.003  27.582  22.444  1.00  0.00     0.166 C 
BRANCH  16  17
ATOM     17  O   UNL A   1      33.854  27.520  23.587  1.00  0.00    -0.372 OA
BRANCH  17  18
ATOM     18  C   UNL A   1      33.377  28.125  24.797  1.00  0.00     0.275 C 
BRANCH  18  19
ATOM     19  C   UNL A   1      33.702  27.467  26.153  1.00  0.00     0.411 C 
ATOM     20  F   UNL A   1      32.630  27.320  26.961  1.00  0.00    -0.168 F 
ATOM     21  F   UNL A   1      34.196  26.219  25.942  1.00  0.00    -0.168 F 
ATOM     22  F   UNL A   1      34.639  28.156  26.838  1.00  0.00    -0.168 F 
ENDBRANCH  18  19
ENDBRANCH  17  18
ENDBRANCH  16  17
ENDBRANCH  15  16
ENDBRANCH  14  15
ENDBRANCH  10  14
ENDBRANCH   4   7
ENDBRANCH   2   3
ENDBRANCH   1   2
BRANCH   1  23
ATOM     23  C   UNL A   1      37.618  22.166  25.429  1.00  0.00     0.002 C 
BRANCH  23  24
ATOM     24  C   UNL A   1      37.361  23.656  25.673  1.00  0.00     0.002 C 
BRANCH  24  25
ATOM     25  C   UNL A   1      38.458  24.421  26.421  1.00  0.00     0.021 C 
BRANCH  25  26
ATOM     26  C   UNL A   1      39.718  23.626  26.749  1.00  0.00     0.116 C 
BRANCH  26  27
ATOM     27  N   UNL A   1      40.872  24.049  25.976  1.00  0.00    -0.352 N 
ATOM     28  C   UNL A   1      41.685  25.140  26.140  1.00  0.00     0.251 C 
ATOM     29  H   UNL A   1      41.107  23.462  25.221  1.00  0.00     0.163 HD
ATOM     30  O   UNL A   1      42.541  25.386  25.288  1.00  0.00    -0.269 OA
BRANCH  28  31
ATOM     31  C   UNL A   1      41.529  26.036  27.307  1.00  0.00     0.039 A 
ATOM     32  C   UNL A   1      42.192  27.267  27.296  1.00  0.00     0.014 A 
ATOM     33  C   UNL A   1      40.764  25.668  28.419  1.00  0.00     0.014 A 
ATOM     34  C   UNL A   1      42.051  28.143  28.375  1.00  0.00     0.010 A 
ATOM     35  C   UNL A   1      40.565  26.575  29.460  1.00  0.00     0.010 A 
ATOM     36  C   UNL A   1      41.214  27.819  29.455  1.00  0.00    -0.014 A 
BRANCH  36  37
ATOM     37  C   UNL A   1      41.020  28.770  30.580  1.00  0.00     0.031 A 
ATOM     38  C   UNL A   1      41.892  28.689  31.805  1.00  0.00     0.074 A 
ATOM     39  C   UNL A   1      40.036  29.690  30.513  1.00  0.00     0.049 A 
ATOM     40  N   UNL A   1      41.862  29.422  32.890  1.00  0.00    -0.248 NA
ATOM     41  C   UNL A   1      42.916  27.633  31.826  1.00  0.00     0.031 C 
ATOM     42  C   UNL A   1      39.093  29.838  29.401  1.00  0.00     0.029 A 
ATOM     43  N   UNL A   1      39.661  30.672  31.396  1.00  0.00    -0.354 N 
ATOM     44  C   UNL A   1      42.854  28.914  33.721  1.00  0.00     0.074 A 
ATOM     45  C   UNL A   1      43.429  27.774  33.041  1.00  0.00     0.031 C 
ATOM     46  C   UNL A   1      38.271  30.868  29.656  1.00  0.00     0.029 A 
ATOM     47  C   UNL A   1      38.600  31.431  30.961  1.00  0.00     0.049 A 
ATOM     48  H   UNL A   1      40.110  30.819  32.259  1.00  0.00     0.167 HD
ATOM     49  C   UNL A   1      43.268  29.372  34.928  1.00  0.00     0.037 A 
ATOM     50  C   UNL A   1      37.961  32.462  31.548  1.00  0.00     0.037 A 
ATOM     51  C   UNL A   1      42.705  30.521  35.590  1.00  0.00     0.049 A 
ATOM     52  C   UNL A   1      38.434  32.947  32.892  1.00  0.00     0.074 A 
ATOM     53  C   UNL A   1      43.092  31.097  36.787  1.00  0.00     0.029 A 
ATOM     54  N   UNL A   1      41.637  31.267  35.115  1.00  0.00    -0.354 N 
ATOM     55  N   UNL A   1      39.420  32.497  33.631  1.00  0.00    -0.248 NA
ATOM     56  C   UNL A   1      37.713  34.084  33.480  1.00  0.00     0.031 C 
ATOM     57  C   UNL A   1      42.225  32.161  37.061  1.00  0.00     0.029 A 
ATOM     58  C   UNL A   1      41.332  32.281  36.008  1.00  0.00     0.049 A 
ATOM     59  H   UNL A   1      41.162  31.099  34.269  1.00  0.00     0.167 HD
ATOM     60  C   UNL A   1      39.453  33.311  34.759  1.00  0.00     0.074 A 
ATOM     61  C   UNL A   1      38.400  34.292  34.595  1.00  0.00     0.031 C 
ATOM     62  C   UNL A   1      40.281  33.253  35.832  1.00  0.00     0.037 A 
BRANCH  49  63
ATOM     63  C   UNL A   1      44.387  28.631  35.611  1.00  0.00     0.058 A 
ATOM     64  C   UNL A   1      45.734  28.962  35.386  1.00  0.00     0.135 A 
ATOM     65  C   UNL A   1      44.111  27.607  36.531  1.00  0.00     0.135 A 
ATOM     66  F   UNL A   1      46.058  29.923  34.507  1.00  0.00    -0.206 F 
ATOM     67  C   UNL A   1      46.766  28.283  36.026  1.00  0.00     0.059 A 
ATOM     68  C   UNL A   1      45.128  26.935  37.205  1.00  0.00     0.059 A 
ATOM     69  F   UNL A   1      42.843  27.250  36.784  1.00  0.00    -0.206 F 
ATOM     70  C   UNL A   1      46.453  27.271  36.934  1.00  0.00     0.060 A 
BRANCH  70  71
ATOM     71  S   UNL A   1      47.805  26.404  37.759  1.00  0.00     0.124 S 
ATOM     72  O   UNL A   1      48.913  27.333  37.556  1.00  0.00    -0.237 OA
ATOM     73  O   UNL A   1      47.315  26.293  39.129  1.00  0.00    -0.237 OA
ATOM     74  O   UNL A   1      47.900  25.146  37.026  1.00  0.00    -0.744 OA
ENDBRANCH  70  71
ENDBRANCH  49  63
BRANCH  50  75
ATOM     75  C   UNL A   1      36.818  33.120  30.858  1.00  0.00     0.058 A 
ATOM     76  C   UNL A   1      35.498  32.906  31.281  1.00  0.00     0.135 A 
ATOM     77  C   UNL A   1      37.024  33.980  29.768  1.00  0.00     0.135 A 
ATOM     78  F   UNL A   1      35.249  32.087  32.314  1.00  0.00    -0.206 F 
ATOM     79  C   UNL A   1      34.420  33.504  30.636  1.00  0.00     0.059 A 
ATOM     80  C   UNL A   1      35.964  34.613  29.125  1.00  0.00     0.059 A 
ATOM     81  F   UNL A   1      38.269  34.232  29.335  1.00  0.00    -0.206 F 
ATOM     82  C   UNL A   1      34.664  34.358  29.559  1.00  0.00     0.060 A 
BRANCH  82  83
ATOM     83  S   UNL A   1      33.261  35.164  28.757  1.00  0.00     0.124 S 
ATOM     84  O   UNL A   1      33.922  36.234  28.016  1.00  0.00    -0.237 OA
ATOM     85  O   UNL A   1      32.706  34.080  27.952  1.00  0.00    -0.237 OA
ATOM     86  O   UNL A   1      32.432  35.591  29.879  1.00  0.00    -0.744 OA
ENDBRANCH  82  83
ENDBRANCH  50  75
BRANCH  62  87
ATOM     87  C   UNL A   1      40.099  34.292  36.904  1.00  0.00     0.058 A 
ATOM     88  C   UNL A   1      40.720  35.549  36.827  1.00  0.00     0.135 A 
ATOM     89  C   UNL A   1      39.257  34.044  38.001  1.00  0.00     0.135 A 
ATOM     90  F   UNL A   1      41.540  35.835  35.803  1.00  0.00    -0.206 F 
ATOM     91  C   UNL A   1      40.536  36.513  37.813  1.00  0.00     0.059 A 
ATOM     92  C   UNL A   1      39.034  35.004  38.983  1.00  0.00     0.059 A 
ATOM     93  F   UNL A   1      38.629  32.863  38.118  1.00  0.00    -0.206 F 
ATOM     94  C   UNL A   1      39.689  36.231  38.887  1.00  0.00     0.060 A 
BRANCH  94  95
ATOM     95  S   UNL A   1      39.436  37.501  40.144  1.00  0.00     0.124 S 
ATOM     96  O   UNL A   1      40.761  38.108  40.220  1.00  0.00    -0.237 OA
ATOM     97  O   UNL A   1      38.393  38.329  39.547  1.00  0.00    -0.237 OA
ATOM     98  O   UNL A   1      39.026  36.739  41.321  1.00  0.00    -0.744 OA
ENDBRANCH  94  95
ENDBRANCH  62  87
ENDBRANCH  36  37
ENDBRANCH  28  31
ENDBRANCH  26  27
ENDBRANCH  25  26
ENDBRANCH  24  25
ENDBRANCH  23  24
ENDBRANCH   1  23
TORSDOF 22
ENDMDL
MODEL 3
REMARK VINA RESULT:     -10.2      1.508      2.257
REMARK SMILES C[C@@H]1[C@@H](C(=O)NCCCCCCNC(=O)c2ccc(-c3c4nc(c(-c5c(F)cc(S(=O)(=O)[O-])cc5F)c5ccc([nH]5)c(-c5c(F)cc(S(=O)(=O)[O-])cc5F)c5nc(c(-c6c(F)cc(S(=O)(=O)[O-])cc6F)c6ccc3[nH]6)C=C5)C=C4)cc2)CC[N@@H+]1CCCOCC(F)(F)F
REMARK SMILES IDX 8 1 7 2 6 3 4 4 5 5 3 7 1 8 2 9 84 10 82 11 83 12 85 14
REMARK SMILES IDX 86 15 87 16 88 17 89 18 90 19 91 20 92 21 93 22 9 23 10 24
REMARK SMILES IDX 11 25 12 26 13 27 14 28 15 30 16 31 17 32 81 33 18 34 80 35
REMARK SMILES IDX 19 36 20 37 21 38 74 39 22 40 79 41 73 42 75 43 23 44 78 45
REMARK SMILES IDX 72 46 71 47 24 49 58 50 37 51 57 52 38 53 41 54 56 55 76 56
REMARK SMILES IDX 39 57 40 58 55 60 77 61 42 62 25 63 26 64 35 65 27 66 28 67
REMARK SMILES IDX 34 68 36 69 29 70 30 71 31 72 32 73 33 74 59 75 60 76 69 77
REMARK SMILES IDX 61 78 62 79 68 80 70 81 63 82 64 83 65 84 66 85 67 86 43 87
REMARK SMILES IDX 44 88 53 89 45 90 46 91 52 92 54 93 47 94 48 95 49 96 50 97
REMARK SMILES IDX 51 98
REMARK H PARENT 6 6 84 13 13 29 75 48 41 59
REMARK Flexibility Score: inf
ROOT
ATOM      1  C   UNL A   1      36.427  23.737  25.621  1.00  0.00     0.021 C 
ENDROOT
BRANCH   1   2
ATOM      2  C   UNL A   1      35.118  23.282  26.249  1.00  0.00     0.116 C 
BRANCH   2   3
ATOM      3  N   UNL A   1      34.643  22.004  25.745  1.00  0.00    -0.356 N 
ATOM      4  C   UNL A   1      34.058  21.706  24.542  1.00  0.00     0.229 C 
ATOM      5  O   UNL A   1      33.724  20.537  24.348  1.00  0.00    -0.275 OA
ATOM      6  H   UNL A   1      34.757  21.242  26.357  1.00  0.00     0.163 HD
BRANCH   4   7
ATOM      7  C   UNL A   1      33.796  22.826  23.527  1.00  0.00     0.142 C 
ATOM      8  C   UNL A   1      33.719  25.365  23.668  1.00  0.00     0.076 C 
ATOM      9  C   UNL A   1      33.053  24.066  24.126  1.00  0.00     0.193 C 
ATOM     10  N   UNL A   1      31.626  23.886  23.760  1.00  0.00    -0.332 N 
ATOM     11  C   UNL A   1      32.805  22.395  22.463  1.00  0.00     0.081 C 
ATOM     12  C   UNL A   1      31.499  22.564  23.192  1.00  0.00     0.263 C 
ATOM     13  H   UNL A   1      31.140  24.019  24.648  1.00  0.00     0.348 HD
BRANCH  10  14
ATOM     14  C   UNL A   1      30.809  24.922  23.133  1.00  0.00     0.264 C 
BRANCH  14  15
ATOM     15  C   UNL A   1      29.894  25.869  23.942  1.00  0.00     0.090 C 
BRANCH  15  16
ATOM     16  C   UNL A   1      30.448  27.129  24.629  1.00  0.00     0.166 C 
BRANCH  16  17
ATOM     17  O   UNL A   1      30.824  26.980  25.997  1.00  0.00    -0.372 OA
BRANCH  17  18
ATOM     18  C   UNL A   1      32.206  27.179  26.326  1.00  0.00     0.275 C 
BRANCH  18  19
ATOM     19  C   UNL A   1      32.675  28.559  26.830  1.00  0.00     0.411 C 
ATOM     20  F   UNL A   1      33.166  29.358  25.859  1.00  0.00    -0.168 F 
ATOM     21  F   UNL A   1      31.622  29.222  27.376  1.00  0.00    -0.168 F 
ATOM     22  F   UNL A   1      33.619  28.453  27.789  1.00  0.00    -0.168 F 
ENDBRANCH  18  19
ENDBRANCH  17  18
ENDBRANCH  16  17
ENDBRANCH  15  16
ENDBRANCH  14  15
ENDBRANCH  10  14
ENDBRANCH   4   7
ENDBRANCH   2   3
ENDBRANCH   1   2
BRANCH   1  23
ATOM     23  C   UNL A   1      37.613  22.794  25.837  1.00  0.00     0.002 C 
BRANCH  23  24
ATOM     24  C   UNL A   1      38.867  23.412  26.462  1.00  0.00     0.002 C 
BRANCH  24  25
ATOM     25  C   UNL A   1      40.005  22.444  26.801  1.00  0.00     0.021 C 
BRANCH  25  26
ATOM     26  C   UNL A   1      41.355  23.084  27.106  1.00  0.00     0.116 C 
BRANCH  26  27
ATOM     27  N   UNL A   1      41.839  23.928  26.028  1.00  0.00    -0.352 N 
ATOM     28  C   UNL A   1      41.988  25.289  25.980  1.00  0.00     0.251 C 
ATOM     29  H   UNL A   1      42.101  23.450  25.209  1.00  0.00     0.163 HD
ATOM     30  O   UNL A   1      42.297  25.824  24.913  1.00  0.00    -0.269 OA
BRANCH  28  31
ATOM     31  C   UNL A   1      41.755  26.123  27.180  1.00  0.00     0.039 A 
ATOM     32  C   UNL A   1      42.633  27.180  27.439  1.00  0.00     0.014 A 
ATOM     33  C   UNL A   1      40.705  25.860  28.065  1.00  0.00     0.014 A 
ATOM     34  C   UNL A   1      42.430  27.996  28.554  1.00  0.00     0.010 A 
ATOM     35  C   UNL A   1      40.461  26.721  29.135  1.00  0.00     0.010 A 
ATOM     36  C   UNL A   1      41.326  27.793  29.398  1.00  0.00    -0.014 A 
BRANCH  36  37
ATOM     37  C   UNL A   1      41.078  28.691  30.556  1.00  0.00     0.031 A 
ATOM     38  C   UNL A   1      41.906  28.568  31.807  1.00  0.00     0.074 A 
ATOM     39  C   UNL A   1      40.082  29.598  30.493  1.00  0.00     0.049 A 
ATOM     40  N   UNL A   1      41.826  29.252  32.921  1.00  0.00    -0.248 NA
ATOM     41  C   UNL A   1      42.945  27.526  31.819  1.00  0.00     0.031 C 
ATOM     42  C   UNL A   1      39.178  29.783  29.355  1.00  0.00     0.029 A 
ATOM     43  N   UNL A   1      39.661  30.535  31.404  1.00  0.00    -0.354 N 
ATOM     44  C   UNL A   1      42.795  28.721  33.764  1.00  0.00     0.074 A 
ATOM     45  C   UNL A   1      43.412  27.621  33.057  1.00  0.00     0.031 C 
ATOM     46  C   UNL A   1      38.331  30.789  29.625  1.00  0.00     0.029 A 
ATOM     47  C   UNL A   1      38.604  31.298  30.965  1.00  0.00     0.049 A 
ATOM     48  H   UNL A   1      40.077  30.650  32.289  1.00  0.00     0.167 HD
ATOM     49  C   UNL A   1      43.159  29.131  35.004  1.00  0.00     0.037 A 
ATOM     50  C   UNL A   1      37.929  32.293  31.572  1.00  0.00     0.037 A 
ATOM     51  C   UNL A   1      42.555  30.241  35.695  1.00  0.00     0.049 A 
ATOM     52  C   UNL A   1      38.346  32.725  32.953  1.00  0.00     0.074 A 
ATOM     53  C   UNL A   1      42.890  30.769  36.930  1.00  0.00     0.029 A 
ATOM     54  N   UNL A   1      41.493  30.992  35.215  1.00  0.00    -0.354 N 
ATOM     55  N   UNL A   1      39.312  32.256  33.706  1.00  0.00    -0.248 NA
ATOM     56  C   UNL A   1      37.586  33.824  33.563  1.00  0.00     0.031 C 
ATOM     57  C   UNL A   1      41.997  31.807  37.219  1.00  0.00     0.029 A 
ATOM     58  C   UNL A   1      41.141  31.962  36.140  1.00  0.00     0.049 A 
ATOM     59  H   UNL A   1      41.051  30.856  34.346  1.00  0.00     0.167 HD
ATOM     60  C   UNL A   1      39.292  33.020  34.869  1.00  0.00     0.074 A 
ATOM     61  C   UNL A   1      38.230  33.992  34.711  1.00  0.00     0.031 C 
ATOM     62  C   UNL A   1      40.081  32.925  35.969  1.00  0.00     0.037 A 
BRANCH  49  63
ATOM     63  C   UNL A   1      44.264  28.376  35.695  1.00  0.00     0.058 A 
ATOM     64  C   UNL A   1      43.996  27.296  36.551  1.00  0.00     0.135 A 
ATOM     65  C   UNL A   1      45.609  28.711  35.467  1.00  0.00     0.135 A 
ATOM     66  F   UNL A   1      42.729  26.940  36.817  1.00  0.00    -0.206 F 
ATOM     67  C   UNL A   1      45.019  26.594  37.181  1.00  0.00     0.059 A 
ATOM     68  C   UNL A   1      46.650  28.002  36.063  1.00  0.00     0.059 A 
ATOM     69  F   UNL A   1      45.924  29.733  34.658  1.00  0.00    -0.206 F 
ATOM     70  C   UNL A   1      46.344  26.955  36.930  1.00  0.00     0.060 A 
BRANCH  70  71
ATOM     71  S   UNL A   1      47.659  26.030  37.751  1.00  0.00     0.124 S 
ATOM     72  O   UNL A   1      48.113  25.154  36.676  1.00  0.00    -0.237 OA
ATOM     73  O   UNL A   1      48.586  27.087  38.142  1.00  0.00    -0.237 OA
ATOM     74  O   UNL A   1      46.971  25.365  38.853  1.00  0.00    -0.744 OA
ENDBRANCH  70  71
ENDBRANCH  49  63
BRANCH  50  75
ATOM     75  C   UNL A   1      36.801  32.965  30.871  1.00  0.00     0.058 A 
ATOM     76  C   UNL A   1      37.036  33.980  29.932  1.00  0.00     0.135 A 
ATOM     77  C   UNL A   1      35.469  32.602  31.120  1.00  0.00     0.135 A 
ATOM     78  F   UNL A   1      38.292  34.368  29.663  1.00  0.00    -0.206 F 
ATOM     79  C   UNL A   1      35.991  34.626  29.279  1.00  0.00     0.059 A 
ATOM     80  C   UNL A   1      34.407  33.213  30.459  1.00  0.00     0.059 A 
ATOM     81  F   UNL A   1      35.191  31.625  31.997  1.00  0.00    -0.206 F 
ATOM     82  C   UNL A   1      34.679  34.233  29.549  1.00  0.00     0.060 A 
BRANCH  82  83
ATOM     83  S   UNL A   1      33.331  35.048  28.666  1.00  0.00     0.124 S 
ATOM     84  O   UNL A   1      32.554  35.607  29.767  1.00  0.00    -0.237 OA
ATOM     85  O   UNL A   1      34.047  36.012  27.836  1.00  0.00    -0.237 OA
ATOM     86  O   UNL A   1      32.697  33.953  27.937  1.00  0.00    -0.744 OA
ENDBRANCH  82  83
ENDBRANCH  50  75
BRANCH  62  87
ATOM     87  C   UNL A   1      39.845  33.914  37.077  1.00  0.00     0.058 A 
ATOM     88  C   UNL A   1      38.999  33.622  38.159  1.00  0.00     0.135 A 
ATOM     89  C   UNL A   1      40.507  35.153  37.080  1.00  0.00     0.135 A 
ATOM     90  F   UNL A   1      38.336  32.455  38.203  1.00  0.00    -0.206 F 
ATOM     91  C   UNL A   1      38.796  34.534  39.190  1.00  0.00     0.059 A 
ATOM     92  C   UNL A   1      40.343  36.067  38.115  1.00  0.00     0.059 A 
ATOM     93  F   UNL A   1      41.336  35.478  36.075  1.00  0.00    -0.206 F 
ATOM     94  C   UNL A   1      39.475  35.754  39.160  1.00  0.00     0.060 A 
BRANCH  94  95
ATOM     95  S   UNL A   1      39.224  36.916  40.518  1.00  0.00     0.124 S 
ATOM     96  O   UNL A   1      38.454  37.970  39.866  1.00  0.00    -0.237 OA
ATOM     97  O   UNL A   1      38.495  36.108  41.491  1.00  0.00    -0.237 OA
ATOM     98  O   UNL A   1      40.583  37.281  40.909  1.00  0.00    -0.744 OA
ENDBRANCH  94  95
ENDBRANCH  62  87
ENDBRANCH  36  37
ENDBRANCH  28  31
ENDBRANCH  26  27
ENDBRANCH  25  26
ENDBRANCH  24  25
ENDBRANCH  23  24
ENDBRANCH   1  23
TORSDOF 22
ENDMDL
