MODEL 1
REMARK VINA RESULT:     -11.1      0.000      0.000
REMARK SMILES C[C@H](NC(=O)c1ccncc1/C=C/C(=O)NCCCCCCNC(=O)c1ccc(-c2c3nc(c(-c4c(F)cc(S(=O)(=O)[O-])cc4F)c4ccc([nH]4)c(-c4c(F)cc(S(=O)(=O)[O-])cc4F)c4nc(c(-c5c(F)cc(S(=O)(=O)[O-])cc5F)c5ccc2[nH]5)C=C4)C=C3)cc1)c1ccco1
REMARK SMILES IDX 19 1 18 2 17 3 16 4 14 5 15 6 13 8 12 9 11 10 6 11 7 12 8 13
REMARK SMILES IDX 10 14 9 15 4 16 3 17 5 19 2 20 1 21 92 22 93 23 96 24 94 25
REMARK SMILES IDX 95 26 20 27 21 28 22 29 23 30 24 31 25 33 26 34 27 35 91 36
REMARK SMILES IDX 28 37 90 38 29 39 30 40 31 41 84 42 32 43 89 44 83 45 85 46
REMARK SMILES IDX 33 47 88 48 82 49 81 50 34 52 68 53 47 54 67 55 48 56 51 57
REMARK SMILES IDX 66 58 86 59 49 60 50 61 65 63 87 64 52 65 35 66 36 67 45 68
REMARK SMILES IDX 37 69 38 70 44 71 46 72 39 73 40 74 41 75 42 76 43 77 69 78
REMARK SMILES IDX 70 79 79 80 71 81 72 82 78 83 80 84 73 85 74 86 75 87 76 88
REMARK SMILES IDX 77 89 53 90 54 91 63 92 55 93 56 94 62 95 64 96 57 97 58 98
REMARK SMILES IDX 59 99 60 100 61 101
REMARK H PARENT 16 7 3 18 23 32 85 51 51 62
REMARK Flexibility Score: inf
ROOT
ATOM      1  C   UNL A   1      34.526  20.771  24.990  1.00  0.00     0.002 C 
ENDROOT
BRANCH   1   2
ATOM      2  C   UNL A   1      33.103  20.316  25.339  1.00  0.00     0.021 C 
BRANCH   2   3
ATOM      3  C   UNL A   1      32.033  21.336  24.952  1.00  0.00     0.116 C 
BRANCH   3   4
ATOM      4  N   UNL A   1      31.325  21.791  26.136  1.00  0.00    -0.353 N 
ATOM      5  C   UNL A   1      30.733  22.981  26.407  1.00  0.00     0.244 C 
ATOM      6  O   UNL A   1      30.141  23.143  27.473  1.00  0.00    -0.270 OA
ATOM      7  H   UNL A   1      31.266  21.126  26.860  1.00  0.00     0.163 HD
BRANCH   5   8
ATOM      8  C   UNL A   1      30.689  24.056  25.391  1.00  0.00     0.072 C 
ATOM      9  C   UNL A   1      30.649  25.373  25.646  1.00  0.00     0.016 C 
BRANCH   9  10
ATOM     10  C   UNL A   1      30.661  26.382  24.572  1.00  0.00     0.006 A 
ATOM     11  C   UNL A   1      31.812  27.084  24.181  1.00  0.00     0.050 A 
ATOM     12  C   UNL A   1      31.772  27.995  23.120  1.00  0.00     0.034 A 
ATOM     13  C   UNL A   1      30.550  28.237  22.525  1.00  0.00     0.112 A 
ATOM     14  C   UNL A   1      29.488  26.725  23.905  1.00  0.00     0.119 A 
ATOM     15  N   UNL A   1      29.404  27.637  22.905  1.00  0.00    -0.264 NA
BRANCH  11  16
ATOM     16  C   UNL A   1      33.103  26.875  24.866  1.00  0.00     0.252 C 
ATOM     17  N   UNL A   1      33.418  27.623  25.970  1.00  0.00    -0.342 N 
ATOM     18  H   UNL A   1      34.272  27.384  26.396  1.00  0.00     0.164 HD
ATOM     19  O   UNL A   1      33.868  26.005  24.459  1.00  0.00    -0.269 OA
BRANCH  17  20
ATOM     20  C   UNL A   1      32.700  28.719  26.619  1.00  0.00     0.145 C 
ATOM     21  C   UNL A   1      31.755  28.273  27.738  1.00  0.00     0.039 C 
BRANCH  20  22
ATOM     22  C   UNL A   1      33.707  29.676  27.175  1.00  0.00     0.125 A 
ATOM     23  C   UNL A   1      35.073  29.612  27.359  1.00  0.00     0.048 A 
ATOM     24  O   UNL A   1      33.248  30.913  27.532  1.00  0.00    -0.467 OA
ATOM     25  C   UNL A   1      35.474  30.892  27.815  1.00  0.00     0.042 A 
ATOM     26  C   UNL A   1      34.329  31.645  27.906  1.00  0.00     0.195 A 
ENDBRANCH  20  22
ENDBRANCH  17  20
ENDBRANCH  11  16
ENDBRANCH   9  10
ENDBRANCH   5   8
ENDBRANCH   3   4
ENDBRANCH   2   3
ENDBRANCH   1   2
BRANCH   1  27
ATOM     27  C   UNL A   1      34.675  22.280  24.748  1.00  0.00     0.002 C 
BRANCH  27  28
ATOM     28  C   UNL A   1      35.120  23.088  25.969  1.00  0.00     0.021 C 
BRANCH  28  29
ATOM     29  C   UNL A   1      36.534  23.648  25.868  1.00  0.00     0.116 C 
BRANCH  29  30
ATOM     30  N   UNL A   1      37.536  22.619  26.104  1.00  0.00    -0.352 N 
ATOM     31  C   UNL A   1      38.865  22.757  26.419  1.00  0.00     0.251 C 
ATOM     32  H   UNL A   1      37.215  21.692  26.029  1.00  0.00     0.163 HD
ATOM     33  O   UNL A   1      39.616  21.790  26.344  1.00  0.00    -0.269 OA
BRANCH  31  34
ATOM     34  C   UNL A   1      39.387  24.075  26.839  1.00  0.00     0.039 A 
ATOM     35  C   UNL A   1      39.276  24.453  28.178  1.00  0.00     0.014 A 
ATOM     36  C   UNL A   1      39.970  24.939  25.907  1.00  0.00     0.014 A 
ATOM     37  C   UNL A   1      39.803  25.678  28.595  1.00  0.00     0.010 A 
ATOM     38  C   UNL A   1      40.557  26.127  26.337  1.00  0.00     0.010 A 
ATOM     39  C   UNL A   1      40.476  26.509  27.685  1.00  0.00    -0.014 A 
BRANCH  39  40
ATOM     40  C   UNL A   1      41.111  27.778  28.127  1.00  0.00     0.031 A 
ATOM     41  C   UNL A   1      42.605  27.947  28.047  1.00  0.00     0.074 A 
ATOM     42  C   UNL A   1      40.344  28.751  28.659  1.00  0.00     0.049 A 
ATOM     43  N   UNL A   1      43.343  28.950  28.447  1.00  0.00    -0.248 NA
ATOM     44  C   UNL A   1      43.372  26.833  27.465  1.00  0.00     0.031 C 
ATOM     45  C   UNL A   1      38.892  28.682  28.836  1.00  0.00     0.029 A 
ATOM     46  N   UNL A   1      40.679  29.985  29.160  1.00  0.00    -0.354 N 
ATOM     47  C   UNL A   1      44.658  28.586  28.177  1.00  0.00     0.074 A 
ATOM     48  C   UNL A   1      44.621  27.249  27.624  1.00  0.00     0.031 C 
ATOM     49  C   UNL A   1      38.460  29.827  29.388  1.00  0.00     0.029 A 
ATOM     50  C   UNL A   1      39.604  30.696  29.642  1.00  0.00     0.049 A 
ATOM     51  H   UNL A   1      41.601  30.329  29.173  1.00  0.00     0.167 HD
ATOM     52  C   UNL A   1      45.788  29.309  28.355  1.00  0.00     0.037 A 
ATOM     53  C   UNL A   1      39.549  31.905  30.233  1.00  0.00     0.037 A 
ATOM     54  C   UNL A   1      45.812  30.651  28.879  1.00  0.00     0.049 A 
ATOM     55  C   UNL A   1      40.821  32.687  30.417  1.00  0.00     0.074 A 
ATOM     56  C   UNL A   1      46.900  31.492  29.034  1.00  0.00     0.029 A 
ATOM     57  N   UNL A   1      44.700  31.347  29.330  1.00  0.00    -0.354 N 
ATOM     58  N   UNL A   1      42.048  32.355  30.092  1.00  0.00    -0.248 NA
ATOM     59  C   UNL A   1      40.704  34.011  31.044  1.00  0.00     0.031 C 
ATOM     60  C   UNL A   1      46.455  32.677  29.628  1.00  0.00     0.029 A 
ATOM     61  C   UNL A   1      45.081  32.598  29.789  1.00  0.00     0.049 A 
ATOM     62  H   UNL A   1      43.778  31.004  29.325  1.00  0.00     0.167 HD
ATOM     63  C   UNL A   1      42.843  33.439  30.444  1.00  0.00     0.074 A 
ATOM     64  C   UNL A   1      41.957  34.444  30.995  1.00  0.00     0.031 C 
ATOM     65  C   UNL A   1      44.184  33.591  30.324  1.00  0.00     0.037 A 
BRANCH  52  66
ATOM     66  C   UNL A   1      47.100  28.676  27.978  1.00  0.00     0.058 A 
ATOM     67  C   UNL A   1      47.873  27.969  28.912  1.00  0.00     0.135 A 
ATOM     68  C   UNL A   1      47.551  28.711  26.648  1.00  0.00     0.135 A 
ATOM     69  F   UNL A   1      47.498  27.916  30.199  1.00  0.00    -0.206 F 
ATOM     70  C   UNL A   1      49.053  27.329  28.544  1.00  0.00     0.059 A 
ATOM     71  C   UNL A   1      48.713  28.056  26.252  1.00  0.00     0.059 A 
ATOM     72  F   UNL A   1      46.853  29.376  25.715  1.00  0.00    -0.206 F 
ATOM     73  C   UNL A   1      49.461  27.373  27.210  1.00  0.00     0.060 A 
BRANCH  73  74
ATOM     74  S   UNL A   1      50.974  26.505  26.744  1.00  0.00     0.124 S 
ATOM     75  O   UNL A   1      51.936  27.603  26.694  1.00  0.00    -0.237 OA
ATOM     76  O   UNL A   1      51.143  25.563  27.845  1.00  0.00    -0.237 OA
ATOM     77  O   UNL A   1      50.640  25.906  25.455  1.00  0.00    -0.744 OA
ENDBRANCH  73  74
ENDBRANCH  52  66
BRANCH  53  78
ATOM     78  C   UNL A   1      38.244  32.455  30.693  1.00  0.00     0.058 A 
ATOM     79  C   UNL A   1      37.460  33.259  29.853  1.00  0.00     0.135 A 
ATOM     80  C   UNL A   1      37.764  32.203  31.988  1.00  0.00     0.135 A 
ATOM     81  F   UNL A   1      37.877  33.533  28.607  1.00  0.00    -0.206 F 
ATOM     82  C   UNL A   1      36.263  33.820  30.287  1.00  0.00     0.059 A 
ATOM     83  C   UNL A   1      36.555  32.727  32.436  1.00  0.00     0.059 A 
ATOM     84  F   UNL A   1      38.465  31.425  32.827  1.00  0.00    -0.206 F 
ATOM     85  C   UNL A   1      35.820  33.550  31.583  1.00  0.00     0.060 A 
BRANCH  85  86
ATOM     86  S   UNL A   1      34.259  34.270  32.135  1.00  0.00     0.124 S 
ATOM     87  O   UNL A   1      33.704  33.185  32.936  1.00  0.00    -0.237 OA
ATOM     88  O   UNL A   1      34.709  35.445  32.874  1.00  0.00    -0.237 OA
ATOM     89  O   UNL A   1      33.560  34.554  30.885  1.00  0.00    -0.744 OA
ENDBRANCH  85  86
ENDBRANCH  53  78
BRANCH  65  90
ATOM     90  C   UNL A   1      44.776  34.904  30.757  1.00  0.00     0.058 A 
ATOM     91  C   UNL A   1      45.264  35.102  32.058  1.00  0.00     0.135 A 
ATOM     92  C   UNL A   1      44.903  35.962  29.841  1.00  0.00     0.135 A 
ATOM     93  F   UNL A   1      45.162  34.126  32.974  1.00  0.00    -0.206 F 
ATOM     94  C   UNL A   1      45.835  36.311  32.444  1.00  0.00     0.059 A 
ATOM     95  C   UNL A   1      45.498  37.168  30.196  1.00  0.00     0.059 A 
ATOM     96  F   UNL A   1      44.463  35.822  28.581  1.00  0.00    -0.206 F 
ATOM     97  C   UNL A   1      45.950  37.337  31.503  1.00  0.00     0.060 A 
BRANCH  97  98
ATOM     98  S   UNL A   1      46.723  38.888  32.008  1.00  0.00     0.124 S 
ATOM     99  O   UNL A   1      46.711  39.643  30.760  1.00  0.00    -0.237 OA
ATOM    100  O   UNL A   1      45.816  39.365  33.048  1.00  0.00    -0.237 OA
ATOM    101  O   UNL A   1      48.042  38.472  32.478  1.00  0.00    -0.744 OA
ENDBRANCH  97  98
ENDBRANCH  65  90
ENDBRANCH  39  40
ENDBRANCH  31  34
ENDBRANCH  29  30
ENDBRANCH  28  29
ENDBRANCH  27  28
ENDBRANCH   1  27
TORSDOF 20
ENDMDL
MODEL 2
REMARK VINA RESULT:     -11.0      3.201      9.577
REMARK SMILES C[C@H](NC(=O)c1ccncc1/C=C/C(=O)NCCCCCCNC(=O)c1ccc(-c2c3nc(c(-c4c(F)cc(S(=O)(=O)[O-])cc4F)c4ccc([nH]4)c(-c4c(F)cc(S(=O)(=O)[O-])cc4F)c4nc(c(-c5c(F)cc(S(=O)(=O)[O-])cc5F)c5ccc2[nH]5)C=C4)C=C3)cc1)c1ccco1
REMARK SMILES IDX 19 1 18 2 17 3 16 4 14 5 15 6 13 8 12 9 11 10 6 11 7 12 8 13
REMARK SMILES IDX 10 14 9 15 4 16 3 17 5 19 2 20 1 21 92 22 93 23 96 24 94 25
REMARK SMILES IDX 95 26 20 27 21 28 22 29 23 30 24 31 25 33 26 34 27 35 91 36
REMARK SMILES IDX 28 37 90 38 29 39 30 40 31 41 84 42 32 43 89 44 83 45 85 46
REMARK SMILES IDX 33 47 88 48 82 49 81 50 34 52 68 53 47 54 67 55 48 56 51 57
REMARK SMILES IDX 66 58 86 59 49 60 50 61 65 63 87 64 52 65 35 66 36 67 45 68
REMARK SMILES IDX 37 69 38 70 44 71 46 72 39 73 40 74 41 75 42 76 43 77 69 78
REMARK SMILES IDX 70 79 79 80 71 81 72 82 78 83 80 84 73 85 74 86 75 87 76 88
REMARK SMILES IDX 77 89 53 90 54 91 63 92 55 93 56 94 62 95 64 96 57 97 58 98
REMARK SMILES IDX 59 99 60 100 61 101
REMARK H PARENT 16 7 3 18 23 32 85 51 51 62
REMARK Flexibility Score: inf
ROOT
ATOM      1  C   UNL A   1      32.903  27.948  24.906  1.00  0.00     0.002 C 
ENDROOT
BRANCH   1   2
ATOM      2  C   UNL A   1      31.854  26.882  24.565  1.00  0.00     0.021 C 
BRANCH   2   3
ATOM      3  C   UNL A   1      31.049  27.213  23.308  1.00  0.00     0.116 C 
BRANCH   3   4
ATOM      4  N   UNL A   1      31.878  27.048  22.127  1.00  0.00    -0.353 N 
ATOM      5  C   UNL A   1      32.476  25.944  21.616  1.00  0.00     0.244 C 
ATOM      6  O   UNL A   1      33.108  26.019  20.563  1.00  0.00    -0.270 OA
ATOM      7  H   UNL A   1      32.030  27.875  21.613  1.00  0.00     0.163 HD
BRANCH   5   8
ATOM      8  C   UNL A   1      32.287  24.618  22.246  1.00  0.00     0.072 C 
ATOM      9  C   UNL A   1      33.267  23.766  22.587  1.00  0.00     0.016 C 
BRANCH   9  10
ATOM     10  C   UNL A   1      32.994  22.485  23.261  1.00  0.00     0.006 A 
ATOM     11  C   UNL A   1      33.353  22.217  24.592  1.00  0.00     0.050 A 
ATOM     12  C   UNL A   1      33.023  20.999  25.193  1.00  0.00     0.034 A 
ATOM     13  C   UNL A   1      32.404  20.042  24.414  1.00  0.00     0.112 A 
ATOM     14  C   UNL A   1      32.388  21.435  22.577  1.00  0.00     0.119 A 
ATOM     15  N   UNL A   1      32.096  20.225  23.114  1.00  0.00    -0.264 NA
BRANCH  11  16
ATOM     16  C   UNL A   1      34.077  23.217  25.402  1.00  0.00     0.252 C 
ATOM     17  N   UNL A   1      35.445  23.268  25.358  1.00  0.00    -0.342 N 
ATOM     18  H   UNL A   1      35.845  23.996  25.886  1.00  0.00     0.164 HD
ATOM     19  O   UNL A   1      33.441  24.017  26.081  1.00  0.00    -0.269 OA
BRANCH  17  20
ATOM     20  C   UNL A   1      36.412  22.420  24.661  1.00  0.00     0.145 C 
ATOM     21  C   UNL A   1      36.661  22.821  23.205  1.00  0.00     0.039 C 
BRANCH  20  22
ATOM     22  C   UNL A   1      37.704  22.465  25.414  1.00  0.00     0.125 A 
ATOM     23  C   UNL A   1      38.333  23.442  26.159  1.00  0.00     0.048 A 
ATOM     24  O   UNL A   1      38.427  21.306  25.465  1.00  0.00    -0.467 OA
ATOM     25  C   UNL A   1      39.480  22.835  26.727  1.00  0.00     0.042 A 
ATOM     26  C   UNL A   1      39.493  21.538  26.274  1.00  0.00     0.195 A 
ENDBRANCH  20  22
ENDBRANCH  17  20
ENDBRANCH  11  16
ENDBRANCH   9  10
ENDBRANCH   5   8
ENDBRANCH   3   4
ENDBRANCH   2   3
ENDBRANCH   1   2
BRANCH   1  27
ATOM     27  C   UNL A   1      33.259  28.043  26.396  1.00  0.00     0.002 C 
BRANCH  27  28
ATOM     28  C   UNL A   1      33.859  29.383  26.832  1.00  0.00     0.021 C 
BRANCH  28  29
ATOM     29  C   UNL A   1      35.191  29.264  27.564  1.00  0.00     0.116 C 
BRANCH  29  30
ATOM     30  N   UNL A   1      35.240  30.132  28.731  1.00  0.00    -0.352 N 
ATOM     31  C   UNL A   1      36.264  30.331  29.623  1.00  0.00     0.251 C 
ATOM     32  H   UNL A   1      34.423  30.652  28.905  1.00  0.00     0.163 HD
ATOM     33  O   UNL A   1      36.050  30.910  30.683  1.00  0.00    -0.269 OA
BRANCH  31  34
ATOM     34  C   UNL A   1      37.620  29.835  29.306  1.00  0.00     0.039 A 
ATOM     35  C   UNL A   1      38.027  29.782  27.972  1.00  0.00     0.014 A 
ATOM     36  C   UNL A   1      38.480  29.412  30.324  1.00  0.00     0.014 A 
ATOM     37  C   UNL A   1      39.321  29.355  27.663  1.00  0.00     0.010 A 
ATOM     38  C   UNL A   1      39.791  29.054  30.020  1.00  0.00     0.010 A 
ATOM     39  C   UNL A   1      40.224  29.020  28.685  1.00  0.00    -0.014 A 
BRANCH  39  40
ATOM     40  C   UNL A   1      41.627  28.640  28.378  1.00  0.00     0.031 A 
ATOM     41  C   UNL A   1      42.706  29.689  28.342  1.00  0.00     0.074 A 
ATOM     42  C   UNL A   1      41.913  27.358  28.071  1.00  0.00     0.049 A 
ATOM     43  N   UNL A   1      43.969  29.561  28.027  1.00  0.00    -0.248 NA
ATOM     44  C   UNL A   1      42.309  31.066  28.678  1.00  0.00     0.031 C 
ATOM     45  C   UNL A   1      40.943  26.262  28.023  1.00  0.00     0.029 A 
ATOM     46  N   UNL A   1      43.102  26.761  27.729  1.00  0.00    -0.354 N 
ATOM     47  C   UNL A   1      44.515  30.836  28.116  1.00  0.00     0.074 A 
ATOM     48  C   UNL A   1      43.435  31.734  28.465  1.00  0.00     0.031 C 
ATOM     49  C   UNL A   1      41.576  25.126  27.690  1.00  0.00     0.029 A 
ATOM     50  C   UNL A   1      42.987  25.417  27.461  1.00  0.00     0.049 A 
ATOM     51  H   UNL A   1      43.955  27.248  27.681  1.00  0.00     0.167 HD
ATOM     52  C   UNL A   1      45.801  31.219  27.941  1.00  0.00     0.037 A 
ATOM     53  C   UNL A   1      43.912  24.521  27.063  1.00  0.00     0.037 A 
ATOM     54  C   UNL A   1      46.875  30.313  27.622  1.00  0.00     0.049 A 
ATOM     55  C   UNL A   1      45.335  24.975  26.878  1.00  0.00     0.074 A 
ATOM     56  C   UNL A   1      48.224  30.594  27.491  1.00  0.00     0.029 A 
ATOM     57  N   UNL A   1      46.724  28.954  27.386  1.00  0.00    -0.354 N 
ATOM     58  N   UNL A   1      45.846  26.174  27.034  1.00  0.00    -0.248 NA
ATOM     59  C   UNL A   1      46.311  23.955  26.469  1.00  0.00     0.031 C 
ATOM     60  C   UNL A   1      48.882  29.416  27.124  1.00  0.00     0.029 A 
ATOM     61  C   UNL A   1      47.952  28.389  27.084  1.00  0.00     0.049 A 
ATOM     62  H   UNL A   1      45.872  28.466  27.427  1.00  0.00     0.167 HD
ATOM     63  C   UNL A   1      47.205  26.046  26.774  1.00  0.00     0.074 A 
ATOM     64  C   UNL A   1      47.440  24.651  26.463  1.00  0.00     0.031 C 
ATOM     65  C   UNL A   1      48.172  26.996  26.789  1.00  0.00     0.037 A 
BRANCH  52  66
ATOM     66  C   UNL A   1      46.132  32.678  28.095  1.00  0.00     0.058 A 
ATOM     67  C   UNL A   1      46.588  33.207  29.313  1.00  0.00     0.135 A 
ATOM     68  C   UNL A   1      46.067  33.544  26.990  1.00  0.00     0.135 A 
ATOM     69  F   UNL A   1      46.655  32.429  30.405  1.00  0.00    -0.206 F 
ATOM     70  C   UNL A   1      46.955  34.544  29.434  1.00  0.00     0.059 A 
ATOM     71  C   UNL A   1      46.456  34.878  27.082  1.00  0.00     0.059 A 
ATOM     72  F   UNL A   1      45.635  33.093  25.803  1.00  0.00    -0.206 F 
ATOM     73  C   UNL A   1      46.892  35.369  28.311  1.00  0.00     0.060 A 
BRANCH  73  74
ATOM     74  S   UNL A   1      47.409  37.091  28.478  1.00  0.00     0.124 S 
ATOM     75  O   UNL A   1      46.141  37.794  28.306  1.00  0.00    -0.237 OA
ATOM     76  O   UNL A   1      47.972  37.117  29.824  1.00  0.00    -0.237 OA
ATOM     77  O   UNL A   1      48.372  37.263  27.395  1.00  0.00    -0.744 OA
ENDBRANCH  73  74
ENDBRANCH  52  66
BRANCH  53  78
ATOM     78  C   UNL A   1      43.526  23.105  26.815  1.00  0.00     0.058 A 
ATOM     79  C   UNL A   1      43.223  22.240  27.876  1.00  0.00     0.135 A 
ATOM     80  C   UNL A   1      43.470  22.584  25.513  1.00  0.00     0.135 A 
ATOM     81  F   UNL A   1      43.267  22.689  29.140  1.00  0.00    -0.206 F 
ATOM     82  C   UNL A   1      42.909  20.902  27.661  1.00  0.00     0.059 A 
ATOM     83  C   UNL A   1      43.130  21.257  25.269  1.00  0.00     0.059 A 
ATOM     84  F   UNL A   1      43.734  23.373  24.459  1.00  0.00    -0.206 F 
ATOM     85  C   UNL A   1      42.868  20.419  26.352  1.00  0.00     0.060 A 
BRANCH  85  86
ATOM     86  S   UNL A   1      42.447  18.684  26.080  1.00  0.00     0.124 S 
ATOM     87  O   UNL A   1      42.723  18.107  27.391  1.00  0.00    -0.237 OA
ATOM     88  O   UNL A   1      41.041  18.766  25.700  1.00  0.00    -0.237 OA
ATOM     89  O   UNL A   1      43.356  18.283  25.010  1.00  0.00    -0.744 OA
ENDBRANCH  85  86
ENDBRANCH  53  78
BRANCH  65  90
ATOM     90  C   UNL A   1      49.581  26.557  26.501  1.00  0.00     0.058 A 
ATOM     91  C   UNL A   1      50.387  25.961  27.484  1.00  0.00     0.135 A 
ATOM     92  C   UNL A   1      50.115  26.689  25.208  1.00  0.00     0.135 A 
ATOM     93  F   UNL A   1      49.928  25.818  28.737  1.00  0.00    -0.206 F 
ATOM     94  C   UNL A   1      51.680  25.534  27.202  1.00  0.00     0.059 A 
ATOM     95  C   UNL A   1      51.394  26.240  24.896  1.00  0.00     0.059 A 
ATOM     96  F   UNL A   1      49.383  27.241  24.228  1.00  0.00    -0.206 F 
ATOM     97  C   UNL A   1      52.174  25.675  25.904  1.00  0.00     0.060 A 
BRANCH  97  98
ATOM     98  S   UNL A   1      53.841  25.085  25.545  1.00  0.00     0.124 S 
ATOM     99  O   UNL A   1      54.104  25.712  24.254  1.00  0.00    -0.237 OA
ATOM    100  O   UNL A   1      54.607  25.609  26.672  1.00  0.00    -0.237 OA
ATOM    101  O   UNL A   1      53.689  23.633  25.519  1.00  0.00    -0.744 OA
ENDBRANCH  97  98
ENDBRANCH  65  90
ENDBRANCH  39  40
ENDBRANCH  31  34
ENDBRANCH  29  30
ENDBRANCH  28  29
ENDBRANCH  27  28
ENDBRANCH   1  27
TORSDOF 20
ENDMDL
MODEL 3
REMARK VINA RESULT:     -10.6      4.224     10.012
REMARK SMILES C[C@H](NC(=O)c1ccncc1/C=C/C(=O)NCCCCCCNC(=O)c1ccc(-c2c3nc(c(-c4c(F)cc(S(=O)(=O)[O-])cc4F)c4ccc([nH]4)c(-c4c(F)cc(S(=O)(=O)[O-])cc4F)c4nc(c(-c5c(F)cc(S(=O)(=O)[O-])cc5F)c5ccc2[nH]5)C=C4)C=C3)cc1)c1ccco1
REMARK SMILES IDX 19 1 18 2 17 3 16 4 14 5 15 6 13 8 12 9 11 10 6 11 7 12 8 13
REMARK SMILES IDX 10 14 9 15 4 16 3 17 5 19 2 20 1 21 92 22 93 23 96 24 94 25
REMARK SMILES IDX 95 26 20 27 21 28 22 29 23 30 24 31 25 33 26 34 27 35 91 36
REMARK SMILES IDX 28 37 90 38 29 39 30 40 31 41 84 42 32 43 89 44 83 45 85 46
REMARK SMILES IDX 33 47 88 48 82 49 81 50 34 52 68 53 47 54 67 55 48 56 51 57
REMARK SMILES IDX 66 58 86 59 49 60 50 61 65 63 87 64 52 65 35 66 36 67 45 68
REMARK SMILES IDX 37 69 38 70 44 71 46 72 39 73 40 74 41 75 42 76 43 77 69 78
REMARK SMILES IDX 70 79 79 80 71 81 72 82 78 83 80 84 73 85 74 86 75 87 76 88
REMARK SMILES IDX 77 89 53 90 54 91 63 92 55 93 56 94 62 95 64 96 57 97 58 98
REMARK SMILES IDX 59 99 60 100 61 101
REMARK H PARENT 16 7 3 18 23 32 85 51 51 62
REMARK Flexibility Score: inf
ROOT
ATOM      1  C   UNL A   1      31.214  27.795  23.647  1.00  0.00     0.002 C 
ENDROOT
BRANCH   1   2
ATOM      2  C   UNL A   1      30.262  26.933  24.486  1.00  0.00     0.021 C 
BRANCH   2   3
ATOM      3  C   UNL A   1      30.705  26.792  25.942  1.00  0.00     0.116 C 
BRANCH   3   4
ATOM      4  N   UNL A   1      30.103  25.609  26.534  1.00  0.00    -0.353 N 
ATOM      5  C   UNL A   1      30.606  24.364  26.723  1.00  0.00     0.244 C 
ATOM      6  O   UNL A   1      29.930  23.510  27.294  1.00  0.00    -0.270 OA
ATOM      7  H   UNL A   1      29.178  25.734  26.850  1.00  0.00     0.163 HD
BRANCH   5   8
ATOM      8  C   UNL A   1      32.003  24.046  26.355  1.00  0.00     0.072 C 
ATOM      9  C   UNL A   1      32.525  24.124  25.121  1.00  0.00     0.016 C 
BRANCH   9  10
ATOM     10  C   UNL A   1      33.944  23.840  24.848  1.00  0.00     0.006 A 
ATOM     11  C   UNL A   1      34.379  22.846  23.957  1.00  0.00     0.050 A 
ATOM     12  C   UNL A   1      35.741  22.656  23.702  1.00  0.00     0.034 A 
ATOM     13  C   UNL A   1      36.643  23.424  24.412  1.00  0.00     0.112 A 
ATOM     14  C   UNL A   1      34.950  24.537  25.513  1.00  0.00     0.119 A 
ATOM     15  N   UNL A   1      36.279  24.347  25.325  1.00  0.00    -0.264 NA
BRANCH  11  16
ATOM     16  C   UNL A   1      33.415  21.979  23.252  1.00  0.00     0.252 C 
ATOM     17  N   UNL A   1      33.112  20.743  23.758  1.00  0.00    -0.342 N 
ATOM     18  H   UNL A   1      32.422  20.252  23.257  1.00  0.00     0.164 HD
ATOM     19  O   UNL A   1      32.866  22.391  22.234  1.00  0.00    -0.269 OA
BRANCH  17  20
ATOM     20  C   UNL A   1      33.644  20.028  24.918  1.00  0.00     0.145 C 
ATOM     21  C   UNL A   1      33.019  20.446  26.252  1.00  0.00     0.039 C 
BRANCH  20  22
ATOM     22  C   UNL A   1      33.426  18.563  24.708  1.00  0.00     0.125 A 
ATOM     23  C   UNL A   1      34.119  17.592  24.013  1.00  0.00     0.048 A 
ATOM     24  O   UNL A   1      32.372  17.996  25.369  1.00  0.00    -0.467 OA
ATOM     25  C   UNL A   1      33.476  16.362  24.298  1.00  0.00     0.042 A 
ATOM     26  C   UNL A   1      32.420  16.662  25.124  1.00  0.00     0.195 A 
ENDBRANCH  20  22
ENDBRANCH  17  20
ENDBRANCH  11  16
ENDBRANCH   9  10
ENDBRANCH   5   8
ENDBRANCH   3   4
ENDBRANCH   2   3
ENDBRANCH   1   2
BRANCH   1  27
ATOM     27  C   UNL A   1      32.134  28.715  24.463  1.00  0.00     0.002 C 
BRANCH  27  28
ATOM     28  C   UNL A   1      33.554  28.183  24.673  1.00  0.00     0.021 C 
BRANCH  28  29
ATOM     29  C   UNL A   1      34.155  28.524  26.033  1.00  0.00     0.116 C 
BRANCH  29  30
ATOM     30  N   UNL A   1      33.898  29.909  26.399  1.00  0.00    -0.352 N 
ATOM     31  C   UNL A   1      34.494  30.675  27.370  1.00  0.00     0.251 C 
ATOM     32  H   UNL A   1      33.198  30.361  25.876  1.00  0.00     0.163 HD
ATOM     33  O   UNL A   1      33.990  31.742  27.705  1.00  0.00    -0.269 OA
BRANCH  31  34
ATOM     34  C   UNL A   1      35.738  30.205  28.015  1.00  0.00     0.039 A 
ATOM     35  C   UNL A   1      36.956  30.392  27.357  1.00  0.00     0.014 A 
ATOM     36  C   UNL A   1      35.699  29.569  29.260  1.00  0.00     0.014 A 
ATOM     37  C   UNL A   1      38.142  29.989  27.975  1.00  0.00     0.010 A 
ATOM     38  C   UNL A   1      36.887  29.233  29.904  1.00  0.00     0.010 A 
ATOM     39  C   UNL A   1      38.120  29.437  29.266  1.00  0.00    -0.014 A 
BRANCH  39  40
ATOM     40  C   UNL A   1      39.379  29.077  29.970  1.00  0.00     0.031 A 
ATOM     41  C   UNL A   1      39.817  29.852  31.183  1.00  0.00     0.074 A 
ATOM     42  C   UNL A   1      40.155  28.092  29.474  1.00  0.00     0.049 A 
ATOM     43  N   UNL A   1      40.914  29.730  31.887  1.00  0.00    -0.248 NA
ATOM     44  C   UNL A   1      38.920  30.920  31.654  1.00  0.00     0.031 C 
ATOM     45  C   UNL A   1      39.860  27.305  28.275  1.00  0.00     0.029 A 
ATOM     46  N   UNL A   1      41.357  27.591  29.910  1.00  0.00    -0.354 N 
ATOM     47  C   UNL A   1      40.845  30.708  32.872  1.00  0.00     0.074 A 
ATOM     48  C   UNL A   1      39.622  31.448  32.647  1.00  0.00     0.031 C 
ATOM     49  C   UNL A   1      40.843  26.411  28.081  1.00  0.00     0.029 A 
ATOM     50  C   UNL A   1      41.857  26.586  29.114  1.00  0.00     0.049 A 
ATOM     51  H   UNL A   1      41.817  27.920  30.714  1.00  0.00     0.167 HD
ATOM     52  C   UNL A   1      41.712  30.952  33.883  1.00  0.00     0.037 A 
ATOM     53  C   UNL A   1      43.009  25.892  29.202  1.00  0.00     0.037 A 
ATOM     54  C   UNL A   1      42.912  30.190  34.117  1.00  0.00     0.049 A 
ATOM     55  C   UNL A   1      43.953  26.184  30.336  1.00  0.00     0.074 A 
ATOM     56  C   UNL A   1      43.820  30.316  35.153  1.00  0.00     0.029 A 
ATOM     57  N   UNL A   1      43.370  29.162  33.306  1.00  0.00    -0.354 N 
ATOM     58  N   UNL A   1      43.837  27.067  31.300  1.00  0.00    -0.248 NA
ATOM     59  C   UNL A   1      45.183  25.382  30.402  1.00  0.00     0.031 C 
ATOM     60  C   UNL A   1      44.855  29.400  34.941  1.00  0.00     0.029 A 
ATOM     61  C   UNL A   1      44.562  28.663  33.805  1.00  0.00     0.049 A 
ATOM     62  H   UNL A   1      42.916  28.835  32.497  1.00  0.00     0.167 HD
ATOM     63  C   UNL A   1      44.961  26.906  32.102  1.00  0.00     0.074 A 
ATOM     64  C   UNL A   1      45.738  25.831  31.519  1.00  0.00     0.031 C 
ATOM     65  C   UNL A   1      45.318  27.584  33.219  1.00  0.00     0.037 A 
BRANCH  52  66
ATOM     66  C   UNL A   1      41.401  32.083  34.824  1.00  0.00     0.058 A 
ATOM     67  C   UNL A   1      41.805  33.400  34.554  1.00  0.00     0.135 A 
ATOM     68  C   UNL A   1      40.621  31.861  35.972  1.00  0.00     0.135 A 
ATOM     69  F   UNL A   1      42.565  33.667  33.481  1.00  0.00    -0.206 F 
ATOM     70  C   UNL A   1      41.459  34.454  35.394  1.00  0.00     0.059 A 
ATOM     71  C   UNL A   1      40.240  32.904  36.811  1.00  0.00     0.059 A 
ATOM     72  F   UNL A   1      40.210  30.621  36.280  1.00  0.00    -0.206 F 
ATOM     73  C   UNL A   1      40.671  34.197  36.516  1.00  0.00     0.060 A 
BRANCH  73  74
ATOM     74  S   UNL A   1      40.200  35.583  37.573  1.00  0.00     0.124 S 
ATOM     75  O   UNL A   1      39.963  36.634  36.587  1.00  0.00    -0.237 OA
ATOM     76  O   UNL A   1      39.014  35.068  38.250  1.00  0.00    -0.237 OA
ATOM     77  O   UNL A   1      41.370  35.775  38.424  1.00  0.00    -0.744 OA
ENDBRANCH  73  74
ENDBRANCH  52  66
BRANCH  53  78
ATOM     78  C   UNL A   1      43.335  24.852  28.188  1.00  0.00     0.058 A 
ATOM     79  C   UNL A   1      44.020  25.181  27.008  1.00  0.00     0.135 A 
ATOM     80  C   UNL A   1      42.954  23.513  28.369  1.00  0.00     0.135 A 
ATOM     81  F   UNL A   1      44.401  26.448  26.785  1.00  0.00    -0.206 F 
ATOM     82  C   UNL A   1      44.286  24.228  26.030  1.00  0.00     0.059 A 
ATOM     83  C   UNL A   1      43.237  22.537  27.420  1.00  0.00     0.059 A 
ATOM     84  F   UNL A   1      42.314  23.141  29.488  1.00  0.00    -0.206 F 
ATOM     85  C   UNL A   1      43.888  22.908  26.244  1.00  0.00     0.060 A 
BRANCH  85  86
ATOM     86  S   UNL A   1      44.250  21.674  24.975  1.00  0.00     0.124 S 
ATOM     87  O   UNL A   1      45.631  21.327  25.293  1.00  0.00    -0.237 OA
ATOM     88  O   UNL A   1      43.252  20.647  25.253  1.00  0.00    -0.237 OA
ATOM     89  O   UNL A   1      44.055  22.409  23.729  1.00  0.00    -0.744 OA
ENDBRANCH  85  86
ENDBRANCH  53  78
BRANCH  65  90
ATOM     90  C   UNL A   1      46.585  27.163  33.913  1.00  0.00     0.058 A 
ATOM     91  C   UNL A   1      47.823  27.752  33.613  1.00  0.00     0.135 A 
ATOM     92  C   UNL A   1      46.548  26.192  34.927  1.00  0.00     0.135 A 
ATOM     93  F   UNL A   1      47.914  28.680  32.647  1.00  0.00    -0.206 F 
ATOM     94  C   UNL A   1      48.986  27.376  34.278  1.00  0.00     0.059 A 
ATOM     95  C   UNL A   1      47.693  25.823  35.626  1.00  0.00     0.059 A 
ATOM     96  F   UNL A   1      45.389  25.606  35.261  1.00  0.00    -0.206 F 
ATOM     97  C   UNL A   1      48.910  26.412  35.286  1.00  0.00     0.060 A 
BRANCH  97  98
ATOM     98  S   UNL A   1      50.420  25.959  36.162  1.00  0.00     0.124 S 
ATOM     99  O   UNL A   1      51.332  27.019  35.746  1.00  0.00    -0.237 OA
ATOM    100  O   UNL A   1      49.996  26.000  37.559  1.00  0.00    -0.237 OA
ATOM    101  O   UNL A   1      50.727  24.627  35.646  1.00  0.00    -0.744 OA
ENDBRANCH  97  98
ENDBRANCH  65  90
ENDBRANCH  39  40
ENDBRANCH  31  34
ENDBRANCH  29  30
ENDBRANCH  28  29
ENDBRANCH  27  28
ENDBRANCH   1  27
TORSDOF 20
ENDMDL
