MODEL 1
REMARK VINA RESULT:     -12.1      0.000      0.000
REMARK SMILES COc1ccccc1C(=O)Nc1sc2c(c1C(=O)NCCCCCCNC(=O)c1ccc(-c3c4nc(c(-c5c(F)cc(S(=O)(=O)[O-])cc5F)c5ccc([nH]5)c(-c5c(F)cc(S(=O)(=O)[O-])cc5F)c5nc(c(-c6c(F)cc(S(=O)(=O)[O-])cc6F)c6ccc3[nH]6)C=C5)C=C4)cc1)CCCC2
REMARK SMILES IDX 22 1 21 2 20 3 19 4 17 5 18 6 16 8 12 9 13 10 14 11 15 12
REMARK SMILES IDX 98 13 95 14 97 15 96 16 11 17 9 18 10 19 8 21 3 22 4 23 5 24
REMARK SMILES IDX 7 25 6 26 2 27 1 28 23 29 24 30 25 31 26 32 27 33 28 35
REMARK SMILES IDX 29 36 30 37 94 38 31 39 93 40 32 41 33 42 34 43 87 44 35 45
REMARK SMILES IDX 92 46 86 47 88 48 36 49 91 50 85 51 84 52 37 54 71 55 50 56
REMARK SMILES IDX 70 57 51 58 54 59 69 60 89 61 52 62 53 63 68 65 90 66 55 67
REMARK SMILES IDX 38 68 39 69 48 70 40 71 41 72 47 73 49 74 42 75 43 76 44 77
REMARK SMILES IDX 45 78 46 79 72 80 73 81 82 82 74 83 75 84 81 85 83 86 76 87
REMARK SMILES IDX 77 88 78 89 79 90 80 91 56 92 57 93 66 94 58 95 59 96 65 97
REMARK SMILES IDX 67 98 60 99 61 100 62 101 63 102 64 103
REMARK H PARENT 19 7 11 20 26 34 88 53 54 64
REMARK Flexibility Score: inf
ROOT
ATOM      1  C   UNL A   1      32.230  27.429  27.258  1.00  0.00     0.002 C 
ENDROOT
BRANCH   1   2
ATOM      2  C   UNL A   1      31.398  27.166  26.000  1.00  0.00     0.021 C 
BRANCH   2   3
ATOM      3  C   UNL A   1      30.317  26.103  26.209  1.00  0.00     0.116 C 
BRANCH   3   4
ATOM      4  N   UNL A   1      30.043  25.448  24.956  1.00  0.00    -0.352 N 
ATOM      5  C   UNL A   1      30.753  24.619  24.138  1.00  0.00     0.254 C 
ATOM      6  O   UNL A   1      30.148  24.311  23.103  1.00  0.00    -0.269 OA
ATOM      7  H   UNL A   1      29.141  25.642  24.614  1.00  0.00     0.163 HD
BRANCH   5   8
ATOM      8  C   UNL A   1      32.064  24.006  24.434  1.00  0.00     0.078 A 
ATOM      9  C   UNL A   1      32.980  23.963  23.381  1.00  0.00     0.109 A 
ATOM     10  S   UNL A   1      34.551  23.533  23.834  1.00  0.00    -0.122 S 
ATOM     11  C   UNL A   1      33.980  22.954  25.320  1.00  0.00     0.011 A 
ATOM     12  C   UNL A   1      32.663  23.326  25.583  1.00  0.00    -0.019 A 
ATOM     13  C   UNL A   1      34.876  22.152  26.214  1.00  0.00     0.047 C 
ATOM     14  C   UNL A   1      32.060  22.951  26.908  1.00  0.00     0.037 C 
ATOM     15  C   UNL A   1      34.058  21.451  27.298  1.00  0.00     0.006 C 
ATOM     16  C   UNL A   1      33.076  22.434  27.938  1.00  0.00     0.005 C 
BRANCH   9  17
ATOM     17  N   UNL A   1      32.733  24.313  22.072  1.00  0.00    -0.313 N 
ATOM     18  C   UNL A   1      32.527  25.557  21.518  1.00  0.00     0.260 C 
ATOM     19  O   UNL A   1      32.281  25.608  20.307  1.00  0.00    -0.269 OA
ATOM     20  H   UNL A   1      32.696  23.561  21.438  1.00  0.00     0.171 HD
BRANCH  18  21
ATOM     21  C   UNL A   1      32.656  26.857  22.244  1.00  0.00     0.082 A 
ATOM     22  C   UNL A   1      31.662  27.832  22.428  1.00  0.00     0.131 A 
ATOM     23  C   UNL A   1      31.978  29.056  23.034  1.00  0.00     0.047 A 
ATOM     24  C   UNL A   1      33.236  29.268  23.590  1.00  0.00     0.004 A 
ATOM     25  C   UNL A   1      33.908  27.073  22.856  1.00  0.00     0.018 A 
ATOM     26  C   UNL A   1      34.190  28.261  23.534  1.00  0.00     0.001 A 
BRANCH  22  27
ATOM     27  O   UNL A   1      30.368  27.742  21.993  1.00  0.00    -0.496 OA
ATOM     28  C   UNL A   1      29.433  28.275  22.922  1.00  0.00     0.278 C 
ENDBRANCH  22  27
ENDBRANCH  18  21
ENDBRANCH   9  17
ENDBRANCH   5   8
ENDBRANCH   3   4
ENDBRANCH   2   3
ENDBRANCH   1   2
BRANCH   1  29
ATOM     29  C   UNL A   1      33.010  28.748  27.212  1.00  0.00     0.002 C 
BRANCH  29  30
ATOM     30  C   UNL A   1      34.534  28.596  27.161  1.00  0.00     0.021 C 
BRANCH  30  31
ATOM     31  C   UNL A   1      35.310  29.869  27.484  1.00  0.00     0.116 C 
BRANCH  31  32
ATOM     32  N   UNL A   1      35.204  30.217  28.892  1.00  0.00    -0.352 N 
ATOM     33  C   UNL A   1      36.125  30.059  29.899  1.00  0.00     0.251 C 
ATOM     34  H   UNL A   1      34.350  30.624  29.163  1.00  0.00     0.163 HD
ATOM     35  O   UNL A   1      35.775  30.158  31.070  1.00  0.00    -0.269 OA
BRANCH  33  36
ATOM     36  C   UNL A   1      37.534  29.765  29.563  1.00  0.00     0.039 A 
ATOM     37  C   UNL A   1      38.406  29.365  30.579  1.00  0.00     0.014 A 
ATOM     38  C   UNL A   1      37.996  29.901  28.251  1.00  0.00     0.014 A 
ATOM     39  C   UNL A   1      39.731  29.052  30.266  1.00  0.00     0.010 A 
ATOM     40  C   UNL A   1      39.293  29.514  27.930  1.00  0.00     0.010 A 
ATOM     41  C   UNL A   1      40.177  29.096  28.934  1.00  0.00    -0.014 A 
BRANCH  41  42
ATOM     42  C   UNL A   1      41.564  28.709  28.573  1.00  0.00     0.031 A 
ATOM     43  C   UNL A   1      42.658  29.743  28.558  1.00  0.00     0.074 A 
ATOM     44  C   UNL A   1      41.825  27.442  28.197  1.00  0.00     0.049 A 
ATOM     45  N   UNL A   1      43.915  29.611  28.222  1.00  0.00    -0.248 NA
ATOM     46  C   UNL A   1      42.282  31.111  28.946  1.00  0.00     0.031 C 
ATOM     47  C   UNL A   1      40.839  26.362  28.129  1.00  0.00     0.029 A 
ATOM     48  N   UNL A   1      42.995  26.850  27.796  1.00  0.00    -0.354 N 
ATOM     49  C   UNL A   1      44.475  30.877  28.344  1.00  0.00     0.074 A 
ATOM     50  C   UNL A   1      43.406  31.775  28.725  1.00  0.00     0.031 C 
ATOM     51  C   UNL A   1      41.451  25.232  27.743  1.00  0.00     0.029 A 
ATOM     52  C   UNL A   1      42.862  25.515  27.493  1.00  0.00     0.049 A 
ATOM     53  H   UNL A   1      43.850  27.334  27.731  1.00  0.00     0.167 HD
ATOM     54  C   UNL A   1      45.766  31.254  28.175  1.00  0.00     0.037 A 
ATOM     55  C   UNL A   1      43.771  24.620  27.061  1.00  0.00     0.037 A 
ATOM     56  C   UNL A   1      46.824  30.349  27.806  1.00  0.00     0.049 A 
ATOM     57  C   UNL A   1      45.195  25.062  26.863  1.00  0.00     0.074 A 
ATOM     58  C   UNL A   1      48.175  30.615  27.665  1.00  0.00     0.029 A 
ATOM     59  N   UNL A   1      46.650  29.005  27.508  1.00  0.00    -0.354 N 
ATOM     60  N   UNL A   1      45.724  26.249  27.048  1.00  0.00    -0.248 NA
ATOM     61  C   UNL A   1      46.148  24.043  26.405  1.00  0.00     0.031 C 
ATOM     62  C   UNL A   1      48.807  29.447  27.228  1.00  0.00     0.029 A 
ATOM     63  C   UNL A   1      47.862  28.435  27.155  1.00  0.00     0.049 A 
ATOM     64  H   UNL A   1      45.790  28.525  27.543  1.00  0.00     0.167 HD
ATOM     65  C   UNL A   1      47.076  26.114  26.755  1.00  0.00     0.074 A 
ATOM     66  C   UNL A   1      47.285  24.726  26.390  1.00  0.00     0.031 C 
ATOM     67  C   UNL A   1      48.056  27.052  26.790  1.00  0.00     0.037 A 
BRANCH  54  68
ATOM     68  C   UNL A   1      46.095  32.710  28.377  1.00  0.00     0.058 A 
ATOM     69  C   UNL A   1      46.039  33.636  27.322  1.00  0.00     0.135 A 
ATOM     70  C   UNL A   1      46.473  33.188  29.643  1.00  0.00     0.135 A 
ATOM     71  F   UNL A   1      45.695  33.237  26.088  1.00  0.00    -0.206 F 
ATOM     72  C   UNL A   1      46.397  34.969  27.502  1.00  0.00     0.059 A 
ATOM     73  C   UNL A   1      46.801  34.524  29.854  1.00  0.00     0.059 A 
ATOM     74  F   UNL A   1      46.539  32.351  30.691  1.00  0.00    -0.206 F 
ATOM     75  C   UNL A   1      46.784  35.402  28.771  1.00  0.00     0.060 A 
BRANCH  75  76
ATOM     76  S   UNL A   1      47.277  37.126  28.981  1.00  0.00     0.124 S 
ATOM     77  O   UNL A   1      46.064  37.826  28.570  1.00  0.00    -0.237 OA
ATOM     78  O   UNL A   1      47.593  37.188  30.404  1.00  0.00    -0.237 OA
ATOM     79  O   UNL A   1      48.418  37.265  28.082  1.00  0.00    -0.744 OA
ENDBRANCH  75  76
ENDBRANCH  54  68
BRANCH  55  80
ATOM     80  C   UNL A   1      43.361  23.210  26.828  1.00  0.00     0.058 A 
ATOM     81  C   UNL A   1      43.244  22.702  25.526  1.00  0.00     0.135 A 
ATOM     82  C   UNL A   1      43.125  22.330  27.897  1.00  0.00     0.135 A 
ATOM     83  F   UNL A   1      43.453  23.506  24.472  1.00  0.00    -0.206 F 
ATOM     84  C   UNL A   1      42.907  21.374  25.290  1.00  0.00     0.059 A 
ATOM     85  C   UNL A   1      42.812  20.991  27.686  1.00  0.00     0.059 A 
ATOM     86  F   UNL A   1      43.240  22.763  29.162  1.00  0.00    -0.206 F 
ATOM     87  C   UNL A   1      42.702  20.523  26.376  1.00  0.00     0.060 A 
BRANCH  87  88
ATOM     88  S   UNL A   1      42.346  18.782  26.056  1.00  0.00     0.124 S 
ATOM     89  O   UNL A   1      43.291  18.479  24.989  1.00  0.00    -0.237 OA
ATOM     90  O   UNL A   1      42.625  18.171  27.352  1.00  0.00    -0.237 OA
ATOM     91  O   UNL A   1      40.938  18.794  25.668  1.00  0.00    -0.744 OA
ENDBRANCH  87  88
ENDBRANCH  55  80
BRANCH  67  92
ATOM     92  C   UNL A   1      49.453  26.606  26.453  1.00  0.00     0.058 A 
ATOM     93  C   UNL A   1      50.277  25.972  27.397  1.00  0.00     0.135 A 
ATOM     94  C   UNL A   1      49.953  26.768  25.151  1.00  0.00     0.135 A 
ATOM     95  F   UNL A   1      49.851  25.799  28.658  1.00  0.00    -0.206 F 
ATOM     96  C   UNL A   1      51.556  25.537  27.067  1.00  0.00     0.059 A 
ATOM     97  C   UNL A   1      51.218  26.313  24.792  1.00  0.00     0.059 A 
ATOM     98  F   UNL A   1      49.204  27.359  24.207  1.00  0.00    -0.206 F 
ATOM     99  C   UNL A   1      52.018  25.709  25.760  1.00  0.00     0.060 A 
BRANCH  99 100
ATOM    100  S   UNL A   1      53.666  25.106  25.339  1.00  0.00     0.124 S 
ATOM    101  O   UNL A   1      53.834  25.631  23.988  1.00  0.00    -0.237 OA
ATOM    102  O   UNL A   1      54.497  25.726  26.367  1.00  0.00    -0.237 OA
ATOM    103  O   UNL A   1      53.534  23.656  25.438  1.00  0.00    -0.744 OA
ENDBRANCH  99 100
ENDBRANCH  67  92
ENDBRANCH  41  42
ENDBRANCH  33  36
ENDBRANCH  31  32
ENDBRANCH  30  31
ENDBRANCH  29  30
ENDBRANCH   1  29
TORSDOF 19
ENDMDL
MODEL 2
REMARK VINA RESULT:     -12.0      0.432      7.972
REMARK SMILES COc1ccccc1C(=O)Nc1sc2c(c1C(=O)NCCCCCCNC(=O)c1ccc(-c3c4nc(c(-c5c(F)cc(S(=O)(=O)[O-])cc5F)c5ccc([nH]5)c(-c5c(F)cc(S(=O)(=O)[O-])cc5F)c5nc(c(-c6c(F)cc(S(=O)(=O)[O-])cc6F)c6ccc3[nH]6)C=C5)C=C4)cc1)CCCC2
REMARK SMILES IDX 22 1 21 2 20 3 19 4 17 5 18 6 16 8 12 9 13 10 14 11 15 12
REMARK SMILES IDX 98 13 95 14 97 15 96 16 11 17 9 18 10 19 8 21 3 22 4 23 5 24
REMARK SMILES IDX 7 25 6 26 2 27 1 28 23 29 24 30 25 31 26 32 27 33 28 35
REMARK SMILES IDX 29 36 30 37 94 38 31 39 93 40 32 41 33 42 34 43 87 44 35 45
REMARK SMILES IDX 92 46 86 47 88 48 36 49 91 50 85 51 84 52 37 54 71 55 50 56
REMARK SMILES IDX 70 57 51 58 54 59 69 60 89 61 52 62 53 63 68 65 90 66 55 67
REMARK SMILES IDX 38 68 39 69 48 70 40 71 41 72 47 73 49 74 42 75 43 76 44 77
REMARK SMILES IDX 45 78 46 79 72 80 73 81 82 82 74 83 75 84 81 85 83 86 76 87
REMARK SMILES IDX 77 88 78 89 79 90 80 91 56 92 57 93 66 94 58 95 59 96 65 97
REMARK SMILES IDX 67 98 60 99 61 100 62 101 63 102 64 103
REMARK H PARENT 19 7 11 20 26 34 88 53 54 64
REMARK Flexibility Score: inf
ROOT
ATOM      1  C   UNL A   1      32.619  27.065  26.586  1.00  0.00     0.002 C 
ENDROOT
BRANCH   1   2
ATOM      2  C   UNL A   1      31.308  27.195  25.808  1.00  0.00     0.021 C 
BRANCH   2   3
ATOM      3  C   UNL A   1      30.315  26.071  26.114  1.00  0.00     0.116 C 
BRANCH   3   4
ATOM      4  N   UNL A   1      30.040  25.335  24.908  1.00  0.00    -0.352 N 
ATOM      5  C   UNL A   1      30.770  24.501  24.113  1.00  0.00     0.254 C 
ATOM      6  O   UNL A   1      30.153  24.105  23.115  1.00  0.00    -0.269 OA
ATOM      7  H   UNL A   1      29.120  25.463  24.584  1.00  0.00     0.163 HD
BRANCH   5   8
ATOM      8  C   UNL A   1      32.119  23.973  24.399  1.00  0.00     0.078 A 
ATOM      9  C   UNL A   1      33.024  23.971  23.335  1.00  0.00     0.109 A 
ATOM     10  S   UNL A   1      34.623  23.646  23.772  1.00  0.00    -0.122 S 
ATOM     11  C   UNL A   1      34.108  23.054  25.273  1.00  0.00     0.011 A 
ATOM     12  C   UNL A   1      32.774  23.348  25.549  1.00  0.00    -0.019 A 
ATOM     13  C   UNL A   1      35.063  22.322  26.165  1.00  0.00     0.047 C 
ATOM     14  C   UNL A   1      32.212  22.956  26.887  1.00  0.00     0.037 C 
ATOM     15  C   UNL A   1      34.304  21.587  27.270  1.00  0.00     0.006 C 
ATOM     16  C   UNL A   1      33.271  22.517  27.910  1.00  0.00     0.005 C 
BRANCH   9  17
ATOM     17  N   UNL A   1      32.738  24.287  22.024  1.00  0.00    -0.313 N 
ATOM     18  C   UNL A   1      32.511  25.515  21.445  1.00  0.00     0.260 C 
ATOM     19  O   UNL A   1      32.231  25.535  20.240  1.00  0.00    -0.269 OA
ATOM     20  H   UNL A   1      32.687  23.519  21.411  1.00  0.00     0.171 HD
BRANCH  18  21
ATOM     21  C   UNL A   1      32.655  26.835  22.133  1.00  0.00     0.082 A 
ATOM     22  C   UNL A   1      31.645  27.777  22.386  1.00  0.00     0.131 A 
ATOM     23  C   UNL A   1      31.966  29.024  22.940  1.00  0.00     0.047 A 
ATOM     24  C   UNL A   1      33.259  29.292  23.381  1.00  0.00     0.004 A 
ATOM     25  C   UNL A   1      33.945  27.107  22.631  1.00  0.00     0.018 A 
ATOM     26  C   UNL A   1      34.241  28.318  23.261  1.00  0.00     0.001 A 
BRANCH  22  27
ATOM     27  O   UNL A   1      30.322  27.633  22.066  1.00  0.00    -0.496 OA
ATOM     28  C   UNL A   1      29.470  28.461  22.847  1.00  0.00     0.278 C 
ENDBRANCH  22  27
ENDBRANCH  18  21
ENDBRANCH   9  17
ENDBRANCH   5   8
ENDBRANCH   3   4
ENDBRANCH   2   3
ENDBRANCH   1   2
BRANCH   1  29
ATOM     29  C   UNL A   1      33.254  28.412  26.949  1.00  0.00     0.002 C 
BRANCH  29  30
ATOM     30  C   UNL A   1      34.786  28.435  26.917  1.00  0.00     0.021 C 
BRANCH  30  31
ATOM     31  C   UNL A   1      35.411  29.753  27.363  1.00  0.00     0.116 C 
BRANCH  31  32
ATOM     32  N   UNL A   1      35.314  29.931  28.803  1.00  0.00    -0.352 N 
ATOM     33  C   UNL A   1      36.254  29.692  29.774  1.00  0.00     0.251 C 
ATOM     34  H   UNL A   1      34.450  30.271  29.128  1.00  0.00     0.163 HD
ATOM     35  O   UNL A   1      35.919  29.642  30.953  1.00  0.00    -0.269 OA
BRANCH  33  36
ATOM     36  C   UNL A   1      37.668  29.493  29.392  1.00  0.00     0.039 A 
ATOM     37  C   UNL A   1      38.601  29.164  30.379  1.00  0.00     0.014 A 
ATOM     38  C   UNL A   1      38.074  29.647  28.063  1.00  0.00     0.014 A 
ATOM     39  C   UNL A   1      39.933  28.940  30.022  1.00  0.00     0.010 A 
ATOM     40  C   UNL A   1      39.383  29.348  27.699  1.00  0.00     0.010 A 
ATOM     41  C   UNL A   1      40.328  29.001  28.675  1.00  0.00    -0.014 A 
BRANCH  41  42
ATOM     42  C   UNL A   1      41.726  28.708  28.269  1.00  0.00     0.031 A 
ATOM     43  C   UNL A   1      42.121  27.311  27.874  1.00  0.00     0.074 A 
ATOM     44  C   UNL A   1      42.652  29.685  28.319  1.00  0.00     0.049 A 
ATOM     45  N   UNL A   1      43.298  26.848  27.541  1.00  0.00    -0.248 NA
ATOM     46  C   UNL A   1      41.057  26.293  27.882  1.00  0.00     0.031 C 
ATOM     47  C   UNL A   1      42.399  31.067  28.729  1.00  0.00     0.029 A 
ATOM     48  N   UNL A   1      43.992  29.664  28.029  1.00  0.00    -0.354 N 
ATOM     49  C   UNL A   1      43.120  25.488  27.313  1.00  0.00     0.074 A 
ATOM     50  C   UNL A   1      41.735  25.190  27.607  1.00  0.00     0.031 C 
ATOM     51  C   UNL A   1      43.538  31.769  28.633  1.00  0.00     0.029 A 
ATOM     52  C   UNL A   1      44.612  30.880  28.198  1.00  0.00     0.049 A 
ATOM     53  H   UNL A   1      44.466  28.855  27.728  1.00  0.00     0.167 HD
ATOM     54  C   UNL A   1      44.022  24.575  26.877  1.00  0.00     0.037 A 
ATOM     55  C   UNL A   1      45.899  31.238  28.026  1.00  0.00     0.037 A 
ATOM     56  C   UNL A   1      45.397  24.887  26.577  1.00  0.00     0.049 A 
ATOM     57  C   UNL A   1      46.889  30.207  27.559  1.00  0.00     0.074 A 
ATOM     58  C   UNL A   1      46.379  24.050  26.076  1.00  0.00     0.029 A 
ATOM     59  N   UNL A   1      45.987  26.129  26.761  1.00  0.00    -0.354 N 
ATOM     60  N   UNL A   1      46.691  28.939  27.283  1.00  0.00    -0.248 NA
ATOM     61  C   UNL A   1      48.275  30.654  27.374  1.00  0.00     0.031 C 
ATOM     62  C   UNL A   1      47.575  24.772  26.009  1.00  0.00     0.029 A 
ATOM     63  C   UNL A   1      47.326  26.075  26.412  1.00  0.00     0.049 A 
ATOM     64  H   UNL A   1      45.522  26.932  27.091  1.00  0.00     0.167 HD
ATOM     65  C   UNL A   1      47.921  28.443  26.865  1.00  0.00     0.074 A 
ATOM     66  C   UNL A   1      48.853  29.551  26.916  1.00  0.00     0.031 C 
ATOM     67  C   UNL A   1      48.246  27.186  26.470  1.00  0.00     0.037 A 
BRANCH  54  68
ATOM     68  C   UNL A   1      43.548  23.155  26.715  1.00  0.00     0.058 A 
ATOM     69  C   UNL A   1      43.307  22.322  27.821  1.00  0.00     0.135 A 
ATOM     70  C   UNL A   1      43.332  22.616  25.435  1.00  0.00     0.135 A 
ATOM     71  F   UNL A   1      43.507  22.778  29.067  1.00  0.00    -0.206 F 
ATOM     72  C   UNL A   1      42.922  20.994  27.664  1.00  0.00     0.059 A 
ATOM     73  C   UNL A   1      42.913  21.301  25.256  1.00  0.00     0.059 A 
ATOM     74  F   UNL A   1      43.540  23.365  24.341  1.00  0.00    -0.206 F 
ATOM     75  C   UNL A   1      42.734  20.491  26.376  1.00  0.00     0.060 A 
BRANCH  75  76
ATOM     76  S   UNL A   1      42.268  18.757  26.188  1.00  0.00     0.124 S 
ATOM     77  O   UNL A   1      40.908  18.878  25.669  1.00  0.00    -0.237 OA
ATOM     78  O   UNL A   1      43.265  18.267  25.242  1.00  0.00    -0.237 OA
ATOM     79  O   UNL A   1      42.378  18.226  27.543  1.00  0.00    -0.744 OA
ENDBRANCH  75  76
ENDBRANCH  54  68
BRANCH  55  80
ATOM     80  C   UNL A   1      46.307  32.649  28.260  1.00  0.00     0.058 A 
ATOM     81  C   UNL A   1      46.240  33.596  27.226  1.00  0.00     0.135 A 
ATOM     82  C   UNL A   1      46.723  33.090  29.526  1.00  0.00     0.135 A 
ATOM     83  F   UNL A   1      45.855  33.220  25.997  1.00  0.00    -0.206 F 
ATOM     84  C   UNL A   1      46.573  34.929  27.438  1.00  0.00     0.059 A 
ATOM     85  C   UNL A   1      47.036  34.424  29.768  1.00  0.00     0.059 A 
ATOM     86  F   UNL A   1      46.788  32.227  30.551  1.00  0.00    -0.206 F 
ATOM     87  C   UNL A   1      46.961  35.336  28.715  1.00  0.00     0.060 A 
BRANCH  87  88
ATOM     88  S   UNL A   1      47.311  37.085  28.996  1.00  0.00     0.124 S 
ATOM     89  O   UNL A   1      45.986  37.677  28.858  1.00  0.00    -0.237 OA
ATOM     90  O   UNL A   1      47.869  37.071  30.344  1.00  0.00    -0.237 OA
ATOM     91  O   UNL A   1      48.262  37.411  27.936  1.00  0.00    -0.744 OA
ENDBRANCH  87  88
ENDBRANCH  55  80
BRANCH  67  92
ATOM     92  C   UNL A   1      49.665  26.944  26.032  1.00  0.00     0.058 A 
ATOM     93  C   UNL A   1      50.656  26.519  26.931  1.00  0.00     0.135 A 
ATOM     94  C   UNL A   1      50.023  27.088  24.681  1.00  0.00     0.135 A 
ATOM     95  F   UNL A   1      50.369  26.372  28.233  1.00  0.00    -0.206 F 
ATOM     96  C   UNL A   1      51.958  26.268  26.510  1.00  0.00     0.059 A 
ATOM     97  C   UNL A   1      51.312  26.814  24.234  1.00  0.00     0.059 A 
ATOM     98  F   UNL A   1      49.113  27.483  23.778  1.00  0.00    -0.206 F 
ATOM     99  C   UNL A   1      52.276  26.415  25.158  1.00  0.00     0.060 A 
BRANCH  99 100
ATOM    100  S   UNL A   1      53.961  26.052  24.622  1.00  0.00     0.124 S 
ATOM    101  O   UNL A   1      53.917  26.456  23.221  1.00  0.00    -0.237 OA
ATOM    102  O   UNL A   1      54.759  26.901  25.502  1.00  0.00    -0.237 OA
ATOM    103  O   UNL A   1      54.091  24.617  24.858  1.00  0.00    -0.744 OA
ENDBRANCH  99 100
ENDBRANCH  67  92
ENDBRANCH  41  42
ENDBRANCH  33  36
ENDBRANCH  31  32
ENDBRANCH  30  31
ENDBRANCH  29  30
ENDBRANCH   1  29
TORSDOF 19
ENDMDL
MODEL 3
REMARK VINA RESULT:     -11.8      1.490      3.174
REMARK SMILES COc1ccccc1C(=O)Nc1sc2c(c1C(=O)NCCCCCCNC(=O)c1ccc(-c3c4nc(c(-c5c(F)cc(S(=O)(=O)[O-])cc5F)c5ccc([nH]5)c(-c5c(F)cc(S(=O)(=O)[O-])cc5F)c5nc(c(-c6c(F)cc(S(=O)(=O)[O-])cc6F)c6ccc3[nH]6)C=C5)C=C4)cc1)CCCC2
REMARK SMILES IDX 22 1 21 2 20 3 19 4 17 5 18 6 16 8 12 9 13 10 14 11 15 12
REMARK SMILES IDX 98 13 95 14 97 15 96 16 11 17 9 18 10 19 8 21 3 22 4 23 5 24
REMARK SMILES IDX 7 25 6 26 2 27 1 28 23 29 24 30 25 31 26 32 27 33 28 35
REMARK SMILES IDX 29 36 30 37 94 38 31 39 93 40 32 41 33 42 34 43 87 44 35 45
REMARK SMILES IDX 92 46 86 47 88 48 36 49 91 50 85 51 84 52 37 54 71 55 50 56
REMARK SMILES IDX 70 57 51 58 54 59 69 60 89 61 52 62 53 63 68 65 90 66 55 67
REMARK SMILES IDX 38 68 39 69 48 70 40 71 41 72 47 73 49 74 42 75 43 76 44 77
REMARK SMILES IDX 45 78 46 79 72 80 73 81 82 82 74 83 75 84 81 85 83 86 76 87
REMARK SMILES IDX 77 88 78 89 79 90 80 91 56 92 57 93 66 94 58 95 59 96 65 97
REMARK SMILES IDX 67 98 60 99 61 100 62 101 63 102 64 103
REMARK H PARENT 19 7 11 20 26 34 88 53 54 64
REMARK Flexibility Score: inf
ROOT
ATOM      1  C   UNL A   1      33.999  28.095  25.545  1.00  0.00     0.002 C 
ENDROOT
BRANCH   1   2
ATOM      2  C   UNL A   1      33.327  26.881  26.193  1.00  0.00     0.021 C 
BRANCH   2   3
ATOM      3  C   UNL A   1      31.824  27.073  26.408  1.00  0.00     0.116 C 
BRANCH   3   4
ATOM      4  N   UNL A   1      31.244  25.833  26.852  1.00  0.00    -0.352 N 
ATOM      5  C   UNL A   1      31.088  24.599  26.293  1.00  0.00     0.254 C 
ATOM      6  O   UNL A   1      30.475  23.803  27.017  1.00  0.00    -0.269 OA
ATOM      7  H   UNL A   1      30.877  25.889  27.764  1.00  0.00     0.163 HD
BRANCH   5   8
ATOM      8  C   UNL A   1      31.665  24.135  25.015  1.00  0.00     0.078 A 
ATOM      9  C   UNL A   1      32.335  22.910  25.044  1.00  0.00     0.109 A 
ATOM     10  S   UNL A   1      32.714  22.280  23.523  1.00  0.00    -0.122 S 
ATOM     11  C   UNL A   1      32.426  23.789  22.810  1.00  0.00     0.011 A 
ATOM     12  C   UNL A   1      31.792  24.686  23.665  1.00  0.00    -0.019 A 
ATOM     13  C   UNL A   1      32.822  24.040  21.386  1.00  0.00     0.047 C 
ATOM     14  C   UNL A   1      31.398  26.036  23.130  1.00  0.00     0.037 C 
ATOM     15  C   UNL A   1      32.797  25.539  21.083  1.00  0.00     0.006 C 
ATOM     16  C   UNL A   1      31.500  26.160  21.602  1.00  0.00     0.005 C 
BRANCH   9  17
ATOM     17  N   UNL A   1      32.621  22.166  26.168  1.00  0.00    -0.313 N 
ATOM     18  C   UNL A   1      33.838  21.757  26.666  1.00  0.00     0.260 C 
ATOM     19  O   UNL A   1      33.832  21.054  27.683  1.00  0.00    -0.269 OA
ATOM     20  H   UNL A   1      31.838  21.884  26.693  1.00  0.00     0.171 HD
BRANCH  18  21
ATOM     21  C   UNL A   1      35.172  22.161  26.124  1.00  0.00     0.082 A 
ATOM     22  C   UNL A   1      36.050  21.379  25.355  1.00  0.00     0.131 A 
ATOM     23  C   UNL A   1      37.321  21.867  25.023  1.00  0.00     0.047 A 
ATOM     24  C   UNL A   1      37.679  23.179  25.322  1.00  0.00     0.004 A 
ATOM     25  C   UNL A   1      35.534  23.500  26.373  1.00  0.00     0.018 A 
ATOM     26  C   UNL A   1      36.768  24.009  25.964  1.00  0.00     0.001 A 
BRANCH  22  27
ATOM     27  O   UNL A   1      35.816  20.098  24.935  1.00  0.00    -0.496 OA
ATOM     28  C   UNL A   1      37.002  19.318  24.851  1.00  0.00     0.278 C 
ENDBRANCH  22  27
ENDBRANCH  18  21
ENDBRANCH   9  17
ENDBRANCH   5   8
ENDBRANCH   3   4
ENDBRANCH   2   3
ENDBRANCH   1   2
BRANCH   1  29
ATOM     29  C   UNL A   1      33.707  29.415  26.267  1.00  0.00     0.002 C 
BRANCH  29  30
ATOM     30  C   UNL A   1      34.032  29.419  27.765  1.00  0.00     0.021 C 
BRANCH  30  31
ATOM     31  C   UNL A   1      35.369  30.061  28.123  1.00  0.00     0.116 C 
BRANCH  31  32
ATOM     32  N   UNL A   1      35.356  30.605  29.472  1.00  0.00    -0.352 N 
ATOM     33  C   UNL A   1      36.346  30.595  30.423  1.00  0.00     0.251 C 
ATOM     34  H   UNL A   1      34.517  31.044  29.742  1.00  0.00     0.163 HD
ATOM     35  O   UNL A   1      36.077  30.859  31.590  1.00  0.00    -0.269 OA
BRANCH  33  36
ATOM     36  C   UNL A   1      37.732  30.260  30.035  1.00  0.00     0.039 A 
ATOM     37  C   UNL A   1      38.620  29.800  31.010  1.00  0.00     0.014 A 
ATOM     38  C   UNL A   1      38.157  30.418  28.712  1.00  0.00     0.014 A 
ATOM     39  C   UNL A   1      39.923  29.449  30.646  1.00  0.00     0.010 A 
ATOM     40  C   UNL A   1      39.429  29.995  28.339  1.00  0.00     0.010 A 
ATOM     41  C   UNL A   1      40.328  29.516  29.302  1.00  0.00    -0.014 A 
BRANCH  41  42
ATOM     42  C   UNL A   1      41.688  29.090  28.887  1.00  0.00     0.031 A 
ATOM     43  C   UNL A   1      42.816  30.086  28.856  1.00  0.00     0.074 A 
ATOM     44  C   UNL A   1      41.892  27.824  28.476  1.00  0.00     0.049 A 
ATOM     45  N   UNL A   1      44.056  29.920  28.474  1.00  0.00    -0.248 NA
ATOM     46  C   UNL A   1      42.500  31.458  29.284  1.00  0.00     0.031 C 
ATOM     47  C   UNL A   1      40.868  26.780  28.418  1.00  0.00     0.029 A 
ATOM     48  N   UNL A   1      43.027  27.201  28.022  1.00  0.00    -0.354 N 
ATOM     49  C   UNL A   1      44.663  31.163  28.603  1.00  0.00     0.074 A 
ATOM     50  C   UNL A   1      43.639  32.088  29.039  1.00  0.00     0.031 C 
ATOM     51  C   UNL A   1      41.427  25.638  27.988  1.00  0.00     0.029 A 
ATOM     52  C   UNL A   1      42.838  25.879  27.697  1.00  0.00     0.049 A 
ATOM     53  H   UNL A   1      43.895  27.657  27.939  1.00  0.00     0.167 HD
ATOM     54  C   UNL A   1      45.960  31.500  28.399  1.00  0.00     0.037 A 
ATOM     55  C   UNL A   1      43.701  24.963  27.216  1.00  0.00     0.037 A 
ATOM     56  C   UNL A   1      46.973  30.567  27.975  1.00  0.00     0.049 A 
ATOM     57  C   UNL A   1      45.131  25.360  26.979  1.00  0.00     0.074 A 
ATOM     58  C   UNL A   1      48.327  30.791  27.793  1.00  0.00     0.029 A 
ATOM     59  N   UNL A   1      46.743  29.237  27.655  1.00  0.00    -0.354 N 
ATOM     60  N   UNL A   1      45.707  26.524  27.170  1.00  0.00    -0.248 NA
ATOM     61  C   UNL A   1      46.033  24.320  26.467  1.00  0.00     0.031 C 
ATOM     62  C   UNL A   1      48.903  29.611  27.311  1.00  0.00     0.029 A 
ATOM     63  C   UNL A   1      47.922  28.634  27.249  1.00  0.00     0.049 A 
ATOM     64  H   UNL A   1      45.868  28.786  27.709  1.00  0.00     0.167 HD
ATOM     65  C   UNL A   1      47.043  26.350  26.828  1.00  0.00     0.074 A 
ATOM     66  C   UNL A   1      47.191  24.965  26.428  1.00  0.00     0.031 C 
ATOM     67  C   UNL A   1      48.055  27.253  26.849  1.00  0.00     0.037 A 
BRANCH  54  68
ATOM     68  C   UNL A   1      46.345  32.939  28.620  1.00  0.00     0.058 A 
ATOM     69  C   UNL A   1      46.314  33.883  27.580  1.00  0.00     0.135 A 
ATOM     70  C   UNL A   1      46.754  33.382  29.889  1.00  0.00     0.135 A 
ATOM     71  F   UNL A   1      45.943  33.516  26.343  1.00  0.00    -0.206 F 
ATOM     72  C   UNL A   1      46.724  35.198  27.776  1.00  0.00     0.059 A 
ATOM     73  C   UNL A   1      47.134  34.702  30.116  1.00  0.00     0.059 A 
ATOM     74  F   UNL A   1      46.798  32.527  30.922  1.00  0.00    -0.206 F 
ATOM     75  C   UNL A   1      47.139  35.596  29.047  1.00  0.00     0.060 A 
BRANCH  75  76
ATOM     76  S   UNL A   1      47.700  37.297  29.279  1.00  0.00     0.124 S 
ATOM     77  O   UNL A   1      48.787  37.115  30.237  1.00  0.00    -0.237 OA
ATOM     78  O   UNL A   1      48.103  37.679  27.929  1.00  0.00    -0.237 OA
ATOM     79  O   UNL A   1      46.517  37.978  29.794  1.00  0.00    -0.744 OA
ENDBRANCH  75  76
ENDBRANCH  54  68
BRANCH  55  80
ATOM     80  C   UNL A   1      43.234  23.573  26.968  1.00  0.00     0.058 A 
ATOM     81  C   UNL A   1      42.999  23.117  25.662  1.00  0.00     0.135 A 
ATOM     82  C   UNL A   1      43.060  22.661  28.021  1.00  0.00     0.135 A 
ATOM     83  F   UNL A   1      43.146  23.954  24.623  1.00  0.00    -0.206 F 
ATOM     84  C   UNL A   1      42.608  21.807  25.408  1.00  0.00     0.059 A 
ATOM     85  C   UNL A   1      42.694  21.339  27.789  1.00  0.00     0.059 A 
ATOM     86  F   UNL A   1      43.288  23.044  29.287  1.00  0.00    -0.206 F 
ATOM     87  C   UNL A   1      42.467  20.922  26.477  1.00  0.00     0.060 A 
BRANCH  87  88
ATOM     88  S   UNL A   1      42.039  19.204  26.126  1.00  0.00     0.124 S 
ATOM     89  O   UNL A   1      42.873  18.922  24.965  1.00  0.00    -0.237 OA
ATOM     90  O   UNL A   1      42.421  18.536  27.366  1.00  0.00    -0.237 OA
ATOM     91  O   UNL A   1      40.601  19.261  25.872  1.00  0.00    -0.744 OA
ENDBRANCH  87  88
ENDBRANCH  55  80
BRANCH  67  92
ATOM     92  C   UNL A   1      49.425  26.768  26.456  1.00  0.00     0.058 A 
ATOM     93  C   UNL A   1      50.273  26.123  27.369  1.00  0.00     0.135 A 
ATOM     94  C   UNL A   1      49.870  26.905  25.131  1.00  0.00     0.135 A 
ATOM     95  F   UNL A   1      49.899  25.972  28.649  1.00  0.00    -0.206 F 
ATOM     96  C   UNL A   1      51.525  25.650  26.988  1.00  0.00     0.059 A 
ATOM     97  C   UNL A   1      51.105  26.413  24.721  1.00  0.00     0.059 A 
ATOM     98  F   UNL A   1      49.095  27.506  24.214  1.00  0.00    -0.206 F 
ATOM     99  C   UNL A   1      51.932  25.798  25.660  1.00  0.00     0.060 A 
BRANCH  99 100
ATOM    100  S   UNL A   1      53.544  25.148  25.173  1.00  0.00     0.124 S 
ATOM    101  O   UNL A   1      54.424  25.790  26.143  1.00  0.00    -0.237 OA
ATOM    102  O   UNL A   1      53.363  23.709  25.336  1.00  0.00    -0.237 OA
ATOM    103  O   UNL A   1      53.691  25.604  23.793  1.00  0.00    -0.744 OA
ENDBRANCH  99 100
ENDBRANCH  67  92
ENDBRANCH  41  42
ENDBRANCH  33  36
ENDBRANCH  31  32
ENDBRANCH  30  31
ENDBRANCH  29  30
ENDBRANCH   1  29
TORSDOF 19
ENDMDL
