MODEL 1
REMARK VINA RESULT:     -10.0      0.000      0.000
REMARK SMILES CC(C)C[C@H](NC(=O)CNC(=O)[C@@H]([NH3+])C(C)C)C(=O)NCCCCCCNC(=O)c1ccc(-c2c3nc(c(-c4c(F)cc(S(=O)(=O)[O-])cc4F)c4ccc([nH]4)c(-c4c(F)cc(S(=O)(=O)[O-])cc4F)c4nc(c(-c5c(F)cc(S(=O)(=O)[O-])cc5F)c5ccc2[nH]5)C=C4)C=C3)cc1
REMARK SMILES IDX 22 1 21 2 20 3 18 4 19 5 5 7 4 8 2 9 1 10 3 11 6 12 7 13
REMARK SMILES IDX 8 15 9 16 10 17 11 18 12 20 13 21 14 22 15 26 16 27 17 28
REMARK SMILES IDX 23 29 24 30 25 31 26 32 27 33 28 34 29 36 30 37 31 38 95 39
REMARK SMILES IDX 32 40 94 41 33 42 34 43 35 44 88 45 36 46 93 47 87 48 89 49
REMARK SMILES IDX 37 50 92 51 86 52 85 53 38 55 72 56 51 57 71 58 52 59 55 60
REMARK SMILES IDX 70 61 90 62 53 63 54 64 69 66 91 67 56 68 39 69 40 70 49 71
REMARK SMILES IDX 41 72 42 73 48 74 50 75 43 76 44 77 45 78 46 79 47 80 73 81
REMARK SMILES IDX 74 82 83 83 75 84 76 85 82 86 84 87 77 88 78 89 79 90 80 91
REMARK SMILES IDX 81 92 57 93 58 94 67 95 59 96 60 97 66 98 68 99 61 100
REMARK SMILES IDX 62 101 63 102 64 103 65 104
REMARK H PARENT 20 6 6 14 10 19 14 23 14 24 14 25 27 35 89 54 55 65
REMARK Flexibility Score: inf
ROOT
ATOM      1  C   UNL A   1      31.090  28.933  23.022  1.00  0.00     0.021 C 
ENDROOT
BRANCH   1   2
ATOM      2  C   UNL A   1      30.699  27.630  22.349  1.00  0.00     0.116 C 
BRANCH   2   3
ATOM      3  N   UNL A   1      31.850  27.007  21.716  1.00  0.00    -0.354 N 
ATOM      4  C   UNL A   1      32.393  25.776  21.947  1.00  0.00     0.242 C 
ATOM      5  O   UNL A   1      33.325  25.398  21.236  1.00  0.00    -0.273 OA
ATOM      6  H   UNL A   1      32.298  27.546  21.025  1.00  0.00     0.163 HD
BRANCH   4   7
ATOM      7  C   UNL A   1      31.780  24.873  23.032  1.00  0.00     0.171 C 
BRANCH   7   8
ATOM      8  C   UNL A   1      32.567  25.032  24.341  1.00  0.00     0.038 C 
BRANCH   8   9
ATOM      9  C   UNL A   1      31.814  25.172  25.678  1.00  0.00    -0.015 C 
ATOM     10  C   UNL A   1      30.551  24.314  25.752  1.00  0.00     0.007 C 
ATOM     11  C   UNL A   1      32.765  24.755  26.812  1.00  0.00     0.007 C 
ENDBRANCH   8   9
ENDBRANCH   7   8
BRANCH   7  12
ATOM     12  N   UNL A   1      31.766  23.502  22.482  1.00  0.00    -0.343 N 
ATOM     13  C   UNL A   1      32.558  22.406  22.567  1.00  0.00     0.240 C 
ATOM     14  H   UNL A   1      30.982  23.344  21.910  1.00  0.00     0.164 HD
ATOM     15  O   UNL A   1      32.160  21.406  21.955  1.00  0.00    -0.273 OA
BRANCH  13  16
ATOM     16  C   UNL A   1      33.823  22.319  23.420  1.00  0.00     0.216 C 
BRANCH  16  17
ATOM     17  N   UNL A   1      33.617  21.852  24.777  1.00  0.00    -0.342 N 
ATOM     18  C   UNL A   1      33.608  20.583  25.274  1.00  0.00     0.278 C 
ATOM     19  H   UNL A   1      33.461  22.561  25.442  1.00  0.00     0.164 HD
ATOM     20  O   UNL A   1      33.376  20.446  26.480  1.00  0.00    -0.268 OA
BRANCH  18  21
ATOM     21  C   UNL A   1      33.865  19.338  24.384  1.00  0.00     0.273 C 
BRANCH  21  22
ATOM     22  N   UNL A   1      34.987  18.512  24.888  1.00  0.00    -0.347 N 
ATOM     23  H   UNL A   1      35.295  18.872  25.791  1.00  0.00     0.345 HD
ATOM     24  H   UNL A   1      35.761  18.551  24.225  1.00  0.00     0.345 HD
ATOM     25  H   UNL A   1      34.678  17.546  24.994  1.00  0.00     0.345 HD
ENDBRANCH  21  22
BRANCH  21  26
ATOM     26  C   UNL A   1      32.555  18.549  24.193  1.00  0.00     0.051 C 
ATOM     27  C   UNL A   1      32.481  18.021  22.752  1.00  0.00     0.014 C 
ATOM     28  C   UNL A   1      32.440  17.367  25.161  1.00  0.00     0.014 C 
ENDBRANCH  21  26
ENDBRANCH  18  21
ENDBRANCH  16  17
ENDBRANCH  13  16
ENDBRANCH   7  12
ENDBRANCH   4   7
ENDBRANCH   2   3
ENDBRANCH   1   2
BRANCH   1  29
ATOM     29  C   UNL A   1      32.580  29.011  23.353  1.00  0.00     0.002 C 
BRANCH  29  30
ATOM     30  C   UNL A   1      32.889  29.254  24.834  1.00  0.00     0.002 C 
BRANCH  30  31
ATOM     31  C   UNL A   1      33.837  28.233  25.468  1.00  0.00     0.021 C 
BRANCH  31  32
ATOM     32  C   UNL A   1      34.007  28.384  26.975  1.00  0.00     0.116 C 
BRANCH  32  33
ATOM     33  N   UNL A   1      33.822  29.759  27.408  1.00  0.00    -0.352 N 
ATOM     34  C   UNL A   1      34.675  30.551  28.130  1.00  0.00     0.251 C 
ATOM     35  H   UNL A   1      32.970  30.177  27.147  1.00  0.00     0.163 HD
ATOM     36  O   UNL A   1      34.294  31.632  28.567  1.00  0.00    -0.269 OA
BRANCH  34  37
ATOM     37  C   UNL A   1      36.046  30.074  28.392  1.00  0.00     0.039 A 
ATOM     38  C   UNL A   1      37.000  30.184  27.381  1.00  0.00     0.014 A 
ATOM     39  C   UNL A   1      36.387  29.544  29.640  1.00  0.00     0.014 A 
ATOM     40  C   UNL A   1      38.316  29.803  27.639  1.00  0.00     0.010 A 
ATOM     41  C   UNL A   1      37.713  29.236  29.918  1.00  0.00     0.010 A 
ATOM     42  C   UNL A   1      38.688  29.353  28.917  1.00  0.00    -0.014 A 
BRANCH  42  43
ATOM     43  C   UNL A   1      40.094  28.993  29.221  1.00  0.00     0.031 A 
ATOM     44  C   UNL A   1      41.000  29.997  29.880  1.00  0.00     0.074 A 
ATOM     45  C   UNL A   1      40.566  27.786  28.854  1.00  0.00     0.049 A 
ATOM     46  N   UNL A   1      42.269  29.891  30.180  1.00  0.00    -0.248 NA
ATOM     47  C   UNL A   1      40.412  31.303  30.221  1.00  0.00     0.031 C 
ATOM     48  C   UNL A   1      39.792  26.750  28.163  1.00  0.00     0.029 A 
ATOM     49  N   UNL A   1      41.809  27.225  29.000  1.00  0.00    -0.354 N 
ATOM     50  C   UNL A   1      42.632  31.115  30.728  1.00  0.00     0.074 A 
ATOM     51  C   UNL A   1      41.465  31.967  30.672  1.00  0.00     0.031 C 
ATOM     52  C   UNL A   1      40.571  25.675  27.967  1.00  0.00     0.029 A 
ATOM     53  C   UNL A   1      41.908  25.956  28.481  1.00  0.00     0.049 A 
ATOM     54  H   UNL A   1      42.560  27.689  29.437  1.00  0.00     0.167 HD
ATOM     55  C   UNL A   1      43.824  31.485  31.252  1.00  0.00     0.037 A 
ATOM     56  C   UNL A   1      42.960  25.118  28.419  1.00  0.00     0.037 A 
ATOM     57  C   UNL A   1      44.971  30.618  31.329  1.00  0.00     0.049 A 
ATOM     58  C   UNL A   1      44.275  25.554  29.010  1.00  0.00     0.074 A 
ATOM     59  C   UNL A   1      46.204  30.872  31.903  1.00  0.00     0.029 A 
ATOM     60  N   UNL A   1      45.028  29.332  30.810  1.00  0.00    -0.354 N 
ATOM     61  N   UNL A   1      44.580  26.687  29.596  1.00  0.00    -0.248 NA
ATOM     62  C   UNL A   1      45.385  24.595  28.939  1.00  0.00     0.031 C 
ATOM     63  C   UNL A   1      47.023  29.759  31.685  1.00  0.00     0.029 A 
ATOM     64  C   UNL A   1      46.284  28.790  31.027  1.00  0.00     0.049 A 
ATOM     65  H   UNL A   1      44.285  28.872  30.355  1.00  0.00     0.167 HD
ATOM     66  C   UNL A   1      45.908  26.566  29.989  1.00  0.00     0.074 A 
ATOM     67  C   UNL A   1      46.343  25.245  29.586  1.00  0.00     0.031 C 
ATOM     68  C   UNL A   1      46.697  27.468  30.627  1.00  0.00     0.037 A 
BRANCH  55  69
ATOM     69  C   UNL A   1      43.951  32.886  31.787  1.00  0.00     0.058 A 
ATOM     70  C   UNL A   1      43.705  33.189  33.136  1.00  0.00     0.135 A 
ATOM     71  C   UNL A   1      44.365  33.934  30.947  1.00  0.00     0.135 A 
ATOM     72  F   UNL A   1      43.292  32.232  33.980  1.00  0.00    -0.206 F 
ATOM     73  C   UNL A   1      43.841  34.483  33.627  1.00  0.00     0.059 A 
ATOM     74  C   UNL A   1      44.536  35.230  31.424  1.00  0.00     0.059 A 
ATOM     75  F   UNL A   1      44.611  33.701  29.648  1.00  0.00    -0.206 F 
ATOM     76  C   UNL A   1      44.259  35.497  32.764  1.00  0.00     0.060 A 
BRANCH  76  77
ATOM     77  S   UNL A   1      44.443  37.168  33.422  1.00  0.00     0.124 S 
ATOM     78  O   UNL A   1      45.145  36.912  34.675  1.00  0.00    -0.237 OA
ATOM     79  O   UNL A   1      45.225  37.827  32.381  1.00  0.00    -0.237 OA
ATOM     80  O   UNL A   1      43.067  37.634  33.557  1.00  0.00    -0.744 OA
ENDBRANCH  76  77
ENDBRANCH  55  69
BRANCH  56  81
ATOM     81  C   UNL A   1      42.811  23.778  27.789  1.00  0.00     0.058 A 
ATOM     82  C   UNL A   1      42.516  22.645  28.560  1.00  0.00     0.135 A 
ATOM     83  C   UNL A   1      42.955  23.605  26.404  1.00  0.00     0.135 A 
ATOM     84  F   UNL A   1      42.374  22.758  29.890  1.00  0.00    -0.206 F 
ATOM     85  C   UNL A   1      42.393  21.384  27.988  1.00  0.00     0.059 A 
ATOM     86  C   UNL A   1      42.807  22.359  25.803  1.00  0.00     0.059 A 
ATOM     87  F   UNL A   1      43.218  24.660  25.617  1.00  0.00    -0.206 F 
ATOM     88  C   UNL A   1      42.539  21.251  26.606  1.00  0.00     0.060 A 
BRANCH  88  89
ATOM     89  S   UNL A   1      42.340  19.615  25.868  1.00  0.00     0.124 S 
ATOM     90  O   UNL A   1      42.631  18.744  27.002  1.00  0.00    -0.237 OA
ATOM     91  O   UNL A   1      40.951  19.645  25.425  1.00  0.00    -0.237 OA
ATOM     92  O   UNL A   1      43.333  19.608  24.797  1.00  0.00    -0.744 OA
ENDBRANCH  88  89
ENDBRANCH  56  81
BRANCH  68  93
ATOM     93  C   UNL A   1      48.100  27.044  30.965  1.00  0.00     0.058 A 
ATOM     94  C   UNL A   1      48.388  26.274  32.102  1.00  0.00     0.135 A 
ATOM     95  C   UNL A   1      49.163  27.368  30.105  1.00  0.00     0.135 A 
ATOM     96  F   UNL A   1      47.409  25.942  32.958  1.00  0.00    -0.206 F 
ATOM     97  C   UNL A   1      49.684  25.862  32.389  1.00  0.00     0.059 A 
ATOM     98  C   UNL A   1      50.462  26.940  30.357  1.00  0.00     0.059 A 
ATOM     99  F   UNL A   1      48.941  28.093  28.998  1.00  0.00    -0.206 F 
ATOM    100  C   UNL A   1      50.715  26.197  31.509  1.00  0.00     0.060 A 
BRANCH 100 101
ATOM    101  S   UNL A   1      52.387  25.624  31.876  1.00  0.00     0.124 S 
ATOM    102  O   UNL A   1      53.075  25.901  30.619  1.00  0.00    -0.237 OA
ATOM    103  O   UNL A   1      52.766  26.467  33.005  1.00  0.00    -0.237 OA
ATOM    104  O   UNL A   1      52.201  24.211  32.191  1.00  0.00    -0.744 OA
ENDBRANCH 100 101
ENDBRANCH  68  93
ENDBRANCH  42  43
ENDBRANCH  34  37
ENDBRANCH  32  33
ENDBRANCH  31  32
ENDBRANCH  30  31
ENDBRANCH  29  30
ENDBRANCH   1  29
TORSDOF 24
ENDMDL
MODEL 2
REMARK VINA RESULT:     -10.0      3.261      9.421
REMARK SMILES CC(C)C[C@H](NC(=O)CNC(=O)[C@@H]([NH3+])C(C)C)C(=O)NCCCCCCNC(=O)c1ccc(-c2c3nc(c(-c4c(F)cc(S(=O)(=O)[O-])cc4F)c4ccc([nH]4)c(-c4c(F)cc(S(=O)(=O)[O-])cc4F)c4nc(c(-c5c(F)cc(S(=O)(=O)[O-])cc5F)c5ccc2[nH]5)C=C4)C=C3)cc1
REMARK SMILES IDX 22 1 21 2 20 3 18 4 19 5 5 7 4 8 2 9 1 10 3 11 6 12 7 13
REMARK SMILES IDX 8 15 9 16 10 17 11 18 12 20 13 21 14 22 15 26 16 27 17 28
REMARK SMILES IDX 23 29 24 30 25 31 26 32 27 33 28 34 29 36 30 37 31 38 95 39
REMARK SMILES IDX 32 40 94 41 33 42 34 43 35 44 88 45 36 46 93 47 87 48 89 49
REMARK SMILES IDX 37 50 92 51 86 52 85 53 38 55 72 56 51 57 71 58 52 59 55 60
REMARK SMILES IDX 70 61 90 62 53 63 54 64 69 66 91 67 56 68 39 69 40 70 49 71
REMARK SMILES IDX 41 72 42 73 48 74 50 75 43 76 44 77 45 78 46 79 47 80 73 81
REMARK SMILES IDX 74 82 83 83 75 84 76 85 82 86 84 87 77 88 78 89 79 90 80 91
REMARK SMILES IDX 81 92 57 93 58 94 67 95 59 96 60 97 66 98 68 99 61 100
REMARK SMILES IDX 62 101 63 102 64 103 65 104
REMARK H PARENT 20 6 6 14 10 19 14 23 14 24 14 25 27 35 89 54 55 65
REMARK Flexibility Score: inf
ROOT
ATOM      1  C   UNL A   1      31.139  23.557  26.318  1.00  0.00     0.021 C 
ENDROOT
BRANCH   1   2
ATOM      2  C   UNL A   1      31.186  23.501  24.803  1.00  0.00     0.116 C 
BRANCH   2   3
ATOM      3  N   UNL A   1      30.319  24.511  24.218  1.00  0.00    -0.354 N 
ATOM      4  C   UNL A   1      30.533  25.853  24.087  1.00  0.00     0.242 C 
ATOM      5  O   UNL A   1      29.701  26.528  23.479  1.00  0.00    -0.273 OA
ATOM      6  H   UNL A   1      29.460  24.183  23.869  1.00  0.00     0.163 HD
BRANCH   4   7
ATOM      7  C   UNL A   1      31.834  26.466  24.635  1.00  0.00     0.171 C 
BRANCH   7   8
ATOM      8  C   UNL A   1      31.505  27.689  25.502  1.00  0.00     0.038 C 
BRANCH   8   9
ATOM      9  C   UNL A   1      32.555  28.237  26.488  1.00  0.00    -0.015 C 
ATOM     10  C   UNL A   1      33.941  27.619  26.299  1.00  0.00     0.007 C 
ATOM     11  C   UNL A   1      32.658  29.757  26.286  1.00  0.00     0.007 C 
ENDBRANCH   8   9
ENDBRANCH   7   8
BRANCH   7  12
ATOM     12  N   UNL A   1      32.691  26.751  23.464  1.00  0.00    -0.343 N 
ATOM     13  C   UNL A   1      32.923  27.813  22.658  1.00  0.00     0.240 C 
ATOM     14  H   UNL A   1      33.231  25.969  23.206  1.00  0.00     0.164 HD
ATOM     15  O   UNL A   1      33.774  27.644  21.775  1.00  0.00    -0.273 OA
BRANCH  13  16
ATOM     16  C   UNL A   1      32.277  29.188  22.834  1.00  0.00     0.216 C 
BRANCH  16  17
ATOM     17  N   UNL A   1      31.336  29.561  21.797  1.00  0.00    -0.342 N 
ATOM     18  C   UNL A   1      30.040  29.972  21.897  1.00  0.00     0.278 C 
ATOM     19  H   UNL A   1      31.686  29.510  20.878  1.00  0.00     0.164 HD
ATOM     20  O   UNL A   1      29.434  30.205  20.846  1.00  0.00    -0.268 OA
BRANCH  18  21
ATOM     21  C   UNL A   1      29.324  30.143  23.263  1.00  0.00     0.273 C 
BRANCH  21  22
ATOM     22  N   UNL A   1      29.936  31.212  24.087  1.00  0.00    -0.347 N 
ATOM     23  H   UNL A   1      29.202  31.737  24.562  1.00  0.00     0.345 HD
ATOM     24  H   UNL A   1      30.469  31.840  23.486  1.00  0.00     0.345 HD
ATOM     25  H   UNL A   1      30.557  30.794  24.779  1.00  0.00     0.345 HD
ENDBRANCH  21  22
BRANCH  21  26
ATOM     26  C   UNL A   1      27.810  30.323  23.044  1.00  0.00     0.051 C 
ATOM     27  C   UNL A   1      27.101  28.972  23.228  1.00  0.00     0.014 C 
ATOM     28  C   UNL A   1      27.198  31.340  24.013  1.00  0.00     0.014 C 
ENDBRANCH  21  26
ENDBRANCH  18  21
ENDBRANCH  16  17
ENDBRANCH  13  16
ENDBRANCH   7  12
ENDBRANCH   4   7
ENDBRANCH   2   3
ENDBRANCH   1   2
BRANCH   1  29
ATOM     29  C   UNL A   1      32.449  23.121  26.972  1.00  0.00     0.002 C 
BRANCH  29  30
ATOM     30  C   UNL A   1      33.709  23.707  26.326  1.00  0.00     0.002 C 
BRANCH  30  31
ATOM     31  C   UNL A   1      35.029  23.190  26.904  1.00  0.00     0.021 C 
BRANCH  31  32
ATOM     32  C   UNL A   1      36.267  23.629  26.132  1.00  0.00     0.116 C 
BRANCH  32  33
ATOM     33  N   UNL A   1      37.285  22.592  26.103  1.00  0.00    -0.352 N 
ATOM     34  C   UNL A   1      38.638  22.715  26.282  1.00  0.00     0.251 C 
ATOM     35  H   UNL A   1      36.959  21.679  25.932  1.00  0.00     0.163 HD
ATOM     36  O   UNL A   1      39.381  21.766  26.049  1.00  0.00    -0.269 OA
BRANCH  34  37
ATOM     37  C   UNL A   1      39.185  24.007  26.735  1.00  0.00     0.039 A 
ATOM     38  C   UNL A   1      39.137  24.318  28.093  1.00  0.00     0.014 A 
ATOM     39  C   UNL A   1      39.765  24.892  25.820  1.00  0.00     0.014 A 
ATOM     40  C   UNL A   1      39.714  25.504  28.543  1.00  0.00     0.010 A 
ATOM     41  C   UNL A   1      40.406  26.035  26.281  1.00  0.00     0.010 A 
ATOM     42  C   UNL A   1      40.378  26.358  27.646  1.00  0.00    -0.014 A 
BRANCH  42  43
ATOM     43  C   UNL A   1      41.041  27.597  28.118  1.00  0.00     0.031 A 
ATOM     44  C   UNL A   1      42.540  27.710  28.071  1.00  0.00     0.074 A 
ATOM     45  C   UNL A   1      40.297  28.593  28.638  1.00  0.00     0.049 A 
ATOM     46  N   UNL A   1      43.308  28.686  28.482  1.00  0.00    -0.248 NA
ATOM     47  C   UNL A   1      43.279  26.563  27.514  1.00  0.00     0.031 C 
ATOM     48  C   UNL A   1      38.839  28.573  28.781  1.00  0.00     0.029 A 
ATOM     49  N   UNL A   1      40.662  29.811  29.151  1.00  0.00    -0.354 N 
ATOM     50  C   UNL A   1      44.611  28.268  28.249  1.00  0.00     0.074 A 
ATOM     51  C   UNL A   1      44.537  26.928  27.709  1.00  0.00     0.031 C 
ATOM     52  C   UNL A   1      38.433  29.732  29.322  1.00  0.00     0.029 A 
ATOM     53  C   UNL A   1      39.602  30.562  29.601  1.00  0.00     0.049 A 
ATOM     54  H   UNL A   1      41.597  30.119  29.192  1.00  0.00     0.167 HD
ATOM     55  C   UNL A   1      45.765  28.948  28.446  1.00  0.00     0.037 A 
ATOM     56  C   UNL A   1      39.576  31.776  30.181  1.00  0.00     0.037 A 
ATOM     57  C   UNL A   1      45.826  30.293  28.958  1.00  0.00     0.049 A 
ATOM     58  C   UNL A   1      40.873  32.513  30.388  1.00  0.00     0.074 A 
ATOM     59  C   UNL A   1      46.938  31.097  29.130  1.00  0.00     0.029 A 
ATOM     60  N   UNL A   1      44.729  31.028  29.385  1.00  0.00    -0.354 N 
ATOM     61  N   UNL A   1      42.093  32.134  30.090  1.00  0.00    -0.248 NA
ATOM     62  C   UNL A   1      40.789  33.845  31.003  1.00  0.00     0.031 C 
ATOM     63  C   UNL A   1      46.520  32.300  29.710  1.00  0.00     0.029 A 
ATOM     64  C   UNL A   1      45.141  32.268  29.846  1.00  0.00     0.049 A 
ATOM     65  H   UNL A   1      43.796  30.716  29.364  1.00  0.00     0.167 HD
ATOM     66  C   UNL A   1      42.919  33.191  30.454  1.00  0.00     0.074 A 
ATOM     67  C   UNL A   1      42.058  34.230  30.981  1.00  0.00     0.031 C 
ATOM     68  C   UNL A   1      44.269  33.294  30.359  1.00  0.00     0.037 A 
BRANCH  55  69
ATOM     69  C   UNL A   1      47.057  28.255  28.107  1.00  0.00     0.058 A 
ATOM     70  C   UNL A   1      47.769  27.508  29.059  1.00  0.00     0.135 A 
ATOM     71  C   UNL A   1      47.568  28.303  26.799  1.00  0.00     0.135 A 
ATOM     72  F   UNL A   1      47.337  27.441  30.327  1.00  0.00    -0.206 F 
ATOM     73  C   UNL A   1      48.954  26.856  28.734  1.00  0.00     0.059 A 
ATOM     74  C   UNL A   1      48.735  27.633  26.445  1.00  0.00     0.059 A 
ATOM     75  F   UNL A   1      46.929  29.004  25.849  1.00  0.00    -0.206 F 
ATOM     76  C   UNL A   1      49.428  26.922  27.423  1.00  0.00     0.060 A 
BRANCH  76  77
ATOM     77  S   UNL A   1      50.960  26.058  27.016  1.00  0.00     0.124 S 
ATOM     78  O   UNL A   1      51.906  26.700  27.923  1.00  0.00    -0.237 OA
ATOM     79  O   UNL A   1      50.626  24.671  27.327  1.00  0.00    -0.237 OA
ATOM     80  O   UNL A   1      51.150  26.350  25.599  1.00  0.00    -0.744 OA
ENDBRANCH  76  77
ENDBRANCH  55  69
BRANCH  56  81
ATOM     81  C   UNL A   1      38.279  32.380  30.592  1.00  0.00     0.058 A 
ATOM     82  C   UNL A   1      37.564  33.217  29.724  1.00  0.00     0.135 A 
ATOM     83  C   UNL A   1      37.727  32.128  31.858  1.00  0.00     0.135 A 
ATOM     84  F   UNL A   1      38.052  33.493  28.505  1.00  0.00    -0.206 F 
ATOM     85  C   UNL A   1      36.361  33.803  30.102  1.00  0.00     0.059 A 
ATOM     86  C   UNL A   1      36.511  32.678  32.248  1.00  0.00     0.059 A 
ATOM     87  F   UNL A   1      38.361  31.317  32.720  1.00  0.00    -0.206 F 
ATOM     88  C   UNL A   1      35.840  33.525  31.367  1.00  0.00     0.060 A 
BRANCH  88  89
ATOM     89  S   UNL A   1      34.259  34.262  31.834  1.00  0.00     0.124 S 
ATOM     90  O   UNL A   1      33.736  33.269  32.765  1.00  0.00    -0.237 OA
ATOM     91  O   UNL A   1      34.674  35.532  32.419  1.00  0.00    -0.237 OA
ATOM     92  O   UNL A   1      33.551  34.368  30.561  1.00  0.00    -0.744 OA
ENDBRANCH  88  89
ENDBRANCH  56  81
BRANCH  68  93
ATOM     93  C   UNL A   1      44.897  34.588  30.799  1.00  0.00     0.058 A 
ATOM     94  C   UNL A   1      45.360  34.778  32.110  1.00  0.00     0.135 A 
ATOM     95  C   UNL A   1      45.087  35.631  29.877  1.00  0.00     0.135 A 
ATOM     96  F   UNL A   1      45.197  33.815  33.030  1.00  0.00    -0.206 F 
ATOM     97  C   UNL A   1      45.967  35.967  32.499  1.00  0.00     0.059 A 
ATOM     98  C   UNL A   1      45.720  36.817  30.237  1.00  0.00     0.059 A 
ATOM     99  F   UNL A   1      44.673  35.497  28.608  1.00  0.00    -0.206 F 
ATOM    100  C   UNL A   1      46.146  36.980  31.555  1.00  0.00     0.060 A 
BRANCH 100 101
ATOM    101  S   UNL A   1      46.968  38.504  32.064  1.00  0.00     0.124 S 
ATOM    102  O   UNL A   1      47.155  39.179  30.784  1.00  0.00    -0.237 OA
ATOM    103  O   UNL A   1      45.986  39.104  32.961  1.00  0.00    -0.237 OA
ATOM    104  O   UNL A   1      48.190  38.032  32.709  1.00  0.00    -0.744 OA
ENDBRANCH 100 101
ENDBRANCH  68  93
ENDBRANCH  42  43
ENDBRANCH  34  37
ENDBRANCH  32  33
ENDBRANCH  31  32
ENDBRANCH  30  31
ENDBRANCH  29  30
ENDBRANCH   1  29
TORSDOF 24
ENDMDL
MODEL 3
REMARK VINA RESULT:      -9.9      3.268      8.840
REMARK SMILES CC(C)C[C@H](NC(=O)CNC(=O)[C@@H]([NH3+])C(C)C)C(=O)NCCCCCCNC(=O)c1ccc(-c2c3nc(c(-c4c(F)cc(S(=O)(=O)[O-])cc4F)c4ccc([nH]4)c(-c4c(F)cc(S(=O)(=O)[O-])cc4F)c4nc(c(-c5c(F)cc(S(=O)(=O)[O-])cc5F)c5ccc2[nH]5)C=C4)C=C3)cc1
REMARK SMILES IDX 22 1 21 2 20 3 18 4 19 5 5 7 4 8 2 9 1 10 3 11 6 12 7 13
REMARK SMILES IDX 8 15 9 16 10 17 11 18 12 20 13 21 14 22 15 26 16 27 17 28
REMARK SMILES IDX 23 29 24 30 25 31 26 32 27 33 28 34 29 36 30 37 31 38 95 39
REMARK SMILES IDX 32 40 94 41 33 42 34 43 35 44 88 45 36 46 93 47 87 48 89 49
REMARK SMILES IDX 37 50 92 51 86 52 85 53 38 55 72 56 51 57 71 58 52 59 55 60
REMARK SMILES IDX 70 61 90 62 53 63 54 64 69 66 91 67 56 68 39 69 40 70 49 71
REMARK SMILES IDX 41 72 42 73 48 74 50 75 43 76 44 77 45 78 46 79 47 80 73 81
REMARK SMILES IDX 74 82 83 83 75 84 76 85 82 86 84 87 77 88 78 89 79 90 80 91
REMARK SMILES IDX 81 92 57 93 58 94 67 95 59 96 60 97 66 98 68 99 61 100
REMARK SMILES IDX 62 101 63 102 64 103 65 104
REMARK H PARENT 20 6 6 14 10 19 14 23 14 24 14 25 27 35 89 54 55 65
REMARK Flexibility Score: inf
ROOT
ATOM      1  C   UNL A   1      32.292  27.936  27.236  1.00  0.00     0.021 C 
ENDROOT
BRANCH   1   2
ATOM      2  C   UNL A   1      31.377  27.389  26.156  1.00  0.00     0.116 C 
BRANCH   2   3
ATOM      3  N   UNL A   1      30.772  26.135  26.574  1.00  0.00    -0.354 N 
ATOM      4  C   UNL A   1      31.285  24.871  26.507  1.00  0.00     0.242 C 
ATOM      5  O   UNL A   1      30.640  23.944  26.999  1.00  0.00    -0.273 OA
ATOM      6  H   UNL A   1      29.869  26.206  26.958  1.00  0.00     0.163 HD
BRANCH   4   7
ATOM      7  C   UNL A   1      32.679  24.655  25.891  1.00  0.00     0.171 C 
BRANCH   7   8
ATOM      8  C   UNL A   1      32.534  24.227  24.424  1.00  0.00     0.038 C 
BRANCH   8   9
ATOM      9  C   UNL A   1      33.615  24.620  23.398  1.00  0.00    -0.015 C 
ATOM     10  C   UNL A   1      34.877  23.763  23.493  1.00  0.00     0.007 C 
ATOM     11  C   UNL A   1      33.019  24.471  21.989  1.00  0.00     0.007 C 
ENDBRANCH   8   9
ENDBRANCH   7   8
BRANCH   7  12
ATOM     12  N   UNL A   1      33.375  23.678  26.754  1.00  0.00    -0.343 N 
ATOM     13  C   UNL A   1      33.589  22.342  26.743  1.00  0.00     0.240 C 
ATOM     14  H   UNL A   1      33.791  24.109  27.535  1.00  0.00     0.164 HD
ATOM     15  O   UNL A   1      34.277  21.898  27.671  1.00  0.00    -0.273 OA
BRANCH  13  16
ATOM     16  C   UNL A   1      33.116  21.401  25.634  1.00  0.00     0.216 C 
BRANCH  16  17
ATOM     17  N   UNL A   1      32.647  20.106  26.087  1.00  0.00    -0.342 N 
ATOM     18  C   UNL A   1      32.855  18.866  25.560  1.00  0.00     0.278 C 
ATOM     19  H   UNL A   1      32.093  20.125  26.900  1.00  0.00     0.164 HD
ATOM     20  O   UNL A   1      32.313  17.910  26.124  1.00  0.00    -0.268 OA
BRANCH  18  21
ATOM     21  C   UNL A   1      33.726  18.634  24.297  1.00  0.00     0.273 C 
BRANCH  21  22
ATOM     22  N   UNL A   1      35.156  18.438  24.632  1.00  0.00    -0.347 N 
ATOM     23  H   UNL A   1      35.717  19.140  24.148  1.00  0.00     0.345 HD
ATOM     24  H   UNL A   1      35.449  17.507  24.337  1.00  0.00     0.345 HD
ATOM     25  H   UNL A   1      35.287  18.533  25.638  1.00  0.00     0.345 HD
ENDBRANCH  21  22
BRANCH  21  26
ATOM     26  C   UNL A   1      33.129  17.494  23.449  1.00  0.00     0.051 C 
ATOM     27  C   UNL A   1      32.508  18.079  22.171  1.00  0.00     0.014 C 
ATOM     28  C   UNL A   1      34.178  16.449  23.057  1.00  0.00     0.014 C 
ENDBRANCH  21  26
ENDBRANCH  18  21
ENDBRANCH  16  17
ENDBRANCH  13  16
ENDBRANCH   7  12
ENDBRANCH   4   7
ENDBRANCH   2   3
ENDBRANCH   1   2
BRANCH   1  29
ATOM     29  C   UNL A   1      32.849  29.319  26.902  1.00  0.00     0.002 C 
BRANCH  29  30
ATOM     30  C   UNL A   1      34.269  29.573  27.417  1.00  0.00     0.002 C 
BRANCH  30  31
ATOM     31  C   UNL A   1      34.655  31.050  27.538  1.00  0.00     0.021 C 
BRANCH  31  32
ATOM     32  C   UNL A   1      35.919  31.306  28.350  1.00  0.00     0.116 C 
BRANCH  32  33
ATOM     33  N   UNL A   1      35.738  30.978  29.754  1.00  0.00    -0.352 N 
ATOM     34  C   UNL A   1      36.548  30.232  30.569  1.00  0.00     0.251 C 
ATOM     35  H   UNL A   1      34.927  31.340  30.176  1.00  0.00     0.163 HD
ATOM     36  O   UNL A   1      36.163  29.900  31.686  1.00  0.00    -0.269 OA
BRANCH  34  37
ATOM     37  C   UNL A   1      37.874  29.817  30.076  1.00  0.00     0.039 A 
ATOM     38  C   UNL A   1      38.127  29.867  28.705  1.00  0.00     0.014 A 
ATOM     39  C   UNL A   1      38.868  29.406  30.970  1.00  0.00     0.014 A 
ATOM     40  C   UNL A   1      39.398  29.545  28.233  1.00  0.00     0.010 A 
ATOM     41  C   UNL A   1      40.154  29.160  30.504  1.00  0.00     0.010 A 
ATOM     42  C   UNL A   1      40.428  29.217  29.130  1.00  0.00    -0.014 A 
BRANCH  42  43
ATOM     43  C   UNL A   1      41.799  28.924  28.646  1.00  0.00     0.031 A 
ATOM     44  C   UNL A   1      42.154  27.533  28.195  1.00  0.00     0.074 A 
ATOM     45  C   UNL A   1      42.732  29.895  28.664  1.00  0.00     0.049 A 
ATOM     46  N   UNL A   1      43.305  27.067  27.787  1.00  0.00    -0.248 NA
ATOM     47  C   UNL A   1      41.081  26.525  28.234  1.00  0.00     0.031 C 
ATOM     48  C   UNL A   1      42.515  31.268  29.128  1.00  0.00     0.029 A 
ATOM     49  N   UNL A   1      44.052  29.877  28.293  1.00  0.00    -0.354 N 
ATOM     50  C   UNL A   1      43.101  25.716  27.537  1.00  0.00     0.074 A 
ATOM     51  C   UNL A   1      41.729  25.423  27.889  1.00  0.00     0.031 C 
ATOM     52  C   UNL A   1      43.655  31.964  28.992  1.00  0.00     0.029 A 
ATOM     53  C   UNL A   1      44.693  31.081  28.469  1.00  0.00     0.049 A 
ATOM     54  H   UNL A   1      44.500  29.077  27.933  1.00  0.00     0.167 HD
ATOM     55  C   UNL A   1      43.972  24.808  27.038  1.00  0.00     0.037 A 
ATOM     56  C   UNL A   1      45.974  31.430  28.244  1.00  0.00     0.037 A 
ATOM     57  C   UNL A   1      45.327  25.118  26.665  1.00  0.00     0.049 A 
ATOM     58  C   UNL A   1      46.922  30.401  27.688  1.00  0.00     0.074 A 
ATOM     59  C   UNL A   1      46.270  24.287  26.085  1.00  0.00     0.029 A 
ATOM     60  N   UNL A   1      45.936  26.352  26.840  1.00  0.00    -0.354 N 
ATOM     61  N   UNL A   1      46.691  29.146  27.383  1.00  0.00    -0.248 NA
ATOM     62  C   UNL A   1      48.302  30.837  27.436  1.00  0.00     0.031 C 
ATOM     63  C   UNL A   1      47.464  25.006  25.959  1.00  0.00     0.029 A 
ATOM     64  C   UNL A   1      47.249  26.299  26.405  1.00  0.00     0.049 A 
ATOM     65  H   UNL A   1      45.497  27.150  27.218  1.00  0.00     0.167 HD
ATOM     66  C   UNL A   1      47.888  28.651  26.878  1.00  0.00     0.074 A 
ATOM     67  C   UNL A   1      48.836  29.746  26.905  1.00  0.00     0.031 C 
ATOM     68  C   UNL A   1      48.176  27.403  26.431  1.00  0.00     0.037 A 
BRANCH  55  69
ATOM     69  C   UNL A   1      43.488  23.394  26.863  1.00  0.00     0.058 A 
ATOM     70  C   UNL A   1      43.249  22.551  27.960  1.00  0.00     0.135 A 
ATOM     71  C   UNL A   1      43.221  22.887  25.580  1.00  0.00     0.135 A 
ATOM     72  F   UNL A   1      43.503  22.976  29.208  1.00  0.00    -0.206 F 
ATOM     73  C   UNL A   1      42.787  21.250  27.792  1.00  0.00     0.059 A 
ATOM     74  C   UNL A   1      42.729  21.599  25.390  1.00  0.00     0.059 A 
ATOM     75  F   UNL A   1      43.434  23.647  24.495  1.00  0.00    -0.206 F 
ATOM     76  C   UNL A   1      42.527  20.783  26.503  1.00  0.00     0.060 A 
BRANCH  76  77
ATOM     77  S   UNL A   1      41.914  19.097  26.304  1.00  0.00     0.124 S 
ATOM     78  O   UNL A   1      42.227  18.518  27.607  1.00  0.00    -0.237 OA
ATOM     79  O   UNL A   1      40.496  19.312  26.031  1.00  0.00    -0.237 OA
ATOM     80  O   UNL A   1      42.693  18.581  25.184  1.00  0.00    -0.744 OA
ENDBRANCH  76  77
ENDBRANCH  55  69
BRANCH  56  81
ATOM     81  C   UNL A   1      46.430  32.817  28.528  1.00  0.00     0.058 A 
ATOM     82  C   UNL A   1      46.388  33.810  27.538  1.00  0.00     0.135 A 
ATOM     83  C   UNL A   1      46.914  33.180  29.795  1.00  0.00     0.135 A 
ATOM     84  F   UNL A   1      45.939  33.512  26.309  1.00  0.00    -0.206 F 
ATOM     85  C   UNL A   1      46.829  35.105  27.784  1.00  0.00     0.059 A 
ATOM     86  C   UNL A   1      47.333  34.476  30.074  1.00  0.00     0.059 A 
ATOM     87  F   UNL A   1      46.957  32.273  30.784  1.00  0.00    -0.206 F 
ATOM     88  C   UNL A   1      47.299  35.430  29.058  1.00  0.00     0.060 A 
BRANCH  88  89
ATOM     89  S   UNL A   1      47.835  37.125  29.377  1.00  0.00     0.124 S 
ATOM     90  O   UNL A   1      48.742  37.361  28.259  1.00  0.00    -0.237 OA
ATOM     91  O   UNL A   1      46.574  37.857  29.342  1.00  0.00    -0.237 OA
ATOM     92  O   UNL A   1      48.464  37.035  30.691  1.00  0.00    -0.744 OA
ENDBRANCH  88  89
ENDBRANCH  56  81
BRANCH  68  93
ATOM     93  C   UNL A   1      49.562  27.161  25.897  1.00  0.00     0.058 A 
ATOM     94  C   UNL A   1      50.609  26.728  26.725  1.00  0.00     0.135 A 
ATOM     95  C   UNL A   1      49.829  27.315  24.527  1.00  0.00     0.135 A 
ATOM     96  F   UNL A   1      50.408  26.571  28.043  1.00  0.00    -0.206 F 
ATOM     97  C   UNL A   1      51.879  26.478  26.217  1.00  0.00     0.059 A 
ATOM     98  C   UNL A   1      51.085  27.041  23.992  1.00  0.00     0.059 A 
ATOM     99  F   UNL A   1      48.861  27.717  23.690  1.00  0.00    -0.206 F 
ATOM    100  C   UNL A   1      52.107  26.634  24.849  1.00  0.00     0.060 A 
BRANCH 100 101
ATOM    101  S   UNL A   1      53.751  26.272  24.197  1.00  0.00     0.124 S 
ATOM    102  O   UNL A   1      54.546  27.339  24.796  1.00  0.00    -0.237 OA
ATOM    103  O   UNL A   1      54.001  24.929  24.712  1.00  0.00    -0.237 OA
ATOM    104  O   UNL A   1      53.571  26.358  22.751  1.00  0.00    -0.744 OA
ENDBRANCH 100 101
ENDBRANCH  68  93
ENDBRANCH  42  43
ENDBRANCH  34  37
ENDBRANCH  32  33
ENDBRANCH  31  32
ENDBRANCH  30  31
ENDBRANCH  29  30
ENDBRANCH   1  29
TORSDOF 24
ENDMDL
