MODEL 1
REMARK VINA RESULT:     -11.3      0.000      0.000
REMARK SMILES CC(C)Cc1ccc([C@@H]2CC[NH2+][C@H]2C(=O)NCCCCCCNC(=O)c2ccc(-c3c4nc(c(-c5c(F)cc(S(=O)(=O)[O-])cc5F)c5ccc([nH]5)c(-c5c(F)cc(S(=O)(=O)[O-])cc5F)c5nc(c(-c6c(F)cc(S(=O)(=O)[O-])cc6F)c6ccc3[nH]6)C=C5)C=C4)cc2)cc1
REMARK SMILES IDX 19 1 18 2 17 3 16 4 14 5 15 6 13 8 9 9 10 10 11 11 12 12
REMARK SMILES IDX 8 15 5 16 6 17 93 18 7 19 92 20 4 21 2 22 1 23 3 24 20 25
REMARK SMILES IDX 21 26 22 27 23 28 24 29 25 31 26 32 27 33 91 34 28 35 90 36
REMARK SMILES IDX 29 37 30 38 31 39 84 40 32 41 89 42 83 43 85 44 33 45 88 46
REMARK SMILES IDX 82 47 81 48 34 50 68 51 47 52 67 53 48 54 51 55 66 56 86 57
REMARK SMILES IDX 49 58 50 59 65 61 87 62 52 63 35 64 36 65 45 66 37 67 38 68
REMARK SMILES IDX 44 69 46 70 39 71 40 72 41 73 42 74 43 75 69 76 70 77 79 78
REMARK SMILES IDX 71 79 72 80 78 81 80 82 73 83 74 84 75 85 76 86 77 87 53 88
REMARK SMILES IDX 54 89 63 90 55 91 56 92 62 93 64 94 57 95 58 96 59 97 60 98
REMARK SMILES IDX 61 99
REMARK H PARENT 16 7 12 13 12 14 23 30 85 49 51 60
REMARK Flexibility Score: inf
ROOT
ATOM      1  C   UNL A   1      33.993  32.411  28.309  1.00  0.00     0.002 C 
ENDROOT
BRANCH   1   2
ATOM      2  C   UNL A   1      34.445  31.091  27.678  1.00  0.00     0.021 C 
BRANCH   2   3
ATOM      3  C   UNL A   1      33.374  30.441  26.807  1.00  0.00     0.116 C 
BRANCH   3   4
ATOM      4  N   UNL A   1      32.516  29.576  27.585  1.00  0.00    -0.351 N 
ATOM      5  C   UNL A   1      31.813  28.460  27.237  1.00  0.00     0.278 C 
ATOM      6  O   UNL A   1      31.060  27.988  28.095  1.00  0.00    -0.268 OA
ATOM      7  H   UNL A   1      32.424  29.837  28.530  1.00  0.00     0.163 HD
BRANCH   5   8
ATOM      8  C   UNL A   1      31.942  27.804  25.845  1.00  0.00     0.280 C 
ATOM      9  C   UNL A   1      31.427  26.356  25.780  1.00  0.00     0.093 C 
ATOM     10  C   UNL A   1      30.324  26.370  24.723  1.00  0.00     0.076 C 
ATOM     11  C   UNL A   1      30.542  27.650  23.933  1.00  0.00     0.262 C 
ATOM     12  N   UNL A   1      31.240  28.597  24.803  1.00  0.00    -0.335 N 
ATOM     13  H   UNL A   1      30.570  29.231  25.238  1.00  0.00     0.346 HD
ATOM     14  H   UNL A   1      31.903  29.158  24.267  1.00  0.00     0.346 HD
BRANCH   9  15
ATOM     15  C   UNL A   1      32.501  25.348  25.405  1.00  0.00    -0.038 A 
ATOM     16  C   UNL A   1      34.480  23.457  24.727  1.00  0.00    -0.048 A 
ATOM     17  C   UNL A   1      33.502  23.157  25.683  1.00  0.00     0.004 A 
ATOM     18  C   UNL A   1      34.440  24.699  24.086  1.00  0.00     0.004 A 
ATOM     19  C   UNL A   1      32.529  24.095  26.027  1.00  0.00     0.004 A 
ATOM     20  C   UNL A   1      33.456  25.629  24.415  1.00  0.00     0.004 A 
BRANCH  16  21
ATOM     21  C   UNL A   1      35.585  22.479  24.418  1.00  0.00     0.038 C 
BRANCH  21  22
ATOM     22  C   UNL A   1      36.639  22.378  25.540  1.00  0.00    -0.013 C 
ATOM     23  C   UNL A   1      37.845  21.522  25.139  1.00  0.00     0.008 C 
ATOM     24  C   UNL A   1      37.115  23.779  25.925  1.00  0.00     0.008 C 
ENDBRANCH  21  22
ENDBRANCH  16  21
ENDBRANCH   9  15
ENDBRANCH   5   8
ENDBRANCH   3   4
ENDBRANCH   2   3
ENDBRANCH   1   2
BRANCH   1  25
ATOM     25  C   UNL A   1      35.002  33.559  28.185  1.00  0.00     0.002 C 
BRANCH  25  26
ATOM     26  C   UNL A   1      36.466  33.155  28.387  1.00  0.00     0.021 C 
BRANCH  26  27
ATOM     27  C   UNL A   1      36.928  33.191  29.839  1.00  0.00     0.116 C 
BRANCH  27  28
ATOM     28  N   UNL A   1      36.351  32.101  30.610  1.00  0.00    -0.352 N 
ATOM     29  C   UNL A   1      36.787  30.808  30.741  1.00  0.00     0.251 C 
ATOM     30  H   UNL A   1      35.530  32.323  31.107  1.00  0.00     0.163 HD
ATOM     31  O   UNL A   1      36.044  29.957  31.228  1.00  0.00    -0.269 OA
BRANCH  29  32
ATOM     32  C   UNL A   1      38.145  30.443  30.290  1.00  0.00     0.039 A 
ATOM     33  C   UNL A   1      39.178  30.379  31.227  1.00  0.00     0.014 A 
ATOM     34  C   UNL A   1      38.396  30.173  28.941  1.00  0.00     0.014 A 
ATOM     35  C   UNL A   1      40.456  29.995  30.817  1.00  0.00     0.010 A 
ATOM     36  C   UNL A   1      39.650  29.715  28.551  1.00  0.00     0.010 A 
ATOM     37  C   UNL A   1      40.695  29.631  29.481  1.00  0.00    -0.014 A 
BRANCH  37  38
ATOM     38  C   UNL A   1      42.033  29.161  29.042  1.00  0.00     0.031 A 
ATOM     39  C   UNL A   1      43.180  30.128  28.945  1.00  0.00     0.074 A 
ATOM     40  C   UNL A   1      42.194  27.879  28.664  1.00  0.00     0.049 A 
ATOM     41  N   UNL A   1      44.403  29.920  28.527  1.00  0.00    -0.248 NA
ATOM     42  C   UNL A   1      42.911  31.518  29.342  1.00  0.00     0.031 C 
ATOM     43  C   UNL A   1      41.140  26.863  28.655  1.00  0.00     0.029 A 
ATOM     44  N   UNL A   1      43.301  27.214  28.199  1.00  0.00    -0.354 N 
ATOM     45  C   UNL A   1      45.043  31.151  28.602  1.00  0.00     0.074 A 
ATOM     46  C   UNL A   1      44.055  32.113  29.040  1.00  0.00     0.031 C 
ATOM     47  C   UNL A   1      41.652  25.701  28.219  1.00  0.00     0.029 A 
ATOM     48  C   UNL A   1      43.059  25.898  27.882  1.00  0.00     0.049 A 
ATOM     49  H   UNL A   1      44.183  27.639  28.103  1.00  0.00     0.167 HD
ATOM     50  C   UNL A   1      46.342  31.449  28.352  1.00  0.00     0.037 A 
ATOM     51  C   UNL A   1      43.874  24.959  27.363  1.00  0.00     0.037 A 
ATOM     52  C   UNL A   1      47.317  30.482  27.918  1.00  0.00     0.049 A 
ATOM     53  C   UNL A   1      45.310  25.304  27.091  1.00  0.00     0.074 A 
ATOM     54  C   UNL A   1      48.668  30.666  27.689  1.00  0.00     0.029 A 
ATOM     55  N   UNL A   1      47.043  29.150  27.636  1.00  0.00    -0.354 N 
ATOM     56  N   UNL A   1      45.921  26.456  27.240  1.00  0.00    -0.248 NA
ATOM     57  C   UNL A   1      46.173  24.224  26.596  1.00  0.00     0.031 C 
ATOM     58  C   UNL A   1      49.200  29.460  27.217  1.00  0.00     0.029 A 
ATOM     59  C   UNL A   1      48.193  28.507  27.209  1.00  0.00     0.049 A 
ATOM     60  H   UNL A   1      46.159  28.725  27.727  1.00  0.00     0.167 HD
ATOM     61  C   UNL A   1      47.245  26.237  26.873  1.00  0.00     0.074 A 
ATOM     62  C   UNL A   1      47.347  24.836  26.510  1.00  0.00     0.031 C 
ATOM     63  C   UNL A   1      48.279  27.113  26.842  1.00  0.00     0.037 A 
BRANCH  50  64
ATOM     64  C   UNL A   1      46.767  32.882  28.535  1.00  0.00     0.058 A 
ATOM     65  C   UNL A   1      46.736  33.805  27.475  1.00  0.00     0.135 A 
ATOM     66  C   UNL A   1      47.225  33.340  29.781  1.00  0.00     0.135 A 
ATOM     67  F   UNL A   1      46.317  33.423  26.258  1.00  0.00    -0.206 F 
ATOM     68  C   UNL A   1      47.196  35.109  27.629  1.00  0.00     0.059 A 
ATOM     69  C   UNL A   1      47.658  34.651  29.966  1.00  0.00     0.059 A 
ATOM     70  F   UNL A   1      47.272  32.507  30.833  1.00  0.00    -0.206 F 
ATOM     71  C   UNL A   1      47.665  35.519  28.876  1.00  0.00     0.060 A 
BRANCH  71  72
ATOM     72  S   UNL A   1      48.301  37.200  29.048  1.00  0.00     0.124 S 
ATOM     73  O   UNL A   1      49.717  37.005  28.750  1.00  0.00    -0.237 OA
ATOM     74  O   UNL A   1      47.536  37.928  28.041  1.00  0.00    -0.237 OA
ATOM     75  O   UNL A   1      47.993  37.541  30.433  1.00  0.00    -0.744 OA
ENDBRANCH  71  72
ENDBRANCH  50  64
BRANCH  51  76
ATOM     76  C   UNL A   1      43.333  23.601  27.089  1.00  0.00     0.058 A 
ATOM     77  C   UNL A   1      43.033  23.188  25.783  1.00  0.00     0.135 A 
ATOM     78  C   UNL A   1      43.172  22.666  28.124  1.00  0.00     0.135 A 
ATOM     79  F   UNL A   1      43.164  24.048  24.761  1.00  0.00    -0.206 F 
ATOM     80  C   UNL A   1      42.597  21.895  25.511  1.00  0.00     0.059 A 
ATOM     81  C   UNL A   1      42.762  21.361  27.874  1.00  0.00     0.059 A 
ATOM     82  F   UNL A   1      43.463  23.007  29.390  1.00  0.00    -0.206 F 
ATOM     83  C   UNL A   1      42.476  20.985  26.563  1.00  0.00     0.060 A 
BRANCH  83  84
ATOM     84  S   UNL A   1      42.004  19.283  26.185  1.00  0.00     0.124 S 
ATOM     85  O   UNL A   1      40.570  19.419  25.959  1.00  0.00    -0.237 OA
ATOM     86  O   UNL A   1      42.813  18.997  25.005  1.00  0.00    -0.237 OA
ATOM     87  O   UNL A   1      42.387  18.553  27.390  1.00  0.00    -0.744 OA
ENDBRANCH  83  84
ENDBRANCH  51  76
BRANCH  63  88
ATOM     88  C   UNL A   1      49.624  26.584  26.421  1.00  0.00     0.058 A 
ATOM     89  C   UNL A   1      50.104  26.741  25.111  1.00  0.00     0.135 A 
ATOM     90  C   UNL A   1      50.466  25.958  27.356  1.00  0.00     0.135 A 
ATOM     91  F   UNL A   1      49.339  27.326  24.176  1.00  0.00    -0.206 F 
ATOM     92  C   UNL A   1      51.361  26.277  24.737  1.00  0.00     0.059 A 
ATOM     93  C   UNL A   1      51.738  25.514  27.011  1.00  0.00     0.059 A 
ATOM     94  F   UNL A   1      50.060  25.790  28.624  1.00  0.00    -0.206 F 
ATOM     95  C   UNL A   1      52.173  25.668  25.696  1.00  0.00     0.060 A 
BRANCH  95  96
ATOM     96  S   UNL A   1      53.816  25.102  25.205  1.00  0.00     0.124 S 
ATOM     97  O   UNL A   1      53.675  23.655  25.323  1.00  0.00    -0.237 OA
ATOM     98  O   UNL A   1      53.931  25.619  23.845  1.00  0.00    -0.237 OA
ATOM     99  O   UNL A   1      54.699  25.729  26.185  1.00  0.00    -0.744 OA
ENDBRANCH  95  96
ENDBRANCH  63  88
ENDBRANCH  37  38
ENDBRANCH  29  32
ENDBRANCH  27  28
ENDBRANCH  26  27
ENDBRANCH  25  26
ENDBRANCH   1  25
TORSDOF 19
ENDMDL
MODEL 2
REMARK VINA RESULT:     -11.0      6.476     12.056
REMARK SMILES CC(C)Cc1ccc([C@@H]2CC[NH2+][C@H]2C(=O)NCCCCCCNC(=O)c2ccc(-c3c4nc(c(-c5c(F)cc(S(=O)(=O)[O-])cc5F)c5ccc([nH]5)c(-c5c(F)cc(S(=O)(=O)[O-])cc5F)c5nc(c(-c6c(F)cc(S(=O)(=O)[O-])cc6F)c6ccc3[nH]6)C=C5)C=C4)cc2)cc1
REMARK SMILES IDX 19 1 18 2 17 3 16 4 14 5 15 6 13 8 9 9 10 10 11 11 12 12
REMARK SMILES IDX 8 15 5 16 6 17 93 18 7 19 92 20 4 21 2 22 1 23 3 24 20 25
REMARK SMILES IDX 21 26 22 27 23 28 24 29 25 31 26 32 27 33 91 34 28 35 90 36
REMARK SMILES IDX 29 37 30 38 31 39 84 40 32 41 89 42 83 43 85 44 33 45 88 46
REMARK SMILES IDX 82 47 81 48 34 50 68 51 47 52 67 53 48 54 51 55 66 56 86 57
REMARK SMILES IDX 49 58 50 59 65 61 87 62 52 63 35 64 36 65 45 66 37 67 38 68
REMARK SMILES IDX 44 69 46 70 39 71 40 72 41 73 42 74 43 75 69 76 70 77 79 78
REMARK SMILES IDX 71 79 72 80 78 81 80 82 73 83 74 84 75 85 76 86 77 87 53 88
REMARK SMILES IDX 54 89 63 90 55 91 56 92 62 93 64 94 57 95 58 96 59 97 60 98
REMARK SMILES IDX 61 99
REMARK H PARENT 16 7 12 13 12 14 23 30 85 49 51 60
REMARK Flexibility Score: inf
ROOT
ATOM      1  C   UNL A   1      39.539  22.851  27.098  1.00  0.00     0.002 C 
ENDROOT
BRANCH   1   2
ATOM      2  C   UNL A   1      38.766  23.954  26.371  1.00  0.00     0.021 C 
BRANCH   2   3
ATOM      3  C   UNL A   1      37.402  23.499  25.860  1.00  0.00     0.116 C 
BRANCH   3   4
ATOM      4  N   UNL A   1      37.401  23.348  24.423  1.00  0.00    -0.351 N 
ATOM      5  C   UNL A   1      36.376  23.179  23.539  1.00  0.00     0.278 C 
ATOM      6  O   UNL A   1      36.686  22.956  22.364  1.00  0.00    -0.268 OA
ATOM      7  H   UNL A   1      38.295  23.372  24.010  1.00  0.00     0.163 HD
BRANCH   5   8
ATOM      8  C   UNL A   1      34.895  23.263  23.967  1.00  0.00     0.280 C 
ATOM      9  C   UNL A   1      33.920  23.549  22.812  1.00  0.00     0.093 C 
ATOM     10  C   UNL A   1      32.957  22.363  22.797  1.00  0.00     0.076 C 
ATOM     11  C   UNL A   1      33.117  21.699  24.154  1.00  0.00     0.262 C 
ATOM     12  N   UNL A   1      34.455  22.020  24.652  1.00  0.00    -0.335 N 
ATOM     13  H   UNL A   1      35.099  21.257  24.439  1.00  0.00     0.346 HD
ATOM     14  H   UNL A   1      34.443  22.149  25.664  1.00  0.00     0.346 HD
BRANCH   9  15
ATOM     15  C   UNL A   1      33.149  24.849  22.980  1.00  0.00    -0.038 A 
ATOM     16  C   UNL A   1      31.739  27.267  23.315  1.00  0.00    -0.048 A 
ATOM     17  C   UNL A   1      32.731  26.887  24.226  1.00  0.00     0.004 A 
ATOM     18  C   UNL A   1      31.480  26.445  22.215  1.00  0.00     0.004 A 
ATOM     19  C   UNL A   1      33.423  25.686  24.067  1.00  0.00     0.004 A 
ATOM     20  C   UNL A   1      32.184  25.256  22.044  1.00  0.00     0.004 A 
BRANCH  16  21
ATOM     21  C   UNL A   1      30.929  28.519  23.534  1.00  0.00     0.038 C 
BRANCH  21  22
ATOM     22  C   UNL A   1      29.767  28.677  22.530  1.00  0.00    -0.013 C 
ATOM     23  C   UNL A   1      28.402  28.380  23.159  1.00  0.00     0.008 C 
ATOM     24  C   UNL A   1      29.769  30.096  21.962  1.00  0.00     0.008 C 
ENDBRANCH  21  22
ENDBRANCH  16  21
ENDBRANCH   9  15
ENDBRANCH   5   8
ENDBRANCH   3   4
ENDBRANCH   2   3
ENDBRANCH   1   2
BRANCH   1  25
ATOM     25  C   UNL A   1      40.906  22.518  26.488  1.00  0.00     0.002 C 
BRANCH  25  26
ATOM     26  C   UNL A   1      42.066  22.483  27.487  1.00  0.00     0.021 C 
BRANCH  26  27
ATOM     27  C   UNL A   1      43.088  23.598  27.295  1.00  0.00     0.116 C 
BRANCH  27  28
ATOM     28  N   UNL A   1      42.768  24.421  26.139  1.00  0.00    -0.352 N 
ATOM     29  C   UNL A   1      42.124  25.630  26.090  1.00  0.00     0.251 C 
ATOM     30  H   UNL A   1      43.055  24.059  25.270  1.00  0.00     0.163 HD
ATOM     31  O   UNL A   1      41.717  26.065  25.014  1.00  0.00    -0.269 OA
BRANCH  29  32
ATOM     32  C   UNL A   1      41.915  26.400  27.333  1.00  0.00     0.039 A 
ATOM     33  C   UNL A   1      42.783  27.452  27.635  1.00  0.00     0.014 A 
ATOM     34  C   UNL A   1      40.867  26.077  28.201  1.00  0.00     0.014 A 
ATOM     35  C   UNL A   1      42.569  28.211  28.786  1.00  0.00     0.010 A 
ATOM     36  C   UNL A   1      40.610  26.885  29.304  1.00  0.00     0.010 A 
ATOM     37  C   UNL A   1      41.464  27.953  29.613  1.00  0.00    -0.014 A 
BRANCH  37  38
ATOM     38  C   UNL A   1      41.186  28.791  30.808  1.00  0.00     0.031 A 
ATOM     39  C   UNL A   1      40.073  29.801  30.781  1.00  0.00     0.074 A 
ATOM     40  C   UNL A   1      41.981  28.688  31.889  1.00  0.00     0.049 A 
ATOM     41  N   UNL A   1      39.716  30.662  31.699  1.00  0.00    -0.248 NA
ATOM     42  C   UNL A   1      39.274  29.874  29.548  1.00  0.00     0.031 C 
ATOM     43  C   UNL A   1      43.130  27.789  32.009  1.00  0.00     0.029 A 
ATOM     44  N   UNL A   1      41.956  29.358  33.087  1.00  0.00    -0.354 N 
ATOM     45  C   UNL A   1      38.661  31.383  31.153  1.00  0.00     0.074 A 
ATOM     46  C   UNL A   1      38.481  30.905  29.799  1.00  0.00     0.031 C 
ATOM     47  C   UNL A   1      43.692  27.953  33.217  1.00  0.00     0.029 A 
ATOM     48  C   UNL A   1      42.969  28.994  33.942  1.00  0.00     0.049 A 
ATOM     49  H   UNL A   1      41.276  30.033  33.312  1.00  0.00     0.167 HD
ATOM     50  C   UNL A   1      37.895  32.339  31.734  1.00  0.00     0.037 A 
ATOM     51  C   UNL A   1      43.290  29.457  35.165  1.00  0.00     0.037 A 
ATOM     52  C   UNL A   1      38.082  32.805  33.084  1.00  0.00     0.049 A 
ATOM     53  C   UNL A   1      42.433  30.517  35.796  1.00  0.00     0.074 A 
ATOM     54  C   UNL A   1      37.331  33.729  33.787  1.00  0.00     0.029 A 
ATOM     55  N   UNL A   1      39.101  32.392  33.932  1.00  0.00    -0.354 N 
ATOM     56  N   UNL A   1      41.389  31.136  35.295  1.00  0.00    -0.248 NA
ATOM     57  C   UNL A   1      42.783  30.933  37.160  1.00  0.00     0.031 C 
ATOM     58  C   UNL A   1      37.927  33.915  35.040  1.00  0.00     0.029 A 
ATOM     59  C   UNL A   1      39.015  33.061  35.142  1.00  0.00     0.049 A 
ATOM     60  H   UNL A   1      39.785  31.720  33.706  1.00  0.00     0.167 HD
ATOM     61  C   UNL A   1      40.947  32.003  36.289  1.00  0.00     0.074 A 
ATOM     62  C   UNL A   1      41.828  31.816  37.425  1.00  0.00     0.031 C 
ATOM     63  C   UNL A   1      39.905  32.871  36.262  1.00  0.00     0.037 A 
BRANCH  50  64
ATOM     64  C   UNL A   1      36.796  32.943  30.899  1.00  0.00     0.058 A 
ATOM     65  C   UNL A   1      37.042  33.997  30.003  1.00  0.00     0.135 A 
ATOM     66  C   UNL A   1      35.476  32.473  31.003  1.00  0.00     0.135 A 
ATOM     67  F   UNL A   1      38.281  34.495  29.868  1.00  0.00    -0.206 F 
ATOM     68  C   UNL A   1      36.013  34.601  29.286  1.00  0.00     0.059 A 
ATOM     69  C   UNL A   1      34.438  33.040  30.269  1.00  0.00     0.059 A 
ATOM     70  F   UNL A   1      35.181  31.464  31.838  1.00  0.00    -0.206 F 
ATOM     71  C   UNL A   1      34.713  34.121  29.434  1.00  0.00     0.060 A 
BRANCH  71  72
ATOM     72  S   UNL A   1      33.383  34.943  28.532  1.00  0.00     0.124 S 
ATOM     73  O   UNL A   1      34.137  35.795  27.618  1.00  0.00    -0.237 OA
ATOM     74  O   UNL A   1      32.681  33.821  27.917  1.00  0.00    -0.237 OA
ATOM     75  O   UNL A   1      32.644  35.644  29.577  1.00  0.00    -0.744 OA
ENDBRANCH  71  72
ENDBRANCH  50  64
BRANCH  51  76
ATOM     76  C   UNL A   1      44.476  28.895  35.865  1.00  0.00     0.058 A 
ATOM     77  C   UNL A   1      44.359  27.791  36.721  1.00  0.00     0.135 A 
ATOM     78  C   UNL A   1      45.761  29.412  35.636  1.00  0.00     0.135 A 
ATOM     79  F   UNL A   1      43.151  27.266  36.978  1.00  0.00    -0.206 F 
ATOM     80  C   UNL A   1      45.474  27.214  37.321  1.00  0.00     0.059 A 
ATOM     81  C   UNL A   1      46.893  28.837  36.203  1.00  0.00     0.059 A 
ATOM     82  F   UNL A   1      45.928  30.457  34.810  1.00  0.00    -0.206 F 
ATOM     83  C   UNL A   1      46.739  27.738  37.046  1.00  0.00     0.060 A 
BRANCH  83  84
ATOM     84  S   UNL A   1      48.187  26.921  37.753  1.00  0.00     0.124 S 
ATOM     85  O   UNL A   1      48.116  27.350  39.145  1.00  0.00    -0.237 OA
ATOM     86  O   UNL A   1      47.895  25.513  37.503  1.00  0.00    -0.237 OA
ATOM     87  O   UNL A   1      49.294  27.471  36.977  1.00  0.00    -0.744 OA
ENDBRANCH  83  84
ENDBRANCH  51  76
BRANCH  63  88
ATOM     88  C   UNL A   1      39.642  33.677  37.507  1.00  0.00     0.058 A 
ATOM     89  C   UNL A   1      38.809  33.204  38.532  1.00  0.00     0.135 A 
ATOM     90  C   UNL A   1      40.277  34.915  37.698  1.00  0.00     0.135 A 
ATOM     91  F   UNL A   1      38.172  32.029  38.399  1.00  0.00    -0.206 F 
ATOM     92  C   UNL A   1      38.595  33.939  39.693  1.00  0.00     0.059 A 
ATOM     93  C   UNL A   1      40.101  35.654  38.864  1.00  0.00     0.059 A 
ATOM     94  F   UNL A   1      41.092  35.411  36.753  1.00  0.00    -0.206 F 
ATOM     95  C   UNL A   1      39.249  35.163  39.852  1.00  0.00     0.060 A 
BRANCH  95  96
ATOM     96  S   UNL A   1      38.991  36.091  41.379  1.00  0.00     0.124 S 
ATOM     97  O   UNL A   1      38.878  37.456  40.877  1.00  0.00    -0.237 OA
ATOM     98  O   UNL A   1      37.759  35.502  41.897  1.00  0.00    -0.237 OA
ATOM     99  O   UNL A   1      40.192  35.805  42.159  1.00  0.00    -0.744 OA
ENDBRANCH  95  96
ENDBRANCH  63  88
ENDBRANCH  37  38
ENDBRANCH  29  32
ENDBRANCH  27  28
ENDBRANCH  26  27
ENDBRANCH  25  26
ENDBRANCH   1  25
TORSDOF 19
ENDMDL
MODEL 3
REMARK VINA RESULT:     -10.9      6.434     11.369
REMARK SMILES CC(C)Cc1ccc([C@@H]2CC[NH2+][C@H]2C(=O)NCCCCCCNC(=O)c2ccc(-c3c4nc(c(-c5c(F)cc(S(=O)(=O)[O-])cc5F)c5ccc([nH]5)c(-c5c(F)cc(S(=O)(=O)[O-])cc5F)c5nc(c(-c6c(F)cc(S(=O)(=O)[O-])cc6F)c6ccc3[nH]6)C=C5)C=C4)cc2)cc1
REMARK SMILES IDX 19 1 18 2 17 3 16 4 14 5 15 6 13 8 9 9 10 10 11 11 12 12
REMARK SMILES IDX 8 15 5 16 6 17 93 18 7 19 92 20 4 21 2 22 1 23 3 24 20 25
REMARK SMILES IDX 21 26 22 27 23 28 24 29 25 31 26 32 27 33 91 34 28 35 90 36
REMARK SMILES IDX 29 37 30 38 31 39 84 40 32 41 89 42 83 43 85 44 33 45 88 46
REMARK SMILES IDX 82 47 81 48 34 50 68 51 47 52 67 53 48 54 51 55 66 56 86 57
REMARK SMILES IDX 49 58 50 59 65 61 87 62 52 63 35 64 36 65 45 66 37 67 38 68
REMARK SMILES IDX 44 69 46 70 39 71 40 72 41 73 42 74 43 75 69 76 70 77 79 78
REMARK SMILES IDX 71 79 72 80 78 81 80 82 73 83 74 84 75 85 76 86 77 87 53 88
REMARK SMILES IDX 54 89 63 90 55 91 56 92 62 93 64 94 57 95 58 96 59 97 60 98
REMARK SMILES IDX 61 99
REMARK H PARENT 16 7 12 13 12 14 23 30 85 49 51 60
REMARK Flexibility Score: inf
ROOT
ATOM      1  C   UNL A   1      33.615  30.441  27.170  1.00  0.00     0.002 C 
ENDROOT
BRANCH   1   2
ATOM      2  C   UNL A   1      33.858  28.950  27.420  1.00  0.00     0.021 C 
BRANCH   2   3
ATOM      3  C   UNL A   1      32.926  28.045  26.620  1.00  0.00     0.116 C 
BRANCH   3   4
ATOM      4  N   UNL A   1      33.611  26.857  26.162  1.00  0.00    -0.351 N 
ATOM      5  C   UNL A   1      33.169  25.790  25.437  1.00  0.00     0.278 C 
ATOM      6  O   UNL A   1      33.959  24.851  25.293  1.00  0.00    -0.268 OA
ATOM      7  H   UNL A   1      34.561  26.810  26.418  1.00  0.00     0.163 HD
BRANCH   5   8
ATOM      8  C   UNL A   1      31.757  25.741  24.815  1.00  0.00     0.280 C 
ATOM      9  C   UNL A   1      31.634  26.477  23.470  1.00  0.00     0.093 C 
ATOM     10  C   UNL A   1      31.174  25.414  22.473  1.00  0.00     0.076 C 
ATOM     11  C   UNL A   1      30.636  24.274  23.321  1.00  0.00     0.262 C 
ATOM     12  N   UNL A   1      31.293  24.343  24.627  1.00  0.00    -0.335 N 
ATOM     13  H   UNL A   1      32.087  23.704  24.652  1.00  0.00     0.346 HD
ATOM     14  H   UNL A   1      30.648  24.072  25.370  1.00  0.00     0.346 HD
BRANCH   9  15
ATOM     15  C   UNL A   1      30.646  27.631  23.500  1.00  0.00    -0.038 A 
ATOM     16  C   UNL A   1      28.788  29.752  23.551  1.00  0.00    -0.048 A 
ATOM     17  C   UNL A   1      28.379  28.451  23.234  1.00  0.00     0.004 A 
ATOM     18  C   UNL A   1      30.128  29.979  23.876  1.00  0.00     0.004 A 
ATOM     19  C   UNL A   1      29.298  27.403  23.198  1.00  0.00     0.004 A 
ATOM     20  C   UNL A   1      31.043  28.929  23.861  1.00  0.00     0.004 A 
BRANCH  16  21
ATOM     21  C   UNL A   1      27.814  30.902  23.503  1.00  0.00     0.038 C 
BRANCH  21  22
ATOM     22  C   UNL A   1      28.000  31.806  22.267  1.00  0.00    -0.013 C 
ATOM     23  C   UNL A   1      28.827  33.059  22.574  1.00  0.00     0.008 C 
ATOM     24  C   UNL A   1      28.675  31.013  21.147  1.00  0.00     0.008 C 
ENDBRANCH  21  22
ENDBRANCH  16  21
ENDBRANCH   9  15
ENDBRANCH   5   8
ENDBRANCH   3   4
ENDBRANCH   2   3
ENDBRANCH   1   2
BRANCH   1  25
ATOM     25  C   UNL A   1      32.147  30.821  26.943  1.00  0.00     0.002 C 
BRANCH  25  26
ATOM     26  C   UNL A   1      31.846  32.320  27.047  1.00  0.00     0.021 C 
BRANCH  26  27
ATOM     27  C   UNL A   1      33.070  33.185  27.322  1.00  0.00     0.116 C 
BRANCH  27  28
ATOM     28  N   UNL A   1      32.695  34.486  27.854  1.00  0.00    -0.352 N 
ATOM     29  C   UNL A   1      33.096  35.094  29.015  1.00  0.00     0.251 C 
ATOM     30  H   UNL A   1      32.063  35.002  27.303  1.00  0.00     0.163 HD
ATOM     31  O   UNL A   1      32.491  36.081  29.431  1.00  0.00    -0.269 OA
BRANCH  29  32
ATOM     32  C   UNL A   1      34.249  34.556  29.764  1.00  0.00     0.039 A 
ATOM     33  C   UNL A   1      34.030  33.947  31.002  1.00  0.00     0.014 A 
ATOM     34  C   UNL A   1      35.544  34.661  29.248  1.00  0.00     0.014 A 
ATOM     35  C   UNL A   1      35.107  33.398  31.699  1.00  0.00     0.010 A 
ATOM     36  C   UNL A   1      36.603  34.044  29.907  1.00  0.00     0.010 A 
ATOM     37  C   UNL A   1      36.397  33.417  31.144  1.00  0.00    -0.014 A 
BRANCH  37  38
ATOM     38  C   UNL A   1      37.544  32.783  31.844  1.00  0.00     0.031 A 
ATOM     39  C   UNL A   1      38.224  31.583  31.247  1.00  0.00     0.074 A 
ATOM     40  C   UNL A   1      37.925  33.248  33.048  1.00  0.00     0.049 A 
ATOM     41  N   UNL A   1      39.199  30.859  31.734  1.00  0.00    -0.248 NA
ATOM     42  C   UNL A   1      37.724  31.116  29.945  1.00  0.00     0.031 C 
ATOM     43  C   UNL A   1      37.300  34.367  33.757  1.00  0.00     0.029 A 
ATOM     44  N   UNL A   1      38.916  32.829  33.899  1.00  0.00    -0.354 N 
ATOM     45  C   UNL A   1      39.422  29.849  30.806  1.00  0.00     0.074 A 
ATOM     46  C   UNL A   1      38.435  30.014  29.761  1.00  0.00     0.031 C 
ATOM     47  C   UNL A   1      37.930  34.554  34.927  1.00  0.00     0.029 A 
ATOM     48  C   UNL A   1      38.977  33.545  35.070  1.00  0.00     0.049 A 
ATOM     49  H   UNL A   1      39.527  32.085  33.689  1.00  0.00     0.167 HD
ATOM     50  C   UNL A   1      40.377  28.887  30.811  1.00  0.00     0.037 A 
ATOM     51  C   UNL A   1      39.774  33.399  36.146  1.00  0.00     0.037 A 
ATOM     52  C   UNL A   1      41.355  28.734  31.856  1.00  0.00     0.049 A 
ATOM     53  C   UNL A   1      40.827  32.327  36.137  1.00  0.00     0.074 A 
ATOM     54  C   UNL A   1      42.398  27.828  31.933  1.00  0.00     0.029 A 
ATOM     55  N   UNL A   1      41.405  29.498  33.014  1.00  0.00    -0.354 N 
ATOM     56  N   UNL A   1      41.076  31.427  35.215  1.00  0.00    -0.248 NA
ATOM     57  C   UNL A   1      41.718  32.258  37.302  1.00  0.00     0.031 C 
ATOM     58  C   UNL A   1      43.045  28.009  33.161  1.00  0.00     0.029 A 
ATOM     59  C   UNL A   1      42.444  29.068  33.825  1.00  0.00     0.049 A 
ATOM     60  H   UNL A   1      40.792  30.238  33.228  1.00  0.00     0.167 HD
ATOM     61  C   UNL A   1      42.162  30.693  35.681  1.00  0.00     0.074 A 
ATOM     62  C   UNL A   1      42.531  31.268  36.960  1.00  0.00     0.031 C 
ATOM     63  C   UNL A   1      42.795  29.644  35.101  1.00  0.00     0.037 A 
BRANCH  50  64
ATOM     64  C   UNL A   1      40.392  27.925  29.651  1.00  0.00     0.058 A 
ATOM     65  C   UNL A   1      39.531  26.815  29.599  1.00  0.00     0.135 A 
ATOM     66  C   UNL A   1      41.285  28.105  28.582  1.00  0.00     0.135 A 
ATOM     67  F   UNL A   1      38.662  26.585  30.596  1.00  0.00    -0.206 F 
ATOM     68  C   UNL A   1      39.596  25.889  28.562  1.00  0.00     0.059 A 
ATOM     69  C   UNL A   1      41.342  27.210  27.517  1.00  0.00     0.059 A 
ATOM     70  F   UNL A   1      42.127  29.151  28.573  1.00  0.00    -0.206 F 
ATOM     71  C   UNL A   1      40.513  26.091  27.531  1.00  0.00     0.060 A 
BRANCH  71  72
ATOM     72  S   UNL A   1      40.616  24.858  26.216  1.00  0.00     0.124 S 
ATOM     73  O   UNL A   1      39.211  24.501  26.044  1.00  0.00    -0.237 OA
ATOM     74  O   UNL A   1      41.215  25.615  25.122  1.00  0.00    -0.237 OA
ATOM     75  O   UNL A   1      41.461  23.816  26.791  1.00  0.00    -0.744 OA
ENDBRANCH  71  72
ENDBRANCH  50  64
BRANCH  51  76
ATOM     76  C   UNL A   1      39.601  34.312  37.307  1.00  0.00     0.058 A 
ATOM     77  C   UNL A   1      38.972  33.881  38.483  1.00  0.00     0.135 A 
ATOM     78  C   UNL A   1      40.126  35.614  37.285  1.00  0.00     0.135 A 
ATOM     79  F   UNL A   1      38.448  32.648  38.550  1.00  0.00    -0.206 F 
ATOM     80  C   UNL A   1      38.872  34.706  39.599  1.00  0.00     0.059 A 
ATOM     81  C   UNL A   1      40.062  36.448  38.396  1.00  0.00     0.059 A 
ATOM     82  F   UNL A   1      40.754  36.067  36.188  1.00  0.00    -0.206 F 
ATOM     83  C   UNL A   1      39.432  35.985  39.549  1.00  0.00     0.060 A 
BRANCH  83  84
ATOM     84  S   UNL A   1      39.382  37.010  41.036  1.00  0.00     0.124 S 
ATOM     85  O   UNL A   1      38.566  36.196  41.928  1.00  0.00    -0.237 OA
ATOM     86  O   UNL A   1      40.797  37.116  41.380  1.00  0.00    -0.237 OA
ATOM     87  O   UNL A   1      38.765  38.248  40.568  1.00  0.00    -0.744 OA
ENDBRANCH  83  84
ENDBRANCH  51  76
BRANCH  63  88
ATOM     88  C   UNL A   1      43.973  29.054  35.832  1.00  0.00     0.058 A 
ATOM     89  C   UNL A   1      45.264  29.589  35.708  1.00  0.00     0.135 A 
ATOM     90  C   UNL A   1      43.793  27.972  36.710  1.00  0.00     0.135 A 
ATOM     91  F   UNL A   1      45.493  30.620  34.878  1.00  0.00    -0.206 F 
ATOM     92  C   UNL A   1      46.341  29.059  36.411  1.00  0.00     0.059 A 
ATOM     93  C   UNL A   1      44.850  27.445  37.445  1.00  0.00     0.059 A 
ATOM     94  F   UNL A   1      42.577  27.427  36.872  1.00  0.00    -0.206 F 
ATOM     95  C   UNL A   1      46.123  27.988  37.281  1.00  0.00     0.060 A 
BRANCH  95  96
ATOM     96  S   UNL A   1      47.523  27.332  38.213  1.00  0.00     0.124 S 
ATOM     97  O   UNL A   1      48.542  27.222  37.175  1.00  0.00    -0.237 OA
ATOM     98  O   UNL A   1      47.746  28.371  39.213  1.00  0.00    -0.237 OA
ATOM     99  O   UNL A   1      47.020  26.064  38.736  1.00  0.00    -0.744 OA
ENDBRANCH  95  96
ENDBRANCH  63  88
ENDBRANCH  37  38
ENDBRANCH  29  32
ENDBRANCH  27  28
ENDBRANCH  26  27
ENDBRANCH  25  26
ENDBRANCH   1  25
TORSDOF 19
ENDMDL
