MODEL 1
REMARK VINA RESULT:      -9.5      0.000      0.000
REMARK SMILES O=C(NCCCCCCNC(=O)c1cc(Cl)c2c(c1)[C@H]1C=CC[C@H]1[C@H](c1ccc(S(=O)(=O)N3CCOCC3)cc1)N2)c1ccc(-c2c3nc(c(-c4c(F)cc(S(=O)(=O)[O-])cc4F)c4ccc([nH]4)c(-c4c(F)cc(S(=O)(=O)[O-])cc4F)c4nc(c(-c5c(F)cc(S(=O)(=O)[O-])cc5F)c5ccc2[nH]5)C=C4)C=C3)cc1
REMARK SMILES IDX 6 1 5 2 4 3 3 4 1 5 2 6 42 8 43 9 107 10 44 11 106 12 45 13
REMARK SMILES IDX 46 14 47 15 100 16 48 17 105 18 99 19 101 20 49 21 104 22
REMARK SMILES IDX 98 23 97 24 50 26 84 27 63 28 83 29 64 30 67 31 82 32 102 33
REMARK SMILES IDX 65 34 66 35 81 37 103 38 68 39 51 40 52 41 61 42 53 43 54 44
REMARK SMILES IDX 60 45 62 46 55 47 56 48 57 49 58 50 59 51 85 52 86 53 95 54
REMARK SMILES IDX 87 55 88 56 94 57 96 58 89 59 90 60 91 61 92 62 93 63 69 64
REMARK SMILES IDX 70 65 79 66 71 67 72 68 78 69 80 70 73 71 74 72 75 73 76 74
REMARK SMILES IDX 77 75 7 76 8 77 9 78 10 79 11 80 12 82 13 83 14 84 19 85
REMARK SMILES IDX 15 86 18 87 16 88 17 89 20 90 41 91 21 92 24 93 25 94 22 96
REMARK SMILES IDX 23 97 26 98 27 99 40 100 28 101 39 102 29 103 30 104 31 105
REMARK SMILES IDX 32 106 33 107 34 108 38 109 35 110 37 111 36 112
REMARK H PARENT 3 7 101 25 67 36 10 81 41 95
REMARK Flexibility Score: inf
ROOT
ATOM      1  C   UNL A   1      39.315  33.418  30.425  1.00  0.00     0.002 C 
ENDROOT
BRANCH   1   2
ATOM      2  C   UNL A   1      37.834  33.679  30.714  1.00  0.00     0.021 C 
BRANCH   2   3
ATOM      3  C   UNL A   1      36.861  32.797  29.936  1.00  0.00     0.116 C 
BRANCH   3   4
ATOM      4  N   UNL A   1      36.278  31.762  30.773  1.00  0.00    -0.352 N 
ATOM      5  O   UNL A   1      35.979  29.668  31.553  1.00  0.00    -0.269 OA
ATOM      6  C   UNL A   1      36.697  30.471  30.964  1.00  0.00     0.251 C 
ATOM      7  H   UNL A   1      35.470  32.024  31.271  1.00  0.00     0.163 HD
BRANCH   6   8
ATOM      8  C   UNL A   1      38.012  30.049  30.442  1.00  0.00     0.039 A 
ATOM      9  C   UNL A   1      39.019  29.627  31.315  1.00  0.00     0.014 A 
ATOM     10  C   UNL A   1      38.229  30.061  29.062  1.00  0.00     0.014 A 
ATOM     11  C   UNL A   1      40.277  29.303  30.812  1.00  0.00     0.010 A 
ATOM     12  C   UNL A   1      39.478  29.694  28.556  1.00  0.00     0.010 A 
ATOM     13  C   UNL A   1      40.516  29.335  29.429  1.00  0.00    -0.014 A 
BRANCH  13  14
ATOM     14  C   UNL A   1      41.849  28.953  28.907  1.00  0.00     0.031 A 
ATOM     15  C   UNL A   1      42.980  29.939  28.902  1.00  0.00     0.074 A 
ATOM     16  C   UNL A   1      42.038  27.697  28.464  1.00  0.00     0.049 A 
ATOM     17  N   UNL A   1      44.222  29.764  28.529  1.00  0.00    -0.248 NA
ATOM     18  C   UNL A   1      42.682  31.296  29.381  1.00  0.00     0.031 C 
ATOM     19  C   UNL A   1      41.010  26.654  28.431  1.00  0.00     0.029 A 
ATOM     20  N   UNL A   1      43.158  27.079  27.970  1.00  0.00    -0.354 N 
ATOM     21  C   UNL A   1      44.858  30.980  28.738  1.00  0.00     0.074 A 
ATOM     22  C   UNL A   1      43.853  31.900  29.232  1.00  0.00     0.031 C 
ATOM     23  C   UNL A   1      41.556  25.517  27.973  1.00  0.00     0.029 A 
ATOM     24  C   UNL A   1      42.959  25.760  27.646  1.00  0.00     0.049 A 
ATOM     25  H   UNL A   1      44.022  27.537  27.860  1.00  0.00     0.167 HD
ATOM     26  C   UNL A   1      46.162  31.295  28.553  1.00  0.00     0.037 A 
ATOM     27  C   UNL A   1      43.809  24.847  27.139  1.00  0.00     0.037 A 
ATOM     28  C   UNL A   1      47.150  30.380  28.040  1.00  0.00     0.049 A 
ATOM     29  C   UNL A   1      45.232  25.241  26.869  1.00  0.00     0.074 A 
ATOM     30  C   UNL A   1      48.499  30.603  27.819  1.00  0.00     0.029 A 
ATOM     31  N   UNL A   1      46.896  29.070  27.660  1.00  0.00    -0.354 N 
ATOM     32  N   UNL A   1      45.824  26.390  27.094  1.00  0.00    -0.248 NA
ATOM     33  C   UNL A   1      46.103  24.219  26.273  1.00  0.00     0.031 C 
ATOM     34  C   UNL A   1      49.049  29.440  27.267  1.00  0.00     0.029 A 
ATOM     35  C   UNL A   1      48.055  28.479  27.183  1.00  0.00     0.049 A 
ATOM     36  H   UNL A   1      46.019  28.625  27.719  1.00  0.00     0.167 HD
ATOM     37  C   UNL A   1      47.140  26.227  26.680  1.00  0.00     0.074 A 
ATOM     38  C   UNL A   1      47.261  24.863  26.202  1.00  0.00     0.031 C 
ATOM     39  C   UNL A   1      48.156  27.124  26.698  1.00  0.00     0.037 A 
BRANCH  26  40
ATOM     40  C   UNL A   1      46.591  32.693  28.898  1.00  0.00     0.058 A 
ATOM     41  C   UNL A   1      47.062  33.017  30.181  1.00  0.00     0.135 A 
ATOM     42  C   UNL A   1      46.549  33.718  27.939  1.00  0.00     0.135 A 
ATOM     43  F   UNL A   1      47.109  32.079  31.140  1.00  0.00    -0.206 F 
ATOM     44  C   UNL A   1      47.449  34.313  30.509  1.00  0.00     0.059 A 
ATOM     45  C   UNL A   1      46.952  35.016  28.239  1.00  0.00     0.059 A 
ATOM     46  F   UNL A   1      46.107  33.463  26.698  1.00  0.00    -0.206 F 
ATOM     47  C   UNL A   1      47.384  35.307  29.531  1.00  0.00     0.060 A 
BRANCH  47  48
ATOM     48  S   UNL A   1      47.867  36.987  29.982  1.00  0.00     0.124 S 
ATOM     49  O   UNL A   1      46.920  37.284  31.051  1.00  0.00    -0.237 OA
ATOM     50  O   UNL A   1      49.256  36.813  30.396  1.00  0.00    -0.237 OA
ATOM     51  O   UNL A   1      47.673  37.740  28.746  1.00  0.00    -0.744 OA
ENDBRANCH  47  48
ENDBRANCH  26  40
BRANCH  27  52
ATOM     52  C   UNL A   1      43.327  23.465  26.890  1.00  0.00     0.058 A 
ATOM     53  C   UNL A   1      43.121  23.004  25.583  1.00  0.00     0.135 A 
ATOM     54  C   UNL A   1      43.132  22.561  27.945  1.00  0.00     0.135 A 
ATOM     55  F   UNL A   1      43.290  23.837  24.543  1.00  0.00    -0.206 F 
ATOM     56  C   UNL A   1      42.748  21.690  25.327  1.00  0.00     0.059 A 
ATOM     57  C   UNL A   1      42.778  21.236  27.713  1.00  0.00     0.059 A 
ATOM     58  F   UNL A   1      43.330  22.954  29.213  1.00  0.00    -0.206 F 
ATOM     59  C   UNL A   1      42.590  20.809  26.399  1.00  0.00     0.060 A 
BRANCH  59  60
ATOM     60  S   UNL A   1      42.197  19.082  26.046  1.00  0.00     0.124 S 
ATOM     61  O   UNL A   1      42.582  18.432  27.292  1.00  0.00    -0.237 OA
ATOM     62  O   UNL A   1      40.764  19.147  25.776  1.00  0.00    -0.237 OA
ATOM     63  O   UNL A   1      43.031  18.777  24.888  1.00  0.00    -0.744 OA
ENDBRANCH  59  60
ENDBRANCH  27  52
BRANCH  39  64
ATOM     64  C   UNL A   1      49.494  26.663  26.190  1.00  0.00     0.058 A 
ATOM     65  C   UNL A   1      49.894  26.900  24.867  1.00  0.00     0.135 A 
ATOM     66  C   UNL A   1      50.406  26.036  27.053  1.00  0.00     0.135 A 
ATOM     67  F   UNL A   1      49.054  27.488  24.001  1.00  0.00    -0.206 F 
ATOM     68  C   UNL A   1      51.152  26.520  24.411  1.00  0.00     0.059 A 
ATOM     69  C   UNL A   1      51.678  25.667  26.624  1.00  0.00     0.059 A 
ATOM     70  F   UNL A   1      50.073  25.793  28.330  1.00  0.00    -0.206 F 
ATOM     71  C   UNL A   1      52.040  25.907  25.299  1.00  0.00     0.060 A 
BRANCH  71  72
ATOM     72  S   UNL A   1      53.686  25.460  24.706  1.00  0.00     0.124 S 
ATOM     73  O   UNL A   1      53.614  24.003  24.710  1.00  0.00    -0.237 OA
ATOM     74  O   UNL A   1      53.725  26.091  23.390  1.00  0.00    -0.237 OA
ATOM     75  O   UNL A   1      54.576  26.048  25.702  1.00  0.00    -0.744 OA
ENDBRANCH  71  72
ENDBRANCH  39  64
ENDBRANCH  13  14
ENDBRANCH   6   8
ENDBRANCH   3   4
ENDBRANCH   2   3
ENDBRANCH   1   2
BRANCH   1  76
ATOM     76  C   UNL A   1      40.240  33.475  31.644  1.00  0.00     0.002 C 
BRANCH  76  77
ATOM     77  C   UNL A   1      39.969  32.418  32.718  1.00  0.00     0.021 C 
BRANCH  77  78
ATOM     78  C   UNL A   1      41.194  31.993  33.521  1.00  0.00     0.116 C 
BRANCH  78  79
ATOM     79  N   UNL A   1      42.405  32.661  33.071  1.00  0.00    -0.352 N 
ATOM     80  C   UNL A   1      43.687  32.177  33.051  1.00  0.00     0.251 C 
ATOM     81  H   UNL A   1      42.289  33.580  32.736  1.00  0.00     0.163 HD
ATOM     82  O   UNL A   1      44.640  32.897  32.779  1.00  0.00    -0.269 OA
BRANCH  80  83
ATOM     83  C   UNL A   1      43.907  30.766  33.406  1.00  0.00     0.041 A 
ATOM     84  C   UNL A   1      44.021  30.380  34.740  1.00  0.00     0.036 A 
ATOM     85  C   UNL A   1      44.028  29.833  32.380  1.00  0.00     0.020 A 
ATOM     86  C   UNL A   1      44.351  29.062  35.033  1.00  0.00     0.065 A 
ATOM     87  C   UNL A   1      44.338  28.498  32.679  1.00  0.00    -0.015 A 
ATOM     88  Cl  UNL A   1      44.545  28.622  36.696  1.00  0.00    -0.082 Cl
ATOM     89  C   UNL A   1      44.556  28.113  34.012  1.00  0.00     0.057 A 
ATOM     90  C   UNL A   1      44.392  27.495  31.564  1.00  0.00     0.049 C 
ATOM     91  N   UNL A   1      44.886  26.800  34.318  1.00  0.00    -0.376 N 
ATOM     92  C   UNL A   1      45.587  27.614  30.651  1.00  0.00    -0.023 C 
ATOM     93  C   UNL A   1      44.478  26.020  32.012  1.00  0.00     0.031 C 
ATOM     94  C   UNL A   1      45.362  25.899  33.281  1.00  0.00     0.114 C 
ATOM     95  H   UNL A   1      44.797  26.476  35.244  1.00  0.00     0.161 HD
ATOM     96  C   UNL A   1      45.953  26.411  30.193  1.00  0.00    -0.030 C 
ATOM     97  C   UNL A   1      45.065  25.345  30.754  1.00  0.00     0.034 C 
BRANCH  94  98
ATOM     98  C   UNL A   1      45.398  24.478  33.834  1.00  0.00    -0.025 A 
ATOM     99  C   UNL A   1      44.269  23.639  33.910  1.00  0.00     0.007 A 
ATOM    100  C   UNL A   1      46.622  23.973  34.279  1.00  0.00     0.007 A 
ATOM    101  C   UNL A   1      44.374  22.326  34.390  1.00  0.00     0.022 A 
ATOM    102  C   UNL A   1      46.735  22.659  34.707  1.00  0.00     0.022 A 
ATOM    103  C   UNL A   1      45.621  21.832  34.769  1.00  0.00     0.082 A 
BRANCH 103 104
ATOM    104  S   UNL A   1      45.770  20.141  35.304  1.00  0.00     0.243 S 
ATOM    105  O   UNL A   1      44.501  19.509  35.031  1.00  0.00    -0.207 OA
ATOM    106  O   UNL A   1      47.010  19.644  34.741  1.00  0.00    -0.207 OA
BRANCH 104 107
ATOM    107  N   UNL A   1      45.969  20.222  36.968  1.00  0.00    -0.193 NA
ATOM    108  C   UNL A   1      46.073  21.509  37.690  1.00  0.00     0.131 C 
ATOM    109  C   UNL A   1      46.111  19.014  37.797  1.00  0.00     0.131 C 
ATOM    110  C   UNL A   1      47.229  21.505  38.707  1.00  0.00     0.177 C 
ATOM    111  C   UNL A   1      47.336  19.135  38.704  1.00  0.00     0.177 C 
ATOM    112  O   UNL A   1      47.266  20.318  39.512  1.00  0.00    -0.379 OA
ENDBRANCH 104 107
ENDBRANCH 103 104
ENDBRANCH  94  98
ENDBRANCH  80  83
ENDBRANCH  78  79
ENDBRANCH  77  78
ENDBRANCH  76  77
ENDBRANCH   1  76
TORSDOF 19
ENDMDL
MODEL 2
REMARK VINA RESULT:      -9.1      4.299     11.383
REMARK SMILES O=C(NCCCCCCNC(=O)c1cc(Cl)c2c(c1)[C@H]1C=CC[C@H]1[C@H](c1ccc(S(=O)(=O)N3CCOCC3)cc1)N2)c1ccc(-c2c3nc(c(-c4c(F)cc(S(=O)(=O)[O-])cc4F)c4ccc([nH]4)c(-c4c(F)cc(S(=O)(=O)[O-])cc4F)c4nc(c(-c5c(F)cc(S(=O)(=O)[O-])cc5F)c5ccc2[nH]5)C=C4)C=C3)cc1
REMARK SMILES IDX 6 1 5 2 4 3 3 4 1 5 2 6 42 8 43 9 107 10 44 11 106 12 45 13
REMARK SMILES IDX 46 14 47 15 100 16 48 17 105 18 99 19 101 20 49 21 104 22
REMARK SMILES IDX 98 23 97 24 50 26 84 27 63 28 83 29 64 30 67 31 82 32 102 33
REMARK SMILES IDX 65 34 66 35 81 37 103 38 68 39 51 40 52 41 61 42 53 43 54 44
REMARK SMILES IDX 60 45 62 46 55 47 56 48 57 49 58 50 59 51 85 52 86 53 95 54
REMARK SMILES IDX 87 55 88 56 94 57 96 58 89 59 90 60 91 61 92 62 93 63 69 64
REMARK SMILES IDX 70 65 79 66 71 67 72 68 78 69 80 70 73 71 74 72 75 73 76 74
REMARK SMILES IDX 77 75 7 76 8 77 9 78 10 79 11 80 12 82 13 83 14 84 19 85
REMARK SMILES IDX 15 86 18 87 16 88 17 89 20 90 41 91 21 92 24 93 25 94 22 96
REMARK SMILES IDX 23 97 26 98 27 99 40 100 28 101 39 102 29 103 30 104 31 105
REMARK SMILES IDX 32 106 33 107 34 108 38 109 35 110 37 111 36 112
REMARK H PARENT 3 7 101 25 67 36 10 81 41 95
REMARK Flexibility Score: inf
ROOT
ATOM      1  C   UNL A   1      36.735  34.930  32.997  1.00  0.00     0.002 C 
ENDROOT
BRANCH   1   2
ATOM      2  C   UNL A   1      37.337  34.091  31.867  1.00  0.00     0.021 C 
BRANCH   2   3
ATOM      3  C   UNL A   1      38.264  32.967  32.322  1.00  0.00     0.116 C 
BRANCH   3   4
ATOM      4  N   UNL A   1      37.523  31.788  32.738  1.00  0.00    -0.352 N 
ATOM      5  O   UNL A   1      36.910  29.619  32.697  1.00  0.00    -0.269 OA
ATOM      6  C   UNL A   1      37.746  30.473  32.418  1.00  0.00     0.251 C 
ATOM      7  H   UNL A   1      36.756  31.957  33.331  1.00  0.00     0.163 HD
BRANCH   6   8
ATOM      8  C   UNL A   1      38.992  30.096  31.722  1.00  0.00     0.039 A 
ATOM      9  C   UNL A   1      39.989  29.379  32.392  1.00  0.00     0.014 A 
ATOM     10  C   UNL A   1      39.154  30.449  30.380  1.00  0.00     0.014 A 
ATOM     11  C   UNL A   1      41.188  29.095  31.744  1.00  0.00     0.010 A 
ATOM     12  C   UNL A   1      40.340  30.126  29.719  1.00  0.00     0.010 A 
ATOM     13  C   UNL A   1      41.373  29.467  30.403  1.00  0.00    -0.014 A 
BRANCH  13  14
ATOM     14  C   UNL A   1      42.641  29.126  29.716  1.00  0.00     0.031 A 
ATOM     15  C   UNL A   1      42.844  27.767  29.113  1.00  0.00     0.074 A 
ATOM     16  C   UNL A   1      43.600  30.065  29.618  1.00  0.00     0.049 A 
ATOM     17  N   UNL A   1      43.866  27.313  28.436  1.00  0.00    -0.248 NA
ATOM     18  C   UNL A   1      41.755  26.794  29.287  1.00  0.00     0.031 C 
ATOM     19  C   UNL A   1      43.506  31.422  30.161  1.00  0.00     0.029 A 
ATOM     20  N   UNL A   1      44.831  30.029  29.017  1.00  0.00    -0.354 N 
ATOM     21  C   UNL A   1      43.544  26.006  28.091  1.00  0.00     0.074 A 
ATOM     22  C   UNL A   1      42.246  25.727  28.671  1.00  0.00     0.031 C 
ATOM     23  C   UNL A   1      44.619  32.099  29.841  1.00  0.00     0.029 A 
ATOM     24  C   UNL A   1      45.519  31.215  29.104  1.00  0.00     0.049 A 
ATOM     25  H   UNL A   1      45.188  29.231  28.565  1.00  0.00     0.167 HD
ATOM     26  C   UNL A   1      44.257  25.129  27.345  1.00  0.00     0.037 A 
ATOM     27  C   UNL A   1      46.739  31.553  28.645  1.00  0.00     0.037 A 
ATOM     28  C   UNL A   1      45.557  25.408  26.790  1.00  0.00     0.049 A 
ATOM     29  C   UNL A   1      47.544  30.538  27.886  1.00  0.00     0.074 A 
ATOM     30  C   UNL A   1      46.359  24.586  26.017  1.00  0.00     0.029 A 
ATOM     31  N   UNL A   1      46.251  26.599  26.956  1.00  0.00    -0.354 N 
ATOM     32  N   UNL A   1      47.215  29.314  27.549  1.00  0.00    -0.248 NA
ATOM     33  C   UNL A   1      48.885  30.946  27.449  1.00  0.00     0.031 C 
ATOM     34  C   UNL A   1      47.554  25.265  25.751  1.00  0.00     0.029 A 
ATOM     35  C   UNL A   1      47.481  26.525  26.321  1.00  0.00     0.049 A 
ATOM     36  H   UNL A   1      45.918  27.381  27.453  1.00  0.00     0.167 HD
ATOM     37  C   UNL A   1      48.303  28.808  26.848  1.00  0.00     0.074 A 
ATOM     38  C   UNL A   1      49.295  29.865  26.799  1.00  0.00     0.031 C 
ATOM     39  C   UNL A   1      48.463  27.581  26.293  1.00  0.00     0.037 A 
BRANCH  26  40
ATOM     40  C   UNL A   1      43.646  23.779  27.096  1.00  0.00     0.058 A 
ATOM     41  C   UNL A   1      43.112  23.439  25.842  1.00  0.00     0.135 A 
ATOM     42  C   UNL A   1      43.608  22.807  28.109  1.00  0.00     0.135 A 
ATOM     43  F   UNL A   1      43.109  24.335  24.843  1.00  0.00    -0.206 F 
ATOM     44  C   UNL A   1      42.535  22.194  25.610  1.00  0.00     0.059 A 
ATOM     45  C   UNL A   1      43.055  21.548  27.892  1.00  0.00     0.059 A 
ATOM     46  F   UNL A   1      44.104  23.080  29.325  1.00  0.00    -0.206 F 
ATOM     47  C   UNL A   1      42.506  21.257  26.645  1.00  0.00     0.060 A 
BRANCH  47  48
ATOM     48  S   UNL A   1      41.731  19.657  26.333  1.00  0.00     0.124 S 
ATOM     49  O   UNL A   1      42.381  19.257  25.089  1.00  0.00    -0.237 OA
ATOM     50  O   UNL A   1      42.108  18.891  27.518  1.00  0.00    -0.237 OA
ATOM     51  O   UNL A   1      40.312  19.981  26.223  1.00  0.00    -0.744 OA
ENDBRANCH  47  48
ENDBRANCH  26  40
BRANCH  27  52
ATOM     52  C   UNL A   1      47.244  32.930  28.872  1.00  0.00     0.058 A 
ATOM     53  C   UNL A   1      48.003  33.236  30.009  1.00  0.00     0.135 A 
ATOM     54  C   UNL A   1      47.040  33.945  27.924  1.00  0.00     0.135 A 
ATOM     55  F   UNL A   1      48.218  32.297  30.944  1.00  0.00    -0.206 F 
ATOM     56  C   UNL A   1      48.552  34.498  30.198  1.00  0.00     0.059 A 
ATOM     57  C   UNL A   1      47.596  35.211  28.081  1.00  0.00     0.059 A 
ATOM     58  F   UNL A   1      46.331  33.696  26.812  1.00  0.00    -0.206 F 
ATOM     59  C   UNL A   1      48.353  35.477  29.222  1.00  0.00     0.060 A 
BRANCH  59  60
ATOM     60  S   UNL A   1      49.150  37.084  29.436  1.00  0.00     0.124 S 
ATOM     61  O   UNL A   1      49.254  37.170  30.887  1.00  0.00    -0.237 OA
ATOM     62  O   UNL A   1      50.405  36.898  28.715  1.00  0.00    -0.237 OA
ATOM     63  O   UNL A   1      48.210  38.010  28.813  1.00  0.00    -0.744 OA
ENDBRANCH  59  60
ENDBRANCH  27  52
BRANCH  39  64
ATOM     64  C   UNL A   1      49.757  27.310  25.578  1.00  0.00     0.058 A 
ATOM     65  C   UNL A   1      49.872  27.467  24.189  1.00  0.00     0.135 A 
ATOM     66  C   UNL A   1      50.908  26.953  26.297  1.00  0.00     0.135 A 
ATOM     67  F   UNL A   1      48.798  27.798  23.454  1.00  0.00    -0.206 F 
ATOM     68  C   UNL A   1      51.082  27.267  23.534  1.00  0.00     0.059 A 
ATOM     69  C   UNL A   1      52.135  26.770  25.666  1.00  0.00     0.059 A 
ATOM     70  F   UNL A   1      50.852  26.797  27.629  1.00  0.00    -0.206 F 
ATOM     71  C   UNL A   1      52.211  26.922  24.282  1.00  0.00     0.060 A 
BRANCH  71  72
ATOM     72  S   UNL A   1      53.785  26.711  23.424  1.00  0.00     0.124 S 
ATOM     73  O   UNL A   1      54.501  25.826  24.336  1.00  0.00    -0.237 OA
ATOM     74  O   UNL A   1      53.372  26.118  22.156  1.00  0.00    -0.237 OA
ATOM     75  O   UNL A   1      54.306  28.072  23.332  1.00  0.00    -0.744 OA
ENDBRANCH  71  72
ENDBRANCH  39  64
ENDBRANCH  13  14
ENDBRANCH   6   8
ENDBRANCH   3   4
ENDBRANCH   2   3
ENDBRANCH   1   2
BRANCH   1  76
ATOM     76  C   UNL A   1      35.495  34.331  33.667  1.00  0.00     0.002 C 
BRANCH  76  77
ATOM     77  C   UNL A   1      34.179  34.543  32.913  1.00  0.00     0.021 C 
BRANCH  77  78
ATOM     78  C   UNL A   1      34.250  34.271  31.414  1.00  0.00     0.116 C 
BRANCH  78  79
ATOM     79  N   UNL A   1      33.952  35.457  30.626  1.00  0.00    -0.352 N 
ATOM     80  C   UNL A   1      33.694  35.543  29.283  1.00  0.00     0.251 C 
ATOM     81  H   UNL A   1      33.931  36.308  31.121  1.00  0.00     0.163 HD
ATOM     82  O   UNL A   1      33.597  36.626  28.717  1.00  0.00    -0.269 OA
BRANCH  80  83
ATOM     83  C   UNL A   1      33.571  34.296  28.512  1.00  0.00     0.041 A 
ATOM     84  C   UNL A   1      32.420  34.029  27.775  1.00  0.00     0.036 A 
ATOM     85  C   UNL A   1      34.618  33.379  28.560  1.00  0.00     0.020 A 
ATOM     86  C   UNL A   1      32.288  32.789  27.159  1.00  0.00     0.065 A 
ATOM     87  C   UNL A   1      34.492  32.138  27.919  1.00  0.00    -0.015 A 
ATOM     88  Cl  UNL A   1      30.823  32.460  26.299  1.00  0.00    -0.082 Cl
ATOM     89  C   UNL A   1      33.298  31.811  27.256  1.00  0.00     0.057 A 
ATOM     90  C   UNL A   1      35.660  31.194  27.923  1.00  0.00     0.049 C 
ATOM     91  N   UNL A   1      33.154  30.577  26.637  1.00  0.00    -0.376 N 
ATOM     92  C   UNL A   1      35.944  30.531  29.247  1.00  0.00    -0.023 C 
ATOM     93  C   UNL A   1      35.523  29.980  26.980  1.00  0.00     0.031 C 
ATOM     94  C   UNL A   1      34.054  29.481  26.959  1.00  0.00     0.114 C 
ATOM     95  H   UNL A   1      32.436  30.442  25.977  1.00  0.00     0.161 HD
ATOM     96  C   UNL A   1      36.439  29.301  29.063  1.00  0.00    -0.030 C 
ATOM     97  C   UNL A   1      36.528  28.986  27.602  1.00  0.00     0.034 C 
BRANCH  94  98
ATOM     98  C   UNL A   1      33.836  28.349  25.962  1.00  0.00    -0.025 A 
ATOM     99  C   UNL A   1      33.931  28.505  24.565  1.00  0.00     0.007 A 
ATOM    100  C   UNL A   1      33.537  27.078  26.461  1.00  0.00     0.007 A 
ATOM    101  C   UNL A   1      33.760  27.415  23.701  1.00  0.00     0.022 A 
ATOM    102  C   UNL A   1      33.417  25.991  25.609  1.00  0.00     0.022 A 
ATOM    103  C   UNL A   1      33.524  26.149  24.233  1.00  0.00     0.082 A 
BRANCH 103 104
ATOM    104  S   UNL A   1      33.385  24.750  23.142  1.00  0.00     0.243 S 
ATOM    105  O   UNL A   1      32.506  25.149  22.068  1.00  0.00    -0.207 OA
ATOM    106  O   UNL A   1      34.738  24.292  22.894  1.00  0.00    -0.207 OA
BRANCH 104 107
ATOM    107  N   UNL A   1      32.609  23.565  24.042  1.00  0.00    -0.193 NA
ATOM    108  C   UNL A   1      31.141  23.540  24.216  1.00  0.00     0.131 C 
ATOM    109  C   UNL A   1      33.354  22.517  24.760  1.00  0.00     0.131 C 
ATOM    110  C   UNL A   1      30.740  23.293  25.683  1.00  0.00     0.177 C 
ATOM    111  C   UNL A   1      32.889  22.438  26.214  1.00  0.00     0.177 C 
ATOM    112  O   UNL A   1      31.473  22.222  26.293  1.00  0.00    -0.379 OA
ENDBRANCH 104 107
ENDBRANCH 103 104
ENDBRANCH  94  98
ENDBRANCH  80  83
ENDBRANCH  78  79
ENDBRANCH  77  78
ENDBRANCH  76  77
ENDBRANCH   1  76
TORSDOF 19
ENDMDL
MODEL 3
REMARK VINA RESULT:      -9.0      4.391      9.964
REMARK SMILES O=C(NCCCCCCNC(=O)c1cc(Cl)c2c(c1)[C@H]1C=CC[C@H]1[C@H](c1ccc(S(=O)(=O)N3CCOCC3)cc1)N2)c1ccc(-c2c3nc(c(-c4c(F)cc(S(=O)(=O)[O-])cc4F)c4ccc([nH]4)c(-c4c(F)cc(S(=O)(=O)[O-])cc4F)c4nc(c(-c5c(F)cc(S(=O)(=O)[O-])cc5F)c5ccc2[nH]5)C=C4)C=C3)cc1
REMARK SMILES IDX 6 1 5 2 4 3 3 4 1 5 2 6 42 8 43 9 107 10 44 11 106 12 45 13
REMARK SMILES IDX 46 14 47 15 100 16 48 17 105 18 99 19 101 20 49 21 104 22
REMARK SMILES IDX 98 23 97 24 50 26 84 27 63 28 83 29 64 30 67 31 82 32 102 33
REMARK SMILES IDX 65 34 66 35 81 37 103 38 68 39 51 40 52 41 61 42 53 43 54 44
REMARK SMILES IDX 60 45 62 46 55 47 56 48 57 49 58 50 59 51 85 52 86 53 95 54
REMARK SMILES IDX 87 55 88 56 94 57 96 58 89 59 90 60 91 61 92 62 93 63 69 64
REMARK SMILES IDX 70 65 79 66 71 67 72 68 78 69 80 70 73 71 74 72 75 73 76 74
REMARK SMILES IDX 77 75 7 76 8 77 9 78 10 79 11 80 12 82 13 83 14 84 19 85
REMARK SMILES IDX 15 86 18 87 16 88 17 89 20 90 41 91 21 92 24 93 25 94 22 96
REMARK SMILES IDX 23 97 26 98 27 99 40 100 28 101 39 102 29 103 30 104 31 105
REMARK SMILES IDX 32 106 33 107 34 108 38 109 35 110 37 111 36 112
REMARK H PARENT 3 7 101 25 67 36 10 81 41 95
REMARK Flexibility Score: inf
ROOT
ATOM      1  C   UNL A   1      44.125  39.181  28.987  1.00  0.00     0.002 C 
ENDROOT
BRANCH   1   2
ATOM      2  C   UNL A   1      45.483  39.125  28.283  1.00  0.00     0.021 C 
BRANCH   2   3
ATOM      3  C   UNL A   1      46.126  37.742  28.233  1.00  0.00     0.116 C 
BRANCH   3   4
ATOM      4  N   UNL A   1      47.446  37.736  28.841  1.00  0.00    -0.352 N 
ATOM      5  O   UNL A   1      49.188  36.862  29.974  1.00  0.00    -0.269 OA
ATOM      6  C   UNL A   1      48.172  36.672  29.313  1.00  0.00     0.251 C 
ATOM      7  H   UNL A   1      47.878  38.616  28.928  1.00  0.00     0.163 HD
BRANCH   6   8
ATOM      8  C   UNL A   1      47.714  35.297  29.031  1.00  0.00     0.039 A 
ATOM      9  C   UNL A   1      47.369  34.918  27.730  1.00  0.00     0.014 A 
ATOM     10  C   UNL A   1      47.647  34.376  30.079  1.00  0.00     0.014 A 
ATOM     11  C   UNL A   1      46.869  33.640  27.493  1.00  0.00     0.010 A 
ATOM     12  C   UNL A   1      47.186  33.082  29.832  1.00  0.00     0.010 A 
ATOM     13  C   UNL A   1      46.772  32.713  28.543  1.00  0.00    -0.014 A 
BRANCH  13  14
ATOM     14  C   UNL A   1      46.271  31.346  28.268  1.00  0.00     0.031 A 
ATOM     15  C   UNL A   1      47.189  30.288  27.727  1.00  0.00     0.074 A 
ATOM     16  C   UNL A   1      44.985  31.058  28.538  1.00  0.00     0.049 A 
ATOM     17  N   UNL A   1      46.934  29.031  27.474  1.00  0.00    -0.248 NA
ATOM     18  C   UNL A   1      48.572  30.694  27.437  1.00  0.00     0.031 C 
ATOM     19  C   UNL A   1      44.006  32.007  29.074  1.00  0.00     0.029 A 
ATOM     20  N   UNL A   1      44.283  29.887  28.415  1.00  0.00    -0.354 N 
ATOM     21  C   UNL A   1      48.124  28.488  27.007  1.00  0.00     0.074 A 
ATOM     22  C   UNL A   1      49.092  29.566  26.972  1.00  0.00     0.031 C 
ATOM     23  C   UNL A   1      42.840  31.372  29.263  1.00  0.00     0.029 A 
ATOM     24  C   UNL A   1      42.977  29.984  28.828  1.00  0.00     0.049 A 
ATOM     25  H   UNL A   1      44.678  29.056  28.065  1.00  0.00     0.167 HD
ATOM     26  C   UNL A   1      48.390  27.207  26.657  1.00  0.00     0.037 A 
ATOM     27  C   UNL A   1      41.997  29.061  28.852  1.00  0.00     0.037 A 
ATOM     28  C   UNL A   1      47.415  26.145  26.675  1.00  0.00     0.049 A 
ATOM     29  C   UNL A   1      42.294  27.665  28.387  1.00  0.00     0.074 A 
ATOM     30  C   UNL A   1      47.587  24.812  26.342  1.00  0.00     0.029 A 
ATOM     31  N   UNL A   1      46.084  26.297  27.036  1.00  0.00    -0.354 N 
ATOM     32  N   UNL A   1      43.432  27.162  27.969  1.00  0.00    -0.248 NA
ATOM     33  C   UNL A   1      41.177  26.711  28.391  1.00  0.00     0.031 C 
ATOM     34  C   UNL A   1      46.350  24.169  26.463  1.00  0.00     0.029 A 
ATOM     35  C   UNL A   1      45.416  25.089  26.912  1.00  0.00     0.049 A 
ATOM     36  H   UNL A   1      45.673  27.141  27.336  1.00  0.00     0.167 HD
ATOM     37  C   UNL A   1      43.172  25.829  27.673  1.00  0.00     0.074 A 
ATOM     38  C   UNL A   1      41.771  25.601  27.971  1.00  0.00     0.031 C 
ATOM     39  C   UNL A   1      44.019  24.881  27.200  1.00  0.00     0.037 A 
BRANCH  26  40
ATOM     40  C   UNL A   1      49.790  26.887  26.216  1.00  0.00     0.058 A 
ATOM     41  C   UNL A   1      50.170  26.978  24.867  1.00  0.00     0.135 A 
ATOM     42  C   UNL A   1      50.770  26.505  27.147  1.00  0.00     0.135 A 
ATOM     43  F   UNL A   1      49.269  27.324  23.934  1.00  0.00    -0.206 F 
ATOM     44  C   UNL A   1      51.462  26.672  24.453  1.00  0.00     0.059 A 
ATOM     45  C   UNL A   1      52.075  26.217  26.758  1.00  0.00     0.059 A 
ATOM     46  F   UNL A   1      50.460  26.403  28.449  1.00  0.00    -0.206 F 
ATOM     47  C   UNL A   1      52.406  26.287  25.406  1.00  0.00     0.060 A 
BRANCH  47  48
ATOM     48  S   UNL A   1      54.072  25.870  24.847  1.00  0.00     0.124 S 
ATOM     49  O   UNL A   1      54.890  26.502  25.876  1.00  0.00    -0.237 OA
ATOM     50  O   UNL A   1      54.051  24.411  24.862  1.00  0.00    -0.237 OA
ATOM     51  O   UNL A   1      54.148  26.480  23.523  1.00  0.00    -0.744 OA
ENDBRANCH  47  48
ENDBRANCH  26  40
BRANCH  27  52
ATOM     52  C   UNL A   1      40.657  29.437  29.367  1.00  0.00     0.058 A 
ATOM     53  C   UNL A   1      40.429  29.562  30.744  1.00  0.00     0.135 A 
ATOM     54  C   UNL A   1      39.602  29.746  28.495  1.00  0.00     0.135 A 
ATOM     55  F   UNL A   1      41.408  29.271  31.615  1.00  0.00    -0.206 F 
ATOM     56  C   UNL A   1      39.204  29.991  31.241  1.00  0.00     0.059 A 
ATOM     57  C   UNL A   1      38.374  30.197  28.967  1.00  0.00     0.059 A 
ATOM     58  F   UNL A   1      39.778  29.653  27.167  1.00  0.00    -0.206 F 
ATOM     59  C   UNL A   1      38.185  30.318  30.344  1.00  0.00     0.060 A 
BRANCH  59  60
ATOM     60  S   UNL A   1      36.631  30.963  31.000  1.00  0.00     0.124 S 
ATOM     61  O   UNL A   1      37.014  32.314  31.390  1.00  0.00    -0.237 OA
ATOM     62  O   UNL A   1      35.747  30.859  29.843  1.00  0.00    -0.237 OA
ATOM     63  O   UNL A   1      36.326  30.050  32.097  1.00  0.00    -0.744 OA
ENDBRANCH  59  60
ENDBRANCH  27  52
BRANCH  39  64
ATOM     64  C   UNL A   1      43.458  23.504  26.978  1.00  0.00     0.058 A 
ATOM     65  C   UNL A   1      43.164  23.034  25.690  1.00  0.00     0.135 A 
ATOM     66  C   UNL A   1      43.273  22.627  28.058  1.00  0.00     0.135 A 
ATOM     67  F   UNL A   1      43.315  23.837  24.625  1.00  0.00    -0.206 F 
ATOM     68  C   UNL A   1      42.694  21.742  25.480  1.00  0.00     0.059 A 
ATOM     69  C   UNL A   1      42.825  21.323  27.869  1.00  0.00     0.059 A 
ATOM     70  F   UNL A   1      43.546  23.027  29.309  1.00  0.00    -0.206 F 
ATOM     71  C   UNL A   1      42.532  20.891  26.576  1.00  0.00     0.060 A 
BRANCH  71  72
ATOM     72  S   UNL A   1      41.966  19.202  26.283  1.00  0.00     0.124 S 
ATOM     73  O   UNL A   1      40.575  19.420  25.901  1.00  0.00    -0.237 OA
ATOM     74  O   UNL A   1      42.855  18.755  25.215  1.00  0.00    -0.237 OA
ATOM     75  O   UNL A   1      42.167  18.548  27.572  1.00  0.00    -0.744 OA
ENDBRANCH  71  72
ENDBRANCH  39  64
ENDBRANCH  13  14
ENDBRANCH   6   8
ENDBRANCH   3   4
ENDBRANCH   2   3
ENDBRANCH   1   2
BRANCH   1  76
ATOM     76  C   UNL A   1      42.988  39.802  28.170  1.00  0.00     0.002 C 
BRANCH  76  77
ATOM     77  C   UNL A   1      42.718  39.136  26.818  1.00  0.00     0.021 C 
BRANCH  77  78
ATOM     78  C   UNL A   1      41.956  37.817  26.895  1.00  0.00     0.116 C 
BRANCH  78  79
ATOM     79  N   UNL A   1      42.669  36.731  26.239  1.00  0.00    -0.352 N 
ATOM     80  C   UNL A   1      43.183  35.591  26.798  1.00  0.00     0.251 C 
ATOM     81  H   UNL A   1      42.798  36.828  25.267  1.00  0.00     0.163 HD
ATOM     82  O   UNL A   1      43.888  34.823  26.154  1.00  0.00    -0.269 OA
BRANCH  80  83
ATOM     83  C   UNL A   1      42.904  35.320  28.216  1.00  0.00     0.041 A 
ATOM     84  C   UNL A   1      41.640  34.894  28.621  1.00  0.00     0.036 A 
ATOM     85  C   UNL A   1      43.920  35.525  29.146  1.00  0.00     0.020 A 
ATOM     86  C   UNL A   1      41.377  34.765  29.981  1.00  0.00     0.065 A 
ATOM     87  C   UNL A   1      43.658  35.372  30.516  1.00  0.00    -0.015 A 
ATOM     88  Cl  UNL A   1      39.782  34.293  30.459  1.00  0.00    -0.082 Cl
ATOM     89  C   UNL A   1      42.364  35.042  30.948  1.00  0.00     0.057 A 
ATOM     90  C   UNL A   1      44.786  35.528  31.494  1.00  0.00     0.049 C 
ATOM     91  N   UNL A   1      42.087  34.910  32.302  1.00  0.00    -0.376 N 
ATOM     92  C   UNL A   1      45.267  36.942  31.699  1.00  0.00    -0.023 C 
ATOM     93  C   UNL A   1      44.465  35.087  32.939  1.00  0.00     0.031 C 
ATOM     94  C   UNL A   1      43.000  35.452  33.296  1.00  0.00     0.114 C 
ATOM     95  H   UNL A   1      41.268  34.448  32.591  1.00  0.00     0.161 HD
ATOM     96  C   UNL A   1      45.693  37.119  32.955  1.00  0.00    -0.030 C 
ATOM     97  C   UNL A   1      45.533  35.858  33.745  1.00  0.00     0.034 C 
BRANCH  94  98
ATOM     98  C   UNL A   1      42.591  34.946  34.675  1.00  0.00    -0.025 A 
ATOM     99  C   UNL A   1      42.281  35.791  35.759  1.00  0.00     0.007 A 
ATOM    100  C   UNL A   1      42.506  33.565  34.873  1.00  0.00     0.007 A 
ATOM    101  C   UNL A   1      41.872  35.265  36.992  1.00  0.00     0.022 A 
ATOM    102  C   UNL A   1      42.053  33.048  36.077  1.00  0.00     0.022 A 
ATOM    103  C   UNL A   1      41.737  33.885  37.139  1.00  0.00     0.082 A 
BRANCH 103 104
ATOM    104  S   UNL A   1      41.140  33.221  38.678  1.00  0.00     0.243 S 
ATOM    105  O   UNL A   1      41.684  31.888  38.791  1.00  0.00    -0.207 OA
ATOM    106  O   UNL A   1      41.387  34.236  39.683  1.00  0.00    -0.207 OA
BRANCH 104 107
ATOM    107  N   UNL A   1      39.478  33.094  38.487  1.00  0.00    -0.193 NA
ATOM    108  C   UNL A   1      38.548  33.085  39.638  1.00  0.00     0.131 C 
ATOM    109  C   UNL A   1      38.855  32.922  37.165  1.00  0.00     0.131 C 
ATOM    110  C   UNL A   1      37.491  31.972  39.514  1.00  0.00     0.177 C 
ATOM    111  C   UNL A   1      37.882  31.743  37.186  1.00  0.00     0.177 C 
ATOM    112  O   UNL A   1      36.893  31.907  38.212  1.00  0.00    -0.379 OA
ENDBRANCH 104 107
ENDBRANCH 103 104
ENDBRANCH  94  98
ENDBRANCH  80  83
ENDBRANCH  78  79
ENDBRANCH  77  78
ENDBRANCH  76  77
ENDBRANCH   1  76
TORSDOF 19
ENDMDL
