MODEL 1
REMARK VINA RESULT:     -10.4      0.000      0.000
REMARK SMILES CC[C@H]1CCCC[C@@H]1C1(C(=O)NCCCCCCNC(=O)c2ccc(-c3c4nc(c(-c5c(F)cc(S(=O)(=O)[O-])cc5F)c5ccc([nH]5)c(-c5c(F)cc(S(=O)(=O)[O-])cc5F)c5nc(c(-c6c(F)cc(S(=O)(=O)[O-])cc6F)c6ccc3[nH]6)C=C5)C=C4)cc2)CC1
REMARK SMILES IDX 16 1 15 2 14 3 13 4 12 5 10 6 11 7 9 9 88 10 89 11 8 12 3 13
REMARK SMILES IDX 4 14 5 15 7 16 6 17 2 18 1 19 17 20 18 21 19 22 20 23 21 25
REMARK SMILES IDX 22 26 23 27 87 28 24 29 86 30 25 31 26 32 27 33 80 34 28 35
REMARK SMILES IDX 85 36 79 37 81 38 29 39 84 40 78 41 77 42 30 44 64 45 43 46
REMARK SMILES IDX 63 47 44 48 47 49 62 50 82 51 45 52 46 53 61 55 83 56 48 57
REMARK SMILES IDX 31 58 32 59 41 60 33 61 34 62 40 63 42 64 35 65 36 66 37 67
REMARK SMILES IDX 38 68 39 69 65 70 66 71 75 72 67 73 68 74 74 75 76 76 69 77
REMARK SMILES IDX 70 78 71 79 72 80 73 81 49 82 50 83 59 84 51 85 52 86 58 87
REMARK SMILES IDX 60 88 53 89 54 90 55 91 56 92 57 93
REMARK H PARENT 12 8 19 24 81 43 47 54
REMARK Flexibility Score: inf
ROOT
ATOM      1  C   UNL A   1      33.493  27.337  24.619  1.00  0.00     0.002 C 
ENDROOT
BRANCH   1   2
ATOM      2  C   UNL A   1      32.627  27.371  23.355  1.00  0.00     0.002 C 
BRANCH   2   3
ATOM      3  C   UNL A   1      33.284  26.858  22.062  1.00  0.00     0.021 C 
BRANCH   3   4
ATOM      4  C   UNL A   1      33.017  25.388  21.741  1.00  0.00     0.116 C 
BRANCH   4   5
ATOM      5  N   UNL A   1      31.798  24.905  22.345  1.00  0.00    -0.356 N 
ATOM      6  C   UNL A   1      31.478  23.961  23.273  1.00  0.00     0.226 C 
ATOM      7  O   UNL A   1      30.298  23.941  23.622  1.00  0.00    -0.274 OA
ATOM      8  H   UNL A   1      31.003  25.372  22.001  1.00  0.00     0.163 HD
BRANCH   6   9
ATOM      9  C   UNL A   1      32.446  22.960  23.906  1.00  0.00     0.052 C 
ATOM     10  C   UNL A   1      32.942  21.899  22.914  1.00  0.00     0.018 C 
ATOM     11  C   UNL A   1      32.158  21.483  24.116  1.00  0.00     0.018 C 
BRANCH   9  12
ATOM     12  C   UNL A   1      33.412  23.637  24.941  1.00  0.00     0.008 C 
ATOM     13  C   UNL A   1      34.758  22.941  25.315  1.00  0.00    -0.007 C 
ATOM     14  C   UNL A   1      34.620  21.921  26.459  1.00  0.00     0.004 C 
ATOM     15  C   UNL A   1      33.849  22.458  27.658  1.00  0.00     0.000 C 
ATOM     16  C   UNL A   1      32.620  24.094  26.185  1.00  0.00     0.005 C 
ATOM     17  C   UNL A   1      32.492  23.019  27.258  1.00  0.00     0.000 C 
BRANCH  13  18
ATOM     18  C   UNL A   1      35.801  24.049  25.649  1.00  0.00     0.000 C 
ATOM     19  C   UNL A   1      37.252  23.688  25.364  1.00  0.00     0.004 C 
ENDBRANCH  13  18
ENDBRANCH   9  12
ENDBRANCH   6   9
ENDBRANCH   4   5
ENDBRANCH   3   4
ENDBRANCH   2   3
ENDBRANCH   1   2
BRANCH   1  20
ATOM     20  C   UNL A   1      32.819  27.822  25.904  1.00  0.00     0.021 C 
BRANCH  20  21
ATOM     21  C   UNL A   1      33.773  28.228  27.017  1.00  0.00     0.116 C 
BRANCH  21  22
ATOM     22  N   UNL A   1      33.615  29.621  27.399  1.00  0.00    -0.352 N 
ATOM     23  C   UNL A   1      34.502  30.443  28.050  1.00  0.00     0.251 C 
ATOM     24  H   UNL A   1      32.754  30.033  27.157  1.00  0.00     0.163 HD
ATOM     25  O   UNL A   1      34.140  31.544  28.452  1.00  0.00    -0.269 OA
BRANCH  23  26
ATOM     26  C   UNL A   1      35.889  29.983  28.287  1.00  0.00     0.039 A 
ATOM     27  C   UNL A   1      36.818  30.064  27.246  1.00  0.00     0.014 A 
ATOM     28  C   UNL A   1      36.273  29.479  29.534  1.00  0.00     0.014 A 
ATOM     29  C   UNL A   1      38.147  29.700  27.474  1.00  0.00     0.010 A 
ATOM     30  C   UNL A   1      37.610  29.180  29.779  1.00  0.00     0.010 A 
ATOM     31  C   UNL A   1      38.560  29.285  28.750  1.00  0.00    -0.014 A 
BRANCH  31  32
ATOM     32  C   UNL A   1      39.979  28.955  29.034  1.00  0.00     0.031 A 
ATOM     33  C   UNL A   1      40.897  29.999  29.606  1.00  0.00     0.074 A 
ATOM     34  C   UNL A   1      40.459  27.738  28.710  1.00  0.00     0.049 A 
ATOM     35  N   UNL A   1      42.182  29.931  29.842  1.00  0.00    -0.248 NA
ATOM     36  C   UNL A   1      40.296  31.304  29.927  1.00  0.00     0.031 C 
ATOM     37  C   UNL A   1      39.680  26.656  28.103  1.00  0.00     0.029 A 
ATOM     38  N   UNL A   1      41.720  27.211  28.828  1.00  0.00    -0.354 N 
ATOM     39  C   UNL A   1      42.546  31.184  30.321  1.00  0.00     0.074 A 
ATOM     40  C   UNL A   1      41.356  32.007  30.297  1.00  0.00     0.031 C 
ATOM     41  C   UNL A   1      40.477  25.591  27.916  1.00  0.00     0.029 A 
ATOM     42  C   UNL A   1      41.828  25.924  28.357  1.00  0.00     0.049 A 
ATOM     43  H   UNL A   1      42.477  27.708  29.214  1.00  0.00     0.167 HD
ATOM     44  C   UNL A   1      43.757  31.604  30.757  1.00  0.00     0.037 A 
ATOM     45  C   UNL A   1      42.897  25.107  28.279  1.00  0.00     0.037 A 
ATOM     46  C   UNL A   1      44.931  30.772  30.806  1.00  0.00     0.049 A 
ATOM     47  C   UNL A   1      44.229  25.591  28.782  1.00  0.00     0.074 A 
ATOM     48  C   UNL A   1      46.186  31.081  31.299  1.00  0.00     0.029 A 
ATOM     49  N   UNL A   1      44.995  29.466  30.344  1.00  0.00    -0.354 N 
ATOM     50  N   UNL A   1      44.542  26.758  29.292  1.00  0.00    -0.248 NA
ATOM     51  C   UNL A   1      45.352  24.646  28.704  1.00  0.00     0.031 C 
ATOM     52  C   UNL A   1      47.020  29.974  31.101  1.00  0.00     0.029 A 
ATOM     53  C   UNL A   1      46.273  28.961  30.520  1.00  0.00     0.049 A 
ATOM     54  H   UNL A   1      44.242  28.969  29.948  1.00  0.00     0.167 HD
ATOM     55  C   UNL A   1      45.893  26.684  29.609  1.00  0.00     0.074 A 
ATOM     56  C   UNL A   1      46.334  25.351  29.248  1.00  0.00     0.031 C 
ATOM     57  C   UNL A   1      46.696  27.633  30.151  1.00  0.00     0.037 A 
BRANCH  44  58
ATOM     58  C   UNL A   1      43.870  33.031  31.218  1.00  0.00     0.058 A 
ATOM     59  C   UNL A   1      44.150  34.075  30.320  1.00  0.00     0.135 A 
ATOM     60  C   UNL A   1      43.684  33.363  32.569  1.00  0.00     0.135 A 
ATOM     61  F   UNL A   1      44.354  33.811  29.020  1.00  0.00    -0.206 F 
ATOM     62  C   UNL A   1      44.277  35.391  30.752  1.00  0.00     0.059 A 
ATOM     63  C   UNL A   1      43.779  34.676  33.019  1.00  0.00     0.059 A 
ATOM     64  F   UNL A   1      43.414  32.405  33.469  1.00  0.00    -0.206 F 
ATOM     65  C   UNL A   1      44.095  35.681  32.104  1.00  0.00     0.060 A 
BRANCH  65  66
ATOM     66  S   UNL A   1      44.274  37.392  32.653  1.00  0.00     0.124 S 
ATOM     67  O   UNL A   1      43.145  37.522  33.569  1.00  0.00    -0.237 OA
ATOM     68  O   UNL A   1      45.595  37.386  33.273  1.00  0.00    -0.237 OA
ATOM     69  O   UNL A   1      44.170  38.158  31.415  1.00  0.00    -0.744 OA
ENDBRANCH  65  66
ENDBRANCH  44  58
BRANCH  45  70
ATOM     70  C   UNL A   1      42.740  23.740  27.720  1.00  0.00     0.058 A 
ATOM     71  C   UNL A   1      42.473  22.647  28.556  1.00  0.00     0.135 A 
ATOM     72  C   UNL A   1      42.820  23.504  26.338  1.00  0.00     0.135 A 
ATOM     73  F   UNL A   1      42.396  22.822  29.884  1.00  0.00    -0.206 F 
ATOM     74  C   UNL A   1      42.297  21.364  28.046  1.00  0.00     0.059 A 
ATOM     75  C   UNL A   1      42.626  22.235  25.802  1.00  0.00     0.059 A 
ATOM     76  F   UNL A   1      43.057  24.522  25.495  1.00  0.00    -0.206 F 
ATOM     77  C   UNL A   1      42.371  21.170  26.665  1.00  0.00     0.060 A 
BRANCH  77  78
ATOM     78  S   UNL A   1      42.071  19.516  26.005  1.00  0.00     0.124 S 
ATOM     79  O   UNL A   1      42.523  18.675  27.107  1.00  0.00    -0.237 OA
ATOM     80  O   UNL A   1      40.632  19.536  25.764  1.00  0.00    -0.237 OA
ATOM     81  O   UNL A   1      42.898  19.481  24.803  1.00  0.00    -0.744 OA
ENDBRANCH  77  78
ENDBRANCH  45  70
BRANCH  57  82
ATOM     82  C   UNL A   1      48.130  27.263  30.397  1.00  0.00     0.058 A 
ATOM     83  C   UNL A   1      49.133  27.546  29.458  1.00  0.00     0.135 A 
ATOM     84  C   UNL A   1      48.514  26.661  31.607  1.00  0.00     0.135 A 
ATOM     85  F   UNL A   1      48.817  28.114  28.283  1.00  0.00    -0.206 F 
ATOM     86  C   UNL A   1      50.466  27.229  29.701  1.00  0.00     0.059 A 
ATOM     87  C   UNL A   1      49.843  26.357  31.881  1.00  0.00     0.059 A 
ATOM     88  F   UNL A   1      47.594  26.377  32.542  1.00  0.00    -0.206 F 
ATOM     89  C   UNL A   1      50.811  26.634  30.915  1.00  0.00     0.060 A 
BRANCH  89  90
ATOM     90  S   UNL A   1      52.548  26.259  31.234  1.00  0.00     0.124 S 
ATOM     91  O   UNL A   1      53.089  26.200  29.880  1.00  0.00    -0.237 OA
ATOM     92  O   UNL A   1      52.974  27.400  32.038  1.00  0.00    -0.237 OA
ATOM     93  O   UNL A   1      52.494  24.985  31.945  1.00  0.00    -0.744 OA
ENDBRANCH  89  90
ENDBRANCH  57  82
ENDBRANCH  31  32
ENDBRANCH  23  26
ENDBRANCH  21  22
ENDBRANCH  20  21
ENDBRANCH   1  20
TORSDOF 18
ENDMDL
MODEL 2
REMARK VINA RESULT:     -10.3      0.849      2.101
REMARK SMILES CC[C@H]1CCCC[C@@H]1C1(C(=O)NCCCCCCNC(=O)c2ccc(-c3c4nc(c(-c5c(F)cc(S(=O)(=O)[O-])cc5F)c5ccc([nH]5)c(-c5c(F)cc(S(=O)(=O)[O-])cc5F)c5nc(c(-c6c(F)cc(S(=O)(=O)[O-])cc6F)c6ccc3[nH]6)C=C5)C=C4)cc2)CC1
REMARK SMILES IDX 16 1 15 2 14 3 13 4 12 5 10 6 11 7 9 9 88 10 89 11 8 12 3 13
REMARK SMILES IDX 4 14 5 15 7 16 6 17 2 18 1 19 17 20 18 21 19 22 20 23 21 25
REMARK SMILES IDX 22 26 23 27 87 28 24 29 86 30 25 31 26 32 27 33 80 34 28 35
REMARK SMILES IDX 85 36 79 37 81 38 29 39 84 40 78 41 77 42 30 44 64 45 43 46
REMARK SMILES IDX 63 47 44 48 47 49 62 50 82 51 45 52 46 53 61 55 83 56 48 57
REMARK SMILES IDX 31 58 32 59 41 60 33 61 34 62 40 63 42 64 35 65 36 66 37 67
REMARK SMILES IDX 38 68 39 69 65 70 66 71 75 72 67 73 68 74 74 75 76 76 69 77
REMARK SMILES IDX 70 78 71 79 72 80 73 81 49 82 50 83 59 84 51 85 52 86 58 87
REMARK SMILES IDX 60 88 53 89 54 90 55 91 56 92 57 93
REMARK H PARENT 12 8 19 24 81 43 47 54
REMARK Flexibility Score: inf
ROOT
ATOM      1  C   UNL A   1      31.604  28.558  25.666  1.00  0.00     0.002 C 
ENDROOT
BRANCH   1   2
ATOM      2  C   UNL A   1      30.998  27.773  24.498  1.00  0.00     0.002 C 
BRANCH   2   3
ATOM      3  C   UNL A   1      30.574  26.324  24.795  1.00  0.00     0.021 C 
BRANCH   3   4
ATOM      4  C   UNL A   1      30.584  25.388  23.587  1.00  0.00     0.116 C 
BRANCH   4   5
ATOM      5  N   UNL A   1      31.798  25.499  22.813  1.00  0.00    -0.356 N 
ATOM      6  C   UNL A   1      33.082  25.065  22.948  1.00  0.00     0.226 C 
ATOM      7  O   UNL A   1      33.812  25.263  21.977  1.00  0.00    -0.274 OA
ATOM      8  H   UNL A   1      31.666  26.016  21.986  1.00  0.00     0.163 HD
BRANCH   6   9
ATOM      9  C   UNL A   1      33.667  24.359  24.172  1.00  0.00     0.052 C 
ATOM     10  C   UNL A   1      34.315  25.329  25.168  1.00  0.00     0.018 C 
ATOM     11  C   UNL A   1      35.146  24.278  24.507  1.00  0.00     0.018 C 
BRANCH   9  12
ATOM     12  C   UNL A   1      32.777  23.159  24.650  1.00  0.00     0.008 C 
ATOM     13  C   UNL A   1      32.142  23.185  26.076  1.00  0.00    -0.007 C 
ATOM     14  C   UNL A   1      33.073  22.629  27.169  1.00  0.00     0.004 C 
ATOM     15  C   UNL A   1      33.709  21.295  26.800  1.00  0.00     0.000 C 
ATOM     16  C   UNL A   1      33.482  21.820  24.345  1.00  0.00     0.005 C 
ATOM     17  C   UNL A   1      34.416  21.352  25.454  1.00  0.00     0.000 C 
BRANCH  13  18
ATOM     18  C   UNL A   1      30.789  22.413  26.021  1.00  0.00     0.000 C 
ATOM     19  C   UNL A   1      29.755  22.831  27.057  1.00  0.00     0.004 C 
ENDBRANCH  13  18
ENDBRANCH   9  12
ENDBRANCH   6   9
ENDBRANCH   4   5
ENDBRANCH   3   4
ENDBRANCH   2   3
ENDBRANCH   1   2
BRANCH   1  20
ATOM     20  C   UNL A   1      32.350  27.730  26.714  1.00  0.00     0.021 C 
BRANCH  20  21
ATOM     21  C   UNL A   1      33.662  28.331  27.195  1.00  0.00     0.116 C 
BRANCH  21  22
ATOM     22  N   UNL A   1      33.542  29.747  27.498  1.00  0.00    -0.352 N 
ATOM     23  C   UNL A   1      34.458  30.583  28.088  1.00  0.00     0.251 C 
ATOM     24  H   UNL A   1      32.686  30.164  27.247  1.00  0.00     0.163 HD
ATOM     25  O   UNL A   1      34.128  31.714  28.432  1.00  0.00    -0.269 OA
BRANCH  23  26
ATOM     26  C   UNL A   1      35.838  30.105  28.329  1.00  0.00     0.039 A 
ATOM     27  C   UNL A   1      36.758  30.130  27.277  1.00  0.00     0.014 A 
ATOM     28  C   UNL A   1      36.225  29.640  29.589  1.00  0.00     0.014 A 
ATOM     29  C   UNL A   1      38.082  29.749  27.506  1.00  0.00     0.010 A 
ATOM     30  C   UNL A   1      37.559  29.324  29.833  1.00  0.00     0.010 A 
ATOM     31  C   UNL A   1      38.499  29.373  28.792  1.00  0.00    -0.014 A 
BRANCH  31  32
ATOM     32  C   UNL A   1      39.915  29.025  29.075  1.00  0.00     0.031 A 
ATOM     33  C   UNL A   1      40.841  30.052  29.667  1.00  0.00     0.074 A 
ATOM     34  C   UNL A   1      40.385  27.809  28.732  1.00  0.00     0.049 A 
ATOM     35  N   UNL A   1      42.124  29.968  29.906  1.00  0.00    -0.248 NA
ATOM     36  C   UNL A   1      40.250  31.356  30.009  1.00  0.00     0.031 C 
ATOM     37  C   UNL A   1      39.599  26.745  28.105  1.00  0.00     0.029 A 
ATOM     38  N   UNL A   1      41.641  27.270  28.845  1.00  0.00    -0.354 N 
ATOM     39  C   UNL A   1      42.497  31.210  30.407  1.00  0.00     0.074 A 
ATOM     40  C   UNL A   1      41.314  32.043  30.394  1.00  0.00     0.031 C 
ATOM     41  C   UNL A   1      40.387  25.676  27.903  1.00  0.00     0.029 A 
ATOM     42  C   UNL A   1      41.740  25.990  28.353  1.00  0.00     0.049 A 
ATOM     43  H   UNL A   1      42.401  27.754  29.242  1.00  0.00     0.167 HD
ATOM     44  C   UNL A   1      43.710  31.612  30.854  1.00  0.00     0.037 A 
ATOM     45  C   UNL A   1      42.801  25.166  28.264  1.00  0.00     0.037 A 
ATOM     46  C   UNL A   1      44.877  30.769  30.893  1.00  0.00     0.049 A 
ATOM     47  C   UNL A   1      44.136  25.629  28.780  1.00  0.00     0.074 A 
ATOM     48  C   UNL A   1      46.133  31.059  31.395  1.00  0.00     0.029 A 
ATOM     49  N   UNL A   1      44.930  29.470  30.409  1.00  0.00    -0.354 N 
ATOM     50  N   UNL A   1      44.458  26.785  29.310  1.00  0.00    -0.248 NA
ATOM     51  C   UNL A   1      45.251  24.676  28.689  1.00  0.00     0.031 C 
ATOM     52  C   UNL A   1      46.957  29.948  31.181  1.00  0.00     0.029 A 
ATOM     53  C   UNL A   1      46.204  28.952  30.581  1.00  0.00     0.049 A 
ATOM     54  H   UNL A   1      44.175  28.987  30.002  1.00  0.00     0.167 HD
ATOM     55  C   UNL A   1      45.807  26.694  29.630  1.00  0.00     0.074 A 
ATOM     56  C   UNL A   1      46.238  25.363  29.248  1.00  0.00     0.031 C 
ATOM     57  C   UNL A   1      46.617  27.627  30.190  1.00  0.00     0.037 A 
BRANCH  44  58
ATOM     58  C   UNL A   1      43.834  33.030  31.339  1.00  0.00     0.058 A 
ATOM     59  C   UNL A   1      43.670  33.361  32.694  1.00  0.00     0.135 A 
ATOM     60  C   UNL A   1      44.135  34.069  30.444  1.00  0.00     0.135 A 
ATOM     61  F   UNL A   1      43.365  32.409  33.590  1.00  0.00    -0.206 F 
ATOM     62  C   UNL A   1      43.762  34.676  33.138  1.00  0.00     0.059 A 
ATOM     63  C   UNL A   1      44.259  35.387  30.870  1.00  0.00     0.059 A 
ATOM     64  F   UNL A   1      44.303  33.808  29.138  1.00  0.00    -0.206 F 
ATOM     65  C   UNL A   1      44.053  35.684  32.217  1.00  0.00     0.060 A 
BRANCH  65  66
ATOM     66  S   UNL A   1      44.158  37.388  32.804  1.00  0.00     0.124 S 
ATOM     67  O   UNL A   1      45.471  37.394  33.441  1.00  0.00    -0.237 OA
ATOM     68  O   UNL A   1      44.050  38.154  31.567  1.00  0.00    -0.237 OA
ATOM     69  O   UNL A   1      43.020  37.505  33.711  1.00  0.00    -0.744 OA
ENDBRANCH  65  66
ENDBRANCH  44  58
BRANCH  45  70
ATOM     70  C   UNL A   1      42.634  23.809  27.682  1.00  0.00     0.058 A 
ATOM     71  C   UNL A   1      42.721  23.604  26.298  1.00  0.00     0.135 A 
ATOM     72  C   UNL A   1      42.419  22.688  28.499  1.00  0.00     0.135 A 
ATOM     73  F   UNL A   1      42.918  24.646  25.477  1.00  0.00    -0.206 F 
ATOM     74  C   UNL A   1      42.594  22.336  25.740  1.00  0.00     0.059 A 
ATOM     75  C   UNL A   1      42.309  21.407  27.967  1.00  0.00     0.059 A 
ATOM     76  F   UNL A   1      42.345  22.831  29.832  1.00  0.00    -0.206 F 
ATOM     77  C   UNL A   1      42.392  21.242  26.585  1.00  0.00     0.060 A 
BRANCH  77  78
ATOM     78  S   UNL A   1      42.299  19.591  25.858  1.00  0.00     0.124 S 
ATOM     79  O   UNL A   1      42.659  18.750  26.993  1.00  0.00    -0.237 OA
ATOM     80  O   UNL A   1      40.907  19.522  25.427  1.00  0.00    -0.237 OA
ATOM     81  O   UNL A   1      43.279  19.647  24.777  1.00  0.00    -0.744 OA
ENDBRANCH  77  78
ENDBRANCH  45  70
BRANCH  57  82
ATOM     82  C   UNL A   1      48.047  27.239  30.435  1.00  0.00     0.058 A 
ATOM     83  C   UNL A   1      49.072  27.631  29.561  1.00  0.00     0.135 A 
ATOM     84  C   UNL A   1      48.402  26.511  31.581  1.00  0.00     0.135 A 
ATOM     85  F   UNL A   1      48.783  28.322  28.447  1.00  0.00    -0.206 F 
ATOM     86  C   UNL A   1      50.401  27.296  29.805  1.00  0.00     0.059 A 
ATOM     87  C   UNL A   1      49.726  26.186  31.857  1.00  0.00     0.059 A 
ATOM     88  F   UNL A   1      47.459  26.120  32.454  1.00  0.00    -0.206 F 
ATOM     89  C   UNL A   1      50.718  26.573  30.956  1.00  0.00     0.060 A 
BRANCH  89  90
ATOM     90  S   UNL A   1      52.449  26.175  31.281  1.00  0.00     0.124 S 
ATOM     91  O   UNL A   1      52.324  24.973  32.100  1.00  0.00    -0.237 OA
ATOM     92  O   UNL A   1      52.982  25.974  29.936  1.00  0.00    -0.237 OA
ATOM     93  O   UNL A   1      52.945  27.359  31.974  1.00  0.00    -0.744 OA
ENDBRANCH  89  90
ENDBRANCH  57  82
ENDBRANCH  31  32
ENDBRANCH  23  26
ENDBRANCH  21  22
ENDBRANCH  20  21
ENDBRANCH   1  20
TORSDOF 18
ENDMDL
MODEL 3
REMARK VINA RESULT:     -10.2      2.706      3.490
REMARK SMILES CC[C@H]1CCCC[C@@H]1C1(C(=O)NCCCCCCNC(=O)c2ccc(-c3c4nc(c(-c5c(F)cc(S(=O)(=O)[O-])cc5F)c5ccc([nH]5)c(-c5c(F)cc(S(=O)(=O)[O-])cc5F)c5nc(c(-c6c(F)cc(S(=O)(=O)[O-])cc6F)c6ccc3[nH]6)C=C5)C=C4)cc2)CC1
REMARK SMILES IDX 16 1 15 2 14 3 13 4 12 5 10 6 11 7 9 9 88 10 89 11 8 12 3 13
REMARK SMILES IDX 4 14 5 15 7 16 6 17 2 18 1 19 17 20 18 21 19 22 20 23 21 25
REMARK SMILES IDX 22 26 23 27 87 28 24 29 86 30 25 31 26 32 27 33 80 34 28 35
REMARK SMILES IDX 85 36 79 37 81 38 29 39 84 40 78 41 77 42 30 44 64 45 43 46
REMARK SMILES IDX 63 47 44 48 47 49 62 50 82 51 45 52 46 53 61 55 83 56 48 57
REMARK SMILES IDX 31 58 32 59 41 60 33 61 34 62 40 63 42 64 35 65 36 66 37 67
REMARK SMILES IDX 38 68 39 69 65 70 66 71 75 72 67 73 68 74 74 75 76 76 69 77
REMARK SMILES IDX 70 78 71 79 72 80 73 81 49 82 50 83 59 84 51 85 52 86 58 87
REMARK SMILES IDX 60 88 53 89 54 90 55 91 56 92 57 93
REMARK H PARENT 12 8 19 24 81 43 47 54
REMARK Flexibility Score: inf
ROOT
ATOM      1  C   UNL A   1      33.421  29.322  26.582  1.00  0.00     0.002 C 
ENDROOT
BRANCH   1   2
ATOM      2  C   UNL A   1      32.158  28.911  27.347  1.00  0.00     0.002 C 
BRANCH   2   3
ATOM      3  C   UNL A   1      31.309  27.795  26.715  1.00  0.00     0.021 C 
BRANCH   3   4
ATOM      4  C   UNL A   1      32.067  26.506  26.401  1.00  0.00     0.116 C 
BRANCH   4   5
ATOM      5  N   UNL A   1      31.412  25.337  26.939  1.00  0.00    -0.356 N 
ATOM      6  C   UNL A   1      31.360  24.014  26.618  1.00  0.00     0.226 C 
ATOM      7  O   UNL A   1      30.773  23.296  27.427  1.00  0.00    -0.274 OA
ATOM      8  H   UNL A   1      30.868  25.548  27.732  1.00  0.00     0.163 HD
BRANCH   6   9
ATOM      9  C   UNL A   1      31.967  23.369  25.371  1.00  0.00     0.052 C 
ATOM     10  C   UNL A   1      31.105  23.565  24.117  1.00  0.00     0.018 C 
ATOM     11  C   UNL A   1      31.374  22.186  24.626  1.00  0.00     0.018 C 
BRANCH   9  12
ATOM     12  C   UNL A   1      33.529  23.510  25.328  1.00  0.00     0.008 C 
ATOM     13  C   UNL A   1      34.345  22.758  24.230  1.00  0.00    -0.007 C 
ATOM     14  C   UNL A   1      34.717  21.317  24.626  1.00  0.00     0.004 C 
ATOM     15  C   UNL A   1      35.315  21.209  26.022  1.00  0.00     0.000 C 
ATOM     16  C   UNL A   1      34.119  23.309  26.741  1.00  0.00     0.005 C 
ATOM     17  C   UNL A   1      34.426  21.855  27.075  1.00  0.00     0.000 C 
BRANCH  13  18
ATOM     18  C   UNL A   1      35.606  23.609  23.892  1.00  0.00     0.000 C 
ATOM     19  C   UNL A   1      36.692  22.887  23.107  1.00  0.00     0.004 C 
ENDBRANCH  13  18
ENDBRANCH   9  12
ENDBRANCH   6   9
ENDBRANCH   4   5
ENDBRANCH   3   4
ENDBRANCH   2   3
ENDBRANCH   1   2
BRANCH   1  20
ATOM     20  C   UNL A   1      34.262  30.427  27.223  1.00  0.00     0.021 C 
BRANCH  20  21
ATOM     21  C   UNL A   1      35.351  29.941  28.167  1.00  0.00     0.116 C 
BRANCH  21  22
ATOM     22  N   UNL A   1      35.456  30.766  29.359  1.00  0.00    -0.352 N 
ATOM     23  C   UNL A   1      36.525  30.925  30.207  1.00  0.00     0.251 C 
ATOM     24  H   UNL A   1      34.650  31.283  29.590  1.00  0.00     0.163 HD
ATOM     25  O   UNL A   1      36.386  31.525  31.268  1.00  0.00    -0.269 OA
BRANCH  23  26
ATOM     26  C   UNL A   1      37.839  30.346  29.846  1.00  0.00     0.039 A 
ATOM     27  C   UNL A   1      38.194  30.259  28.497  1.00  0.00     0.014 A 
ATOM     28  C   UNL A   1      38.719  29.896  30.835  1.00  0.00     0.014 A 
ATOM     29  C   UNL A   1      39.458  29.781  28.144  1.00  0.00     0.010 A 
ATOM     30  C   UNL A   1      40.002  29.482  30.485  1.00  0.00     0.010 A 
ATOM     31  C   UNL A   1      40.382  29.418  29.136  1.00  0.00    -0.014 A 
BRANCH  31  32
ATOM     32  C   UNL A   1      41.754  28.968  28.788  1.00  0.00     0.031 A 
ATOM     33  C   UNL A   1      42.888  29.955  28.762  1.00  0.00     0.074 A 
ATOM     34  C   UNL A   1      41.964  27.687  28.424  1.00  0.00     0.049 A 
ATOM     35  N   UNL A   1      44.133  29.775  28.403  1.00  0.00    -0.248 NA
ATOM     36  C   UNL A   1      42.574  31.335  29.168  1.00  0.00     0.031 C 
ATOM     37  C   UNL A   1      40.935  26.647  28.360  1.00  0.00     0.029 A 
ATOM     38  N   UNL A   1      43.108  27.046  28.022  1.00  0.00    -0.354 N 
ATOM     39  C   UNL A   1      44.744  31.018  28.519  1.00  0.00     0.074 A 
ATOM     40  C   UNL A   1      43.723  31.953  28.939  1.00  0.00     0.031 C 
ATOM     41  C   UNL A   1      41.498  25.495  27.959  1.00  0.00     0.029 A 
ATOM     42  C   UNL A   1      42.917  25.723  27.704  1.00  0.00     0.049 A 
ATOM     43  H   UNL A   1      43.984  27.492  27.968  1.00  0.00     0.167 HD
ATOM     44  C   UNL A   1      46.042  31.345  28.314  1.00  0.00     0.037 A 
ATOM     45  C   UNL A   1      43.784  24.798  27.248  1.00  0.00     0.037 A 
ATOM     46  C   UNL A   1      47.060  30.404  27.925  1.00  0.00     0.049 A 
ATOM     47  C   UNL A   1      45.224  25.181  27.041  1.00  0.00     0.074 A 
ATOM     48  C   UNL A   1      48.417  30.621  27.763  1.00  0.00     0.029 A 
ATOM     49  N   UNL A   1      46.833  29.066  27.637  1.00  0.00    -0.354 N 
ATOM     50  N   UNL A   1      45.800  26.346  27.218  1.00  0.00    -0.248 NA
ATOM     51  C   UNL A   1      46.133  24.124  26.575  1.00  0.00     0.031 C 
ATOM     52  C   UNL A   1      49.005  29.423  27.340  1.00  0.00     0.029 A 
ATOM     53  C   UNL A   1      48.020  28.450  27.277  1.00  0.00     0.049 A 
ATOM     54  H   UNL A   1      45.956  28.620  27.681  1.00  0.00     0.167 HD
ATOM     55  C   UNL A   1      47.140  26.160  26.901  1.00  0.00     0.074 A 
ATOM     56  C   UNL A   1      47.292  24.765  26.535  1.00  0.00     0.031 C 
ATOM     57  C   UNL A   1      48.153  27.061  26.911  1.00  0.00     0.037 A 
BRANCH  44  58
ATOM     58  C   UNL A   1      46.432  32.784  28.508  1.00  0.00     0.058 A 
ATOM     59  C   UNL A   1      46.362  33.714  27.458  1.00  0.00     0.135 A 
ATOM     60  C   UNL A   1      46.869  33.244  29.761  1.00  0.00     0.135 A 
ATOM     61  F   UNL A   1      45.967  33.324  26.236  1.00  0.00    -0.206 F 
ATOM     62  C   UNL A   1      46.745  35.039  27.633  1.00  0.00     0.059 A 
ATOM     63  C   UNL A   1      47.231  34.571  29.966  1.00  0.00     0.059 A 
ATOM     64  F   UNL A   1      46.954  32.398  30.799  1.00  0.00    -0.206 F 
ATOM     65  C   UNL A   1      47.183  35.458  28.890  1.00  0.00     0.060 A 
BRANCH  65  66
ATOM     66  S   UNL A   1      47.689  37.178  29.101  1.00  0.00     0.124 S 
ATOM     67  O   UNL A   1      46.901  37.571  30.265  1.00  0.00    -0.237 OA
ATOM     68  O   UNL A   1      49.127  37.059  29.320  1.00  0.00    -0.237 OA
ATOM     69  O   UNL A   1      47.300  37.803  27.840  1.00  0.00    -0.744 OA
ENDBRANCH  65  66
ENDBRANCH  44  58
BRANCH  45  70
ATOM     70  C   UNL A   1      43.314  23.415  26.980  1.00  0.00     0.058 A 
ATOM     71  C   UNL A   1      43.115  22.964  25.668  1.00  0.00     0.135 A 
ATOM     72  C   UNL A   1      43.086  22.508  28.027  1.00  0.00     0.135 A 
ATOM     73  F   UNL A   1      43.312  23.797  24.636  1.00  0.00    -0.206 F 
ATOM     74  C   UNL A   1      42.700  21.663  25.400  1.00  0.00     0.059 A 
ATOM     75  C   UNL A   1      42.692  21.195  27.784  1.00  0.00     0.059 A 
ATOM     76  F   UNL A   1      43.279  22.887  29.301  1.00  0.00    -0.206 F 
ATOM     77  C   UNL A   1      42.496  20.784  26.466  1.00  0.00     0.060 A 
BRANCH  77  78
ATOM     78  S   UNL A   1      42.026  19.078  26.105  1.00  0.00     0.124 S 
ATOM     79  O   UNL A   1      40.587  19.205  25.912  1.00  0.00    -0.237 OA
ATOM     80  O   UNL A   1      42.809  18.789  24.908  1.00  0.00    -0.237 OA
ATOM     81  O   UNL A   1      42.443  18.357  27.304  1.00  0.00    -0.744 OA
ENDBRANCH  77  78
ENDBRANCH  45  70
BRANCH  57  82
ATOM     82  C   UNL A   1      49.518  26.567  26.528  1.00  0.00     0.058 A 
ATOM     83  C   UNL A   1      50.002  26.694  25.217  1.00  0.00     0.135 A 
ATOM     84  C   UNL A   1      50.370  26.005  27.492  1.00  0.00     0.135 A 
ATOM     85  F   UNL A   1      49.224  27.218  24.257  1.00  0.00    -0.206 F 
ATOM     86  C   UNL A   1      51.279  26.262  24.870  1.00  0.00     0.059 A 
ATOM     87  C   UNL A   1      51.658  25.588  27.173  1.00  0.00     0.059 A 
ATOM     88  F   UNL A   1      49.957  25.870  28.763  1.00  0.00    -0.206 F 
ATOM     89  C   UNL A   1      52.100  25.711  25.856  1.00  0.00     0.060 A 
BRANCH  89  90
ATOM     90  S   UNL A   1      53.767  25.186  25.402  1.00  0.00     0.124 S 
ATOM     91  O   UNL A   1      53.615  23.735  25.356  1.00  0.00    -0.237 OA
ATOM     92  O   UNL A   1      53.964  25.844  24.114  1.00  0.00    -0.237 OA
ATOM     93  O   UNL A   1      54.592  25.697  26.492  1.00  0.00    -0.744 OA
ENDBRANCH  89  90
ENDBRANCH  57  82
ENDBRANCH  31  32
ENDBRANCH  23  26
ENDBRANCH  21  22
ENDBRANCH  20  21
ENDBRANCH   1  20
TORSDOF 18
ENDMDL
