MODEL 1
REMARK VINA RESULT:     -10.9      0.000      0.000
REMARK SMILES CC(C)[C@@](C)(CC(=O)N[C@H]1CCCC1(C)C)C(=O)NCCCCCCNC(=O)c1ccc(-c2c3nc(c(-c4c(F)cc(S(=O)(=O)[O-])cc4F)c4ccc([nH]4)c(-c4c(F)cc(S(=O)(=O)[O-])cc4F)c4nc(c(-c5c(F)cc(S(=O)(=O)[O-])cc5F)c5ccc2[nH]5)C=C4)C=C3)cc1
REMARK SMILES IDX 22 1 21 2 20 3 19 4 17 5 18 6 4 8 5 9 2 10 1 11 3 12 6 13
REMARK SMILES IDX 7 14 8 15 9 16 10 18 11 19 14 20 12 21 13 22 15 23 16 24
REMARK SMILES IDX 23 25 24 26 25 27 26 28 27 29 28 31 29 32 30 33 94 34 31 35
REMARK SMILES IDX 93 36 32 37 33 38 34 39 87 40 35 41 92 42 86 43 88 44 36 45
REMARK SMILES IDX 91 46 85 47 84 48 37 50 71 51 50 52 70 53 51 54 54 55 69 56
REMARK SMILES IDX 89 57 52 58 53 59 68 61 90 62 55 63 38 64 39 65 48 66 40 67
REMARK SMILES IDX 41 68 47 69 49 70 42 71 43 72 44 73 45 74 46 75 72 76 73 77
REMARK SMILES IDX 82 78 74 79 75 80 81 81 83 82 76 83 77 84 78 85 79 86 80 87
REMARK SMILES IDX 56 88 57 89 66 90 58 91 59 92 65 93 67 94 60 95 61 96 62 97
REMARK SMILES IDX 63 98 64 99
REMARK H PARENT 19 7 9 17 26 30 88 49 54 60
REMARK Flexibility Score: inf
ROOT
ATOM      1  C   UNL A   1      33.054  30.017  26.848  1.00  0.00     0.002 C 
ENDROOT
BRANCH   1   2
ATOM      2  C   UNL A   1      31.764  29.530  26.174  1.00  0.00     0.021 C 
BRANCH   2   3
ATOM      3  C   UNL A   1      31.969  28.973  24.767  1.00  0.00     0.116 C 
BRANCH   3   4
ATOM      4  N   UNL A   1      30.756  28.351  24.287  1.00  0.00    -0.356 N 
ATOM      5  C   UNL A   1      30.407  27.098  23.932  1.00  0.00     0.226 C 
ATOM      6  O   UNL A   1      29.252  26.999  23.506  1.00  0.00    -0.274 OA
ATOM      7  H   UNL A   1      30.012  28.989  24.198  1.00  0.00     0.163 HD
BRANCH   5   8
ATOM      8  C   UNL A   1      31.310  25.864  24.131  1.00  0.00     0.057 C 
ATOM      9  C   UNL A   1      30.430  24.593  23.961  1.00  0.00     0.022 C 
BRANCH   8  10
ATOM     10  C   UNL A   1      32.425  25.825  22.997  1.00  0.00    -0.002 C 
ATOM     11  C   UNL A   1      31.976  26.309  21.607  1.00  0.00     0.008 C 
ATOM     12  C   UNL A   1      33.741  26.552  23.334  1.00  0.00     0.008 C 
ENDBRANCH   8  10
BRANCH   8  13
ATOM     13  C   UNL A   1      31.935  25.743  25.554  1.00  0.00     0.116 C 
BRANCH  13  14
ATOM     14  C   UNL A   1      31.828  24.451  26.343  1.00  0.00     0.221 C 
ATOM     15  O   UNL A   1      30.955  24.282  27.192  1.00  0.00    -0.275 OA
ATOM     16  N   UNL A   1      32.667  23.413  26.029  1.00  0.00    -0.353 N 
ATOM     17  H   UNL A   1      32.377  22.514  26.309  1.00  0.00     0.163 HD
BRANCH  16  18
ATOM     18  C   UNL A   1      33.940  23.492  25.328  1.00  0.00     0.087 C 
ATOM     19  C   UNL A   1      35.102  23.262  26.301  1.00  0.00     0.025 C 
ATOM     20  C   UNL A   1      34.170  22.491  24.181  1.00  0.00    -0.015 C 
ATOM     21  C   UNL A   1      35.603  21.845  26.048  1.00  0.00     0.003 C 
ATOM     22  C   UNL A   1      34.755  21.278  24.912  1.00  0.00     0.008 C 
ATOM     23  C   UNL A   1      32.915  22.119  23.387  1.00  0.00     0.013 C 
ATOM     24  C   UNL A   1      35.198  23.097  23.197  1.00  0.00     0.013 C 
ENDBRANCH  16  18
ENDBRANCH  13  14
ENDBRANCH   8  13
ENDBRANCH   5   8
ENDBRANCH   3   4
ENDBRANCH   2   3
ENDBRANCH   1   2
BRANCH   1  25
ATOM     25  C   UNL A   1      34.188  28.986  26.891  1.00  0.00     0.002 C 
BRANCH  25  26
ATOM     26  C   UNL A   1      35.273  29.273  27.929  1.00  0.00     0.021 C 
BRANCH  26  27
ATOM     27  C   UNL A   1      35.566  30.752  28.127  1.00  0.00     0.116 C 
BRANCH  27  28
ATOM     28  N   UNL A   1      35.504  31.130  29.529  1.00  0.00    -0.352 N 
ATOM     29  C   UNL A   1      36.459  30.965  30.499  1.00  0.00     0.251 C 
ATOM     30  H   UNL A   1      34.668  31.560  29.819  1.00  0.00     0.163 HD
ATOM     31  O   UNL A   1      36.175  31.133  31.682  1.00  0.00    -0.269 OA
BRANCH  29  32
ATOM     32  C   UNL A   1      37.824  30.566  30.103  1.00  0.00     0.039 A 
ATOM     33  C   UNL A   1      38.660  29.970  31.049  1.00  0.00     0.014 A 
ATOM     34  C   UNL A   1      38.269  30.771  28.793  1.00  0.00     0.014 A 
ATOM     35  C   UNL A   1      39.931  29.542  30.668  1.00  0.00     0.010 A 
ATOM     36  C   UNL A   1      39.499  30.263  28.395  1.00  0.00     0.010 A 
ATOM     37  C   UNL A   1      40.352  29.664  29.332  1.00  0.00    -0.014 A 
BRANCH  37  38
ATOM     38  C   UNL A   1      41.696  29.203  28.903  1.00  0.00     0.031 A 
ATOM     39  C   UNL A   1      42.842  30.178  28.858  1.00  0.00     0.074 A 
ATOM     40  C   UNL A   1      41.872  27.929  28.504  1.00  0.00     0.049 A 
ATOM     41  N   UNL A   1      44.077  29.986  28.472  1.00  0.00    -0.248 NA
ATOM     42  C   UNL A   1      42.553  31.560  29.275  1.00  0.00     0.031 C 
ATOM     43  C   UNL A   1      40.828  26.903  28.462  1.00  0.00     0.029 A 
ATOM     44  N   UNL A   1      42.993  27.280  28.052  1.00  0.00    -0.354 N 
ATOM     45  C   UNL A   1      44.703  31.222  28.582  1.00  0.00     0.074 A 
ATOM     46  C   UNL A   1      43.697  32.170  29.008  1.00  0.00     0.031 C 
ATOM     47  C   UNL A   1      41.365  25.746  28.045  1.00  0.00     0.029 A 
ATOM     48  C   UNL A   1      42.780  25.956  27.749  1.00  0.00     0.049 A 
ATOM     49  H   UNL A   1      43.868  27.720  27.956  1.00  0.00     0.167 HD
ATOM     50  C   UNL A   1      46.004  31.536  28.371  1.00  0.00     0.037 A 
ATOM     51  C   UNL A   1      43.628  25.018  27.285  1.00  0.00     0.037 A 
ATOM     52  C   UNL A   1      47.001  30.579  27.964  1.00  0.00     0.049 A 
ATOM     53  C   UNL A   1      45.067  25.388  27.046  1.00  0.00     0.074 A 
ATOM     54  C   UNL A   1      48.357  30.777  27.778  1.00  0.00     0.029 A 
ATOM     55  N   UNL A   1      46.747  29.246  27.670  1.00  0.00    -0.354 N 
ATOM     56  N   UNL A   1      45.660  26.546  27.216  1.00  0.00    -0.248 NA
ATOM     57  C   UNL A   1      45.953  24.324  26.559  1.00  0.00     0.031 C 
ATOM     58  C   UNL A   1      48.912  29.579  27.315  1.00  0.00     0.029 A 
ATOM     59  C   UNL A   1      47.916  28.616  27.277  1.00  0.00     0.049 A 
ATOM     60  H   UNL A   1      45.865  28.813  27.732  1.00  0.00     0.167 HD
ATOM     61  C   UNL A   1      46.998  26.340  26.894  1.00  0.00     0.074 A 
ATOM     62  C   UNL A   1      47.124  24.946  26.522  1.00  0.00     0.031 C 
ATOM     63  C   UNL A   1      48.027  27.224  26.913  1.00  0.00     0.037 A 
BRANCH  50  64
ATOM     64  C   UNL A   1      46.411  32.972  28.563  1.00  0.00     0.058 A 
ATOM     65  C   UNL A   1      46.910  33.448  29.788  1.00  0.00     0.135 A 
ATOM     66  C   UNL A   1      46.296  33.893  27.507  1.00  0.00     0.135 A 
ATOM     67  F   UNL A   1      47.031  32.619  30.837  1.00  0.00    -0.206 F 
ATOM     68  C   UNL A   1      47.228  34.789  29.976  1.00  0.00     0.059 A 
ATOM     69  C   UNL A   1      46.644  35.232  27.662  1.00  0.00     0.059 A 
ATOM     70  F   UNL A   1      45.831  33.497  26.313  1.00  0.00    -0.206 F 
ATOM     71  C   UNL A   1      47.085  35.676  28.907  1.00  0.00     0.060 A 
BRANCH  71  72
ATOM     72  S   UNL A   1      47.473  37.418  29.174  1.00  0.00     0.124 S 
ATOM     73  O   UNL A   1      48.231  37.735  27.967  1.00  0.00    -0.237 OA
ATOM     74  O   UNL A   1      46.148  38.022  29.266  1.00  0.00    -0.237 OA
ATOM     75  O   UNL A   1      48.243  37.409  30.413  1.00  0.00    -0.744 OA
ENDBRANCH  71  72
ENDBRANCH  50  64
BRANCH  51  76
ATOM     76  C   UNL A   1      43.142  23.630  27.062  1.00  0.00     0.058 A 
ATOM     77  C   UNL A   1      42.869  23.164  25.768  1.00  0.00     0.135 A 
ATOM     78  C   UNL A   1      42.981  22.731  28.127  1.00  0.00     0.135 A 
ATOM     79  F   UNL A   1      43.002  23.988  24.717  1.00  0.00    -0.206 F 
ATOM     80  C   UNL A   1      42.449  21.859  25.535  1.00  0.00     0.059 A 
ATOM     81  C   UNL A   1      42.587  21.413  27.919  1.00  0.00     0.059 A 
ATOM     82  F   UNL A   1      43.244  23.123  29.385  1.00  0.00    -0.206 F 
ATOM     83  C   UNL A   1      42.319  20.988  26.619  1.00  0.00     0.060 A 
BRANCH  83  84
ATOM     84  S   UNL A   1      41.843  19.275  26.296  1.00  0.00     0.124 S 
ATOM     85  O   UNL A   1      42.404  18.590  27.454  1.00  0.00    -0.237 OA
ATOM     86  O   UNL A   1      40.387  19.369  26.252  1.00  0.00    -0.237 OA
ATOM     87  O   UNL A   1      42.484  18.984  25.017  1.00  0.00    -0.744 OA
ENDBRANCH  83  84
ENDBRANCH  51  76
BRANCH  63  88
ATOM     88  C   UNL A   1      49.396  26.702  26.566  1.00  0.00     0.058 A 
ATOM     89  C   UNL A   1      49.926  26.803  25.270  1.00  0.00     0.135 A 
ATOM     90  C   UNL A   1      50.211  26.139  27.563  1.00  0.00     0.135 A 
ATOM     91  F   UNL A   1      49.189  27.326  24.277  1.00  0.00    -0.206 F 
ATOM     92  C   UNL A   1      51.204  26.340  24.969  1.00  0.00     0.059 A 
ATOM     93  C   UNL A   1      51.502  25.701  27.293  1.00  0.00     0.059 A 
ATOM     94  F   UNL A   1      49.759  26.029  28.822  1.00  0.00    -0.206 F 
ATOM     95  C   UNL A   1      51.985  25.794  25.989  1.00  0.00     0.060 A 
BRANCH  95  96
ATOM     96  S   UNL A   1      53.652  25.227  25.591  1.00  0.00     0.124 S 
ATOM     97  O   UNL A   1      53.428  23.806  25.341  1.00  0.00    -0.237 OA
ATOM     98  O   UNL A   1      53.984  26.032  24.419  1.00  0.00    -0.237 OA
ATOM     99  O   UNL A   1      54.415  25.540  26.796  1.00  0.00    -0.744 OA
ENDBRANCH  95  96
ENDBRANCH  63  88
ENDBRANCH  37  38
ENDBRANCH  29  32
ENDBRANCH  27  28
ENDBRANCH  26  27
ENDBRANCH  25  26
ENDBRANCH   1  25
TORSDOF 20
ENDMDL
MODEL 2
REMARK VINA RESULT:     -10.9      6.283     11.772
REMARK SMILES CC(C)[C@@](C)(CC(=O)N[C@H]1CCCC1(C)C)C(=O)NCCCCCCNC(=O)c1ccc(-c2c3nc(c(-c4c(F)cc(S(=O)(=O)[O-])cc4F)c4ccc([nH]4)c(-c4c(F)cc(S(=O)(=O)[O-])cc4F)c4nc(c(-c5c(F)cc(S(=O)(=O)[O-])cc5F)c5ccc2[nH]5)C=C4)C=C3)cc1
REMARK SMILES IDX 22 1 21 2 20 3 19 4 17 5 18 6 4 8 5 9 2 10 1 11 3 12 6 13
REMARK SMILES IDX 7 14 8 15 9 16 10 18 11 19 14 20 12 21 13 22 15 23 16 24
REMARK SMILES IDX 23 25 24 26 25 27 26 28 27 29 28 31 29 32 30 33 94 34 31 35
REMARK SMILES IDX 93 36 32 37 33 38 34 39 87 40 35 41 92 42 86 43 88 44 36 45
REMARK SMILES IDX 91 46 85 47 84 48 37 50 71 51 50 52 70 53 51 54 54 55 69 56
REMARK SMILES IDX 89 57 52 58 53 59 68 61 90 62 55 63 38 64 39 65 48 66 40 67
REMARK SMILES IDX 41 68 47 69 49 70 42 71 43 72 44 73 45 74 46 75 72 76 73 77
REMARK SMILES IDX 82 78 74 79 75 80 81 81 83 82 76 83 77 84 78 85 79 86 80 87
REMARK SMILES IDX 56 88 57 89 66 90 58 91 59 92 65 93 67 94 60 95 61 96 62 97
REMARK SMILES IDX 63 98 64 99
REMARK H PARENT 19 7 9 17 26 30 88 49 54 60
REMARK Flexibility Score: inf
ROOT
ATOM      1  C   UNL A   1      37.558  22.109  25.079  1.00  0.00     0.002 C 
ENDROOT
BRANCH   1   2
ATOM      2  C   UNL A   1      36.660  22.170  23.835  1.00  0.00     0.021 C 
BRANCH   2   3
ATOM      3  C   UNL A   1      35.682  23.341  23.830  1.00  0.00     0.116 C 
BRANCH   3   4
ATOM      4  N   UNL A   1      34.547  23.051  22.983  1.00  0.00    -0.356 N 
ATOM      5  C   UNL A   1      33.246  22.773  23.202  1.00  0.00     0.226 C 
ATOM      6  O   UNL A   1      32.607  22.519  22.175  1.00  0.00    -0.274 OA
ATOM      7  H   UNL A   1      34.777  23.059  22.026  1.00  0.00     0.163 HD
BRANCH   5   8
ATOM      8  C   UNL A   1      32.567  22.862  24.582  1.00  0.00     0.057 C 
ATOM      9  C   UNL A   1      31.036  23.019  24.354  1.00  0.00     0.022 C 
BRANCH   8  10
ATOM     10  C   UNL A   1      32.791  21.505  25.380  1.00  0.00    -0.002 C 
ATOM     11  C   UNL A   1      33.077  20.264  24.516  1.00  0.00     0.008 C 
ATOM     12  C   UNL A   1      33.865  21.553  26.485  1.00  0.00     0.008 C 
ENDBRANCH   8  10
BRANCH   8  13
ATOM     13  C   UNL A   1      32.985  24.102  25.429  1.00  0.00     0.116 C 
BRANCH  13  14
ATOM     14  C   UNL A   1      31.953  24.891  26.215  1.00  0.00     0.221 C 
ATOM     15  O   UNL A   1      31.436  24.442  27.236  1.00  0.00    -0.275 OA
ATOM     16  N   UNL A   1      31.668  26.176  25.828  1.00  0.00    -0.353 N 
ATOM     17  H   UNL A   1      31.266  26.761  26.512  1.00  0.00     0.163 HD
BRANCH  16  18
ATOM     18  C   UNL A   1      31.893  26.770  24.520  1.00  0.00     0.087 C 
ATOM     19  C   UNL A   1      30.558  27.010  23.805  1.00  0.00     0.025 C 
ATOM     20  C   UNL A   1      32.620  28.128  24.484  1.00  0.00    -0.015 C 
ATOM     21  C   UNL A   1      30.280  28.506  23.899  1.00  0.00     0.003 C 
ATOM     22  C   UNL A   1      31.465  29.125  24.636  1.00  0.00     0.008 C 
ATOM     23  C   UNL A   1      33.679  28.322  25.572  1.00  0.00     0.013 C 
ATOM     24  C   UNL A   1      33.310  28.280  23.109  1.00  0.00     0.013 C 
ENDBRANCH  16  18
ENDBRANCH  13  14
ENDBRANCH   8  13
ENDBRANCH   5   8
ENDBRANCH   3   4
ENDBRANCH   2   3
ENDBRANCH   1   2
BRANCH   1  25
ATOM     25  C   UNL A   1      37.230  23.143  26.162  1.00  0.00     0.002 C 
BRANCH  25  26
ATOM     26  C   UNL A   1      38.323  24.184  26.404  1.00  0.00     0.021 C 
BRANCH  26  27
ATOM     27  C   UNL A   1      39.587  23.620  27.033  1.00  0.00     0.116 C 
BRANCH  27  28
ATOM     28  N   UNL A   1      40.764  23.918  26.236  1.00  0.00    -0.352 N 
ATOM     29  C   UNL A   1      41.580  25.018  26.298  1.00  0.00     0.251 C 
ATOM     30  H   UNL A   1      41.008  23.241  25.563  1.00  0.00     0.163 HD
ATOM     31  O   UNL A   1      42.403  25.230  25.410  1.00  0.00    -0.269 OA
BRANCH  29  32
ATOM     32  C   UNL A   1      41.443  25.951  27.433  1.00  0.00     0.039 A 
ATOM     33  C   UNL A   1      42.188  27.132  27.439  1.00  0.00     0.014 A 
ATOM     34  C   UNL A   1      40.565  25.663  28.484  1.00  0.00     0.014 A 
ATOM     35  C   UNL A   1      42.023  28.043  28.482  1.00  0.00     0.010 A 
ATOM     36  C   UNL A   1      40.337  26.611  29.473  1.00  0.00     0.010 A 
ATOM     37  C   UNL A   1      41.079  27.801  29.494  1.00  0.00    -0.014 A 
BRANCH  37  38
ATOM     38  C   UNL A   1      40.878  28.763  30.606  1.00  0.00     0.031 A 
ATOM     39  C   UNL A   1      41.732  28.667  31.842  1.00  0.00     0.074 A 
ATOM     40  C   UNL A   1      39.898  29.683  30.528  1.00  0.00     0.049 A 
ATOM     41  N   UNL A   1      41.686  29.381  32.937  1.00  0.00    -0.248 NA
ATOM     42  C   UNL A   1      42.755  27.608  31.860  1.00  0.00     0.031 C 
ATOM     43  C   UNL A   1      38.978  29.845  29.400  1.00  0.00     0.029 A 
ATOM     44  N   UNL A   1      39.508  30.652  31.416  1.00  0.00    -0.354 N 
ATOM     45  C   UNL A   1      42.656  28.846  33.777  1.00  0.00     0.074 A 
ATOM     46  C   UNL A   1      43.229  27.709  33.092  1.00  0.00     0.031 C 
ATOM     47  C   UNL A   1      38.156  30.877  29.649  1.00  0.00     0.029 A 
ATOM     48  C   UNL A   1      38.459  31.421  30.970  1.00  0.00     0.049 A 
ATOM     49  H   UNL A   1      39.939  30.786  32.291  1.00  0.00     0.167 HD
ATOM     50  C   UNL A   1      43.051  29.278  34.999  1.00  0.00     0.037 A 
ATOM     51  C   UNL A   1      37.816  32.448  31.557  1.00  0.00     0.037 A 
ATOM     52  C   UNL A   1      42.484  30.422  35.664  1.00  0.00     0.049 A 
ATOM     53  C   UNL A   1      38.262  32.906  32.919  1.00  0.00     0.074 A 
ATOM     54  C   UNL A   1      42.849  30.981  36.876  1.00  0.00     0.029 A 
ATOM     55  N   UNL A   1      41.426  31.178  35.178  1.00  0.00    -0.354 N 
ATOM     56  N   UNL A   1      39.225  32.433  33.676  1.00  0.00    -0.248 NA
ATOM     57  C   UNL A   1      37.540  34.043  33.507  1.00  0.00     0.031 C 
ATOM     58  C   UNL A   1      41.973  32.037  37.150  1.00  0.00     0.029 A 
ATOM     59  C   UNL A   1      41.106  32.181  36.078  1.00  0.00     0.049 A 
ATOM     60  H   UNL A   1      40.970  31.024  34.319  1.00  0.00     0.167 HD
ATOM     61  C   UNL A   1      39.250  33.236  34.810  1.00  0.00     0.074 A 
ATOM     62  C   UNL A   1      38.206  34.227  34.638  1.00  0.00     0.031 C 
ATOM     63  C   UNL A   1      40.066  33.164  35.891  1.00  0.00     0.037 A 
BRANCH  50  64
ATOM     64  C   UNL A   1      44.135  28.497  35.694  1.00  0.00     0.058 A 
ATOM     65  C   UNL A   1      45.498  28.766  35.484  1.00  0.00     0.135 A 
ATOM     66  C   UNL A   1      43.807  27.456  36.579  1.00  0.00     0.135 A 
ATOM     67  F   UNL A   1      45.874  29.740  34.640  1.00  0.00    -0.206 F 
ATOM     68  C   UNL A   1      46.494  28.002  36.083  1.00  0.00     0.059 A 
ATOM     69  C   UNL A   1      44.787  26.702  37.219  1.00  0.00     0.059 A 
ATOM     70  F   UNL A   1      42.523  27.155  36.822  1.00  0.00    -0.206 F 
ATOM     71  C   UNL A   1      46.128  26.966  36.945  1.00  0.00     0.060 A 
BRANCH  71  72
ATOM     72  S   UNL A   1      47.430  25.964  37.691  1.00  0.00     0.124 S 
ATOM     73  O   UNL A   1      48.620  26.743  37.363  1.00  0.00    -0.237 OA
ATOM     74  O   UNL A   1      47.048  25.953  39.099  1.00  0.00    -0.237 OA
ATOM     75  O   UNL A   1      47.310  24.683  37.001  1.00  0.00    -0.744 OA
ENDBRANCH  71  72
ENDBRANCH  50  64
BRANCH  51  76
ATOM     76  C   UNL A   1      36.713  33.138  30.835  1.00  0.00     0.058 A 
ATOM     77  C   UNL A   1      35.378  32.965  31.229  1.00  0.00     0.135 A 
ATOM     78  C   UNL A   1      36.972  34.013  29.769  1.00  0.00     0.135 A 
ATOM     79  F   UNL A   1      35.080  32.134  32.240  1.00  0.00    -0.206 F 
ATOM     80  C   UNL A   1      34.337  33.629  30.590  1.00  0.00     0.059 A 
ATOM     81  C   UNL A   1      35.950  34.709  29.130  1.00  0.00     0.059 A 
ATOM     82  F   UNL A   1      38.233  34.226  29.363  1.00  0.00    -0.206 F 
ATOM     83  C   UNL A   1      34.635  34.507  29.546  1.00  0.00     0.060 A 
BRANCH  83  84
ATOM     84  S   UNL A   1      33.280  35.418  28.773  1.00  0.00     0.124 S 
ATOM     85  O   UNL A   1      34.003  36.424  28.005  1.00  0.00    -0.237 OA
ATOM     86  O   UNL A   1      32.617  34.374  27.996  1.00  0.00    -0.237 OA
ATOM     87  O   UNL A   1      32.518  35.919  29.913  1.00  0.00    -0.744 OA
ENDBRANCH  83  84
ENDBRANCH  51  76
BRANCH  63  88
ATOM     88  C   UNL A   1      39.902  34.215  36.957  1.00  0.00     0.058 A 
ATOM     89  C   UNL A   1      40.512  35.475  36.862  1.00  0.00     0.135 A 
ATOM     90  C   UNL A   1      39.075  33.970  38.067  1.00  0.00     0.135 A 
ATOM     91  F   UNL A   1      41.318  35.760  35.827  1.00  0.00    -0.206 F 
ATOM     92  C   UNL A   1      40.330  36.446  37.843  1.00  0.00     0.059 A 
ATOM     93  C   UNL A   1      38.852  34.937  39.041  1.00  0.00     0.059 A 
ATOM     94  F   UNL A   1      38.457  32.786  38.201  1.00  0.00    -0.206 F 
ATOM     95  C   UNL A   1      39.495  36.168  38.927  1.00  0.00     0.060 A 
BRANCH  95  96
ATOM     96  S   UNL A   1      39.243  37.448  40.174  1.00  0.00     0.124 S 
ATOM     97  O   UNL A   1      38.151  38.220  39.588  1.00  0.00    -0.237 OA
ATOM     98  O   UNL A   1      38.901  36.666  41.359  1.00  0.00    -0.237 OA
ATOM     99  O   UNL A   1      40.533  38.129  40.230  1.00  0.00    -0.744 OA
ENDBRANCH  95  96
ENDBRANCH  63  88
ENDBRANCH  37  38
ENDBRANCH  29  32
ENDBRANCH  27  28
ENDBRANCH  26  27
ENDBRANCH  25  26
ENDBRANCH   1  25
TORSDOF 20
ENDMDL
MODEL 3
REMARK VINA RESULT:     -10.7      6.382     11.476
REMARK SMILES CC(C)[C@@](C)(CC(=O)N[C@H]1CCCC1(C)C)C(=O)NCCCCCCNC(=O)c1ccc(-c2c3nc(c(-c4c(F)cc(S(=O)(=O)[O-])cc4F)c4ccc([nH]4)c(-c4c(F)cc(S(=O)(=O)[O-])cc4F)c4nc(c(-c5c(F)cc(S(=O)(=O)[O-])cc5F)c5ccc2[nH]5)C=C4)C=C3)cc1
REMARK SMILES IDX 22 1 21 2 20 3 19 4 17 5 18 6 4 8 5 9 2 10 1 11 3 12 6 13
REMARK SMILES IDX 7 14 8 15 9 16 10 18 11 19 14 20 12 21 13 22 15 23 16 24
REMARK SMILES IDX 23 25 24 26 25 27 26 28 27 29 28 31 29 32 30 33 94 34 31 35
REMARK SMILES IDX 93 36 32 37 33 38 34 39 87 40 35 41 92 42 86 43 88 44 36 45
REMARK SMILES IDX 91 46 85 47 84 48 37 50 71 51 50 52 70 53 51 54 54 55 69 56
REMARK SMILES IDX 89 57 52 58 53 59 68 61 90 62 55 63 38 64 39 65 48 66 40 67
REMARK SMILES IDX 41 68 47 69 49 70 42 71 43 72 44 73 45 74 46 75 72 76 73 77
REMARK SMILES IDX 82 78 74 79 75 80 81 81 83 82 76 83 77 84 78 85 79 86 80 87
REMARK SMILES IDX 56 88 57 89 66 90 58 91 59 92 65 93 67 94 60 95 61 96 62 97
REMARK SMILES IDX 63 98 64 99
REMARK H PARENT 19 7 9 17 26 30 88 49 54 60
REMARK Flexibility Score: inf
ROOT
ATOM      1  C   UNL A   1      37.372  21.516  25.145  1.00  0.00     0.002 C 
ENDROOT
BRANCH   1   2
ATOM      2  C   UNL A   1      36.874  22.516  24.092  1.00  0.00     0.021 C 
BRANCH   2   3
ATOM      3  C   UNL A   1      35.827  23.497  24.611  1.00  0.00     0.116 C 
BRANCH   3   4
ATOM      4  N   UNL A   1      35.065  24.053  23.517  1.00  0.00    -0.356 N 
ATOM      5  C   UNL A   1      33.763  24.048  23.167  1.00  0.00     0.226 C 
ATOM      6  O   UNL A   1      33.529  24.607  22.091  1.00  0.00    -0.274 OA
ATOM      7  H   UNL A   1      35.626  24.551  22.879  1.00  0.00     0.163 HD
BRANCH   5   8
ATOM      8  C   UNL A   1      32.634  23.498  24.061  1.00  0.00     0.057 C 
ATOM      9  C   UNL A   1      31.279  23.781  23.351  1.00  0.00     0.022 C 
BRANCH   8  10
ATOM     10  C   UNL A   1      32.777  21.920  24.197  1.00  0.00    -0.002 C 
ATOM     11  C   UNL A   1      32.305  21.322  25.535  1.00  0.00     0.008 C 
ATOM     12  C   UNL A   1      32.128  21.094  23.070  1.00  0.00     0.008 C 
ENDBRANCH   8  10
BRANCH   8  13
ATOM     13  C   UNL A   1      32.519  24.186  25.454  1.00  0.00     0.116 C 
BRANCH  13  14
ATOM     14  C   UNL A   1      31.235  24.875  25.879  1.00  0.00     0.221 C 
ATOM     15  O   UNL A   1      30.358  24.280  26.503  1.00  0.00    -0.275 OA
ATOM     16  N   UNL A   1      31.096  26.219  25.645  1.00  0.00    -0.353 N 
ATOM     17  H   UNL A   1      30.433  26.694  26.198  1.00  0.00     0.163 HD
BRANCH  16  18
ATOM     18  C   UNL A   1      31.820  27.021  24.671  1.00  0.00     0.087 C 
ATOM     19  C   UNL A   1      30.840  27.794  23.780  1.00  0.00     0.025 C 
ATOM     20  C   UNL A   1      32.789  28.084  25.221  1.00  0.00    -0.015 C 
ATOM     21  C   UNL A   1      30.863  29.239  24.265  1.00  0.00     0.003 C 
ATOM     22  C   UNL A   1      31.876  29.301  25.406  1.00  0.00     0.008 C 
ATOM     23  C   UNL A   1      33.491  27.703  26.528  1.00  0.00     0.013 C 
ATOM     24  C   UNL A   1      33.875  28.359  24.155  1.00  0.00     0.013 C 
ENDBRANCH  16  18
ENDBRANCH  13  14
ENDBRANCH   8  13
ENDBRANCH   5   8
ENDBRANCH   3   4
ENDBRANCH   2   3
ENDBRANCH   1   2
BRANCH   1  25
ATOM     25  C   UNL A   1      38.733  21.855  25.764  1.00  0.00     0.002 C 
BRANCH  25  26
ATOM     26  C   UNL A   1      38.752  23.133  26.603  1.00  0.00     0.021 C 
BRANCH  26  27
ATOM     27  C   UNL A   1      40.138  23.550  27.065  1.00  0.00     0.116 C 
BRANCH  27  28
ATOM     28  N   UNL A   1      40.861  24.264  26.027  1.00  0.00    -0.352 N 
ATOM     29  C   UNL A   1      41.243  25.580  26.005  1.00  0.00     0.251 C 
ATOM     30  H   UNL A   1      41.108  23.733  25.235  1.00  0.00     0.163 HD
ATOM     31  O   UNL A   1      41.651  26.090  24.963  1.00  0.00    -0.269 OA
BRANCH  29  32
ATOM     32  C   UNL A   1      41.142  26.379  27.242  1.00  0.00     0.039 A 
ATOM     33  C   UNL A   1      42.113  27.344  27.511  1.00  0.00     0.014 A 
ATOM     34  C   UNL A   1      40.076  26.180  28.126  1.00  0.00     0.014 A 
ATOM     35  C   UNL A   1      41.994  28.139  28.651  1.00  0.00     0.010 A 
ATOM     36  C   UNL A   1      39.911  27.032  29.211  1.00  0.00     0.010 A 
ATOM     37  C   UNL A   1      40.879  28.005  29.497  1.00  0.00    -0.014 A 
BRANCH  37  38
ATOM     38  C   UNL A   1      40.726  28.849  30.709  1.00  0.00     0.031 A 
ATOM     39  C   UNL A   1      39.658  29.909  30.752  1.00  0.00     0.074 A 
ATOM     40  C   UNL A   1      41.577  28.700  31.741  1.00  0.00     0.049 A 
ATOM     41  N   UNL A   1      39.390  30.775  31.694  1.00  0.00    -0.248 NA
ATOM     42  C   UNL A   1      38.796  30.030  29.565  1.00  0.00     0.031 C 
ATOM     43  C   UNL A   1      42.679  27.738  31.798  1.00  0.00     0.029 A 
ATOM     44  N   UNL A   1      41.653  29.361  32.941  1.00  0.00    -0.354 N 
ATOM     45  C   UNL A   1      38.345  31.552  31.206  1.00  0.00     0.074 A 
ATOM     46  C   UNL A   1      38.072  31.097  29.862  1.00  0.00     0.031 C 
ATOM     47  C   UNL A   1      43.296  27.845  32.985  1.00  0.00     0.029 A 
ATOM     48  C   UNL A   1      42.665  28.912  33.756  1.00  0.00     0.049 A 
ATOM     49  H   UNL A   1      41.040  30.088  33.194  1.00  0.00     0.167 HD
ATOM     50  C   UNL A   1      37.658  32.539  31.832  1.00  0.00     0.037 A 
ATOM     51  C   UNL A   1      43.040  29.314  34.986  1.00  0.00     0.037 A 
ATOM     52  C   UNL A   1      37.929  32.972  33.178  1.00  0.00     0.049 A 
ATOM     53  C   UNL A   1      42.272  30.419  35.659  1.00  0.00     0.074 A 
ATOM     54  C   UNL A   1      37.258  33.922  33.928  1.00  0.00     0.029 A 
ATOM     55  N   UNL A   1      38.960  32.489  33.974  1.00  0.00    -0.354 N 
ATOM     56  N   UNL A   1      41.244  31.101  35.212  1.00  0.00    -0.248 NA
ATOM     57  C   UNL A   1      42.710  30.805  37.006  1.00  0.00     0.031 C 
ATOM     58  C   UNL A   1      37.919  34.056  35.153  1.00  0.00     0.029 A 
ATOM     59  C   UNL A   1      38.961  33.142  35.195  1.00  0.00     0.049 A 
ATOM     60  H   UNL A   1      39.597  31.787  33.708  1.00  0.00     0.167 HD
ATOM     61  C   UNL A   1      40.887  31.971  36.237  1.00  0.00     0.074 A 
ATOM     62  C   UNL A   1      41.810  31.725  37.327  1.00  0.00     0.031 C 
ATOM     63  C   UNL A   1      39.884  32.883  36.274  1.00  0.00     0.037 A 
BRANCH  50  64
ATOM     64  C   UNL A   1      36.564  33.222  31.055  1.00  0.00     0.058 A 
ATOM     65  C   UNL A   1      36.842  34.148  30.034  1.00  0.00     0.135 A 
ATOM     66  C   UNL A   1      35.214  32.953  31.338  1.00  0.00     0.135 A 
ATOM     67  F   UNL A   1      38.113  34.455  29.726  1.00  0.00    -0.206 F 
ATOM     68  C   UNL A   1      35.827  34.819  29.361  1.00  0.00     0.059 A 
ATOM     69  C   UNL A   1      34.182  33.586  30.652  1.00  0.00     0.059 A 
ATOM     70  F   UNL A   1      34.887  32.076  32.299  1.00  0.00    -0.206 F 
ATOM     71  C   UNL A   1      34.498  34.536  29.682  1.00  0.00     0.060 A 
BRANCH  71  72
ATOM     72  S   UNL A   1      33.192  35.437  28.823  1.00  0.00     0.124 S 
ATOM     73  O   UNL A   1      32.522  34.359  28.100  1.00  0.00    -0.237 OA
ATOM     74  O   UNL A   1      32.439  36.024  29.926  1.00  0.00    -0.237 OA
ATOM     75  O   UNL A   1      33.925  36.387  27.992  1.00  0.00    -0.744 OA
ENDBRANCH  71  72
ENDBRANCH  50  64
BRANCH  51  76
ATOM     76  C   UNL A   1      44.170  28.632  35.672  1.00  0.00     0.058 A 
ATOM     77  C   UNL A   1      45.490  29.070  35.491  1.00  0.00     0.135 A 
ATOM     78  C   UNL A   1      43.952  27.560  36.550  1.00  0.00     0.135 A 
ATOM     79  F   UNL A   1      45.749  30.088  34.655  1.00  0.00    -0.206 F 
ATOM     80  C   UNL A   1      46.556  28.469  36.151  1.00  0.00     0.059 A 
ATOM     81  C   UNL A   1      44.999  26.958  37.243  1.00  0.00     0.059 A 
ATOM     82  F   UNL A   1      42.706  27.112  36.771  1.00  0.00    -0.206 F 
ATOM     83  C   UNL A   1      46.298  27.418  37.033  1.00  0.00     0.060 A 
BRANCH  83  84
ATOM     84  S   UNL A   1      47.682  26.693  37.939  1.00  0.00     0.124 S 
ATOM     85  O   UNL A   1      47.006  26.101  39.086  1.00  0.00    -0.237 OA
ATOM     86  O   UNL A   1      48.226  25.755  36.962  1.00  0.00    -0.237 OA
ATOM     87  O   UNL A   1      48.532  27.845  38.231  1.00  0.00    -0.744 OA
ENDBRANCH  83  84
ENDBRANCH  51  76
BRANCH  63  88
ATOM     88  C   UNL A   1      39.694  33.655  37.553  1.00  0.00     0.058 A 
ATOM     89  C   UNL A   1      40.357  34.868  37.796  1.00  0.00     0.135 A 
ATOM     90  C   UNL A   1      38.792  33.196  38.528  1.00  0.00     0.135 A 
ATOM     91  F   UNL A   1      41.235  35.350  36.903  1.00  0.00    -0.206 F 
ATOM     92  C   UNL A   1      40.153  35.585  38.972  1.00  0.00     0.059 A 
ATOM     93  C   UNL A   1      38.547  33.913  39.694  1.00  0.00     0.059 A 
ATOM     94  F   UNL A   1      38.122  32.048  38.341  1.00  0.00    -0.206 F 
ATOM     95  C   UNL A   1      39.243  35.100  39.913  1.00  0.00     0.060 A 
BRANCH  95  96
ATOM     96  S   UNL A   1      38.963  36.056  41.418  1.00  0.00     0.124 S 
ATOM     97  O   UNL A   1      40.171  35.761  42.183  1.00  0.00    -0.237 OA
ATOM     98  O   UNL A   1      38.855  37.419  40.906  1.00  0.00    -0.237 OA
ATOM     99  O   UNL A   1      37.727  35.494  41.955  1.00  0.00    -0.744 OA
ENDBRANCH  95  96
ENDBRANCH  63  88
ENDBRANCH  37  38
ENDBRANCH  29  32
ENDBRANCH  27  28
ENDBRANCH  26  27
ENDBRANCH  25  26
ENDBRANCH   1  25
TORSDOF 20
ENDMDL
