MODEL 1
REMARK VINA RESULT:     -12.3      0.000      0.000
REMARK SMILES O=C(NCCCCCCNC(=O)c1ccc(F)c(S(=O)(=O)N2CCOc3ccccc32)c1)c1ccc(-c2c3nc(c(-c4c(F)cc(S(=O)(=O)[O-])cc4F)c4ccc([nH]4)c(-c4c(F)cc(S(=O)(=O)[O-])cc4F)c4nc(c(-c5c(F)cc(S(=O)(=O)[O-])cc5F)c5ccc2[nH]5)C=C4)C=C3)cc1
REMARK SMILES IDX 6 1 5 2 4 3 3 4 1 5 2 6 33 8 34 9 98 10 35 11 97 12 36 13
REMARK SMILES IDX 37 14 38 15 91 16 39 17 96 18 90 19 92 20 40 21 95 22 89 23
REMARK SMILES IDX 88 24 41 26 75 27 54 28 74 29 55 30 58 31 73 32 93 33 56 34
REMARK SMILES IDX 57 35 72 37 94 38 59 39 42 40 43 41 52 42 44 43 45 44 51 45
REMARK SMILES IDX 53 46 46 47 47 48 48 49 49 50 50 51 76 52 77 53 86 54 78 55
REMARK SMILES IDX 79 56 85 57 87 58 80 59 81 60 82 61 83 62 84 63 60 64 61 65
REMARK SMILES IDX 70 66 62 67 63 68 69 69 71 70 64 71 65 72 66 73 67 74 68 75
REMARK SMILES IDX 7 76 8 77 9 78 10 79 11 80 12 82 13 83 14 84 32 85 15 86
REMARK SMILES IDX 18 87 16 88 17 89 19 90 20 91 21 92 22 93 23 94 31 95 24 96
REMARK SMILES IDX 26 97 30 98 25 99 27 100 29 101 28 102
REMARK H PARENT 3 7 92 25 58 36 10 81
REMARK Flexibility Score: inf
ROOT
ATOM      1  C   UNL A   1      40.758  21.687  26.406  1.00  0.00     0.002 C 
ENDROOT
BRANCH   1   2
ATOM      2  C   UNL A   1      41.359  22.209  27.711  1.00  0.00     0.021 C 
BRANCH   2   3
ATOM      3  C   UNL A   1      42.464  23.244  27.544  1.00  0.00     0.116 C 
BRANCH   3   4
ATOM      4  N   UNL A   1      42.333  24.010  26.316  1.00  0.00    -0.352 N 
ATOM      5  O   UNL A   1      41.709  25.748  25.021  1.00  0.00    -0.269 OA
ATOM      6  C   UNL A   1      41.913  25.309  26.149  1.00  0.00     0.251 C 
ATOM      7  H   UNL A   1      42.579  23.534  25.491  1.00  0.00     0.163 HD
BRANCH   6   8
ATOM      8  C   UNL A   1      41.684  26.164  27.335  1.00  0.00     0.039 A 
ATOM      9  C   UNL A   1      42.570  27.198  27.646  1.00  0.00     0.014 A 
ATOM     10  C   UNL A   1      40.567  25.930  28.144  1.00  0.00     0.014 A 
ATOM     11  C   UNL A   1      42.416  27.906  28.832  1.00  0.00     0.010 A 
ATOM     12  C   UNL A   1      40.365  26.705  29.291  1.00  0.00     0.010 A 
ATOM     13  C   UNL A   1      41.299  27.685  29.656  1.00  0.00    -0.014 A 
BRANCH  13  14
ATOM     14  C   UNL A   1      41.092  28.563  30.838  1.00  0.00     0.031 A 
ATOM     15  C   UNL A   1      41.985  28.482  32.045  1.00  0.00     0.074 A 
ATOM     16  C   UNL A   1      40.101  29.476  30.784  1.00  0.00     0.049 A 
ATOM     17  N   UNL A   1      41.952  29.202  33.136  1.00  0.00    -0.248 NA
ATOM     18  C   UNL A   1      43.049  27.465  32.031  1.00  0.00     0.031 C 
ATOM     19  C   UNL A   1      39.168  29.636  29.664  1.00  0.00     0.029 A 
ATOM     20  N   UNL A   1      39.726  30.455  31.667  1.00  0.00    -0.354 N 
ATOM     21  C   UNL A   1      42.979  28.727  33.942  1.00  0.00     0.074 A 
ATOM     22  C   UNL A   1      43.603  27.635  33.225  1.00  0.00     0.031 C 
ATOM     23  C   UNL A   1      38.372  30.688  29.900  1.00  0.00     0.029 A 
ATOM     24  C   UNL A   1      38.686  31.233  31.215  1.00  0.00     0.049 A 
ATOM     25  H   UNL A   1      40.159  30.588  32.541  1.00  0.00     0.167 HD
ATOM     26  C   UNL A   1      43.369  29.171  35.162  1.00  0.00     0.037 A 
ATOM     27  C   UNL A   1      38.043  32.263  31.797  1.00  0.00     0.037 A 
ATOM     28  C   UNL A   1      42.745  30.269  35.860  1.00  0.00     0.049 A 
ATOM     29  C   UNL A   1      38.472  32.705  33.164  1.00  0.00     0.074 A 
ATOM     30  C   UNL A   1      43.083  30.807  37.091  1.00  0.00     0.029 A 
ATOM     31  N   UNL A   1      41.658  30.995  35.394  1.00  0.00    -0.354 N 
ATOM     32  N   UNL A   1      39.456  32.252  33.903  1.00  0.00    -0.248 NA
ATOM     33  C   UNL A   1      37.698  33.788  33.785  1.00  0.00     0.031 C 
ATOM     34  C   UNL A   1      42.175  31.828  37.388  1.00  0.00     0.029 A 
ATOM     35  C   UNL A   1      41.300  31.960  36.323  1.00  0.00     0.049 A 
ATOM     36  H   UNL A   1      41.208  30.847  34.531  1.00  0.00     0.167 HD
ATOM     37  C   UNL A   1      39.424  32.997  35.074  1.00  0.00     0.074 A 
ATOM     38  C   UNL A   1      38.340  33.949  34.934  1.00  0.00     0.031 C 
ATOM     39  C   UNL A   1      40.213  32.895  36.171  1.00  0.00     0.037 A 
BRANCH  26  40
ATOM     40  C   UNL A   1      44.526  28.486  35.836  1.00  0.00     0.058 A 
ATOM     41  C   UNL A   1      45.848  28.854  35.536  1.00  0.00     0.135 A 
ATOM     42  C   UNL A   1      44.332  27.395  36.699  1.00  0.00     0.135 A 
ATOM     43  F   UNL A   1      46.091  29.893  34.721  1.00  0.00    -0.206 F 
ATOM     44  C   UNL A   1      46.935  28.150  36.044  1.00  0.00     0.059 A 
ATOM     45  C   UNL A   1      45.406  26.689  37.236  1.00  0.00     0.059 A 
ATOM     46  F   UNL A   1      43.090  27.013  37.035  1.00  0.00    -0.206 F 
ATOM     47  C   UNL A   1      46.703  27.064  36.888  1.00  0.00     0.060 A 
BRANCH  47  48
ATOM     48  S   UNL A   1      48.124  26.158  37.540  1.00  0.00     0.124 S 
ATOM     49  O   UNL A   1      47.547  24.848  37.814  1.00  0.00    -0.237 OA
ATOM     50  O   UNL A   1      49.064  26.221  36.423  1.00  0.00    -0.237 OA
ATOM     51  O   UNL A   1      48.510  26.935  38.715  1.00  0.00    -0.744 OA
ENDBRANCH  47  48
ENDBRANCH  26  40
BRANCH  27  52
ATOM     52  C   UNL A   1      36.924  32.931  31.083  1.00  0.00     0.058 A 
ATOM     53  C   UNL A   1      35.588  32.666  31.420  1.00  0.00     0.135 A 
ATOM     54  C   UNL A   1      37.169  33.819  30.026  1.00  0.00     0.135 A 
ATOM     55  F   UNL A   1      35.300  31.815  32.416  1.00  0.00    -0.206 F 
ATOM     56  C   UNL A   1      34.533  33.237  30.719  1.00  0.00     0.059 A 
ATOM     57  C   UNL A   1      36.129  34.428  29.327  1.00  0.00     0.059 A 
ATOM     58  F   UNL A   1      38.430  34.110  29.673  1.00  0.00    -0.206 F 
ATOM     59  C   UNL A   1      34.814  34.115  29.672  1.00  0.00     0.060 A 
BRANCH  59  60
ATOM     60  S   UNL A   1      33.430  34.852  28.777  1.00  0.00     0.124 S 
ATOM     61  O   UNL A   1      32.469  35.067  29.855  1.00  0.00    -0.237 OA
ATOM     62  O   UNL A   1      34.033  36.054  28.214  1.00  0.00    -0.237 OA
ATOM     63  O   UNL A   1      33.068  33.821  27.809  1.00  0.00    -0.744 OA
ENDBRANCH  59  60
ENDBRANCH  27  52
BRANCH  39  64
ATOM     64  C   UNL A   1      39.939  33.840  37.307  1.00  0.00     0.058 A 
ATOM     65  C   UNL A   1      39.058  33.480  38.339  1.00  0.00     0.135 A 
ATOM     66  C   UNL A   1      40.509  35.122  37.345  1.00  0.00     0.135 A 
ATOM     67  F   UNL A   1      38.484  32.266  38.348  1.00  0.00    -0.206 F 
ATOM     68  C   UNL A   1      38.741  34.365  39.363  1.00  0.00     0.059 A 
ATOM     69  C   UNL A   1      40.228  36.013  38.375  1.00  0.00     0.059 A 
ATOM     70  F   UNL A   1      41.369  35.507  36.389  1.00  0.00    -0.206 F 
ATOM     71  C   UNL A   1      39.330  35.631  39.372  1.00  0.00     0.060 A 
BRANCH  71  72
ATOM     72  S   UNL A   1      38.926  36.758  40.723  1.00  0.00     0.124 S 
ATOM     73  O   UNL A   1      40.241  37.020  41.296  1.00  0.00    -0.237 OA
ATOM     74  O   UNL A   1      38.307  37.876  40.017  1.00  0.00    -0.237 OA
ATOM     75  O   UNL A   1      38.021  35.974  41.558  1.00  0.00    -0.744 OA
ENDBRANCH  71  72
ENDBRANCH  39  64
ENDBRANCH  13  14
ENDBRANCH   6   8
ENDBRANCH   3   4
ENDBRANCH   2   3
ENDBRANCH   1   2
BRANCH   1  76
ATOM     76  C   UNL A   1      39.249  21.895  26.243  1.00  0.00     0.002 C 
BRANCH  76  77
ATOM     77  C   UNL A   1      38.751  23.329  26.435  1.00  0.00     0.021 C 
BRANCH  77  78
ATOM     78  C   UNL A   1      37.380  23.626  25.838  1.00  0.00     0.116 C 
BRANCH  78  79
ATOM     79  N   UNL A   1      37.368  23.521  24.387  1.00  0.00    -0.352 N 
ATOM     80  C   UNL A   1      36.399  23.003  23.564  1.00  0.00     0.251 C 
ATOM     81  H   UNL A   1      38.169  23.869  23.931  1.00  0.00     0.163 HD
ATOM     82  O   UNL A   1      36.604  22.855  22.365  1.00  0.00    -0.269 OA
BRANCH  80  83
ATOM     83  C   UNL A   1      35.099  22.602  24.139  1.00  0.00     0.041 A 
ATOM     84  C   UNL A   1      34.943  21.344  24.730  1.00  0.00     0.017 A 
ATOM     85  C   UNL A   1      34.024  23.496  24.084  1.00  0.00     0.039 A 
ATOM     86  C   UNL A   1      33.682  20.932  25.146  1.00  0.00     0.041 A 
ATOM     87  C   UNL A   1      32.763  23.088  24.545  1.00  0.00     0.124 A 
ATOM     88  C   UNL A   1      32.593  21.793  25.024  1.00  0.00     0.143 A 
ATOM     89  F   UNL A   1      31.404  21.305  25.385  1.00  0.00    -0.205 F 
BRANCH  87  90
ATOM     90  S   UNL A   1      31.450  24.276  24.474  1.00  0.00     0.267 S 
ATOM     91  O   UNL A   1      30.490  23.734  23.528  1.00  0.00    -0.201 OA
ATOM     92  O   UNL A   1      31.065  24.505  25.848  1.00  0.00    -0.201 OA
BRANCH  90  93
ATOM     93  N   UNL A   1      32.110  25.662  23.778  1.00  0.00    -0.259 N 
ATOM     94  C   UNL A   1      31.765  25.962  22.366  1.00  0.00     0.177 C 
ATOM     95  C   UNL A   1      32.571  26.793  24.546  1.00  0.00     0.094 A 
ATOM     96  C   UNL A   1      30.999  27.274  22.325  1.00  0.00     0.252 C 
ATOM     97  C   UNL A   1      32.434  28.085  23.997  1.00  0.00     0.143 A 
ATOM     98  C   UNL A   1      33.277  26.653  25.745  1.00  0.00     0.031 A 
ATOM     99  O   UNL A   1      31.805  28.358  22.803  1.00  0.00    -0.489 OA
ATOM    100  C   UNL A   1      32.985  29.197  24.639  1.00  0.00     0.049 A 
ATOM    101  C   UNL A   1      33.798  27.773  26.403  1.00  0.00     0.002 A 
ATOM    102  C   UNL A   1      33.658  29.042  25.848  1.00  0.00     0.004 A 
ENDBRANCH  90  93
ENDBRANCH  87  90
ENDBRANCH  80  83
ENDBRANCH  78  79
ENDBRANCH  77  78
ENDBRANCH  76  77
ENDBRANCH   1  76
TORSDOF 18
ENDMDL
MODEL 2
REMARK VINA RESULT:     -12.1      4.512     10.318
REMARK SMILES O=C(NCCCCCCNC(=O)c1ccc(F)c(S(=O)(=O)N2CCOc3ccccc32)c1)c1ccc(-c2c3nc(c(-c4c(F)cc(S(=O)(=O)[O-])cc4F)c4ccc([nH]4)c(-c4c(F)cc(S(=O)(=O)[O-])cc4F)c4nc(c(-c5c(F)cc(S(=O)(=O)[O-])cc5F)c5ccc2[nH]5)C=C4)C=C3)cc1
REMARK SMILES IDX 6 1 5 2 4 3 3 4 1 5 2 6 33 8 34 9 98 10 35 11 97 12 36 13
REMARK SMILES IDX 37 14 38 15 91 16 39 17 96 18 90 19 92 20 40 21 95 22 89 23
REMARK SMILES IDX 88 24 41 26 75 27 54 28 74 29 55 30 58 31 73 32 93 33 56 34
REMARK SMILES IDX 57 35 72 37 94 38 59 39 42 40 43 41 52 42 44 43 45 44 51 45
REMARK SMILES IDX 53 46 46 47 47 48 48 49 49 50 50 51 76 52 77 53 86 54 78 55
REMARK SMILES IDX 79 56 85 57 87 58 80 59 81 60 82 61 83 62 84 63 60 64 61 65
REMARK SMILES IDX 70 66 62 67 63 68 69 69 71 70 64 71 65 72 66 73 67 74 68 75
REMARK SMILES IDX 7 76 8 77 9 78 10 79 11 80 12 82 13 83 14 84 32 85 15 86
REMARK SMILES IDX 18 87 16 88 17 89 19 90 20 91 21 92 22 93 23 94 31 95 24 96
REMARK SMILES IDX 26 97 30 98 25 99 27 100 29 101 28 102
REMARK H PARENT 3 7 92 25 58 36 10 81
REMARK Flexibility Score: inf
ROOT
ATOM      1  C   UNL A   1      31.962  28.473  25.386  1.00  0.00     0.002 C 
ENDROOT
BRANCH   1   2
ATOM      2  C   UNL A   1      32.953  27.475  25.983  1.00  0.00     0.021 C 
BRANCH   2   3
ATOM      3  C   UNL A   1      34.035  28.089  26.863  1.00  0.00     0.116 C 
BRANCH   3   4
ATOM      4  N   UNL A   1      33.692  29.424  27.323  1.00  0.00    -0.352 N 
ATOM      5  O   UNL A   1      33.951  31.340  28.483  1.00  0.00    -0.269 OA
ATOM      6  C   UNL A   1      34.457  30.314  28.040  1.00  0.00     0.251 C 
ATOM      7  H   UNL A   1      32.788  29.735  27.087  1.00  0.00     0.163 HD
BRANCH   6   8
ATOM      8  C   UNL A   1      35.884  30.014  28.295  1.00  0.00     0.039 A 
ATOM      9  C   UNL A   1      36.836  30.187  27.289  1.00  0.00     0.014 A 
ATOM     10  C   UNL A   1      36.274  29.559  29.559  1.00  0.00     0.014 A 
ATOM     11  C   UNL A   1      38.147  29.778  27.501  1.00  0.00     0.010 A 
ATOM     12  C   UNL A   1      37.613  29.233  29.798  1.00  0.00     0.010 A 
ATOM     13  C   UNL A   1      38.557  29.319  28.764  1.00  0.00    -0.014 A 
BRANCH  13  14
ATOM     14  C   UNL A   1      39.997  29.031  28.993  1.00  0.00     0.031 A 
ATOM     15  C   UNL A   1      40.903  30.030  29.658  1.00  0.00     0.074 A 
ATOM     16  C   UNL A   1      40.468  27.821  28.628  1.00  0.00     0.049 A 
ATOM     17  N   UNL A   1      42.172  29.911  29.956  1.00  0.00    -0.248 NA
ATOM     18  C   UNL A   1      40.319  31.327  30.033  1.00  0.00     0.031 C 
ATOM     19  C   UNL A   1      39.677  26.777  27.968  1.00  0.00     0.029 A 
ATOM     20  N   UNL A   1      41.704  27.250  28.781  1.00  0.00    -0.354 N 
ATOM     21  C   UNL A   1      42.542  31.113  30.547  1.00  0.00     0.074 A 
ATOM     22  C   UNL A   1      41.369  31.962  30.540  1.00  0.00     0.031 C 
ATOM     23  C   UNL A   1      40.429  25.676  27.828  1.00  0.00     0.029 A 
ATOM     24  C   UNL A   1      41.772  25.955  28.322  1.00  0.00     0.049 A 
ATOM     25  H   UNL A   1      42.471  27.721  29.180  1.00  0.00     0.167 HD
ATOM     26  C   UNL A   1      43.747  31.467  31.055  1.00  0.00     0.037 A 
ATOM     27  C   UNL A   1      42.802  25.089  28.285  1.00  0.00     0.037 A 
ATOM     28  C   UNL A   1      44.904  30.606  31.067  1.00  0.00     0.049 A 
ATOM     29  C   UNL A   1      44.134  25.525  28.820  1.00  0.00     0.074 A 
ATOM     30  C   UNL A   1      46.164  30.867  31.580  1.00  0.00     0.029 A 
ATOM     31  N   UNL A   1      44.948  29.323  30.541  1.00  0.00    -0.354 N 
ATOM     32  N   UNL A   1      44.459  26.660  29.389  1.00  0.00    -0.248 NA
ATOM     33  C   UNL A   1      45.242  24.569  28.699  1.00  0.00     0.031 C 
ATOM     34  C   UNL A   1      46.980  29.760  31.327  1.00  0.00     0.029 A 
ATOM     35  C   UNL A   1      46.218  28.790  30.699  1.00  0.00     0.049 A 
ATOM     36  H   UNL A   1      44.189  28.859  30.119  1.00  0.00     0.167 HD
ATOM     37  C   UNL A   1      45.808  26.557  29.698  1.00  0.00     0.074 A 
ATOM     38  C   UNL A   1      46.232  25.235  29.278  1.00  0.00     0.031 C 
ATOM     39  C   UNL A   1      46.625  27.475  30.268  1.00  0.00     0.037 A 
BRANCH  26  40
ATOM     40  C   UNL A   1      43.895  32.840  31.653  1.00  0.00     0.058 A 
ATOM     41  C   UNL A   1      43.752  33.036  33.037  1.00  0.00     0.135 A 
ATOM     42  C   UNL A   1      44.075  33.975  30.848  1.00  0.00     0.135 A 
ATOM     43  F   UNL A   1      43.583  31.985  33.855  1.00  0.00    -0.206 F 
ATOM     44  C   UNL A   1      43.753  34.309  33.597  1.00  0.00     0.059 A 
ATOM     45  C   UNL A   1      44.101  35.259  31.390  1.00  0.00     0.059 A 
ATOM     46  F   UNL A   1      44.238  33.844  29.522  1.00  0.00    -0.206 F 
ATOM     47  C   UNL A   1      43.921  35.416  32.764  1.00  0.00     0.060 A 
BRANCH  47  48
ATOM     48  S   UNL A   1      43.920  37.063  33.505  1.00  0.00     0.124 S 
ATOM     49  O   UNL A   1      42.573  37.144  34.058  1.00  0.00    -0.237 OA
ATOM     50  O   UNL A   1      45.004  36.960  34.478  1.00  0.00    -0.237 OA
ATOM     51  O   UNL A   1      44.189  37.944  32.372  1.00  0.00    -0.744 OA
ENDBRANCH  47  48
ENDBRANCH  26  40
BRANCH  27  52
ATOM     52  C   UNL A   1      42.604  23.732  27.713  1.00  0.00     0.058 A 
ATOM     53  C   UNL A   1      42.380  22.621  28.540  1.00  0.00     0.135 A 
ATOM     54  C   UNL A   1      42.670  23.515  26.329  1.00  0.00     0.135 A 
ATOM     55  F   UNL A   1      42.320  22.774  29.872  1.00  0.00    -0.206 F 
ATOM     56  C   UNL A   1      42.256  21.339  28.020  1.00  0.00     0.059 A 
ATOM     57  C   UNL A   1      42.518  22.244  25.781  1.00  0.00     0.059 A 
ATOM     58  F   UNL A   1      42.873  24.548  25.497  1.00  0.00    -0.206 F 
ATOM     59  C   UNL A   1      42.329  21.160  26.638  1.00  0.00     0.060 A 
BRANCH  59  60
ATOM     60  S   UNL A   1      42.159  19.487  25.981  1.00  0.00     0.124 S 
ATOM     61  O   UNL A   1      40.719  19.410  25.752  1.00  0.00    -0.237 OA
ATOM     62  O   UNL A   1      42.991  19.541  24.785  1.00  0.00    -0.237 OA
ATOM     63  O   UNL A   1      42.669  18.648  27.061  1.00  0.00    -0.744 OA
ENDBRANCH  59  60
ENDBRANCH  27  52
BRANCH  39  64
ATOM     64  C   UNL A   1      48.061  27.084  30.476  1.00  0.00     0.058 A 
ATOM     65  C   UNL A   1      48.444  26.343  31.606  1.00  0.00     0.135 A 
ATOM     66  C   UNL A   1      49.066  27.487  29.583  1.00  0.00     0.135 A 
ATOM     67  F   UNL A   1      47.523  25.935  32.492  1.00  0.00    -0.206 F 
ATOM     68  C   UNL A   1      49.776  26.029  31.849  1.00  0.00     0.059 A 
ATOM     69  C   UNL A   1      50.401  27.160  29.792  1.00  0.00     0.059 A 
ATOM     70  F   UNL A   1      48.747  28.184  28.480  1.00  0.00    -0.206 F 
ATOM     71  C   UNL A   1      50.748  26.443  30.937  1.00  0.00     0.060 A 
BRANCH  71  72
ATOM     72  S   UNL A   1      52.470  26.005  31.256  1.00  0.00     0.124 S 
ATOM     73  O   UNL A   1      52.329  24.725  31.941  1.00  0.00    -0.237 OA
ATOM     74  O   UNL A   1      53.029  25.945  29.908  1.00  0.00    -0.237 OA
ATOM     75  O   UNL A   1      52.953  27.109  32.079  1.00  0.00    -0.744 OA
ENDBRANCH  71  72
ENDBRANCH  39  64
ENDBRANCH  13  14
ENDBRANCH   6   8
ENDBRANCH   3   4
ENDBRANCH   2   3
ENDBRANCH   1   2
BRANCH   1  76
ATOM     76  C   UNL A   1      30.787  27.859  24.618  1.00  0.00     0.002 C 
BRANCH  76  77
ATOM     77  C   UNL A   1      30.944  27.802  23.097  1.00  0.00     0.021 C 
BRANCH  77  78
ATOM     78  C   UNL A   1      32.381  27.875  22.589  1.00  0.00     0.116 C 
BRANCH  78  79
ATOM     79  N   UNL A   1      32.619  26.994  21.456  1.00  0.00    -0.352 N 
ATOM     80  C   UNL A   1      32.761  25.629  21.437  1.00  0.00     0.251 C 
ATOM     81  H   UNL A   1      32.689  27.439  20.581  1.00  0.00     0.163 HD
ATOM     82  O   UNL A   1      33.103  25.045  20.415  1.00  0.00    -0.269 OA
BRANCH  80  83
ATOM     83  C   UNL A   1      32.517  24.857  22.673  1.00  0.00     0.041 A 
ATOM     84  C   UNL A   1      31.222  24.454  23.012  1.00  0.00     0.017 A 
ATOM     85  C   UNL A   1      33.598  24.536  23.500  1.00  0.00     0.039 A 
ATOM     86  C   UNL A   1      30.991  23.845  24.241  1.00  0.00     0.041 A 
ATOM     87  C   UNL A   1      33.363  23.884  24.720  1.00  0.00     0.124 A 
ATOM     88  C   UNL A   1      32.058  23.590  25.102  1.00  0.00     0.143 A 
ATOM     89  F   UNL A   1      31.751  23.062  26.289  1.00  0.00    -0.205 F 
BRANCH  87  90
ATOM     90  S   UNL A   1      34.776  23.479  25.710  1.00  0.00     0.267 S 
ATOM     91  O   UNL A   1      35.618  24.663  25.684  1.00  0.00    -0.201 OA
ATOM     92  O   UNL A   1      34.242  22.997  26.963  1.00  0.00    -0.201 OA
BRANCH  90  93
ATOM     93  N   UNL A   1      35.597  22.264  24.879  1.00  0.00    -0.259 N 
ATOM     94  C   UNL A   1      37.032  22.481  24.570  1.00  0.00     0.177 C 
ATOM     95  C   UNL A   1      35.173  20.884  24.868  1.00  0.00     0.094 A 
ATOM     96  C   UNL A   1      37.848  21.428  25.302  1.00  0.00     0.252 C 
ATOM     97  C   UNL A   1      36.157  19.875  24.809  1.00  0.00     0.143 A 
ATOM     98  C   UNL A   1      33.831  20.509  24.767  1.00  0.00     0.031 A 
ATOM     99  O   UNL A   1      37.513  20.109  24.850  1.00  0.00    -0.489 OA
ATOM    100  C   UNL A   1      35.797  18.534  24.661  1.00  0.00     0.049 A 
ATOM    101  C   UNL A   1      33.471  19.162  24.652  1.00  0.00     0.002 A 
ATOM    102  C   UNL A   1      34.453  18.176  24.593  1.00  0.00     0.004 A 
ENDBRANCH  90  93
ENDBRANCH  87  90
ENDBRANCH  80  83
ENDBRANCH  78  79
ENDBRANCH  77  78
ENDBRANCH  76  77
ENDBRANCH   1  76
TORSDOF 18
ENDMDL
MODEL 3
REMARK VINA RESULT:     -12.0      1.658      3.028
REMARK SMILES O=C(NCCCCCCNC(=O)c1ccc(F)c(S(=O)(=O)N2CCOc3ccccc32)c1)c1ccc(-c2c3nc(c(-c4c(F)cc(S(=O)(=O)[O-])cc4F)c4ccc([nH]4)c(-c4c(F)cc(S(=O)(=O)[O-])cc4F)c4nc(c(-c5c(F)cc(S(=O)(=O)[O-])cc5F)c5ccc2[nH]5)C=C4)C=C3)cc1
REMARK SMILES IDX 6 1 5 2 4 3 3 4 1 5 2 6 33 8 34 9 98 10 35 11 97 12 36 13
REMARK SMILES IDX 37 14 38 15 91 16 39 17 96 18 90 19 92 20 40 21 95 22 89 23
REMARK SMILES IDX 88 24 41 26 75 27 54 28 74 29 55 30 58 31 73 32 93 33 56 34
REMARK SMILES IDX 57 35 72 37 94 38 59 39 42 40 43 41 52 42 44 43 45 44 51 45
REMARK SMILES IDX 53 46 46 47 47 48 48 49 49 50 50 51 76 52 77 53 86 54 78 55
REMARK SMILES IDX 79 56 85 57 87 58 80 59 81 60 82 61 83 62 84 63 60 64 61 65
REMARK SMILES IDX 70 66 62 67 63 68 69 69 71 70 64 71 65 72 66 73 67 74 68 75
REMARK SMILES IDX 7 76 8 77 9 78 10 79 11 80 12 82 13 83 14 84 32 85 15 86
REMARK SMILES IDX 18 87 16 88 17 89 19 90 20 91 21 92 22 93 23 94 31 95 24 96
REMARK SMILES IDX 26 97 30 98 25 99 27 100 29 101 28 102
REMARK H PARENT 3 7 92 25 58 36 10 81
REMARK Flexibility Score: inf
ROOT
ATOM      1  C   UNL A   1      36.935  22.137  25.720  1.00  0.00     0.002 C 
ENDROOT
BRANCH   1   2
ATOM      2  C   UNL A   1      37.168  23.644  25.619  1.00  0.00     0.021 C 
BRANCH   2   3
ATOM      3  C   UNL A   1      38.196  24.204  26.593  1.00  0.00     0.116 C 
BRANCH   3   4
ATOM      4  N   UNL A   1      39.556  24.106  26.089  1.00  0.00    -0.352 N 
ATOM      5  O   UNL A   1      41.699  24.739  25.788  1.00  0.00    -0.269 OA
ATOM      6  C   UNL A   1      40.660  24.851  26.431  1.00  0.00     0.251 C 
ATOM      7  H   UNL A   1      39.708  23.409  25.411  1.00  0.00     0.163 HD
BRANCH   6   8
ATOM      8  C   UNL A   1      40.579  25.805  27.560  1.00  0.00     0.039 A 
ATOM      9  C   UNL A   1      39.643  25.621  28.579  1.00  0.00     0.014 A 
ATOM     10  C   UNL A   1      41.455  26.895  27.601  1.00  0.00     0.014 A 
ATOM     11  C   UNL A   1      39.490  26.593  29.561  1.00  0.00     0.010 A 
ATOM     12  C   UNL A   1      41.360  27.825  28.642  1.00  0.00     0.010 A 
ATOM     13  C   UNL A   1      40.361  27.693  29.618  1.00  0.00    -0.014 A 
BRANCH  13  14
ATOM     14  C   UNL A   1      40.261  28.632  30.767  1.00  0.00     0.031 A 
ATOM     15  C   UNL A   1      41.196  28.543  31.940  1.00  0.00     0.074 A 
ATOM     16  C   UNL A   1      39.329  29.605  30.711  1.00  0.00     0.049 A 
ATOM     17  N   UNL A   1      41.255  29.309  32.999  1.00  0.00    -0.248 NA
ATOM     18  C   UNL A   1      42.191  27.458  31.930  1.00  0.00     0.031 C 
ATOM     19  C   UNL A   1      38.363  29.780  29.622  1.00  0.00     0.029 A 
ATOM     20  N   UNL A   1      39.055  30.644  31.563  1.00  0.00    -0.354 N 
ATOM     21  C   UNL A   1      42.282  28.801  33.785  1.00  0.00     0.074 A 
ATOM     22  C   UNL A   1      42.804  27.641  33.093  1.00  0.00     0.031 C 
ATOM     23  C   UNL A   1      37.646  30.892  29.842  1.00  0.00     0.029 A 
ATOM     24  C   UNL A   1      38.050  31.469  31.117  1.00  0.00     0.049 A 
ATOM     25  H   UNL A   1      39.533  30.784  32.412  1.00  0.00     0.167 HD
ATOM     26  C   UNL A   1      42.750  29.268  34.967  1.00  0.00     0.037 A 
ATOM     27  C   UNL A   1      37.499  32.562  31.677  1.00  0.00     0.037 A 
ATOM     28  C   UNL A   1      42.228  30.434  35.639  1.00  0.00     0.049 A 
ATOM     29  C   UNL A   1      38.013  33.033  33.006  1.00  0.00     0.074 A 
ATOM     30  C   UNL A   1      42.652  30.999  36.831  1.00  0.00     0.029 A 
ATOM     31  N   UNL A   1      41.172  31.210  35.184  1.00  0.00    -0.354 N 
ATOM     32  N   UNL A   1      38.996  32.547  33.725  1.00  0.00    -0.248 NA
ATOM     33  C   UNL A   1      37.337  34.190  33.607  1.00  0.00     0.031 C 
ATOM     34  C   UNL A   1      41.825  32.090  37.118  1.00  0.00     0.029 A 
ATOM     35  C   UNL A   1      40.917  32.235  36.082  1.00  0.00     0.049 A 
ATOM     36  H   UNL A   1      40.678  31.056  34.347  1.00  0.00     0.167 HD
ATOM     37  C   UNL A   1      39.060  33.340  34.863  1.00  0.00     0.074 A 
ATOM     38  C   UNL A   1      38.035  34.356  34.722  1.00  0.00     0.031 C 
ATOM     39  C   UNL A   1      39.887  33.233  35.931  1.00  0.00     0.037 A 
BRANCH  26  40
ATOM     40  C   UNL A   1      43.888  28.537  35.626  1.00  0.00     0.058 A 
ATOM     41  C   UNL A   1      45.218  28.814  35.268  1.00  0.00     0.135 A 
ATOM     42  C   UNL A   1      43.661  27.490  36.533  1.00  0.00     0.135 A 
ATOM     43  F   UNL A   1      45.493  29.808  34.409  1.00  0.00    -0.206 F 
ATOM     44  C   UNL A   1      46.278  28.063  35.764  1.00  0.00     0.059 A 
ATOM     45  C   UNL A   1      44.709  26.738  37.058  1.00  0.00     0.059 A 
ATOM     46  F   UNL A   1      42.411  27.196  36.924  1.00  0.00    -0.206 F 
ATOM     47  C   UNL A   1      46.013  27.021  36.653  1.00  0.00     0.060 A 
BRANCH  47  48
ATOM     48  S   UNL A   1      47.400  26.053  37.288  1.00  0.00     0.124 S 
ATOM     49  O   UNL A   1      48.483  27.029  37.268  1.00  0.00    -0.237 OA
ATOM     50  O   UNL A   1      46.918  25.662  38.610  1.00  0.00    -0.237 OA
ATOM     51  O   UNL A   1      47.519  24.960  36.326  1.00  0.00    -0.744 OA
ENDBRANCH  47  48
ENDBRANCH  26  40
BRANCH  27  52
ATOM     52  C   UNL A   1      36.397  33.272  30.979  1.00  0.00     0.058 A 
ATOM     53  C   UNL A   1      36.642  34.045  29.833  1.00  0.00     0.135 A 
ATOM     54  C   UNL A   1      35.082  33.221  31.464  1.00  0.00     0.135 A 
ATOM     55  F   UNL A   1      37.885  34.136  29.335  1.00  0.00    -0.206 F 
ATOM     56  C   UNL A   1      35.630  34.763  29.208  1.00  0.00     0.059 A 
ATOM     57  C   UNL A   1      34.045  33.907  30.838  1.00  0.00     0.059 A 
ATOM     58  F   UNL A   1      34.797  32.489  32.551  1.00  0.00    -0.206 F 
ATOM     59  C   UNL A   1      34.334  34.689  29.720  1.00  0.00     0.060 A 
BRANCH  59  60
ATOM     60  S   UNL A   1      33.032  35.624  28.890  1.00  0.00     0.124 S 
ATOM     61  O   UNL A   1      33.809  36.631  28.173  1.00  0.00    -0.237 OA
ATOM     62  O   UNL A   1      32.399  34.602  28.064  1.00  0.00    -0.237 OA
ATOM     63  O   UNL A   1      32.221  36.126  29.995  1.00  0.00    -0.744 OA
ENDBRANCH  59  60
ENDBRANCH  27  52
BRANCH  39  64
ATOM     64  C   UNL A   1      39.721  34.240  37.034  1.00  0.00     0.058 A 
ATOM     65  C   UNL A   1      40.306  35.512  36.934  1.00  0.00     0.135 A 
ATOM     66  C   UNL A   1      39.026  33.926  38.212  1.00  0.00     0.135 A 
ATOM     67  F   UNL A   1      40.984  35.861  35.829  1.00  0.00    -0.206 F 
ATOM     68  C   UNL A   1      40.220  36.433  37.971  1.00  0.00     0.059 A 
ATOM     69  C   UNL A   1      38.903  34.843  39.251  1.00  0.00     0.059 A 
ATOM     70  F   UNL A   1      38.436  32.728  38.348  1.00  0.00    -0.206 F 
ATOM     71  C   UNL A   1      39.517  36.089  39.127  1.00  0.00     0.060 A 
BRANCH  71  72
ATOM     72  S   UNL A   1      39.394  37.307  40.454  1.00  0.00     0.124 S 
ATOM     73  O   UNL A   1      38.637  38.374  39.809  1.00  0.00    -0.237 OA
ATOM     74  O   UNL A   1      38.685  36.563  41.491  1.00  0.00    -0.237 OA
ATOM     75  O   UNL A   1      40.787  37.619  40.757  1.00  0.00    -0.744 OA
ENDBRANCH  71  72
ENDBRANCH  39  64
ENDBRANCH  13  14
ENDBRANCH   6   8
ENDBRANCH   3   4
ENDBRANCH   2   3
ENDBRANCH   1   2
BRANCH   1  76
ATOM     76  C   UNL A   1      35.586  21.639  25.190  1.00  0.00     0.002 C 
BRANCH  76  77
ATOM     77  C   UNL A   1      34.561  21.238  26.253  1.00  0.00     0.021 C 
BRANCH  77  78
ATOM     78  C   UNL A   1      34.266  22.302  27.305  1.00  0.00     0.116 C 
BRANCH  78  79
ATOM     79  N   UNL A   1      32.842  22.445  27.570  1.00  0.00    -0.352 N 
ATOM     80  C   UNL A   1      31.934  23.292  26.986  1.00  0.00     0.251 C 
ATOM     81  H   UNL A   1      32.480  21.851  28.267  1.00  0.00     0.163 HD
ATOM     82  O   UNL A   1      30.794  23.392  27.424  1.00  0.00    -0.269 OA
BRANCH  80  83
ATOM     83  C   UNL A   1      32.346  24.108  25.826  1.00  0.00     0.041 A 
ATOM     84  C   UNL A   1      32.384  23.549  24.544  1.00  0.00     0.017 A 
ATOM     85  C   UNL A   1      32.699  25.447  26.025  1.00  0.00     0.039 A 
ATOM     86  C   UNL A   1      32.900  24.290  23.486  1.00  0.00     0.041 A 
ATOM     87  C   UNL A   1      33.179  26.202  24.943  1.00  0.00     0.124 A 
ATOM     88  C   UNL A   1      33.322  25.602  23.697  1.00  0.00     0.143 A 
ATOM     89  F   UNL A   1      33.864  26.228  22.649  1.00  0.00    -0.205 F 
BRANCH  87  90
ATOM     90  S   UNL A   1      33.583  27.899  25.255  1.00  0.00     0.267 S 
ATOM     91  O   UNL A   1      34.260  27.906  26.540  1.00  0.00    -0.201 OA
ATOM     92  O   UNL A   1      34.273  28.353  24.069  1.00  0.00    -0.201 OA
BRANCH  90  93
ATOM     93  N   UNL A   1      32.114  28.700  25.460  1.00  0.00    -0.259 N 
ATOM     94  C   UNL A   1      31.943  29.540  26.671  1.00  0.00     0.177 C 
ATOM     95  C   UNL A   1      31.223  29.015  24.369  1.00  0.00     0.094 A 
ATOM     96  C   UNL A   1      31.755  30.983  26.234  1.00  0.00     0.252 C 
ATOM     97  C   UNL A   1      30.461  30.200  24.439  1.00  0.00     0.143 A 
ATOM     98  C   UNL A   1      30.976  28.130  23.316  1.00  0.00     0.031 A 
ATOM     99  O   UNL A   1      30.569  31.135  25.445  1.00  0.00    -0.489 OA
ATOM    100  C   UNL A   1      29.488  30.483  23.477  1.00  0.00     0.049 A 
ATOM    101  C   UNL A   1      30.026  28.431  22.335  1.00  0.00     0.002 A 
ATOM    102  C   UNL A   1      29.278  29.603  22.418  1.00  0.00     0.004 A 
ENDBRANCH  90  93
ENDBRANCH  87  90
ENDBRANCH  80  83
ENDBRANCH  78  79
ENDBRANCH  77  78
ENDBRANCH  76  77
ENDBRANCH   1  76
TORSDOF 18
ENDMDL
