MODEL 1
REMARK VINA RESULT:     -11.1      0.000      0.000
REMARK SMILES O=C(C[C@H]([NH2+]Cc1ccco1)C(=O)NCCCCCCNC(=O)c1ccc(-c2c3nc(c(-c4c(F)cc(S(=O)(=O)[O-])cc4F)c4ccc([nH]4)c(-c4c(F)cc(S(=O)(=O)[O-])cc4F)c4nc(c(-c5c(F)cc(S(=O)(=O)[O-])cc5F)c5ccc2[nH]5)C=C4)C=C3)cc1)Nc1ccc(O)cc1
REMARK SMILES IDX 17 1 16 2 15 3 14 4 12 5 13 6 4 8 3 9 2 10 1 11 90 12 91 14
REMARK SMILES IDX 92 15 97 16 93 17 96 18 94 19 95 20 5 22 6 25 7 26 8 27
REMARK SMILES IDX 11 28 9 29 10 30 18 31 19 32 20 33 21 34 22 35 23 37 24 38
REMARK SMILES IDX 25 39 89 40 26 41 88 42 27 43 28 44 29 45 82 46 30 47 87 48
REMARK SMILES IDX 81 49 83 50 31 51 86 52 80 53 79 54 32 56 66 57 45 58 65 59
REMARK SMILES IDX 46 60 49 61 64 62 84 63 47 64 48 65 63 67 85 68 50 69 33 70
REMARK SMILES IDX 34 71 43 72 35 73 36 74 42 75 44 76 37 77 38 78 39 79 40 80
REMARK SMILES IDX 41 81 67 82 68 83 77 84 69 85 70 86 76 87 78 88 71 89 72 90
REMARK SMILES IDX 73 91 74 92 75 93 51 94 52 95 61 96 53 97 54 98 60 99 62 100
REMARK SMILES IDX 55 101 56 102 57 103 58 104 59 105
REMARK H PARENT 14 7 90 13 95 21 5 23 5 24 21 36 83 55 49 66
REMARK Flexibility Score: inf
ROOT
ATOM      1  C   UNL A   1      30.753  27.575  24.332  1.00  0.00     0.002 C 
ENDROOT
BRANCH   1   2
ATOM      2  C   UNL A   1      29.876  26.322  24.391  1.00  0.00     0.021 C 
BRANCH   2   3
ATOM      3  C   UNL A   1      30.418  25.078  23.698  1.00  0.00     0.116 C 
BRANCH   3   4
ATOM      4  N   UNL A   1      31.425  25.329  22.695  1.00  0.00    -0.351 N 
ATOM      5  C   UNL A   1      32.521  24.597  22.339  1.00  0.00     0.278 C 
ATOM      6  O   UNL A   1      33.083  24.918  21.283  1.00  0.00    -0.268 OA
ATOM      7  H   UNL A   1      31.302  26.162  22.184  1.00  0.00     0.163 HD
BRANCH   5   8
ATOM      8  C   UNL A   1      33.091  23.416  23.174  1.00  0.00     0.282 C 
BRANCH   8   9
ATOM      9  C   UNL A   1      32.321  22.091  23.052  1.00  0.00     0.175 C 
BRANCH   9  10
ATOM     10  C   UNL A   1      32.878  20.906  23.804  1.00  0.00     0.230 C 
ATOM     11  O   UNL A   1      33.820  21.053  24.575  1.00  0.00    -0.274 OA
ATOM     12  N   UNL A   1      32.261  19.704  23.485  1.00  0.00    -0.326 N 
ATOM     13  H   UNL A   1      31.486  19.741  22.879  1.00  0.00     0.169 HD
BRANCH  12  14
ATOM     14  C   UNL A   1      32.653  18.433  23.962  1.00  0.00     0.041 A 
ATOM     15  C   UNL A   1      33.411  17.623  23.105  1.00  0.00     0.030 A 
ATOM     16  C   UNL A   1      32.366  17.977  25.251  1.00  0.00     0.030 A 
ATOM     17  C   UNL A   1      33.931  16.408  23.562  1.00  0.00     0.048 A 
ATOM     18  C   UNL A   1      32.864  16.749  25.700  1.00  0.00     0.048 A 
ATOM     19  C   UNL A   1      33.664  15.988  24.859  1.00  0.00     0.115 A 
BRANCH  19  20
ATOM     20  O   UNL A   1      34.237  14.828  25.281  1.00  0.00    -0.508 OA
ATOM     21  H   UNL A   1      34.281  14.633  26.197  1.00  0.00     0.293 HD
ENDBRANCH  19  20
ENDBRANCH  12  14
ENDBRANCH   9  10
ENDBRANCH   8   9
BRANCH   8  22
ATOM     22  N   UNL A   1      33.453  23.841  24.542  1.00  0.00    -0.329 N 
ATOM     23  H   UNL A   1      33.484  23.016  25.141  1.00  0.00     0.347 HD
ATOM     24  H   UNL A   1      32.747  24.511  24.848  1.00  0.00     0.347 HD
BRANCH  22  25
ATOM     25  C   UNL A   1      34.750  24.516  24.613  1.00  0.00     0.337 C 
BRANCH  25  26
ATOM     26  C   UNL A   1      35.851  23.518  24.702  1.00  0.00     0.157 A 
ATOM     27  C   UNL A   1      36.709  22.977  23.768  1.00  0.00     0.052 A 
ATOM     28  O   UNL A   1      36.108  22.989  25.932  1.00  0.00    -0.463 OA
ATOM     29  C   UNL A   1      37.532  22.061  24.466  1.00  0.00     0.042 A 
ATOM     30  C   UNL A   1      37.126  22.106  25.779  1.00  0.00     0.195 A 
ENDBRANCH  25  26
ENDBRANCH  22  25
ENDBRANCH   8  22
ENDBRANCH   5   8
ENDBRANCH   3   4
ENDBRANCH   2   3
ENDBRANCH   1   2
BRANCH   1  31
ATOM     31  C   UNL A   1      31.505  27.969  25.610  1.00  0.00     0.002 C 
BRANCH  31  32
ATOM     32  C   UNL A   1      33.020  27.742  25.630  1.00  0.00     0.021 C 
BRANCH  32  33
ATOM     33  C   UNL A   1      33.756  28.109  26.917  1.00  0.00     0.116 C 
BRANCH  33  34
ATOM     34  N   UNL A   1      33.545  29.491  27.306  1.00  0.00    -0.352 N 
ATOM     35  C   UNL A   1      34.368  30.357  27.985  1.00  0.00     0.251 C 
ATOM     36  H   UNL A   1      32.674  29.867  27.042  1.00  0.00     0.163 HD
ATOM     37  O   UNL A   1      33.907  31.440  28.346  1.00  0.00    -0.269 OA
BRANCH  35  38
ATOM     38  C   UNL A   1      35.782  30.026  28.313  1.00  0.00     0.039 A 
ATOM     39  C   UNL A   1      36.730  30.101  27.284  1.00  0.00     0.014 A 
ATOM     40  C   UNL A   1      36.183  29.563  29.571  1.00  0.00     0.014 A 
ATOM     41  C   UNL A   1      38.066  29.752  27.519  1.00  0.00     0.010 A 
ATOM     42  C   UNL A   1      37.530  29.262  29.819  1.00  0.00     0.010 A 
ATOM     43  C   UNL A   1      38.486  29.344  28.795  1.00  0.00    -0.014 A 
BRANCH  43  44
ATOM     44  C   UNL A   1      39.916  29.001  29.051  1.00  0.00     0.031 A 
ATOM     45  C   UNL A   1      40.854  30.005  29.673  1.00  0.00     0.074 A 
ATOM     46  C   UNL A   1      40.385  27.783  28.716  1.00  0.00     0.049 A 
ATOM     47  N   UNL A   1      42.126  29.881  29.957  1.00  0.00    -0.248 NA
ATOM     48  C   UNL A   1      40.292  31.323  30.005  1.00  0.00     0.031 C 
ATOM     49  C   UNL A   1      39.599  26.721  28.084  1.00  0.00     0.029 A 
ATOM     50  N   UNL A   1      41.636  27.230  28.856  1.00  0.00    -0.354 N 
ATOM     51  C   UNL A   1      42.520  31.099  30.498  1.00  0.00     0.074 A 
ATOM     52  C   UNL A   1      41.358  31.965  30.461  1.00  0.00     0.031 C 
ATOM     53  C   UNL A   1      40.377  25.641  27.912  1.00  0.00     0.029 A 
ATOM     54  C   UNL A   1      41.726  25.940  28.386  1.00  0.00     0.049 A 
ATOM     55  H   UNL A   1      42.395  27.711  29.256  1.00  0.00     0.167 HD
ATOM     56  C   UNL A   1      43.728  31.462  30.997  1.00  0.00     0.037 A 
ATOM     57  C   UNL A   1      42.775  25.094  28.333  1.00  0.00     0.037 A 
ATOM     58  C   UNL A   1      44.882  30.601  31.051  1.00  0.00     0.049 A 
ATOM     59  C   UNL A   1      44.114  25.527  28.870  1.00  0.00     0.074 A 
ATOM     60  C   UNL A   1      46.134  30.874  31.581  1.00  0.00     0.029 A 
ATOM     61  N   UNL A   1      44.935  29.306  30.558  1.00  0.00    -0.354 N 
ATOM     62  N   UNL A   1      44.450  26.669  29.423  1.00  0.00    -0.248 NA
ATOM     63  C   UNL A   1      45.215  24.557  28.777  1.00  0.00     0.031 C 
ATOM     64  C   UNL A   1      46.954  29.760  31.369  1.00  0.00     0.029 A 
ATOM     65  C   UNL A   1      46.202  28.776  30.750  1.00  0.00     0.049 A 
ATOM     66  H   UNL A   1      44.184  28.833  30.134  1.00  0.00     0.167 HD
ATOM     67  C   UNL A   1      45.792  26.542  29.765  1.00  0.00     0.074 A 
ATOM     68  C   UNL A   1      46.204  25.212  29.369  1.00  0.00     0.031 C 
ATOM     69  C   UNL A   1      46.608  27.450  30.358  1.00  0.00     0.037 A 
BRANCH  56  70
ATOM     70  C   UNL A   1      43.869  32.861  31.532  1.00  0.00     0.058 A 
ATOM     71  C   UNL A   1      43.746  33.140  32.903  1.00  0.00     0.135 A 
ATOM     72  C   UNL A   1      44.179  33.928  30.673  1.00  0.00     0.135 A 
ATOM     73  F   UNL A   1      43.442  32.159  33.767  1.00  0.00    -0.206 F 
ATOM     74  C   UNL A   1      43.897  34.431  33.399  1.00  0.00     0.059 A 
ATOM     75  C   UNL A   1      44.359  35.223  31.151  1.00  0.00     0.059 A 
ATOM     76  F   UNL A   1      44.312  33.717  29.354  1.00  0.00    -0.206 F 
ATOM     77  C   UNL A   1      44.201  35.467  32.514  1.00  0.00     0.060 A 
BRANCH  77  78
ATOM     78  S   UNL A   1      44.392  37.137  33.173  1.00  0.00     0.124 S 
ATOM     79  O   UNL A   1      44.935  37.844  32.017  1.00  0.00    -0.237 OA
ATOM     80  O   UNL A   1      43.025  37.487  33.544  1.00  0.00    -0.237 OA
ATOM     81  O   UNL A   1      45.315  36.959  34.290  1.00  0.00    -0.744 OA
ENDBRANCH  77  78
ENDBRANCH  56  70
BRANCH  57  82
ATOM     82  C   UNL A   1      42.602  23.735  27.755  1.00  0.00     0.058 A 
ATOM     83  C   UNL A   1      42.425  22.616  28.582  1.00  0.00     0.135 A 
ATOM     84  C   UNL A   1      42.611  23.529  26.367  1.00  0.00     0.135 A 
ATOM     85  F   UNL A   1      42.421  22.762  29.915  1.00  0.00    -0.206 F 
ATOM     86  C   UNL A   1      42.278  21.338  28.056  1.00  0.00     0.059 A 
ATOM     87  C   UNL A   1      42.440  22.264  25.816  1.00  0.00     0.059 A 
ATOM     88  F   UNL A   1      42.765  24.569  25.533  1.00  0.00    -0.206 F 
ATOM     89  C   UNL A   1      42.285  21.171  26.669  1.00  0.00     0.060 A 
BRANCH  89  90
ATOM     90  S   UNL A   1      42.043  19.516  25.991  1.00  0.00     0.124 S 
ATOM     91  O   UNL A   1      42.922  19.544  24.828  1.00  0.00    -0.237 OA
ATOM     92  O   UNL A   1      42.472  18.664  27.096  1.00  0.00    -0.237 OA
ATOM     93  O   UNL A   1      40.612  19.479  25.703  1.00  0.00    -0.744 OA
ENDBRANCH  89  90
ENDBRANCH  57  82
BRANCH  69  94
ATOM     94  C   UNL A   1      48.025  27.031  30.643  1.00  0.00     0.058 A 
ATOM     95  C   UNL A   1      49.091  27.423  29.818  1.00  0.00     0.135 A 
ATOM     96  C   UNL A   1      48.326  26.265  31.781  1.00  0.00     0.135 A 
ATOM     97  F   UNL A   1      48.857  28.150  28.713  1.00  0.00    -0.206 F 
ATOM     98  C   UNL A   1      50.403  27.055  30.099  1.00  0.00     0.059 A 
ATOM     99  C   UNL A   1      49.634  25.905  32.095  1.00  0.00     0.059 A 
ATOM    100  F   UNL A   1      47.347  25.870  32.609  1.00  0.00    -0.206 F 
ATOM    101  C   UNL A   1      50.665  26.295  31.241  1.00  0.00     0.060 A 
BRANCH 101 102
ATOM    102  S   UNL A   1      52.376  25.851  31.614  1.00  0.00     0.124 S 
ATOM    103  O   UNL A   1      52.217  24.512  32.170  1.00  0.00    -0.237 OA
ATOM    104  O   UNL A   1      53.012  25.921  30.302  1.00  0.00    -0.237 OA
ATOM    105  O   UNL A   1      52.795  26.880  32.561  1.00  0.00    -0.744 OA
ENDBRANCH 101 102
ENDBRANCH  69  94
ENDBRANCH  43  44
ENDBRANCH  35  38
ENDBRANCH  33  34
ENDBRANCH  32  33
ENDBRANCH  31  32
ENDBRANCH   1  31
TORSDOF 23
ENDMDL
MODEL 2
REMARK VINA RESULT:     -10.8      0.571      8.008
REMARK SMILES O=C(C[C@H]([NH2+]Cc1ccco1)C(=O)NCCCCCCNC(=O)c1ccc(-c2c3nc(c(-c4c(F)cc(S(=O)(=O)[O-])cc4F)c4ccc([nH]4)c(-c4c(F)cc(S(=O)(=O)[O-])cc4F)c4nc(c(-c5c(F)cc(S(=O)(=O)[O-])cc5F)c5ccc2[nH]5)C=C4)C=C3)cc1)Nc1ccc(O)cc1
REMARK SMILES IDX 17 1 16 2 15 3 14 4 12 5 13 6 4 8 3 9 2 10 1 11 90 12 91 14
REMARK SMILES IDX 92 15 97 16 93 17 96 18 94 19 95 20 5 22 6 25 7 26 8 27
REMARK SMILES IDX 11 28 9 29 10 30 18 31 19 32 20 33 21 34 22 35 23 37 24 38
REMARK SMILES IDX 25 39 89 40 26 41 88 42 27 43 28 44 29 45 82 46 30 47 87 48
REMARK SMILES IDX 81 49 83 50 31 51 86 52 80 53 79 54 32 56 66 57 45 58 65 59
REMARK SMILES IDX 46 60 49 61 64 62 84 63 47 64 48 65 63 67 85 68 50 69 33 70
REMARK SMILES IDX 34 71 43 72 35 73 36 74 42 75 44 76 37 77 38 78 39 79 40 80
REMARK SMILES IDX 41 81 67 82 68 83 77 84 69 85 70 86 76 87 78 88 71 89 72 90
REMARK SMILES IDX 73 91 74 92 75 93 51 94 52 95 61 96 53 97 54 98 60 99 62 100
REMARK SMILES IDX 55 101 56 102 57 103 58 104 59 105
REMARK H PARENT 14 7 90 13 95 21 5 23 5 24 21 36 83 55 49 66
REMARK Flexibility Score: inf
ROOT
ATOM      1  C   UNL A   1      30.996  27.433  24.543  1.00  0.00     0.002 C 
ENDROOT
BRANCH   1   2
ATOM      2  C   UNL A   1      30.071  26.398  23.898  1.00  0.00     0.021 C 
BRANCH   2   3
ATOM      3  C   UNL A   1      30.700  25.061  23.525  1.00  0.00     0.116 C 
BRANCH   3   4
ATOM      4  N   UNL A   1      31.689  25.125  22.475  1.00  0.00    -0.351 N 
ATOM      5  C   UNL A   1      32.713  24.275  22.172  1.00  0.00     0.278 C 
ATOM      6  O   UNL A   1      33.262  24.437  21.073  1.00  0.00    -0.268 OA
ATOM      7  H   UNL A   1      31.612  25.906  21.880  1.00  0.00     0.163 HD
BRANCH   5   8
ATOM      8  C   UNL A   1      33.220  23.147  23.114  1.00  0.00     0.282 C 
BRANCH   8   9
ATOM      9  C   UNL A   1      32.275  21.945  23.271  1.00  0.00     0.175 C 
BRANCH   9  10
ATOM     10  C   UNL A   1      32.801  20.760  24.046  1.00  0.00     0.230 C 
ATOM     11  O   UNL A   1      33.589  20.929  24.970  1.00  0.00    -0.274 OA
ATOM     12  N   UNL A   1      32.348  19.538  23.570  1.00  0.00    -0.326 N 
ATOM     13  H   UNL A   1      31.682  19.554  22.845  1.00  0.00     0.169 HD
BRANCH  12  14
ATOM     14  C   UNL A   1      32.763  18.272  24.041  1.00  0.00     0.041 A 
ATOM     15  C   UNL A   1      33.596  17.510  23.211  1.00  0.00     0.030 A 
ATOM     16  C   UNL A   1      32.427  17.778  25.304  1.00  0.00     0.030 A 
ATOM     17  C   UNL A   1      34.139  16.307  23.671  1.00  0.00     0.048 A 
ATOM     18  C   UNL A   1      32.947  16.560  25.756  1.00  0.00     0.048 A 
ATOM     19  C   UNL A   1      33.819  15.848  24.943  1.00  0.00     0.115 A 
BRANCH  19  20
ATOM     20  O   UNL A   1      34.414  14.702  25.373  1.00  0.00    -0.508 OA
ATOM     21  H   UNL A   1      34.193  13.882  24.977  1.00  0.00     0.293 HD
ENDBRANCH  19  20
ENDBRANCH  12  14
ENDBRANCH   9  10
ENDBRANCH   8   9
BRANCH   8  22
ATOM     22  N   UNL A   1      33.797  23.696  24.359  1.00  0.00    -0.329 N 
ATOM     23  H   UNL A   1      33.931  22.931  25.020  1.00  0.00     0.347 HD
ATOM     24  H   UNL A   1      33.144  24.397  24.711  1.00  0.00     0.347 HD
BRANCH  22  25
ATOM     25  C   UNL A   1      35.082  24.365  24.155  1.00  0.00     0.337 C 
BRANCH  25  26
ATOM     26  C   UNL A   1      36.193  23.532  24.691  1.00  0.00     0.157 A 
ATOM     27  C   UNL A   1      37.109  23.723  25.705  1.00  0.00     0.052 A 
ATOM     28  O   UNL A   1      36.403  22.324  24.096  1.00  0.00    -0.463 OA
ATOM     29  C   UNL A   1      37.928  22.569  25.725  1.00  0.00     0.042 A 
ATOM     30  C   UNL A   1      37.458  21.748  24.727  1.00  0.00     0.195 A 
ENDBRANCH  25  26
ENDBRANCH  22  25
ENDBRANCH   8  22
ENDBRANCH   5   8
ENDBRANCH   3   4
ENDBRANCH   2   3
ENDBRANCH   1   2
BRANCH   1  31
ATOM     31  C   UNL A   1      32.101  26.909  25.470  1.00  0.00     0.002 C 
BRANCH  31  32
ATOM     32  C   UNL A   1      33.425  27.681  25.490  1.00  0.00     0.021 C 
BRANCH  32  33
ATOM     33  C   UNL A   1      34.029  27.980  26.859  1.00  0.00     0.116 C 
BRANCH  33  34
ATOM     34  N   UNL A   1      33.749  29.330  27.312  1.00  0.00    -0.352 N 
ATOM     35  C   UNL A   1      34.527  30.206  28.030  1.00  0.00     0.251 C 
ATOM     36  H   UNL A   1      32.859  29.672  27.065  1.00  0.00     0.163 HD
ATOM     37  O   UNL A   1      34.013  31.245  28.439  1.00  0.00    -0.269 OA
BRANCH  35  38
ATOM     38  C   UNL A   1      35.957  29.933  28.341  1.00  0.00     0.039 A 
ATOM     39  C   UNL A   1      36.899  30.108  27.318  1.00  0.00     0.014 A 
ATOM     40  C   UNL A   1      36.384  29.429  29.575  1.00  0.00     0.014 A 
ATOM     41  C   UNL A   1      38.252  29.818  27.537  1.00  0.00     0.010 A 
ATOM     42  C   UNL A   1      37.746  29.186  29.809  1.00  0.00     0.010 A 
ATOM     43  C   UNL A   1      38.695  29.370  28.791  1.00  0.00    -0.014 A 
BRANCH  43  44
ATOM     44  C   UNL A   1      40.141  29.089  29.031  1.00  0.00     0.031 A 
ATOM     45  C   UNL A   1      40.736  27.747  28.690  1.00  0.00     0.074 A 
ATOM     46  C   UNL A   1      40.929  30.041  29.570  1.00  0.00     0.049 A 
ATOM     47  N   UNL A   1      41.968  27.328  28.839  1.00  0.00    -0.248 NA
ATOM     48  C   UNL A   1      39.827  26.743  28.118  1.00  0.00     0.031 C 
ATOM     49  C   UNL A   1      40.484  31.376  29.974  1.00  0.00     0.029 A 
ATOM     50  N   UNL A   1      42.270  30.034  29.873  1.00  0.00    -0.354 N 
ATOM     51  C   UNL A   1      41.984  26.014  28.385  1.00  0.00     0.074 A 
ATOM     52  C   UNL A   1      40.627  25.692  27.995  1.00  0.00     0.031 C 
ATOM     53  C   UNL A   1      41.533  32.065  30.450  1.00  0.00     0.029 A 
ATOM     54  C   UNL A   1      42.720  31.213  30.421  1.00  0.00     0.049 A 
ATOM     55  H   UNL A   1      42.853  29.258  29.714  1.00  0.00     0.167 HD
ATOM     56  C   UNL A   1      43.032  25.159  28.284  1.00  0.00     0.037 A 
ATOM     57  C   UNL A   1      43.945  31.569  30.858  1.00  0.00     0.037 A 
ATOM     58  C   UNL A   1      44.388  25.477  28.656  1.00  0.00     0.049 A 
ATOM     59  C   UNL A   1      45.088  30.594  30.759  1.00  0.00     0.074 A 
ATOM     60  C   UNL A   1      45.518  24.684  28.544  1.00  0.00     0.029 A 
ATOM     61  N   UNL A   1      44.800  26.678  29.213  1.00  0.00    -0.354 N 
ATOM     62  N   UNL A   1      45.090  29.373  30.280  1.00  0.00    -0.248 NA
ATOM     63  C   UNL A   1      46.395  31.046  31.258  1.00  0.00     0.031 C 
ATOM     64  C   UNL A   1      46.605  25.390  29.073  1.00  0.00     0.029 A 
ATOM     65  C   UNL A   1      46.162  26.639  29.472  1.00  0.00     0.049 A 
ATOM     66  H   UNL A   1      44.212  27.445  29.398  1.00  0.00     0.167 HD
ATOM     67  C   UNL A   1      46.401  28.922  30.397  1.00  0.00     0.074 A 
ATOM     68  C   UNL A   1      47.166  30.004  30.981  1.00  0.00     0.031 C 
ATOM     69  C   UNL A   1      46.922  27.719  30.050  1.00  0.00     0.037 A 
BRANCH  56  70
ATOM     70  C   UNL A   1      42.757  23.781  27.744  1.00  0.00     0.058 A 
ATOM     71  C   UNL A   1      42.447  22.707  28.593  1.00  0.00     0.135 A 
ATOM     72  C   UNL A   1      42.752  23.543  26.360  1.00  0.00     0.135 A 
ATOM     73  F   UNL A   1      42.445  22.876  29.925  1.00  0.00    -0.206 F 
ATOM     74  C   UNL A   1      42.172  21.438  28.091  1.00  0.00     0.059 A 
ATOM     75  C   UNL A   1      42.456  22.289  25.835  1.00  0.00     0.059 A 
ATOM     76  F   UNL A   1      43.036  24.536  25.503  1.00  0.00    -0.206 F 
ATOM     77  C   UNL A   1      42.182  21.239  26.709  1.00  0.00     0.060 A 
BRANCH  77  78
ATOM     78  S   UNL A   1      41.825  19.587  26.073  1.00  0.00     0.124 S 
ATOM     79  O   UNL A   1      42.179  18.754  27.218  1.00  0.00    -0.237 OA
ATOM     80  O   UNL A   1      40.401  19.671  25.766  1.00  0.00    -0.237 OA
ATOM     81  O   UNL A   1      42.707  19.471  24.916  1.00  0.00    -0.744 OA
ENDBRANCH  77  78
ENDBRANCH  56  70
BRANCH  57  82
ATOM     82  C   UNL A   1      44.162  32.925  31.426  1.00  0.00     0.058 A 
ATOM     83  C   UNL A   1      44.539  34.000  30.607  1.00  0.00     0.135 A 
ATOM     84  C   UNL A   1      43.999  33.175  32.798  1.00  0.00     0.135 A 
ATOM     85  F   UNL A   1      44.719  33.808  29.292  1.00  0.00    -0.206 F 
ATOM     86  C   UNL A   1      44.761  35.270  31.127  1.00  0.00     0.059 A 
ATOM     87  C   UNL A   1      44.190  34.441  33.338  1.00  0.00     0.059 A 
ATOM     88  F   UNL A   1      43.628  32.183  33.623  1.00  0.00    -0.206 F 
ATOM     89  C   UNL A   1      44.583  35.482  32.496  1.00  0.00     0.060 A 
BRANCH  89  90
ATOM     90  S   UNL A   1      44.824  37.144  33.157  1.00  0.00     0.124 S 
ATOM     91  O   UNL A   1      43.469  37.680  33.106  1.00  0.00    -0.237 OA
ATOM     92  O   UNL A   1      45.355  36.873  34.488  1.00  0.00    -0.237 OA
ATOM     93  O   UNL A   1      45.775  37.740  32.222  1.00  0.00    -0.744 OA
ENDBRANCH  89  90
ENDBRANCH  57  82
BRANCH  69  94
ATOM     94  C   UNL A   1      48.397  27.511  30.262  1.00  0.00     0.058 A 
ATOM     95  C   UNL A   1      49.339  27.850  29.279  1.00  0.00     0.135 A 
ATOM     96  C   UNL A   1      48.877  27.008  31.482  1.00  0.00     0.135 A 
ATOM     97  F   UNL A   1      48.934  28.328  28.092  1.00  0.00    -0.206 F 
ATOM     98  C   UNL A   1      50.704  27.679  29.489  1.00  0.00     0.059 A 
ATOM     99  C   UNL A   1      50.239  26.851  31.724  1.00  0.00     0.059 A 
ATOM    100  F   UNL A   1      48.020  26.675  32.461  1.00  0.00    -0.206 F 
ATOM    101  C   UNL A   1      51.145  27.178  30.716  1.00  0.00     0.060 A 
BRANCH 101 102
ATOM    102  S   UNL A   1      52.921  26.992  30.989  1.00  0.00     0.124 S 
ATOM    103  O   UNL A   1      53.144  27.905  32.105  1.00  0.00    -0.237 OA
ATOM    104  O   UNL A   1      53.044  25.571  31.298  1.00  0.00    -0.237 OA
ATOM    105  O   UNL A   1      53.505  27.403  29.716  1.00  0.00    -0.744 OA
ENDBRANCH 101 102
ENDBRANCH  69  94
ENDBRANCH  43  44
ENDBRANCH  35  38
ENDBRANCH  33  34
ENDBRANCH  32  33
ENDBRANCH  31  32
ENDBRANCH   1  31
TORSDOF 23
ENDMDL
MODEL 3
REMARK VINA RESULT:     -10.8      2.816      3.723
REMARK SMILES O=C(C[C@H]([NH2+]Cc1ccco1)C(=O)NCCCCCCNC(=O)c1ccc(-c2c3nc(c(-c4c(F)cc(S(=O)(=O)[O-])cc4F)c4ccc([nH]4)c(-c4c(F)cc(S(=O)(=O)[O-])cc4F)c4nc(c(-c5c(F)cc(S(=O)(=O)[O-])cc5F)c5ccc2[nH]5)C=C4)C=C3)cc1)Nc1ccc(O)cc1
REMARK SMILES IDX 17 1 16 2 15 3 14 4 12 5 13 6 4 8 3 9 2 10 1 11 90 12 91 14
REMARK SMILES IDX 92 15 97 16 93 17 96 18 94 19 95 20 5 22 6 25 7 26 8 27
REMARK SMILES IDX 11 28 9 29 10 30 18 31 19 32 20 33 21 34 22 35 23 37 24 38
REMARK SMILES IDX 25 39 89 40 26 41 88 42 27 43 28 44 29 45 82 46 30 47 87 48
REMARK SMILES IDX 81 49 83 50 31 51 86 52 80 53 79 54 32 56 66 57 45 58 65 59
REMARK SMILES IDX 46 60 49 61 64 62 84 63 47 64 48 65 63 67 85 68 50 69 33 70
REMARK SMILES IDX 34 71 43 72 35 73 36 74 42 75 44 76 37 77 38 78 39 79 40 80
REMARK SMILES IDX 41 81 67 82 68 83 77 84 69 85 70 86 76 87 78 88 71 89 72 90
REMARK SMILES IDX 73 91 74 92 75 93 51 94 52 95 61 96 53 97 54 98 60 99 62 100
REMARK SMILES IDX 55 101 56 102 57 103 58 104 59 105
REMARK H PARENT 14 7 90 13 95 21 5 23 5 24 21 36 83 55 49 66
REMARK Flexibility Score: inf
ROOT
ATOM      1  C   UNL A   1      33.295  29.138  26.935  1.00  0.00     0.002 C 
ENDROOT
BRANCH   1   2
ATOM      2  C   UNL A   1      31.931  28.543  27.293  1.00  0.00     0.021 C 
BRANCH   2   3
ATOM      3  C   UNL A   1      31.415  27.430  26.389  1.00  0.00     0.116 C 
BRANCH   3   4
ATOM      4  N   UNL A   1      31.363  26.123  27.001  1.00  0.00    -0.351 N 
ATOM      5  C   UNL A   1      31.642  24.892  26.482  1.00  0.00     0.278 C 
ATOM      6  O   UNL A   1      31.752  23.961  27.292  1.00  0.00    -0.268 OA
ATOM      7  H   UNL A   1      31.084  26.119  27.945  1.00  0.00     0.163 HD
BRANCH   5   8
ATOM      8  C   UNL A   1      31.817  24.602  24.965  1.00  0.00     0.282 C 
BRANCH   8   9
ATOM      9  C   UNL A   1      31.121  23.332  24.452  1.00  0.00     0.175 C 
BRANCH   9  10
ATOM     10  C   UNL A   1      31.999  22.281  23.817  1.00  0.00     0.230 C 
ATOM     11  O   UNL A   1      32.670  22.554  22.827  1.00  0.00    -0.274 OA
ATOM     12  N   UNL A   1      31.909  21.037  24.426  1.00  0.00    -0.326 N 
ATOM     13  H   UNL A   1      31.361  20.973  25.242  1.00  0.00     0.169 HD
BRANCH  12  14
ATOM     14  C   UNL A   1      32.540  19.857  23.973  1.00  0.00     0.041 A 
ATOM     15  C   UNL A   1      33.620  19.368  24.721  1.00  0.00     0.030 A 
ATOM     16  C   UNL A   1      32.106  19.137  22.857  1.00  0.00     0.030 A 
ATOM     17  C   UNL A   1      34.205  18.142  24.395  1.00  0.00     0.048 A 
ATOM     18  C   UNL A   1      32.709  17.923  22.512  1.00  0.00     0.048 A 
ATOM     19  C   UNL A   1      33.737  17.424  23.301  1.00  0.00     0.115 A 
BRANCH  19  20
ATOM     20  O   UNL A   1      34.296  16.208  23.052  1.00  0.00    -0.508 OA
ATOM     21  H   UNL A   1      35.075  16.147  22.534  1.00  0.00     0.293 HD
ENDBRANCH  19  20
ENDBRANCH  12  14
ENDBRANCH   9  10
ENDBRANCH   8   9
BRANCH   8  22
ATOM     22  N   UNL A   1      33.216  24.805  24.531  1.00  0.00    -0.329 N 
ATOM     23  H   UNL A   1      33.301  25.743  24.139  1.00  0.00     0.347 HD
ATOM     24  H   UNL A   1      33.428  24.081  23.844  1.00  0.00     0.347 HD
BRANCH  22  25
ATOM     25  C   UNL A   1      34.184  24.666  25.619  1.00  0.00     0.337 C 
BRANCH  25  26
ATOM     26  C   UNL A   1      35.142  23.565  25.327  1.00  0.00     0.157 A 
ATOM     27  C   UNL A   1      36.026  23.336  24.293  1.00  0.00     0.052 A 
ATOM     28  O   UNL A   1      35.198  22.540  26.223  1.00  0.00    -0.463 OA
ATOM     29  C   UNL A   1      36.652  22.098  24.572  1.00  0.00     0.042 A 
ATOM     30  C   UNL A   1      36.114  21.654  25.756  1.00  0.00     0.195 A 
ENDBRANCH  25  26
ENDBRANCH  22  25
ENDBRANCH   8  22
ENDBRANCH   5   8
ENDBRANCH   3   4
ENDBRANCH   2   3
ENDBRANCH   1   2
BRANCH   1  31
ATOM     31  C   UNL A   1      33.717  30.421  27.664  1.00  0.00     0.002 C 
BRANCH  31  32
ATOM     32  C   UNL A   1      35.147  30.920  27.435  1.00  0.00     0.021 C 
BRANCH  32  33
ATOM     33  C   UNL A   1      35.727  31.861  28.488  1.00  0.00     0.116 C 
BRANCH  33  34
ATOM     34  N   UNL A   1      35.603  31.338  29.835  1.00  0.00    -0.352 N 
ATOM     35  C   UNL A   1      36.425  30.488  30.536  1.00  0.00     0.251 C 
ATOM     36  H   UNL A   1      34.804  31.640  30.324  1.00  0.00     0.163 HD
ATOM     37  O   UNL A   1      36.029  30.052  31.617  1.00  0.00    -0.269 OA
BRANCH  35  38
ATOM     38  C   UNL A   1      37.760  30.067  30.029  1.00  0.00     0.039 A 
ATOM     39  C   UNL A   1      38.780  29.849  30.964  1.00  0.00     0.014 A 
ATOM     40  C   UNL A   1      38.058  29.967  28.665  1.00  0.00     0.014 A 
ATOM     41  C   UNL A   1      40.071  29.502  30.544  1.00  0.00     0.010 A 
ATOM     42  C   UNL A   1      39.337  29.570  28.247  1.00  0.00     0.010 A 
ATOM     43  C   UNL A   1      40.360  29.340  29.180  1.00  0.00    -0.014 A 
BRANCH  43  44
ATOM     44  C   UNL A   1      41.728  28.941  28.735  1.00  0.00     0.031 A 
ATOM     45  C   UNL A   1      42.847  29.949  28.674  1.00  0.00     0.074 A 
ATOM     46  C   UNL A   1      41.970  27.666  28.372  1.00  0.00     0.049 A 
ATOM     47  N   UNL A   1      44.092  29.779  28.303  1.00  0.00    -0.248 NA
ATOM     48  C   UNL A   1      42.522  31.328  29.067  1.00  0.00     0.031 C 
ATOM     49  C   UNL A   1      40.977  26.590  28.356  1.00  0.00     0.029 A 
ATOM     50  N   UNL A   1      43.126  27.056  27.944  1.00  0.00    -0.354 N 
ATOM     51  C   UNL A   1      44.699  31.025  28.415  1.00  0.00     0.074 A 
ATOM     52  C   UNL A   1      43.672  31.951  28.847  1.00  0.00     0.031 C 
ATOM     53  C   UNL A   1      41.569  25.451  27.963  1.00  0.00     0.029 A 
ATOM     54  C   UNL A   1      42.974  25.718  27.662  1.00  0.00     0.049 A 
ATOM     55  H   UNL A   1      43.981  27.532  27.848  1.00  0.00     0.167 HD
ATOM     56  C   UNL A   1      45.993  31.367  28.197  1.00  0.00     0.037 A 
ATOM     57  C   UNL A   1      43.858  24.808  27.206  1.00  0.00     0.037 A 
ATOM     58  C   UNL A   1      47.024  30.448  27.782  1.00  0.00     0.049 A 
ATOM     59  C   UNL A   1      45.284  25.216  26.947  1.00  0.00     0.074 A 
ATOM     60  C   UNL A   1      48.371  30.701  27.581  1.00  0.00     0.029 A 
ATOM     61  N   UNL A   1      46.827  29.104  27.500  1.00  0.00    -0.354 N 
ATOM     62  N   UNL A   1      45.848  26.390  27.108  1.00  0.00    -0.248 NA
ATOM     63  C   UNL A   1      46.195  24.176  26.447  1.00  0.00     0.031 C 
ATOM     64  C   UNL A   1      48.979  29.522  27.137  1.00  0.00     0.029 A 
ATOM     65  C   UNL A   1      48.022  28.522  27.105  1.00  0.00     0.049 A 
ATOM     66  H   UNL A   1      45.966  28.634  27.570  1.00  0.00     0.167 HD
ATOM     67  C   UNL A   1      47.182  26.221  26.753  1.00  0.00     0.074 A 
ATOM     68  C   UNL A   1      47.346  24.831  26.380  1.00  0.00     0.031 C 
ATOM     69  C   UNL A   1      48.182  27.137  26.739  1.00  0.00     0.037 A 
BRANCH  56  70
ATOM     70  C   UNL A   1      46.378  32.806  28.405  1.00  0.00     0.058 A 
ATOM     71  C   UNL A   1      46.850  33.269  29.645  1.00  0.00     0.135 A 
ATOM     72  C   UNL A   1      46.323  33.723  27.343  1.00  0.00     0.135 A 
ATOM     73  F   UNL A   1      46.915  32.438  30.696  1.00  0.00    -0.206 F 
ATOM     74  C   UNL A   1      47.225  34.596  29.831  1.00  0.00     0.059 A 
ATOM     75  C   UNL A   1      46.717  35.049  27.500  1.00  0.00     0.059 A 
ATOM     76  F   UNL A   1      45.885  33.333  26.136  1.00  0.00    -0.206 F 
ATOM     77  C   UNL A   1      47.152  35.479  28.752  1.00  0.00     0.060 A 
BRANCH  77  78
ATOM     78  S   UNL A   1      47.641  37.199  29.010  1.00  0.00     0.124 S 
ATOM     79  O   UNL A   1      47.842  37.228  30.456  1.00  0.00    -0.237 OA
ATOM     80  O   UNL A   1      48.850  37.305  28.200  1.00  0.00    -0.237 OA
ATOM     81  O   UNL A   1      46.493  37.956  28.520  1.00  0.00    -0.744 OA
ENDBRANCH  77  78
ENDBRANCH  56  70
BRANCH  57  82
ATOM     82  C   UNL A   1      43.424  23.406  26.972  1.00  0.00     0.058 A 
ATOM     83  C   UNL A   1      43.218  22.921  25.671  1.00  0.00     0.135 A 
ATOM     84  C   UNL A   1      43.206  22.523  28.041  1.00  0.00     0.135 A 
ATOM     85  F   UNL A   1      43.401  23.731  24.618  1.00  0.00    -0.206 F 
ATOM     86  C   UNL A   1      42.797  21.617  25.438  1.00  0.00     0.059 A 
ATOM     87  C   UNL A   1      42.810  21.207  27.832  1.00  0.00     0.059 A 
ATOM     88  F   UNL A   1      43.402  22.935  29.303  1.00  0.00    -0.206 F 
ATOM     89  C   UNL A   1      42.597  20.766  26.527  1.00  0.00     0.060 A 
BRANCH  89  90
ATOM     90  S   UNL A   1      42.098  19.059  26.214  1.00  0.00     0.124 S 
ATOM     91  O   UNL A   1      42.358  18.436  27.507  1.00  0.00    -0.237 OA
ATOM     92  O   UNL A   1      40.694  19.209  25.847  1.00  0.00    -0.237 OA
ATOM     93  O   UNL A   1      42.981  18.647  25.125  1.00  0.00    -0.744 OA
ENDBRANCH  89  90
ENDBRANCH  57  82
BRANCH  69  94
ATOM     94  C   UNL A   1      49.553  26.667  26.335  1.00  0.00     0.058 A 
ATOM     95  C   UNL A   1      50.019  26.796  25.017  1.00  0.00     0.135 A 
ATOM     96  C   UNL A   1      50.429  26.122  27.288  1.00  0.00     0.135 A 
ATOM     97  F   UNL A   1      49.221  27.303  24.065  1.00  0.00    -0.206 F 
ATOM     98  C   UNL A   1      51.298  26.382  24.654  1.00  0.00     0.059 A 
ATOM     99  C   UNL A   1      51.721  25.724  26.953  1.00  0.00     0.059 A 
ATOM    100  F   UNL A   1      50.038  25.984  28.565  1.00  0.00    -0.206 F 
ATOM    101  C   UNL A   1      52.142  25.847  25.629  1.00  0.00     0.060 A 
BRANCH 101 102
ATOM    102  S   UNL A   1      53.810  25.345  25.152  1.00  0.00     0.124 S 
ATOM    103  O   UNL A   1      54.609  25.918  26.230  1.00  0.00    -0.237 OA
ATOM    104  O   UNL A   1      53.709  23.889  25.143  1.00  0.00    -0.237 OA
ATOM    105  O   UNL A   1      53.988  25.963  23.841  1.00  0.00    -0.744 OA
ENDBRANCH 101 102
ENDBRANCH  69  94
ENDBRANCH  43  44
ENDBRANCH  35  38
ENDBRANCH  33  34
ENDBRANCH  32  33
ENDBRANCH  31  32
ENDBRANCH   1  31
TORSDOF 23
ENDMDL
