MODEL 1
REMARK VINA RESULT:     -12.3      0.000      0.000
REMARK SMILES CCCOc1ccc(-c2nc(C#N)c(N3CCC(C(=O)NCCCCCCNC(=O)c4ccc(-c5c6nc(c(-c7c(F)cc(S(=O)(=O)[O-])cc7F)c7ccc([nH]7)c(-c7c(F)cc(S(=O)(=O)[O-])cc7F)c7nc(c(-c8c(F)cc(S(=O)(=O)[O-])cc8F)c8ccc5[nH]8)C=C7)C=C6)cc4)CC3)o2)cc1
REMARK SMILES IDX 23 1 22 2 21 3 19 4 20 5 18 7 15 8 16 9 98 10 17 11 97 12
REMARK SMILES IDX 14 13 9 14 10 15 99 16 11 17 8 18 5 19 6 20 101 21 7 22
REMARK SMILES IDX 100 23 4 24 3 25 2 26 1 27 12 28 13 29 24 30 25 31 26 32
REMARK SMILES IDX 27 33 28 34 29 35 30 37 31 38 32 39 96 40 33 41 95 42 34 43
REMARK SMILES IDX 35 44 36 45 89 46 37 47 94 48 88 49 90 50 38 51 93 52 87 53
REMARK SMILES IDX 86 54 39 56 73 57 52 58 72 59 53 60 56 61 71 62 91 63 54 64
REMARK SMILES IDX 55 65 70 67 92 68 57 69 40 70 41 71 50 72 42 73 43 74 49 75
REMARK SMILES IDX 51 76 44 77 45 78 46 79 47 80 48 81 74 82 75 83 84 84 76 85
REMARK SMILES IDX 77 86 83 87 85 88 78 89 79 90 80 91 81 92 82 93 58 94 59 95
REMARK SMILES IDX 68 96 60 97 61 98 67 99 69 100 62 101 63 102 64 103 65 104
REMARK SMILES IDX 66 105
REMARK H PARENT 21 6 28 36 90 55 56 66
REMARK Flexibility Score: inf
ROOT
ATOM      1  C   UNL A   1      33.885  26.776  25.800  1.00  0.00     0.021 C 
ENDROOT
BRANCH   1   2
ATOM      2  C   UNL A   1      32.908  27.316  26.837  1.00  0.00     0.116 C 
BRANCH   2   3
ATOM      3  N   UNL A   1      32.557  28.698  26.559  1.00  0.00    -0.356 N 
ATOM      4  C   UNL A   1      31.763  29.233  25.593  1.00  0.00     0.223 C 
ATOM      5  O   UNL A   1      31.636  30.460  25.563  1.00  0.00    -0.275 OA
ATOM      6  H   UNL A   1      32.961  29.356  27.171  1.00  0.00     0.163 HD
BRANCH   4   7
ATOM      7  C   UNL A   1      31.005  28.351  24.611  1.00  0.00     0.082 C 
ATOM      8  N   UNL A   1      31.061  25.937  23.131  1.00  0.00    -0.340 N 
ATOM      9  C   UNL A   1      31.181  27.161  22.351  1.00  0.00     0.120 C 
ATOM     10  C   UNL A   1      30.144  25.983  24.256  1.00  0.00     0.120 C 
ATOM     11  C   UNL A   1      31.685  28.300  23.231  1.00  0.00     0.035 C 
ATOM     12  C   UNL A   1      30.687  26.992  25.260  1.00  0.00     0.035 C 
BRANCH   8  13
ATOM     13  C   UNL A   1      31.718  24.798  22.808  1.00  0.00     0.235 A 
ATOM     14  C   UNL A   1      32.436  22.779  23.155  1.00  0.00     0.230 A 
ATOM     15  N   UNL A   1      32.933  23.072  21.971  1.00  0.00    -0.196 NA
ATOM     16  O   UNL A   1      31.732  23.797  23.744  1.00  0.00    -0.419 OA
ATOM     17  C   UNL A   1      32.431  24.330  21.721  1.00  0.00     0.204 A 
BRANCH  14  18
ATOM     18  C   UNL A   1      32.491  21.520  23.886  1.00  0.00     0.037 A 
ATOM     19  C   UNL A   1      32.847  19.079  25.218  1.00  0.00     0.119 A 
ATOM     20  C   UNL A   1      32.960  20.273  25.926  1.00  0.00     0.047 A 
ATOM     21  C   UNL A   1      32.465  19.094  23.880  1.00  0.00     0.047 A 
ATOM     22  C   UNL A   1      32.790  21.493  25.258  1.00  0.00     0.017 A 
ATOM     23  C   UNL A   1      32.316  20.307  23.210  1.00  0.00     0.017 A 
BRANCH  19  24
ATOM     24  O   UNL A   1      33.028  17.880  25.847  1.00  0.00    -0.494 OA
BRANCH  24  25
ATOM     25  C   UNL A   1      32.508  16.771  25.088  1.00  0.00     0.229 C 
BRANCH  25  26
ATOM     26  C   UNL A   1      33.605  15.845  24.543  1.00  0.00     0.038 C 
ATOM     27  C   UNL A   1      34.940  16.004  25.263  1.00  0.00     0.007 C 
ENDBRANCH  25  26
ENDBRANCH  24  25
ENDBRANCH  19  24
ENDBRANCH  14  18
BRANCH  17  28
ATOM     28  C   UNL A   1      32.760  25.031  20.536  1.00  0.00     0.125 C 
ATOM     29  N   UNL A   1      32.978  25.605  19.535  1.00  0.00    -0.190 NA
ENDBRANCH  17  28
ENDBRANCH   8  13
ENDBRANCH   4   7
ENDBRANCH   2   3
ENDBRANCH   1   2
BRANCH   1  30
ATOM     30  C   UNL A   1      33.996  25.250  25.788  1.00  0.00     0.002 C 
BRANCH  30  31
ATOM     31  C   UNL A   1      34.981  24.670  24.757  1.00  0.00     0.002 C 
BRANCH  31  32
ATOM     32  C   UNL A   1      35.802  23.450  25.207  1.00  0.00     0.021 C 
BRANCH  32  33
ATOM     33  C   UNL A   1      37.296  23.711  25.231  1.00  0.00     0.116 C 
BRANCH  33  34
ATOM     34  N   UNL A   1      38.038  22.723  26.025  1.00  0.00    -0.352 N 
ATOM     35  C   UNL A   1      39.285  22.858  26.620  1.00  0.00     0.251 C 
ATOM     36  H   UNL A   1      37.594  21.853  26.151  1.00  0.00     0.163 HD
ATOM     37  O   UNL A   1      39.951  21.872  26.916  1.00  0.00    -0.269 OA
BRANCH  35  38
ATOM     38  C   UNL A   1      39.771  24.216  26.930  1.00  0.00     0.039 A 
ATOM     39  C   UNL A   1      40.405  25.063  26.017  1.00  0.00     0.014 A 
ATOM     40  C   UNL A   1      39.533  24.658  28.215  1.00  0.00     0.014 A 
ATOM     41  C   UNL A   1      40.810  26.325  26.465  1.00  0.00     0.010 A 
ATOM     42  C   UNL A   1      39.460  25.996  28.401  1.00  0.00     0.010 A 
ATOM     43  C   UNL A   1      40.360  26.765  27.716  1.00  0.00    -0.014 A 
BRANCH  43  44
ATOM     44  C   UNL A   1      40.606  28.071  28.298  1.00  0.00     0.031 A 
ATOM     45  C   UNL A   1      41.839  28.681  27.761  1.00  0.00     0.074 A 
ATOM     46  C   UNL A   1      39.707  28.731  29.070  1.00  0.00     0.049 A 
ATOM     47  N   UNL A   1      42.998  28.656  28.322  1.00  0.00    -0.248 NA
ATOM     48  C   UNL A   1      41.872  29.115  26.354  1.00  0.00     0.031 C 
ATOM     49  C   UNL A   1      38.330  28.372  29.440  1.00  0.00     0.029 A 
ATOM     50  N   UNL A   1      39.858  29.939  29.691  1.00  0.00    -0.354 N 
ATOM     51  C   UNL A   1      43.846  29.341  27.464  1.00  0.00     0.074 A 
ATOM     52  C   UNL A   1      43.175  29.366  26.193  1.00  0.00     0.031 C 
ATOM     53  C   UNL A   1      37.714  29.425  30.038  1.00  0.00     0.029 A 
ATOM     54  C   UNL A   1      38.688  30.481  30.242  1.00  0.00     0.049 A 
ATOM     55  H   UNL A   1      40.728  30.396  29.748  1.00  0.00     0.167 HD
ATOM     56  C   UNL A   1      44.894  30.050  27.966  1.00  0.00     0.037 A 
ATOM     57  C   UNL A   1      38.573  31.706  30.834  1.00  0.00     0.037 A 
ATOM     58  C   UNL A   1      45.086  29.729  29.364  1.00  0.00     0.049 A 
ATOM     59  C   UNL A   1      39.956  32.087  31.255  1.00  0.00     0.074 A 
ATOM     60  C   UNL A   1      45.411  28.578  30.055  1.00  0.00     0.029 A 
ATOM     61  N   UNL A   1      44.489  30.566  30.279  1.00  0.00    -0.354 N 
ATOM     62  N   UNL A   1      40.625  31.428  32.167  1.00  0.00    -0.248 NA
ATOM     63  C   UNL A   1      40.767  32.805  30.282  1.00  0.00     0.031 C 
ATOM     64  C   UNL A   1      44.569  28.591  31.207  1.00  0.00     0.029 A 
ATOM     65  C   UNL A   1      43.861  29.793  31.225  1.00  0.00     0.049 A 
ATOM     66  H   UNL A   1      44.508  31.550  30.259  1.00  0.00     0.167 HD
ATOM     67  C   UNL A   1      41.901  31.282  31.637  1.00  0.00     0.074 A 
ATOM     68  C   UNL A   1      41.933  32.182  30.480  1.00  0.00     0.031 C 
ATOM     69  C   UNL A   1      42.699  30.225  31.977  1.00  0.00     0.037 A 
BRANCH  56  70
ATOM     70  C   UNL A   1      45.490  31.291  27.351  1.00  0.00     0.058 A 
ATOM     71  C   UNL A   1      46.872  31.301  27.066  1.00  0.00     0.135 A 
ATOM     72  C   UNL A   1      44.846  32.545  27.278  1.00  0.00     0.135 A 
ATOM     73  F   UNL A   1      47.586  30.164  27.090  1.00  0.00    -0.206 F 
ATOM     74  C   UNL A   1      47.577  32.477  26.817  1.00  0.00     0.059 A 
ATOM     75  C   UNL A   1      45.523  33.725  26.984  1.00  0.00     0.059 A 
ATOM     76  F   UNL A   1      43.552  32.709  27.569  1.00  0.00    -0.206 F 
ATOM     77  C   UNL A   1      46.894  33.687  26.791  1.00  0.00     0.060 A 
BRANCH  77  78
ATOM     78  S   UNL A   1      47.820  35.208  26.531  1.00  0.00     0.124 S 
ATOM     79  O   UNL A   1      48.073  35.157  25.096  1.00  0.00    -0.237 OA
ATOM     80  O   UNL A   1      46.866  36.218  26.978  1.00  0.00    -0.237 OA
ATOM     81  O   UNL A   1      48.991  35.039  27.387  1.00  0.00    -0.744 OA
ENDBRANCH  77  78
ENDBRANCH  56  70
BRANCH  57  82
ATOM     82  C   UNL A   1      37.494  32.727  30.643  1.00  0.00     0.058 A 
ATOM     83  C   UNL A   1      37.416  33.529  29.483  1.00  0.00     0.135 A 
ATOM     84  C   UNL A   1      36.342  32.721  31.453  1.00  0.00     0.135 A 
ATOM     85  F   UNL A   1      38.456  33.593  28.637  1.00  0.00    -0.206 F 
ATOM     86  C   UNL A   1      36.250  34.229  29.122  1.00  0.00     0.059 A 
ATOM     87  C   UNL A   1      35.172  33.407  31.115  1.00  0.00     0.059 A 
ATOM     88  F   UNL A   1      36.286  31.966  32.560  1.00  0.00    -0.206 F 
ATOM     89  C   UNL A   1      35.121  34.138  29.935  1.00  0.00     0.060 A 
BRANCH  89  90
ATOM     90  S   UNL A   1      33.550  34.865  29.394  1.00  0.00     0.124 S 
ATOM     91  O   UNL A   1      33.014  33.824  28.523  1.00  0.00    -0.237 OA
ATOM     92  O   UNL A   1      32.845  35.065  30.657  1.00  0.00    -0.237 OA
ATOM     93  O   UNL A   1      33.959  36.093  28.715  1.00  0.00    -0.744 OA
ENDBRANCH  89  90
ENDBRANCH  57  82
BRANCH  69  94
ATOM     94  C   UNL A   1      42.268  29.333  33.120  1.00  0.00     0.058 A 
ATOM     95  C   UNL A   1      41.390  28.238  33.010  1.00  0.00     0.135 A 
ATOM     96  C   UNL A   1      42.912  29.503  34.353  1.00  0.00     0.135 A 
ATOM     97  F   UNL A   1      40.806  27.938  31.842  1.00  0.00    -0.206 F 
ATOM     98  C   UNL A   1      41.138  27.377  34.084  1.00  0.00     0.059 A 
ATOM     99  C   UNL A   1      42.700  28.644  35.427  1.00  0.00     0.059 A 
ATOM    100  F   UNL A   1      43.811  30.489  34.509  1.00  0.00    -0.206 F 
ATOM    101  C   UNL A   1      41.798  27.592  35.294  1.00  0.00     0.060 A 
BRANCH 101 102
ATOM    102  S   UNL A   1      41.510  26.468  36.678  1.00  0.00     0.124 S 
ATOM    103  O   UNL A   1      40.959  25.294  36.011  1.00  0.00    -0.237 OA
ATOM    104  O   UNL A   1      42.847  26.309  37.243  1.00  0.00    -0.237 OA
ATOM    105  O   UNL A   1      40.570  27.202  37.523  1.00  0.00    -0.744 OA
ENDBRANCH 101 102
ENDBRANCH  69  94
ENDBRANCH  43  44
ENDBRANCH  35  38
ENDBRANCH  33  34
ENDBRANCH  32  33
ENDBRANCH  31  32
ENDBRANCH  30  31
ENDBRANCH   1  30
TORSDOF 22
ENDMDL
MODEL 2
REMARK VINA RESULT:     -11.6      2.785      8.505
REMARK SMILES CCCOc1ccc(-c2nc(C#N)c(N3CCC(C(=O)NCCCCCCNC(=O)c4ccc(-c5c6nc(c(-c7c(F)cc(S(=O)(=O)[O-])cc7F)c7ccc([nH]7)c(-c7c(F)cc(S(=O)(=O)[O-])cc7F)c7nc(c(-c8c(F)cc(S(=O)(=O)[O-])cc8F)c8ccc5[nH]8)C=C7)C=C6)cc4)CC3)o2)cc1
REMARK SMILES IDX 23 1 22 2 21 3 19 4 20 5 18 7 15 8 16 9 98 10 17 11 97 12
REMARK SMILES IDX 14 13 9 14 10 15 99 16 11 17 8 18 5 19 6 20 101 21 7 22
REMARK SMILES IDX 100 23 4 24 3 25 2 26 1 27 12 28 13 29 24 30 25 31 26 32
REMARK SMILES IDX 27 33 28 34 29 35 30 37 31 38 32 39 96 40 33 41 95 42 34 43
REMARK SMILES IDX 35 44 36 45 89 46 37 47 94 48 88 49 90 50 38 51 93 52 87 53
REMARK SMILES IDX 86 54 39 56 73 57 52 58 72 59 53 60 56 61 71 62 91 63 54 64
REMARK SMILES IDX 55 65 70 67 92 68 57 69 40 70 41 71 50 72 42 73 43 74 49 75
REMARK SMILES IDX 51 76 44 77 45 78 46 79 47 80 48 81 74 82 75 83 84 84 76 85
REMARK SMILES IDX 77 86 83 87 85 88 78 89 79 90 80 91 81 92 82 93 58 94 59 95
REMARK SMILES IDX 68 96 60 97 61 98 67 99 69 100 62 101 63 102 64 103 65 104
REMARK SMILES IDX 66 105
REMARK H PARENT 21 6 28 36 90 55 56 66
REMARK Flexibility Score: inf
ROOT
ATOM      1  C   UNL A   1      31.845  29.650  26.596  1.00  0.00     0.021 C 
ENDROOT
BRANCH   1   2
ATOM      2  C   UNL A   1      31.458  28.738  25.437  1.00  0.00     0.116 C 
BRANCH   2   3
ATOM      3  N   UNL A   1      30.734  29.470  24.413  1.00  0.00    -0.356 N 
ATOM      4  C   UNL A   1      30.247  29.062  23.210  1.00  0.00     0.223 C 
ATOM      5  O   UNL A   1      29.671  29.895  22.505  1.00  0.00    -0.275 OA
ATOM      6  H   UNL A   1      30.567  30.417  24.624  1.00  0.00     0.163 HD
BRANCH   4   7
ATOM      7  C   UNL A   1      30.356  27.611  22.761  1.00  0.00     0.082 C 
ATOM      8  N   UNL A   1      31.602  25.114  23.244  1.00  0.00    -0.340 N 
ATOM      9  C   UNL A   1      32.010  25.800  22.026  1.00  0.00     0.120 C 
ATOM     10  C   UNL A   1      30.196  25.211  23.593  1.00  0.00     0.120 C 
ATOM     11  C   UNL A   1      31.730  27.294  22.143  1.00  0.00     0.035 C 
ATOM     12  C   UNL A   1      29.889  26.674  23.889  1.00  0.00     0.035 C 
BRANCH   8  13
ATOM     13  C   UNL A   1      32.460  24.379  23.990  1.00  0.00     0.235 A 
ATOM     14  C   UNL A   1      33.383  22.541  24.683  1.00  0.00     0.230 A 
ATOM     15  N   UNL A   1      33.977  23.463  25.411  1.00  0.00    -0.196 NA
ATOM     16  O   UNL A   1      32.416  23.018  23.837  1.00  0.00    -0.419 OA
ATOM     17  C   UNL A   1      33.437  24.637  24.934  1.00  0.00     0.204 A 
BRANCH  14  18
ATOM     18  C   UNL A   1      33.650  21.110  24.622  1.00  0.00     0.037 A 
ATOM     19  C   UNL A   1      34.226  18.391  24.254  1.00  0.00     0.119 A 
ATOM     20  C   UNL A   1      35.193  19.232  24.800  1.00  0.00     0.047 A 
ATOM     21  C   UNL A   1      32.950  18.876  23.983  1.00  0.00     0.047 A 
ATOM     22  C   UNL A   1      34.906  20.592  24.977  1.00  0.00     0.017 A 
ATOM     23  C   UNL A   1      32.672  20.233  24.138  1.00  0.00     0.017 A 
BRANCH  19  24
ATOM     24  O   UNL A   1      34.492  17.065  24.057  1.00  0.00    -0.494 OA
BRANCH  24  25
ATOM     25  C   UNL A   1      33.311  16.243  24.150  1.00  0.00     0.229 C 
BRANCH  25  26
ATOM     26  C   UNL A   1      33.339  15.281  25.346  1.00  0.00     0.038 C 
ATOM     27  C   UNL A   1      31.989  15.148  26.044  1.00  0.00     0.007 C 
ENDBRANCH  25  26
ENDBRANCH  24  25
ENDBRANCH  19  24
ENDBRANCH  14  18
BRANCH  17  28
ATOM     28  C   UNL A   1      33.797  25.891  25.484  1.00  0.00     0.125 C 
ATOM     29  N   UNL A   1      34.149  26.924  25.920  1.00  0.00    -0.190 NA
ENDBRANCH  17  28
ENDBRANCH   8  13
ENDBRANCH   4   7
ENDBRANCH   2   3
ENDBRANCH   1   2
BRANCH   1  30
ATOM     30  C   UNL A   1      33.331  30.013  26.630  1.00  0.00     0.002 C 
BRANCH  30  31
ATOM     31  C   UNL A   1      33.679  31.286  27.421  1.00  0.00     0.002 C 
BRANCH  31  32
ATOM     32  C   UNL A   1      35.172  31.534  27.695  1.00  0.00     0.021 C 
BRANCH  32  33
ATOM     33  C   UNL A   1      35.466  32.940  28.181  1.00  0.00     0.116 C 
BRANCH  33  34
ATOM     34  N   UNL A   1      35.034  33.171  29.565  1.00  0.00    -0.352 N 
ATOM     35  C   UNL A   1      35.242  32.367  30.678  1.00  0.00     0.251 C 
ATOM     36  H   UNL A   1      34.535  34.004  29.725  1.00  0.00     0.163 HD
ATOM     37  O   UNL A   1      34.525  32.467  31.667  1.00  0.00    -0.269 OA
BRANCH  35  38
ATOM     38  C   UNL A   1      36.371  31.419  30.658  1.00  0.00     0.039 A 
ATOM     39  C   UNL A   1      36.258  30.048  30.408  1.00  0.00     0.014 A 
ATOM     40  C   UNL A   1      37.618  31.970  30.873  1.00  0.00     0.014 A 
ATOM     41  C   UNL A   1      37.427  29.280  30.425  1.00  0.00     0.010 A 
ATOM     42  C   UNL A   1      38.679  31.306  30.360  1.00  0.00     0.010 A 
ATOM     43  C   UNL A   1      38.660  29.942  30.456  1.00  0.00    -0.014 A 
BRANCH  43  44
ATOM     44  C   UNL A   1      39.966  29.312  30.390  1.00  0.00     0.031 A 
ATOM     45  C   UNL A   1      40.457  28.936  31.730  1.00  0.00     0.074 A 
ATOM     46  C   UNL A   1      40.555  28.926  29.230  1.00  0.00     0.049 A 
ATOM     47  N   UNL A   1      41.269  29.624  32.455  1.00  0.00    -0.248 NA
ATOM     48  C   UNL A   1      39.783  27.852  32.464  1.00  0.00     0.031 C 
ATOM     49  C   UNL A   1      40.052  28.970  27.849  1.00  0.00     0.029 A 
ATOM     50  N   UNL A   1      41.790  28.364  29.061  1.00  0.00    -0.354 N 
ATOM     51  C   UNL A   1      41.440  28.896  33.623  1.00  0.00     0.074 A 
ATOM     52  C   UNL A   1      40.332  27.981  33.676  1.00  0.00     0.031 C 
ATOM     53  C   UNL A   1      40.878  28.274  27.026  1.00  0.00     0.029 A 
ATOM     54  C   UNL A   1      42.051  27.867  27.776  1.00  0.00     0.049 A 
ATOM     55  H   UNL A   1      42.449  28.313  29.790  1.00  0.00     0.167 HD
ATOM     56  C   UNL A   1      42.628  28.943  34.287  1.00  0.00     0.037 A 
ATOM     57  C   UNL A   1      43.174  27.191  27.391  1.00  0.00     0.037 A 
ATOM     58  C   UNL A   1      43.452  30.007  33.754  1.00  0.00     0.049 A 
ATOM     59  C   UNL A   1      44.230  27.557  28.382  1.00  0.00     0.074 A 
ATOM     60  C   UNL A   1      43.329  31.381  33.682  1.00  0.00     0.029 A 
ATOM     61  N   UNL A   1      44.366  29.655  32.786  1.00  0.00    -0.354 N 
ATOM     62  N   UNL A   1      44.698  28.774  28.502  1.00  0.00    -0.248 NA
ATOM     63  C   UNL A   1      44.330  26.729  29.576  1.00  0.00     0.031 C 
ATOM     64  C   UNL A   1      43.796  31.724  32.378  1.00  0.00     0.029 A 
ATOM     65  C   UNL A   1      44.285  30.570  31.764  1.00  0.00     0.049 A 
ATOM     66  H   UNL A   1      44.974  28.882  32.821  1.00  0.00     0.167 HD
ATOM     67  C   UNL A   1      44.738  29.007  29.872  1.00  0.00     0.074 A 
ATOM     68  C   UNL A   1      44.525  27.692  30.484  1.00  0.00     0.031 C 
ATOM     69  C   UNL A   1      44.618  30.269  30.385  1.00  0.00     0.037 A 
BRANCH  56  70
ATOM     70  C   UNL A   1      43.214  27.831  35.120  1.00  0.00     0.058 A 
ATOM     71  C   UNL A   1      43.613  28.122  36.441  1.00  0.00     0.135 A 
ATOM     72  C   UNL A   1      43.648  26.587  34.615  1.00  0.00     0.135 A 
ATOM     73  F   UNL A   1      43.245  29.271  37.032  1.00  0.00    -0.206 F 
ATOM     74  C   UNL A   1      44.452  27.284  37.172  1.00  0.00     0.059 A 
ATOM     75  C   UNL A   1      44.448  25.714  35.345  1.00  0.00     0.059 A 
ATOM     76  F   UNL A   1      43.395  26.188  33.364  1.00  0.00    -0.206 F 
ATOM     77  C   UNL A   1      44.876  26.086  36.608  1.00  0.00     0.060 A 
BRANCH  77  78
ATOM     78  S   UNL A   1      46.010  25.038  37.532  1.00  0.00     0.124 S 
ATOM     79  O   UNL A   1      46.791  26.026  38.267  1.00  0.00    -0.237 OA
ATOM     80  O   UNL A   1      45.091  24.229  38.325  1.00  0.00    -0.237 OA
ATOM     81  O   UNL A   1      46.729  24.315  36.486  1.00  0.00    -0.744 OA
ENDBRANCH  77  78
ENDBRANCH  56  70
BRANCH  57  82
ATOM     82  C   UNL A   1      43.264  25.949  26.559  1.00  0.00     0.058 A 
ATOM     83  C   UNL A   1      44.166  25.831  25.478  1.00  0.00     0.135 A 
ATOM     84  C   UNL A   1      42.688  24.741  27.001  1.00  0.00     0.135 A 
ATOM     85  F   UNL A   1      44.779  26.923  24.992  1.00  0.00    -0.206 F 
ATOM     86  C   UNL A   1      44.517  24.592  24.915  1.00  0.00     0.059 A 
ATOM     87  C   UNL A   1      43.022  23.498  26.457  1.00  0.00     0.059 A 
ATOM     88  F   UNL A   1      41.847  24.723  28.045  1.00  0.00    -0.206 F 
ATOM     89  C   UNL A   1      43.957  23.424  25.431  1.00  0.00     0.060 A 
BRANCH  89  90
ATOM     90  S   UNL A   1      44.540  21.805  24.858  1.00  0.00     0.124 S 
ATOM     91  O   UNL A   1      44.599  21.995  23.413  1.00  0.00    -0.237 OA
ATOM     92  O   UNL A   1      45.825  21.676  25.537  1.00  0.00    -0.237 OA
ATOM     93  O   UNL A   1      43.502  20.887  25.323  1.00  0.00    -0.744 OA
ENDBRANCH  89  90
ENDBRANCH  57  82
BRANCH  69  94
ATOM     94  C   UNL A   1      44.672  31.444  29.435  1.00  0.00     0.058 A 
ATOM     95  C   UNL A   1      43.553  32.130  28.926  1.00  0.00     0.135 A 
ATOM     96  C   UNL A   1      45.929  32.000  29.164  1.00  0.00     0.135 A 
ATOM     97  F   UNL A   1      42.308  31.729  29.217  1.00  0.00    -0.206 F 
ATOM     98  C   UNL A   1      43.681  33.290  28.154  1.00  0.00     0.059 A 
ATOM     99  C   UNL A   1      46.081  33.169  28.423  1.00  0.00     0.059 A 
ATOM    100  F   UNL A   1      47.036  31.434  29.672  1.00  0.00    -0.206 F 
ATOM    101  C   UNL A   1      44.954  33.802  27.906  1.00  0.00     0.060 A 
BRANCH 101 102
ATOM    102  S   UNL A   1      45.134  35.318  26.941  1.00  0.00     0.124 S 
ATOM    103  O   UNL A   1      44.722  34.885  25.610  1.00  0.00    -0.237 OA
ATOM    104  O   UNL A   1      44.225  36.238  27.619  1.00  0.00    -0.237 OA
ATOM    105  O   UNL A   1      46.552  35.644  27.078  1.00  0.00    -0.744 OA
ENDBRANCH 101 102
ENDBRANCH  69  94
ENDBRANCH  43  44
ENDBRANCH  35  38
ENDBRANCH  33  34
ENDBRANCH  32  33
ENDBRANCH  31  32
ENDBRANCH  30  31
ENDBRANCH   1  30
TORSDOF 22
ENDMDL
MODEL 3
REMARK VINA RESULT:     -10.7      3.512      9.240
REMARK SMILES CCCOc1ccc(-c2nc(C#N)c(N3CCC(C(=O)NCCCCCCNC(=O)c4ccc(-c5c6nc(c(-c7c(F)cc(S(=O)(=O)[O-])cc7F)c7ccc([nH]7)c(-c7c(F)cc(S(=O)(=O)[O-])cc7F)c7nc(c(-c8c(F)cc(S(=O)(=O)[O-])cc8F)c8ccc5[nH]8)C=C7)C=C6)cc4)CC3)o2)cc1
REMARK SMILES IDX 23 1 22 2 21 3 19 4 20 5 18 7 15 8 16 9 98 10 17 11 97 12
REMARK SMILES IDX 14 13 9 14 10 15 99 16 11 17 8 18 5 19 6 20 101 21 7 22
REMARK SMILES IDX 100 23 4 24 3 25 2 26 1 27 12 28 13 29 24 30 25 31 26 32
REMARK SMILES IDX 27 33 28 34 29 35 30 37 31 38 32 39 96 40 33 41 95 42 34 43
REMARK SMILES IDX 35 44 36 45 89 46 37 47 94 48 88 49 90 50 38 51 93 52 87 53
REMARK SMILES IDX 86 54 39 56 73 57 52 58 72 59 53 60 56 61 71 62 91 63 54 64
REMARK SMILES IDX 55 65 70 67 92 68 57 69 40 70 41 71 50 72 42 73 43 74 49 75
REMARK SMILES IDX 51 76 44 77 45 78 46 79 47 80 48 81 74 82 75 83 84 84 76 85
REMARK SMILES IDX 77 86 83 87 85 88 78 89 79 90 80 91 81 92 82 93 58 94 59 95
REMARK SMILES IDX 68 96 60 97 61 98 67 99 69 100 62 101 63 102 64 103 65 104
REMARK SMILES IDX 66 105
REMARK H PARENT 21 6 28 36 90 55 56 66
REMARK Flexibility Score: inf
ROOT
ATOM      1  C   UNL A   1      34.415  32.304  28.100  1.00  0.00     0.021 C 
ENDROOT
BRANCH   1   2
ATOM      2  C   UNL A   1      34.026  30.883  27.711  1.00  0.00     0.116 C 
BRANCH   2   3
ATOM      3  N   UNL A   1      32.827  30.871  26.892  1.00  0.00    -0.356 N 
ATOM      4  C   UNL A   1      32.394  29.973  25.967  1.00  0.00     0.223 C 
ATOM      5  O   UNL A   1      31.329  30.204  25.389  1.00  0.00    -0.275 OA
ATOM      6  H   UNL A   1      32.228  31.641  27.029  1.00  0.00     0.163 HD
BRANCH   4   7
ATOM      7  C   UNL A   1      33.165  28.690  25.686  1.00  0.00     0.082 C 
ATOM      8  N   UNL A   1      32.979  26.024  24.749  1.00  0.00    -0.340 N 
ATOM      9  C   UNL A   1      33.231  26.178  26.175  1.00  0.00     0.120 C 
ATOM     10  C   UNL A   1      33.651  26.969  23.875  1.00  0.00     0.120 C 
ATOM     11  C   UNL A   1      32.770  27.553  26.646  1.00  0.00     0.035 C 
ATOM     12  C   UNL A   1      33.107  28.358  24.184  1.00  0.00     0.035 C 
BRANCH   8  13
ATOM     13  C   UNL A   1      32.211  25.030  24.245  1.00  0.00     0.235 A 
ATOM     14  C   UNL A   1      31.827  23.025  23.504  1.00  0.00     0.230 A 
ATOM     15  N   UNL A   1      30.658  23.618  23.377  1.00  0.00    -0.196 NA
ATOM     16  O   UNL A   1      32.827  23.836  23.976  1.00  0.00    -0.419 OA
ATOM     17  C   UNL A   1      30.881  24.872  23.900  1.00  0.00     0.204 A 
BRANCH  14  18
ATOM     18  C   UNL A   1      32.180  21.633  23.262  1.00  0.00     0.037 A 
ATOM     19  C   UNL A   1      32.641  18.889  22.924  1.00  0.00     0.119 A 
ATOM     20  C   UNL A   1      32.045  19.619  21.898  1.00  0.00     0.047 A 
ATOM     21  C   UNL A   1      33.092  19.535  24.070  1.00  0.00     0.047 A 
ATOM     22  C   UNL A   1      31.808  20.989  22.071  1.00  0.00     0.017 A 
ATOM     23  C   UNL A   1      32.838  20.893  24.252  1.00  0.00     0.017 A 
BRANCH  19  24
ATOM     24  O   UNL A   1      32.863  17.548  22.781  1.00  0.00    -0.494 OA
BRANCH  24  25
ATOM     25  C   UNL A   1      34.094  17.121  23.398  1.00  0.00     0.229 C 
BRANCH  25  26
ATOM     26  C   UNL A   1      33.877  16.182  24.593  1.00  0.00     0.038 C 
ATOM     27  C   UNL A   1      35.171  15.797  25.301  1.00  0.00     0.007 C 
ENDBRANCH  25  26
ENDBRANCH  24  25
ENDBRANCH  19  24
ENDBRANCH  14  18
BRANCH  17  28
ATOM     28  C   UNL A   1      29.860  25.852  23.924  1.00  0.00     0.125 C 
ATOM     29  N   UNL A   1      28.978  26.627  23.970  1.00  0.00    -0.190 NA
ENDBRANCH  17  28
ENDBRANCH   8  13
ENDBRANCH   4   7
ENDBRANCH   2   3
ENDBRANCH   1   2
BRANCH   1  30
ATOM     30  C   UNL A   1      35.460  32.378  29.216  1.00  0.00     0.002 C 
BRANCH  30  31
ATOM     31  C   UNL A   1      36.530  33.470  29.043  1.00  0.00     0.002 C 
BRANCH  31  32
ATOM     32  C   UNL A   1      37.215  33.966  30.327  1.00  0.00     0.021 C 
BRANCH  32  33
ATOM     33  C   UNL A   1      37.952  32.871  31.074  1.00  0.00     0.116 C 
BRANCH  33  34
ATOM     34  N   UNL A   1      37.664  32.864  32.514  1.00  0.00    -0.352 N 
ATOM     35  C   UNL A   1      37.826  31.824  33.419  1.00  0.00     0.251 C 
ATOM     36  H   UNL A   1      37.313  33.705  32.885  1.00  0.00     0.163 HD
ATOM     37  O   UNL A   1      37.209  31.810  34.477  1.00  0.00    -0.269 OA
BRANCH  35  38
ATOM     38  C   UNL A   1      38.792  30.756  33.096  1.00  0.00     0.039 A 
ATOM     39  C   UNL A   1      38.446  29.455  32.719  1.00  0.00     0.014 A 
ATOM     40  C   UNL A   1      40.122  31.117  33.149  1.00  0.00     0.014 A 
ATOM     41  C   UNL A   1      39.481  28.555  32.446  1.00  0.00     0.010 A 
ATOM     42  C   UNL A   1      40.983  30.403  32.387  1.00  0.00     0.010 A 
ATOM     43  C   UNL A   1      40.785  29.051  32.333  1.00  0.00    -0.014 A 
BRANCH  43  44
ATOM     44  C   UNL A   1      41.960  28.282  31.969  1.00  0.00     0.031 A 
ATOM     45  C   UNL A   1      42.625  27.710  33.157  1.00  0.00     0.074 A 
ATOM     46  C   UNL A   1      42.277  27.955  30.691  1.00  0.00     0.049 A 
ATOM     47  N   UNL A   1      43.639  28.216  33.769  1.00  0.00    -0.248 NA
ATOM     48  C   UNL A   1      41.951  26.642  33.913  1.00  0.00     0.031 C 
ATOM     49  C   UNL A   1      41.548  28.204  29.438  1.00  0.00     0.029 A 
ATOM     50  N   UNL A   1      43.373  27.271  30.245  1.00  0.00    -0.354 N 
ATOM     51  C   UNL A   1      43.913  27.354  34.819  1.00  0.00     0.074 A 
ATOM     52  C   UNL A   1      42.718  26.576  35.005  1.00  0.00     0.031 C 
ATOM     53  C   UNL A   1      42.112  27.506  28.419  1.00  0.00     0.029 A 
ATOM     54  C   UNL A   1      43.333  26.885  28.898  1.00  0.00     0.049 A 
ATOM     55  H   UNL A   1      44.138  27.065  30.830  1.00  0.00     0.167 HD
ATOM     56  C   UNL A   1      45.195  27.189  35.248  1.00  0.00     0.037 A 
ATOM     57  C   UNL A   1      44.267  26.126  28.253  1.00  0.00     0.037 A 
ATOM     58  C   UNL A   1      46.048  28.198  34.658  1.00  0.00     0.049 A 
ATOM     59  C   UNL A   1      45.522  26.257  29.053  1.00  0.00     0.074 A 
ATOM     60  C   UNL A   1      46.103  29.576  34.724  1.00  0.00     0.029 A 
ATOM     61  N   UNL A   1      46.721  27.845  33.509  1.00  0.00    -0.354 N 
ATOM     62  N   UNL A   1      46.165  27.390  29.182  1.00  0.00    -0.248 NA
ATOM     63  C   UNL A   1      45.718  25.301  30.134  1.00  0.00     0.031 C 
ATOM     64  C   UNL A   1      46.374  29.998  33.388  1.00  0.00     0.029 A 
ATOM     65  C   UNL A   1      46.584  28.866  32.599  1.00  0.00     0.049 A 
ATOM     66  H   UNL A   1      47.214  27.005  33.364  1.00  0.00     0.167 HD
ATOM     67  C   UNL A   1      46.478  27.470  30.533  1.00  0.00     0.074 A 
ATOM     68  C   UNL A   1      46.200  26.132  31.064  1.00  0.00     0.031 C 
ATOM     69  C   UNL A   1      46.624  28.676  31.163  1.00  0.00     0.037 A 
BRANCH  56  70
ATOM     70  C   UNL A   1      45.762  25.933  35.860  1.00  0.00     0.058 A 
ATOM     71  C   UNL A   1      45.827  24.769  35.065  1.00  0.00     0.135 A 
ATOM     72  C   UNL A   1      45.991  25.739  37.240  1.00  0.00     0.135 A 
ATOM     73  F   UNL A   1      45.642  24.835  33.737  1.00  0.00    -0.206 F 
ATOM     74  C   UNL A   1      46.015  23.500  35.609  1.00  0.00     0.059 A 
ATOM     75  C   UNL A   1      46.226  24.486  37.797  1.00  0.00     0.059 A 
ATOM     76  F   UNL A   1      45.914  26.734  38.130  1.00  0.00    -0.206 F 
ATOM     77  C   UNL A   1      46.200  23.368  36.980  1.00  0.00     0.060 A 
BRANCH  77  78
ATOM     78  S   UNL A   1      46.378  21.722  37.683  1.00  0.00     0.124 S 
ATOM     79  O   UNL A   1      45.690  20.902  36.693  1.00  0.00    -0.237 OA
ATOM     80  O   UNL A   1      47.829  21.576  37.740  1.00  0.00    -0.237 OA
ATOM     81  O   UNL A   1      45.715  21.836  38.980  1.00  0.00    -0.744 OA
ENDBRANCH  77  78
ENDBRANCH  56  70
BRANCH  57  82
ATOM     82  C   UNL A   1      44.039  24.977  27.319  1.00  0.00     0.058 A 
ATOM     83  C   UNL A   1      44.564  24.957  26.009  1.00  0.00     0.135 A 
ATOM     84  C   UNL A   1      43.563  23.741  27.799  1.00  0.00     0.135 A 
ATOM     85  F   UNL A   1      45.056  26.081  25.464  1.00  0.00    -0.206 F 
ATOM     86  C   UNL A   1      44.666  23.777  25.249  1.00  0.00     0.059 A 
ATOM     87  C   UNL A   1      43.654  22.556  27.064  1.00  0.00     0.059 A 
ATOM     88  F   UNL A   1      43.077  23.629  29.044  1.00  0.00    -0.206 F 
ATOM     89  C   UNL A   1      44.230  22.573  25.800  1.00  0.00     0.060 A 
BRANCH  89  90
ATOM     90  S   UNL A   1      44.529  21.012  24.925  1.00  0.00     0.124 S 
ATOM     91  O   UNL A   1      43.363  20.220  25.304  1.00  0.00    -0.237 OA
ATOM     92  O   UNL A   1      44.583  21.440  23.531  1.00  0.00    -0.237 OA
ATOM     93  O   UNL A   1      45.800  20.551  25.479  1.00  0.00    -0.744 OA
ENDBRANCH  89  90
ENDBRANCH  57  82
BRANCH  69  94
ATOM     94  C   UNL A   1      46.668  29.930  30.320  1.00  0.00     0.058 A 
ATOM     95  C   UNL A   1      47.782  30.375  29.583  1.00  0.00     0.135 A 
ATOM     96  C   UNL A   1      45.465  30.620  30.121  1.00  0.00     0.135 A 
ATOM     97  F   UNL A   1      48.949  29.718  29.632  1.00  0.00    -0.206 F 
ATOM     98  C   UNL A   1      47.711  31.475  28.721  1.00  0.00     0.059 A 
ATOM     99  C   UNL A   1      45.361  31.699  29.249  1.00  0.00     0.059 A 
ATOM    100  F   UNL A   1      44.347  30.210  30.744  1.00  0.00    -0.206 F 
ATOM    101  C   UNL A   1      46.492  32.134  28.562  1.00  0.00     0.060 A 
BRANCH 101 102
ATOM    102  S   UNL A   1      46.376  33.534  27.426  1.00  0.00     0.124 S 
ATOM    103  O   UNL A   1      46.305  32.870  26.129  1.00  0.00    -0.237 OA
ATOM    104  O   UNL A   1      45.154  34.201  27.866  1.00  0.00    -0.237 OA
ATOM    105  O   UNL A   1      47.607  34.280  27.677  1.00  0.00    -0.744 OA
ENDBRANCH 101 102
ENDBRANCH  69  94
ENDBRANCH  43  44
ENDBRANCH  35  38
ENDBRANCH  33  34
ENDBRANCH  32  33
ENDBRANCH  31  32
ENDBRANCH  30  31
ENDBRANCH   1  30
TORSDOF 22
ENDMDL
