MODEL 1
REMARK VINA RESULT:     -11.4      0.000      0.000
REMARK SMILES O=C(NCCCCCCNC(=O)c1ccc(-c2ccn(C(F)F)c(=O)c2)cc1O)c1ccc(-c2c3nc(c(-c4c(F)cc(S(=O)(=O)[O-])cc4F)c4ccc([nH]4)c(-c4c(F)cc(S(=O)(=O)[O-])cc4F)c4nc(c(-c5c(F)cc(S(=O)(=O)[O-])cc5F)c5ccc2[nH]5)C=C4)C=C3)cc1
REMARK SMILES IDX 6 1 5 2 4 3 3 4 1 5 2 6 30 8 31 9 95 10 32 11 94 12 33 13
REMARK SMILES IDX 34 14 35 15 88 16 36 17 93 18 87 19 89 20 37 21 92 22 86 23
REMARK SMILES IDX 85 24 38 26 72 27 51 28 71 29 52 30 55 31 70 32 90 33 53 34
REMARK SMILES IDX 54 35 69 37 91 38 56 39 39 40 40 41 49 42 41 43 42 44 48 45
REMARK SMILES IDX 50 46 43 47 44 48 45 49 46 50 47 51 73 52 74 53 83 54 75 55
REMARK SMILES IDX 76 56 82 57 84 58 77 59 78 60 79 61 80 62 81 63 57 64 58 65
REMARK SMILES IDX 67 66 59 67 60 68 66 69 68 70 61 71 62 72 63 73 64 74 65 75
REMARK SMILES IDX 7 76 8 77 9 78 10 79 11 80 12 82 13 83 14 84 28 85 15 86
REMARK SMILES IDX 27 87 16 88 29 89 17 91 18 92 26 93 19 94 24 95 20 96 25 97
REMARK SMILES IDX 21 98 22 99 23 100
REMARK H PARENT 3 7 89 25 55 36 10 81 29 90
REMARK Flexibility Score: inf
ROOT
ATOM      1  C   UNL A   1      33.906  26.205  25.290  1.00  0.00     0.002 C 
ENDROOT
BRANCH   1   2
ATOM      2  C   UNL A   1      33.399  27.509  25.916  1.00  0.00     0.021 C 
BRANCH   2   3
ATOM      3  C   UNL A   1      34.158  28.770  25.510  1.00  0.00     0.116 C 
BRANCH   3   4
ATOM      4  N   UNL A   1      33.687  29.945  26.219  1.00  0.00    -0.352 N 
ATOM      5  O   UNL A   1      33.542  31.436  27.894  1.00  0.00    -0.269 OA
ATOM      6  C   UNL A   1      34.195  30.552  27.338  1.00  0.00     0.251 C 
ATOM      7  H   UNL A   1      32.885  30.370  25.838  1.00  0.00     0.163 HD
BRANCH   6   8
ATOM      8  C   UNL A   1      35.510  30.155  27.888  1.00  0.00     0.039 A 
ATOM      9  C   UNL A   1      35.547  29.468  29.106  1.00  0.00     0.014 A 
ATOM     10  C   UNL A   1      36.704  30.514  27.256  1.00  0.00     0.014 A 
ATOM     11  C   UNL A   1      36.774  29.121  29.677  1.00  0.00     0.010 A 
ATOM     12  C   UNL A   1      37.928  30.125  27.801  1.00  0.00     0.010 A 
ATOM     13  C   UNL A   1      37.976  29.439  29.025  1.00  0.00    -0.014 A 
BRANCH  13  14
ATOM     14  C   UNL A   1      39.292  29.126  29.637  1.00  0.00     0.031 A 
ATOM     15  C   UNL A   1      39.783  29.945  30.801  1.00  0.00     0.074 A 
ATOM     16  C   UNL A   1      40.052  28.129  29.143  1.00  0.00     0.049 A 
ATOM     17  N   UNL A   1      40.946  29.920  31.399  1.00  0.00    -0.248 NA
ATOM     18  C   UNL A   1      38.844  30.934  31.359  1.00  0.00     0.031 C 
ATOM     19  C   UNL A   1      39.681  27.252  28.030  1.00  0.00     0.029 A 
ATOM     20  N   UNL A   1      41.299  27.687  29.512  1.00  0.00    -0.354 N 
ATOM     21  C   UNL A   1      40.882  30.886  32.397  1.00  0.00     0.074 A 
ATOM     22  C   UNL A   1      39.582  31.511  32.299  1.00  0.00     0.031 C 
ATOM     23  C   UNL A   1      40.671  26.367  27.820  1.00  0.00     0.029 A 
ATOM     24  C   UNL A   1      41.762  26.638  28.752  1.00  0.00     0.049 A 
ATOM     25  H   UNL A   1      41.813  28.084  30.250  1.00  0.00     0.167 HD
ATOM     26  C   UNL A   1      41.815  31.206  33.325  1.00  0.00     0.037 A 
ATOM     27  C   UNL A   1      42.936  25.979  28.797  1.00  0.00     0.037 A 
ATOM     28  C   UNL A   1      43.099  30.567  33.436  1.00  0.00     0.049 A 
ATOM     29  C   UNL A   1      43.972  26.388  29.812  1.00  0.00     0.074 A 
ATOM     30  C   UNL A   1      44.123  30.838  34.329  1.00  0.00     0.029 A 
ATOM     31  N   UNL A   1      43.529  29.511  32.647  1.00  0.00    -0.354 N 
ATOM     32  N   UNL A   1      43.907  27.330  30.723  1.00  0.00    -0.248 NA
ATOM     33  C   UNL A   1      45.240  25.645  29.805  1.00  0.00     0.031 C 
ATOM     34  C   UNL A   1      45.177  29.958  34.069  1.00  0.00     0.029 A 
ATOM     35  C   UNL A   1      44.796  29.114  33.040  1.00  0.00     0.049 A 
ATOM     36  H   UNL A   1      43.010  29.104  31.917  1.00  0.00     0.167 HD
ATOM     37  C   UNL A   1      45.109  27.263  31.421  1.00  0.00     0.074 A 
ATOM     38  C   UNL A   1      45.879  26.191  30.830  1.00  0.00     0.031 C 
ATOM     39  C   UNL A   1      45.534  28.022  32.460  1.00  0.00     0.037 A 
BRANCH  26  40
ATOM     40  C   UNL A   1      41.480  32.283  34.318  1.00  0.00     0.058 A 
ATOM     41  C   UNL A   1      41.797  33.627  34.066  1.00  0.00     0.135 A 
ATOM     42  C   UNL A   1      40.756  31.986  35.483  1.00  0.00     0.135 A 
ATOM     43  F   UNL A   1      42.507  33.961  32.977  1.00  0.00    -0.206 F 
ATOM     44  C   UNL A   1      41.407  34.639  34.935  1.00  0.00     0.059 A 
ATOM     45  C   UNL A   1      40.336  32.985  36.356  1.00  0.00     0.059 A 
ATOM     46  F   UNL A   1      40.433  30.716  35.773  1.00  0.00    -0.206 F 
ATOM     47  C   UNL A   1      40.668  34.310  36.072  1.00  0.00     0.060 A 
BRANCH  47  48
ATOM     48  S   UNL A   1      40.120  35.646  37.156  1.00  0.00     0.124 S 
ATOM     49  O   UNL A   1      39.727  36.666  36.189  1.00  0.00    -0.237 OA
ATOM     50  O   UNL A   1      39.030  35.019  37.896  1.00  0.00    -0.237 OA
ATOM     51  O   UNL A   1      41.310  35.955  37.943  1.00  0.00    -0.744 OA
ENDBRANCH  47  48
ENDBRANCH  26  40
BRANCH  27  52
ATOM     52  C   UNL A   1      43.206  24.852  27.865  1.00  0.00     0.058 A 
ATOM     53  C   UNL A   1      42.917  23.531  28.236  1.00  0.00     0.135 A 
ATOM     54  C   UNL A   1      43.785  25.066  26.605  1.00  0.00     0.135 A 
ATOM     55  F   UNL A   1      42.370  23.276  29.434  1.00  0.00    -0.206 F 
ATOM     56  C   UNL A   1      43.220  22.457  27.406  1.00  0.00     0.059 A 
ATOM     57  C   UNL A   1      44.075  24.010  25.746  1.00  0.00     0.059 A 
ATOM     58  F   UNL A   1      44.067  26.313  26.196  1.00  0.00    -0.206 F 
ATOM     59  C   UNL A   1      43.805  22.707  26.164  1.00  0.00     0.060 A 
BRANCH  59  60
ATOM     60  S   UNL A   1      44.184  21.308  25.086  1.00  0.00     0.124 S 
ATOM     61  O   UNL A   1      45.495  20.906  25.580  1.00  0.00    -0.237 OA
ATOM     62  O   UNL A   1      43.085  20.392  25.371  1.00  0.00    -0.237 OA
ATOM     63  O   UNL A   1      44.166  21.902  23.752  1.00  0.00    -0.744 OA
ENDBRANCH  59  60
ENDBRANCH  27  52
BRANCH  39  64
ATOM     64  C   UNL A   1      46.864  27.681  33.070  1.00  0.00     0.058 A 
ATOM     65  C   UNL A   1      46.983  26.747  34.110  1.00  0.00     0.135 A 
ATOM     66  C   UNL A   1      48.040  28.261  32.568  1.00  0.00     0.135 A 
ATOM     67  F   UNL A   1      45.887  26.168  34.627  1.00  0.00    -0.206 F 
ATOM     68  C   UNL A   1      48.222  26.417  34.649  1.00  0.00     0.059 A 
ATOM     69  C   UNL A   1      49.291  27.928  33.075  1.00  0.00     0.059 A 
ATOM     70  F   UNL A   1      47.980  29.152  31.566  1.00  0.00    -0.206 F 
ATOM     71  C   UNL A   1      49.371  27.014  34.125  1.00  0.00     0.060 A 
BRANCH  71  72
ATOM     72  S   UNL A   1      50.975  26.556  34.816  1.00  0.00     0.124 S 
ATOM     73  O   UNL A   1      51.329  27.762  35.558  1.00  0.00    -0.237 OA
ATOM     74  O   UNL A   1      50.646  25.388  35.625  1.00  0.00    -0.237 OA
ATOM     75  O   UNL A   1      51.790  26.285  33.635  1.00  0.00    -0.744 OA
ENDBRANCH  71  72
ENDBRANCH  39  64
ENDBRANCH  13  14
ENDBRANCH   6   8
ENDBRANCH   3   4
ENDBRANCH   2   3
ENDBRANCH   1   2
BRANCH   1  76
ATOM     76  C   UNL A   1      33.620  24.929  26.086  1.00  0.00     0.002 C 
BRANCH  76  77
ATOM     77  C   UNL A   1      34.493  23.721  25.736  1.00  0.00     0.021 C 
BRANCH  77  78
ATOM     78  C   UNL A   1      34.745  23.510  24.245  1.00  0.00     0.116 C 
BRANCH  78  79
ATOM     79  N   UNL A   1      33.929  22.443  23.691  1.00  0.00    -0.352 N 
ATOM     80  C   UNL A   1      32.673  22.531  23.143  1.00  0.00     0.255 C 
ATOM     81  H   UNL A   1      34.328  21.544  23.710  1.00  0.00     0.163 HD
ATOM     82  O   UNL A   1      32.080  21.519  22.771  1.00  0.00    -0.269 OA
BRANCH  80  83
ATOM     83  C   UNL A   1      31.991  23.838  23.073  1.00  0.00     0.081 A 
ATOM     84  C   UNL A   1      30.932  24.062  23.961  1.00  0.00     0.018 A 
ATOM     85  C   UNL A   1      32.360  24.831  22.161  1.00  0.00     0.128 A 
ATOM     86  C   UNL A   1      30.279  25.297  23.972  1.00  0.00     0.010 A 
ATOM     87  C   UNL A   1      31.713  26.067  22.177  1.00  0.00     0.055 A 
ATOM     88  C   UNL A   1      30.674  26.311  23.090  1.00  0.00    -0.014 A 
BRANCH  85  89
ATOM     89  O   UNL A   1      33.359  24.606  21.256  1.00  0.00    -0.507 OA
ATOM     90  H   UNL A   1      33.489  23.746  20.907  1.00  0.00     0.293 HD
ENDBRANCH  85  89
BRANCH  88  91
ATOM     91  C   UNL A   1      30.024  27.636  23.097  1.00  0.00    -0.011 A 
ATOM     92  C   UNL A   1      30.778  28.873  23.165  1.00  0.00     0.027 A 
ATOM     93  C   UNL A   1      28.680  27.692  23.106  1.00  0.00     0.080 A 
ATOM     94  C   UNL A   1      30.150  30.048  23.284  1.00  0.00     0.095 A 
ATOM     95  C   UNL A   1      27.968  28.996  23.201  1.00  0.00     0.255 A 
ATOM     96  N   UNL A   1      28.770  30.118  23.317  1.00  0.00    -0.258 N 
ATOM     97  O   UNL A   1      26.738  28.995  23.179  1.00  0.00    -0.269 OA
BRANCH  96  98
ATOM     98  C   UNL A   1      28.105  31.385  23.476  1.00  0.00     0.451 C 
ATOM     99  F   UNL A   1      27.567  31.805  22.307  1.00  0.00    -0.185 F 
ATOM    100  F   UNL A   1      27.111  31.302  24.392  1.00  0.00    -0.185 F 
ENDBRANCH  96  98
ENDBRANCH  88  91
ENDBRANCH  80  83
ENDBRANCH  78  79
ENDBRANCH  77  78
ENDBRANCH  76  77
ENDBRANCH   1  76
TORSDOF 19
ENDMDL
MODEL 2
REMARK VINA RESULT:     -11.4      3.449      9.219
REMARK SMILES O=C(NCCCCCCNC(=O)c1ccc(-c2ccn(C(F)F)c(=O)c2)cc1O)c1ccc(-c2c3nc(c(-c4c(F)cc(S(=O)(=O)[O-])cc4F)c4ccc([nH]4)c(-c4c(F)cc(S(=O)(=O)[O-])cc4F)c4nc(c(-c5c(F)cc(S(=O)(=O)[O-])cc5F)c5ccc2[nH]5)C=C4)C=C3)cc1
REMARK SMILES IDX 6 1 5 2 4 3 3 4 1 5 2 6 30 8 31 9 95 10 32 11 94 12 33 13
REMARK SMILES IDX 34 14 35 15 88 16 36 17 93 18 87 19 89 20 37 21 92 22 86 23
REMARK SMILES IDX 85 24 38 26 72 27 51 28 71 29 52 30 55 31 70 32 90 33 53 34
REMARK SMILES IDX 54 35 69 37 91 38 56 39 39 40 40 41 49 42 41 43 42 44 48 45
REMARK SMILES IDX 50 46 43 47 44 48 45 49 46 50 47 51 73 52 74 53 83 54 75 55
REMARK SMILES IDX 76 56 82 57 84 58 77 59 78 60 79 61 80 62 81 63 57 64 58 65
REMARK SMILES IDX 67 66 59 67 60 68 66 69 68 70 61 71 62 72 63 73 64 74 65 75
REMARK SMILES IDX 7 76 8 77 9 78 10 79 11 80 12 82 13 83 14 84 28 85 15 86
REMARK SMILES IDX 27 87 16 88 29 89 17 91 18 92 26 93 19 94 24 95 20 96 25 97
REMARK SMILES IDX 21 98 22 99 23 100
REMARK H PARENT 3 7 89 25 55 36 10 81 29 90
REMARK Flexibility Score: inf
ROOT
ATOM      1  C   UNL A   1      37.621  21.712  25.634  1.00  0.00     0.002 C 
ENDROOT
BRANCH   1   2
ATOM      2  C   UNL A   1      37.378  23.217  25.480  1.00  0.00     0.021 C 
BRANCH   2   3
ATOM      3  C   UNL A   1      38.254  24.114  26.352  1.00  0.00     0.116 C 
BRANCH   3   4
ATOM      4  N   UNL A   1      39.669  23.885  26.128  1.00  0.00    -0.352 N 
ATOM      5  O   UNL A   1      41.869  24.344  26.125  1.00  0.00    -0.269 OA
ATOM      6  C   UNL A   1      40.752  24.595  26.578  1.00  0.00     0.251 C 
ATOM      7  H   UNL A   1      39.883  23.103  25.569  1.00  0.00     0.163 HD
BRANCH   6   8
ATOM      8  C   UNL A   1      40.593  25.659  27.595  1.00  0.00     0.039 A 
ATOM      9  C   UNL A   1      41.480  26.740  27.577  1.00  0.00     0.014 A 
ATOM     10  C   UNL A   1      39.631  25.565  28.604  1.00  0.00     0.014 A 
ATOM     11  C   UNL A   1      41.389  27.737  28.552  1.00  0.00     0.010 A 
ATOM     12  C   UNL A   1      39.508  26.585  29.550  1.00  0.00     0.010 A 
ATOM     13  C   UNL A   1      40.396  27.672  29.542  1.00  0.00    -0.014 A 
BRANCH  13  14
ATOM     14  C   UNL A   1      40.312  28.693  30.618  1.00  0.00     0.031 A 
ATOM     15  C   UNL A   1      41.247  28.608  31.796  1.00  0.00     0.074 A 
ATOM     16  C   UNL A   1      39.393  29.676  30.553  1.00  0.00     0.049 A 
ATOM     17  N   UNL A   1      41.260  29.318  32.894  1.00  0.00    -0.248 NA
ATOM     18  C   UNL A   1      42.300  27.579  31.734  1.00  0.00     0.031 C 
ATOM     19  C   UNL A   1      38.442  29.876  29.457  1.00  0.00     0.029 A 
ATOM     20  N   UNL A   1      39.106  30.691  31.431  1.00  0.00    -0.354 N 
ATOM     21  C   UNL A   1      42.315  28.823  33.654  1.00  0.00     0.074 A 
ATOM     22  C   UNL A   1      42.892  27.724  32.912  1.00  0.00     0.031 C 
ATOM     23  C   UNL A   1      37.691  30.959  29.721  1.00  0.00     0.029 A 
ATOM     24  C   UNL A   1      38.075  31.504  31.020  1.00  0.00     0.049 A 
ATOM     25  H   UNL A   1      39.592  30.825  32.276  1.00  0.00     0.167 HD
ATOM     26  C   UNL A   1      42.772  29.260  34.851  1.00  0.00     0.037 A 
ATOM     27  C   UNL A   1      37.500  32.561  31.627  1.00  0.00     0.037 A 
ATOM     28  C   UNL A   1      42.211  30.368  35.577  1.00  0.00     0.049 A 
ATOM     29  C   UNL A   1      38.003  32.996  32.979  1.00  0.00     0.074 A 
ATOM     30  C   UNL A   1      42.591  30.872  36.810  1.00  0.00     0.029 A 
ATOM     31  N   UNL A   1      41.168  31.163  35.126  1.00  0.00    -0.354 N 
ATOM     32  N   UNL A   1      38.977  32.491  33.699  1.00  0.00    -0.248 NA
ATOM     33  C   UNL A   1      37.329  34.144  33.602  1.00  0.00     0.031 C 
ATOM     34  C   UNL A   1      41.767  31.960  37.112  1.00  0.00     0.029 A 
ATOM     35  C   UNL A   1      40.899  32.157  36.051  1.00  0.00     0.049 A 
ATOM     36  H   UNL A   1      40.690  31.038  34.275  1.00  0.00     0.167 HD
ATOM     37  C   UNL A   1      39.056  33.285  34.838  1.00  0.00     0.074 A 
ATOM     38  C   UNL A   1      38.035  34.304  34.712  1.00  0.00     0.031 C 
ATOM     39  C   UNL A   1      39.900  33.181  35.893  1.00  0.00     0.037 A 
BRANCH  26  40
ATOM     40  C   UNL A   1      43.958  28.557  35.450  1.00  0.00     0.058 A 
ATOM     41  C   UNL A   1      45.268  28.978  35.173  1.00  0.00     0.135 A 
ATOM     42  C   UNL A   1      43.784  27.518  36.378  1.00  0.00     0.135 A 
ATOM     43  F   UNL A   1      45.488  29.953  34.276  1.00  0.00    -0.206 F 
ATOM     44  C   UNL A   1      46.365  28.396  35.796  1.00  0.00     0.059 A 
ATOM     45  C   UNL A   1      44.867  26.935  37.030  1.00  0.00     0.059 A 
ATOM     46  F   UNL A   1      42.553  27.075  36.674  1.00  0.00    -0.206 F 
ATOM     47  C   UNL A   1      46.154  27.381  36.731  1.00  0.00     0.060 A 
BRANCH  47  48
ATOM     48  S   UNL A   1      47.588  26.678  37.573  1.00  0.00     0.124 S 
ATOM     49  O   UNL A   1      47.463  25.264  37.232  1.00  0.00    -0.237 OA
ATOM     50  O   UNL A   1      48.697  27.388  36.943  1.00  0.00    -0.237 OA
ATOM     51  O   UNL A   1      47.354  27.006  38.976  1.00  0.00    -0.744 OA
ENDBRANCH  47  48
ENDBRANCH  26  40
BRANCH  27  52
ATOM     52  C   UNL A   1      36.391  33.299  30.968  1.00  0.00     0.058 A 
ATOM     53  C   UNL A   1      36.634  34.109  29.849  1.00  0.00     0.135 A 
ATOM     54  C   UNL A   1      35.078  33.239  31.459  1.00  0.00     0.135 A 
ATOM     55  F   UNL A   1      37.875  34.204  29.349  1.00  0.00    -0.206 F 
ATOM     56  C   UNL A   1      35.623  34.858  29.257  1.00  0.00     0.059 A 
ATOM     57  C   UNL A   1      34.043  33.960  30.868  1.00  0.00     0.059 A 
ATOM     58  F   UNL A   1      34.789  32.467  32.518  1.00  0.00    -0.206 F 
ATOM     59  C   UNL A   1      34.331  34.781  29.778  1.00  0.00     0.060 A 
BRANCH  59  60
ATOM     60  S   UNL A   1      33.020  35.747  28.996  1.00  0.00     0.124 S 
ATOM     61  O   UNL A   1      32.362  34.736  28.177  1.00  0.00    -0.237 OA
ATOM     62  O   UNL A   1      32.263  36.229  30.146  1.00  0.00    -0.237 OA
ATOM     63  O   UNL A   1      33.756  36.773  28.263  1.00  0.00    -0.744 OA
ENDBRANCH  59  60
ENDBRANCH  27  52
BRANCH  39  64
ATOM     64  C   UNL A   1      39.804  34.230  36.964  1.00  0.00     0.058 A 
ATOM     65  C   UNL A   1      40.409  35.488  36.824  1.00  0.00     0.135 A 
ATOM     66  C   UNL A   1      39.051  33.987  38.125  1.00  0.00     0.135 A 
ATOM     67  F   UNL A   1      41.144  35.767  35.735  1.00  0.00    -0.206 F 
ATOM     68  C   UNL A   1      40.292  36.462  37.810  1.00  0.00     0.059 A 
ATOM     69  C   UNL A   1      38.900  34.955  39.112  1.00  0.00     0.059 A 
ATOM     70  F   UNL A   1      38.443  32.803  38.300  1.00  0.00    -0.206 F 
ATOM     71  C   UNL A   1      39.534  36.186  38.951  1.00  0.00     0.060 A 
BRANCH  71  72
ATOM     72  S   UNL A   1      39.367  37.469  40.210  1.00  0.00     0.124 S 
ATOM     73  O   UNL A   1      38.718  36.735  41.292  1.00  0.00    -0.237 OA
ATOM     74  O   UNL A   1      40.753  37.856  40.449  1.00  0.00    -0.237 OA
ATOM     75  O   UNL A   1      38.543  38.482  39.557  1.00  0.00    -0.744 OA
ENDBRANCH  71  72
ENDBRANCH  39  64
ENDBRANCH  13  14
ENDBRANCH   6   8
ENDBRANCH   3   4
ENDBRANCH   2   3
ENDBRANCH   1   2
BRANCH   1  76
ATOM     76  C   UNL A   1      36.635  20.800  24.899  1.00  0.00     0.002 C 
BRANCH  76  77
ATOM     77  C   UNL A   1      35.387  21.490  24.342  1.00  0.00     0.021 C 
BRANCH  77  78
ATOM     78  C   UNL A   1      34.080  21.143  25.050  1.00  0.00     0.116 C 
BRANCH  78  79
ATOM     79  N   UNL A   1      34.187  21.249  26.496  1.00  0.00    -0.352 N 
ATOM     80  C   UNL A   1      33.710  22.243  27.312  1.00  0.00     0.255 C 
ATOM     81  H   UNL A   1      34.662  20.514  26.945  1.00  0.00     0.163 HD
ATOM     82  O   UNL A   1      33.938  22.225  28.521  1.00  0.00    -0.269 OA
BRANCH  80  83
ATOM     83  C   UNL A   1      32.986  23.390  26.729  1.00  0.00     0.081 A 
ATOM     84  C   UNL A   1      33.750  24.402  26.137  1.00  0.00     0.018 A 
ATOM     85  C   UNL A   1      31.592  23.493  26.757  1.00  0.00     0.128 A 
ATOM     86  C   UNL A   1      33.118  25.490  25.528  1.00  0.00     0.010 A 
ATOM     87  C   UNL A   1      30.960  24.574  26.143  1.00  0.00     0.055 A 
ATOM     88  C   UNL A   1      31.719  25.575  25.515  1.00  0.00    -0.014 A 
BRANCH  85  89
ATOM     89  O   UNL A   1      30.838  22.535  27.376  1.00  0.00    -0.507 OA
ATOM     90  H   UNL A   1      31.256  21.810  27.797  1.00  0.00     0.293 HD
ENDBRANCH  85  89
BRANCH  88  91
ATOM     91  C   UNL A   1      31.021  26.695  24.854  1.00  0.00    -0.011 A 
ATOM     92  C   UNL A   1      29.935  26.490  23.915  1.00  0.00     0.027 A 
ATOM     93  C   UNL A   1      31.454  27.947  25.085  1.00  0.00     0.080 A 
ATOM     94  C   UNL A   1      29.404  27.523  23.252  1.00  0.00     0.095 A 
ATOM     95  C   UNL A   1      30.846  29.110  24.382  1.00  0.00     0.255 A 
ATOM     96  N   UNL A   1      29.854  28.812  23.463  1.00  0.00    -0.258 N 
ATOM     97  O   UNL A   1      31.259  30.237  24.648  1.00  0.00    -0.269 OA
BRANCH  96  98
ATOM     98  C   UNL A   1      29.296  29.913  22.722  1.00  0.00     0.451 C 
ATOM     99  F   UNL A   1      30.056  30.209  21.640  1.00  0.00    -0.185 F 
ATOM    100  F   UNL A   1      28.044  29.627  22.292  1.00  0.00    -0.185 F 
ENDBRANCH  96  98
ENDBRANCH  88  91
ENDBRANCH  80  83
ENDBRANCH  78  79
ENDBRANCH  77  78
ENDBRANCH  76  77
ENDBRANCH   1  76
TORSDOF 19
ENDMDL
MODEL 3
REMARK VINA RESULT:     -11.2      2.909      8.544
REMARK SMILES O=C(NCCCCCCNC(=O)c1ccc(-c2ccn(C(F)F)c(=O)c2)cc1O)c1ccc(-c2c3nc(c(-c4c(F)cc(S(=O)(=O)[O-])cc4F)c4ccc([nH]4)c(-c4c(F)cc(S(=O)(=O)[O-])cc4F)c4nc(c(-c5c(F)cc(S(=O)(=O)[O-])cc5F)c5ccc2[nH]5)C=C4)C=C3)cc1
REMARK SMILES IDX 6 1 5 2 4 3 3 4 1 5 2 6 30 8 31 9 95 10 32 11 94 12 33 13
REMARK SMILES IDX 34 14 35 15 88 16 36 17 93 18 87 19 89 20 37 21 92 22 86 23
REMARK SMILES IDX 85 24 38 26 72 27 51 28 71 29 52 30 55 31 70 32 90 33 53 34
REMARK SMILES IDX 54 35 69 37 91 38 56 39 39 40 40 41 49 42 41 43 42 44 48 45
REMARK SMILES IDX 50 46 43 47 44 48 45 49 46 50 47 51 73 52 74 53 83 54 75 55
REMARK SMILES IDX 76 56 82 57 84 58 77 59 78 60 79 61 80 62 81 63 57 64 58 65
REMARK SMILES IDX 67 66 59 67 60 68 66 69 68 70 61 71 62 72 63 73 64 74 65 75
REMARK SMILES IDX 7 76 8 77 9 78 10 79 11 80 12 82 13 83 14 84 28 85 15 86
REMARK SMILES IDX 27 87 16 88 29 89 17 91 18 92 26 93 19 94 24 95 20 96 25 97
REMARK SMILES IDX 21 98 22 99 23 100
REMARK H PARENT 3 7 89 25 55 36 10 81 29 90
REMARK Flexibility Score: inf
ROOT
ATOM      1  C   UNL A   1      35.766  21.861  24.194  1.00  0.00     0.002 C 
ENDROOT
BRANCH   1   2
ATOM      2  C   UNL A   1      35.663  23.355  24.518  1.00  0.00     0.021 C 
BRANCH   2   3
ATOM      3  C   UNL A   1      36.818  23.929  25.335  1.00  0.00     0.116 C 
BRANCH   3   4
ATOM      4  N   UNL A   1      37.881  22.963  25.537  1.00  0.00    -0.352 N 
ATOM      5  O   UNL A   1      39.940  22.223  26.052  1.00  0.00    -0.269 OA
ATOM      6  C   UNL A   1      39.100  23.119  26.144  1.00  0.00     0.251 C 
ATOM      7  H   UNL A   1      37.700  22.061  25.186  1.00  0.00     0.163 HD
BRANCH   6   8
ATOM      8  C   UNL A   1      39.420  24.350  26.902  1.00  0.00     0.039 A 
ATOM      9  C   UNL A   1      40.207  25.328  26.288  1.00  0.00     0.014 A 
ATOM     10  C   UNL A   1      39.015  24.514  28.230  1.00  0.00     0.014 A 
ATOM     11  C   UNL A   1      40.568  26.481  26.993  1.00  0.00     0.010 A 
ATOM     12  C   UNL A   1      39.334  25.686  28.918  1.00  0.00     0.010 A 
ATOM     13  C   UNL A   1      40.127  26.673  28.311  1.00  0.00    -0.014 A 
BRANCH  13  14
ATOM     14  C   UNL A   1      40.540  27.864  29.096  1.00  0.00     0.031 A 
ATOM     15  C   UNL A   1      41.889  27.881  29.765  1.00  0.00     0.074 A 
ATOM     16  C   UNL A   1      39.705  28.914  29.228  1.00  0.00     0.049 A 
ATOM     17  N   UNL A   1      42.392  28.762  30.591  1.00  0.00    -0.248 NA
ATOM     18  C   UNL A   1      42.788  26.751  29.474  1.00  0.00     0.031 C 
ATOM     19  C   UNL A   1      38.380  29.026  28.616  1.00  0.00     0.029 A 
ATOM     20  N   UNL A   1      39.849  30.089  29.924  1.00  0.00    -0.354 N 
ATOM     21  C   UNL A   1      43.659  28.294  30.921  1.00  0.00     0.074 A 
ATOM     22  C   UNL A   1      43.833  27.030  30.240  1.00  0.00     0.031 C 
ATOM     23  C   UNL A   1      37.841  30.212  28.949  1.00  0.00     0.029 A 
ATOM     24  C   UNL A   1      38.762  30.925  29.830  1.00  0.00     0.049 A 
ATOM     25  H   UNL A   1      40.655  30.312  30.443  1.00  0.00     0.167 HD
ATOM     26  C   UNL A   1      44.598  28.876  31.703  1.00  0.00     0.037 A 
ATOM     27  C   UNL A   1      38.530  32.125  30.399  1.00  0.00     0.037 A 
ATOM     28  C   UNL A   1      44.432  30.145  32.360  1.00  0.00     0.049 A 
ATOM     29  C   UNL A   1      39.577  32.727  31.299  1.00  0.00     0.074 A 
ATOM     30  C   UNL A   1      45.318  30.807  33.193  1.00  0.00     0.029 A 
ATOM     31  N   UNL A   1      43.315  30.958  32.240  1.00  0.00    -0.354 N 
ATOM     32  N   UNL A   1      40.754  32.251  31.629  1.00  0.00    -0.248 NA
ATOM     33  C   UNL A   1      39.265  34.029  31.904  1.00  0.00     0.031 C 
ATOM     34  C   UNL A   1      44.731  32.012  33.590  1.00  0.00     0.029 A 
ATOM     35  C   UNL A   1      43.495  32.118  32.974  1.00  0.00     0.049 A 
ATOM     36  H   UNL A   1      42.514  30.742  31.711  1.00  0.00     0.167 HD
ATOM     37  C   UNL A   1      41.336  33.214  32.447  1.00  0.00     0.074 A 
ATOM     38  C   UNL A   1      40.385  34.299  32.560  1.00  0.00     0.031 C 
ATOM     39  C   UNL A   1      42.550  33.201  33.049  1.00  0.00     0.037 A 
BRANCH  26  40
ATOM     40  C   UNL A   1      45.910  28.163  31.877  1.00  0.00     0.058 A 
ATOM     41  C   UNL A   1      47.005  28.444  31.045  1.00  0.00     0.135 A 
ATOM     42  C   UNL A   1      46.103  27.262  32.936  1.00  0.00     0.135 A 
ATOM     43  F   UNL A   1      46.866  29.282  30.005  1.00  0.00    -0.206 F 
ATOM     44  C   UNL A   1      48.248  27.860  31.259  1.00  0.00     0.059 A 
ATOM     45  C   UNL A   1      47.344  26.681  33.182  1.00  0.00     0.059 A 
ATOM     46  F   UNL A   1      45.087  26.955  33.756  1.00  0.00    -0.206 F 
ATOM     47  C   UNL A   1      48.411  26.987  32.336  1.00  0.00     0.060 A 
BRANCH  47  48
ATOM     48  S   UNL A   1      50.047  26.284  32.631  1.00  0.00     0.124 S 
ATOM     49  O   UNL A   1      50.640  27.285  33.513  1.00  0.00    -0.237 OA
ATOM     50  O   UNL A   1      49.727  25.002  33.250  1.00  0.00    -0.237 OA
ATOM     51  O   UNL A   1      50.629  26.204  31.295  1.00  0.00    -0.744 OA
ENDBRANCH  47  48
ENDBRANCH  26  40
BRANCH  27  52
ATOM     52  C   UNL A   1      37.262  32.855  30.133  1.00  0.00     0.058 A 
ATOM     53  C   UNL A   1      36.161  32.715  30.991  1.00  0.00     0.135 A 
ATOM     54  C   UNL A   1      37.113  33.676  29.005  1.00  0.00     0.135 A 
ATOM     55  F   UNL A   1      36.254  31.934  32.078  1.00  0.00    -0.206 F 
ATOM     56  C   UNL A   1      34.946  33.338  30.726  1.00  0.00     0.059 A 
ATOM     57  C   UNL A   1      35.914  34.330  28.731  1.00  0.00     0.059 A 
ATOM     58  F   UNL A   1      38.141  33.855  28.161  1.00  0.00    -0.206 F 
ATOM     59  C   UNL A   1      34.831  34.140  29.589  1.00  0.00     0.060 A 
BRANCH  59  60
ATOM     60  S   UNL A   1      33.254  34.956  29.259  1.00  0.00     0.124 S 
ATOM     61  O   UNL A   1      32.679  34.080  28.245  1.00  0.00    -0.237 OA
ATOM     62  O   UNL A   1      32.611  34.926  30.568  1.00  0.00    -0.237 OA
ATOM     63  O   UNL A   1      33.656  36.281  28.795  1.00  0.00    -0.744 OA
ENDBRANCH  59  60
ENDBRANCH  27  52
BRANCH  39  64
ATOM     64  C   UNL A   1      42.950  34.421  33.829  1.00  0.00     0.058 A 
ATOM     65  C   UNL A   1      42.679  34.544  35.199  1.00  0.00     0.135 A 
ATOM     66  C   UNL A   1      43.662  35.458  33.202  1.00  0.00     0.135 A 
ATOM     67  F   UNL A   1      41.998  33.582  35.843  1.00  0.00    -0.206 F 
ATOM     68  C   UNL A   1      43.078  35.666  35.919  1.00  0.00     0.059 A 
ATOM     69  C   UNL A   1      44.092  36.577  33.907  1.00  0.00     0.059 A 
ATOM     70  F   UNL A   1      43.956  35.381  31.895  1.00  0.00    -0.206 F 
ATOM     71  C   UNL A   1      43.784  36.677  35.263  1.00  0.00     0.060 A 
BRANCH  71  72
ATOM     72  S   UNL A   1      44.320  38.115  36.215  1.00  0.00     0.124 S 
ATOM     73  O   UNL A   1      43.896  39.212  35.351  1.00  0.00    -0.237 OA
ATOM     74  O   UNL A   1      43.573  37.963  37.459  1.00  0.00    -0.237 OA
ATOM     75  O   UNL A   1      45.764  37.929  36.330  1.00  0.00    -0.744 OA
ENDBRANCH  71  72
ENDBRANCH  39  64
ENDBRANCH  13  14
ENDBRANCH   6   8
ENDBRANCH   3   4
ENDBRANCH   2   3
ENDBRANCH   1   2
BRANCH   1  76
ATOM     76  C   UNL A   1      34.644  20.980  24.750  1.00  0.00     0.002 C 
BRANCH  76  77
ATOM     77  C   UNL A   1      33.252  21.235  24.165  1.00  0.00     0.021 C 
BRANCH  77  78
ATOM     78  C   UNL A   1      32.103  21.171  25.168  1.00  0.00     0.116 C 
BRANCH  78  79
ATOM     79  N   UNL A   1      32.541  21.419  26.531  1.00  0.00    -0.352 N 
ATOM     80  C   UNL A   1      32.500  22.595  27.235  1.00  0.00     0.255 C 
ATOM     81  H   UNL A   1      32.915  20.644  27.008  1.00  0.00     0.163 HD
ATOM     82  O   UNL A   1      32.972  22.664  28.370  1.00  0.00    -0.269 OA
BRANCH  80  83
ATOM     83  C   UNL A   1      31.958  23.814  26.602  1.00  0.00     0.081 A 
ATOM     84  C   UNL A   1      32.875  24.711  26.041  1.00  0.00     0.018 A 
ATOM     85  C   UNL A   1      30.590  24.093  26.554  1.00  0.00     0.128 A 
ATOM     86  C   UNL A   1      32.419  25.859  25.388  1.00  0.00     0.010 A 
ATOM     87  C   UNL A   1      30.133  25.234  25.895  1.00  0.00     0.055 A 
ATOM     88  C   UNL A   1      31.045  26.120  25.299  1.00  0.00    -0.014 A 
BRANCH  85  89
ATOM     89  O   UNL A   1      29.688  23.249  27.141  1.00  0.00    -0.507 OA
ATOM     90  H   UNL A   1      28.978  22.900  26.639  1.00  0.00     0.293 HD
ENDBRANCH  85  89
BRANCH  88  91
ATOM     91  C   UNL A   1      30.531  27.308  24.590  1.00  0.00    -0.011 A 
ATOM     92  C   UNL A   1      31.232  28.578  24.589  1.00  0.00     0.027 A 
ATOM     93  C   UNL A   1      29.336  27.224  23.977  1.00  0.00     0.080 A 
ATOM     94  C   UNL A   1      30.680  29.661  24.030  1.00  0.00     0.095 A 
ATOM     95  C   UNL A   1      28.728  28.413  23.320  1.00  0.00     0.255 A 
ATOM     96  N   UNL A   1      29.444  29.594  23.417  1.00  0.00    -0.258 N 
ATOM     97  O   UNL A   1      27.646  28.278  22.750  1.00  0.00    -0.269 OA
BRANCH  96  98
ATOM     98  C   UNL A   1      28.845  30.772  22.846  1.00  0.00     0.451 C 
ATOM     99  F   UNL A   1      28.712  31.751  23.773  1.00  0.00    -0.185 F 
ATOM    100  F   UNL A   1      29.595  31.255  21.827  1.00  0.00    -0.185 F 
ENDBRANCH  96  98
ENDBRANCH  88  91
ENDBRANCH  80  83
ENDBRANCH  78  79
ENDBRANCH  77  78
ENDBRANCH  76  77
ENDBRANCH   1  76
TORSDOF 19
ENDMDL
