MODEL 1
REMARK VINA RESULT:     -10.8      0.000      0.000
REMARK SMILES COc1ccc(C(=O)NNC(=O)CCC(=O)NCCCCCCNC(=O)c2ccc(-c3c4nc(c(-c5c(F)cc(S(=O)(=O)[O-])cc5F)c5ccc([nH]5)c(-c5c(F)cc(S(=O)(=O)[O-])cc5F)c5nc(c(-c6c(F)cc(S(=O)(=O)[O-])cc6F)c6ccc3[nH]6)C=C5)C=C4)cc2)cc1Br
REMARK SMILES IDX 19 1 18 2 17 3 15 4 16 5 14 7 13 8 11 9 10 10 12 12 9 13
REMARK SMILES IDX 7 14 8 15 6 17 3 18 4 19 94 20 5 21 93 22 95 23 2 24 1 25
REMARK SMILES IDX 20 26 21 27 22 28 23 29 24 30 25 31 26 33 27 34 28 35 92 36
REMARK SMILES IDX 29 37 91 38 30 39 31 40 32 41 85 42 33 43 90 44 84 45 86 46
REMARK SMILES IDX 34 47 89 48 83 49 82 50 35 52 69 53 48 54 68 55 49 56 52 57
REMARK SMILES IDX 67 58 87 59 50 60 51 61 66 63 88 64 53 65 36 66 37 67 46 68
REMARK SMILES IDX 38 69 39 70 45 71 47 72 40 73 41 74 42 75 43 76 44 77 70 78
REMARK SMILES IDX 71 79 80 80 72 81 73 82 79 83 81 84 74 85 75 86 76 87 77 88
REMARK SMILES IDX 78 89 54 90 55 91 64 92 56 93 57 94 63 95 65 96 58 97 59 98
REMARK SMILES IDX 60 99 61 100 62 101
REMARK H PARENT 17 6 10 11 9 16 24 32 86 51 52 62
REMARK Flexibility Score: inf
ROOT
ATOM      1  C   UNL A   1      33.665  31.044  27.422  1.00  0.00     0.021 C 
ENDROOT
BRANCH   1   2
ATOM      2  C   UNL A   1      33.760  29.555  27.088  1.00  0.00     0.116 C 
BRANCH   2   3
ATOM      3  N   UNL A   1      33.892  29.297  25.659  1.00  0.00    -0.356 N 
ATOM      4  C   UNL A   1      32.962  29.239  24.670  1.00  0.00     0.220 C 
ATOM      5  O   UNL A   1      33.325  28.950  23.528  1.00  0.00    -0.275 OA
ATOM      6  H   UNL A   1      34.815  29.137  25.359  1.00  0.00     0.163 HD
BRANCH   4   7
ATOM      7  C   UNL A   1      31.500  29.454  24.962  1.00  0.00     0.110 C 
BRANCH   7   8
ATOM      8  C   UNL A   1      30.697  28.218  24.575  1.00  0.00     0.112 C 
BRANCH   8   9
ATOM      9  C   UNL A   1      31.195  26.997  25.315  1.00  0.00     0.238 C 
ATOM     10  N   UNL A   1      31.954  26.049  24.674  1.00  0.00    -0.267 N 
ATOM     11  H   UNL A   1      32.239  25.269  25.202  1.00  0.00     0.191 HD
ATOM     12  O   UNL A   1      30.966  26.864  26.519  1.00  0.00    -0.273 OA
BRANCH  10  13
ATOM     13  N   UNL A   1      32.353  26.096  23.345  1.00  0.00    -0.264 N 
ATOM     14  C   UNL A   1      33.220  25.243  22.686  1.00  0.00     0.269 C 
ATOM     15  O   UNL A   1      33.578  25.556  21.547  1.00  0.00    -0.267 OA
ATOM     16  H   UNL A   1      31.971  26.825  22.805  1.00  0.00     0.191 HD
BRANCH  14  17
ATOM     17  C   UNL A   1      33.790  23.993  23.265  1.00  0.00     0.042 A 
ATOM     18  C   UNL A   1      35.078  21.707  24.379  1.00  0.00     0.133 A 
ATOM     19  C   UNL A   1      35.793  22.870  24.061  1.00  0.00     0.048 A 
ATOM     20  C   UNL A   1      33.702  21.695  24.114  1.00  0.00     0.060 A 
ATOM     21  C   UNL A   1      35.167  23.993  23.517  1.00  0.00     0.018 A 
ATOM     22  C   UNL A   1      33.076  22.823  23.529  1.00  0.00     0.033 A 
ATOM     23  Br  UNL A   1      32.511  20.264  24.498  1.00  0.00    -0.047 Br
BRANCH  18  24
ATOM     24  O   UNL A   1      35.916  20.773  24.906  1.00  0.00    -0.496 OA
ATOM     25  C   UNL A   1      37.096  21.113  25.607  1.00  0.00     0.278 C 
ENDBRANCH  18  24
ENDBRANCH  14  17
ENDBRANCH  10  13
ENDBRANCH   8   9
ENDBRANCH   7   8
ENDBRANCH   4   7
ENDBRANCH   2   3
ENDBRANCH   1   2
BRANCH   1  26
ATOM     26  C   UNL A   1      34.942  31.661  28.000  1.00  0.00     0.002 C 
BRANCH  26  27
ATOM     27  C   UNL A   1      34.749  32.551  29.228  1.00  0.00     0.002 C 
BRANCH  27  28
ATOM     28  C   UNL A   1      36.028  33.212  29.751  1.00  0.00     0.021 C 
BRANCH  28  29
ATOM     29  C   UNL A   1      36.509  32.726  31.119  1.00  0.00     0.116 C 
BRANCH  29  30
ATOM     30  N   UNL A   1      36.169  31.338  31.377  1.00  0.00    -0.352 N 
ATOM     31  C   UNL A   1      36.831  30.185  31.022  1.00  0.00     0.251 C 
ATOM     32  H   UNL A   1      35.336  31.200  31.884  1.00  0.00     0.163 HD
ATOM     33  O   UNL A   1      36.293  29.098  31.203  1.00  0.00    -0.269 OA
BRANCH  31  34
ATOM     34  C   UNL A   1      38.180  30.239  30.405  1.00  0.00     0.039 A 
ATOM     35  C   UNL A   1      39.290  30.206  31.255  1.00  0.00     0.014 A 
ATOM     36  C   UNL A   1      38.368  30.322  29.020  1.00  0.00     0.014 A 
ATOM     37  C   UNL A   1      40.573  30.138  30.714  1.00  0.00     0.010 A 
ATOM     38  C   UNL A   1      39.645  30.197  28.477  1.00  0.00     0.010 A 
ATOM     39  C   UNL A   1      40.751  30.062  29.322  1.00  0.00    -0.014 A 
BRANCH  39  40
ATOM     40  C   UNL A   1      42.064  29.649  28.775  1.00  0.00     0.031 A 
ATOM     41  C   UNL A   1      43.210  30.602  28.664  1.00  0.00     0.074 A 
ATOM     42  C   UNL A   1      42.177  28.377  28.343  1.00  0.00     0.049 A 
ATOM     43  N   UNL A   1      44.449  30.356  28.325  1.00  0.00    -0.248 NA
ATOM     44  C   UNL A   1      42.931  32.017  28.946  1.00  0.00     0.031 C 
ATOM     45  C   UNL A   1      41.083  27.400  28.324  1.00  0.00     0.029 A 
ATOM     46  N   UNL A   1      43.250  27.680  27.856  1.00  0.00    -0.354 N 
ATOM     47  C   UNL A   1      45.106  31.578  28.374  1.00  0.00     0.074 A 
ATOM     48  C   UNL A   1      44.112  32.575  28.711  1.00  0.00     0.031 C 
ATOM     49  C   UNL A   1      41.555  26.217  27.906  1.00  0.00     0.029 A 
ATOM     50  C   UNL A   1      42.972  26.357  27.599  1.00  0.00     0.049 A 
ATOM     51  H   UNL A   1      44.134  28.086  27.703  1.00  0.00     0.167 HD
ATOM     52  C   UNL A   1      46.423  31.830  28.171  1.00  0.00     0.037 A 
ATOM     53  C   UNL A   1      43.777  25.362  27.185  1.00  0.00     0.037 A 
ATOM     54  C   UNL A   1      47.382  30.817  27.803  1.00  0.00     0.049 A 
ATOM     55  C   UNL A   1      45.233  25.665  26.977  1.00  0.00     0.074 A 
ATOM     56  C   UNL A   1      48.747  30.945  27.619  1.00  0.00     0.029 A 
ATOM     57  N   UNL A   1      47.069  29.488  27.542  1.00  0.00    -0.354 N 
ATOM     58  N   UNL A   1      45.867  26.803  27.135  1.00  0.00    -0.248 NA
ATOM     59  C   UNL A   1      46.085  24.551  26.549  1.00  0.00     0.031 C 
ATOM     60  C   UNL A   1      49.248  29.709  27.191  1.00  0.00     0.029 A 
ATOM     61  C   UNL A   1      48.208  28.793  27.165  1.00  0.00     0.049 A 
ATOM     62  H   UNL A   1      46.168  29.097  27.614  1.00  0.00     0.167 HD
ATOM     63  C   UNL A   1      47.198  26.541  26.839  1.00  0.00     0.074 A 
ATOM     64  C   UNL A   1      47.278  25.127  26.520  1.00  0.00     0.031 C 
ATOM     65  C   UNL A   1      48.258  27.390  26.828  1.00  0.00     0.037 A 
BRANCH  52  66
ATOM     66  C   UNL A   1      46.891  33.255  28.335  1.00  0.00     0.058 A 
ATOM     67  C   UNL A   1      47.281  33.765  29.586  1.00  0.00     0.135 A 
ATOM     68  C   UNL A   1      46.964  34.121  27.232  1.00  0.00     0.135 A 
ATOM     69  F   UNL A   1      47.226  32.988  30.679  1.00  0.00    -0.206 F 
ATOM     70  C   UNL A   1      47.680  35.088  29.744  1.00  0.00     0.059 A 
ATOM     71  C   UNL A   1      47.390  35.441  27.361  1.00  0.00     0.059 A 
ATOM     72  F   UNL A   1      46.609  33.691  26.010  1.00  0.00    -0.206 F 
ATOM     73  C   UNL A   1      47.726  35.922  28.626  1.00  0.00     0.060 A 
BRANCH  73  74
ATOM     74  S   UNL A   1      48.219  37.643  28.854  1.00  0.00     0.124 S 
ATOM     75  O   UNL A   1      48.377  37.710  30.304  1.00  0.00    -0.237 OA
ATOM     76  O   UNL A   1      49.453  37.720  28.079  1.00  0.00    -0.237 OA
ATOM     77  O   UNL A   1      47.093  38.395  28.311  1.00  0.00    -0.744 OA
ENDBRANCH  73  74
ENDBRANCH  52  66
BRANCH  53  78
ATOM     78  C   UNL A   1      43.224  23.994  27.003  1.00  0.00     0.058 A 
ATOM     79  C   UNL A   1      42.929  23.497  25.726  1.00  0.00     0.135 A 
ATOM     80  C   UNL A   1      43.035  23.135  28.098  1.00  0.00     0.135 A 
ATOM     81  F   UNL A   1      43.093  24.279  24.648  1.00  0.00    -0.206 F 
ATOM     82  C   UNL A   1      42.461  22.200  25.539  1.00  0.00     0.059 A 
ATOM     83  C   UNL A   1      42.595  21.825  27.934  1.00  0.00     0.059 A 
ATOM     84  F   UNL A   1      43.325  23.553  29.340  1.00  0.00    -0.206 F 
ATOM     85  C   UNL A   1      42.305  21.369  26.649  1.00  0.00     0.060 A 
BRANCH  85  86
ATOM     86  S   UNL A   1      41.764  19.665  26.387  1.00  0.00     0.124 S 
ATOM     87  O   UNL A   1      42.205  19.024  27.619  1.00  0.00    -0.237 OA
ATOM     88  O   UNL A   1      40.322  19.823  26.228  1.00  0.00    -0.237 OA
ATOM     89  O   UNL A   1      42.481  19.268  25.177  1.00  0.00    -0.744 OA
ENDBRANCH  85  86
ENDBRANCH  53  78
BRANCH  65  90
ATOM     90  C   UNL A   1      49.591  26.800  26.456  1.00  0.00     0.058 A 
ATOM     91  C   UNL A   1      50.392  26.136  27.398  1.00  0.00     0.135 A 
ATOM     92  C   UNL A   1      50.067  26.888  25.137  1.00  0.00     0.135 A 
ATOM     93  F   UNL A   1      49.988  26.032  28.675  1.00  0.00    -0.206 F 
ATOM     94  C   UNL A   1      51.635  25.615  27.057  1.00  0.00     0.059 A 
ATOM     95  C   UNL A   1      51.292  26.344  24.766  1.00  0.00     0.059 A 
ATOM     96  F   UNL A   1      49.337  27.503  24.194  1.00  0.00    -0.206 F 
ATOM     97  C   UNL A   1      52.077  25.725  25.738  1.00  0.00     0.060 A 
BRANCH  97  98
ATOM     98  S   UNL A   1      53.688  25.036  25.308  1.00  0.00     0.124 S 
ATOM     99  O   UNL A   1      54.517  25.519  26.407  1.00  0.00    -0.237 OA
ATOM    100  O   UNL A   1      53.421  23.601  25.298  1.00  0.00    -0.237 OA
ATOM    101  O   UNL A   1      53.972  25.624  24.002  1.00  0.00    -0.744 OA
ENDBRANCH  97  98
ENDBRANCH  65  90
ENDBRANCH  39  40
ENDBRANCH  31  34
ENDBRANCH  29  30
ENDBRANCH  28  29
ENDBRANCH  27  28
ENDBRANCH  26  27
ENDBRANCH   1  26
TORSDOF 21
ENDMDL
MODEL 2
REMARK VINA RESULT:     -10.8      6.530     12.020
REMARK SMILES COc1ccc(C(=O)NNC(=O)CCC(=O)NCCCCCCNC(=O)c2ccc(-c3c4nc(c(-c5c(F)cc(S(=O)(=O)[O-])cc5F)c5ccc([nH]5)c(-c5c(F)cc(S(=O)(=O)[O-])cc5F)c5nc(c(-c6c(F)cc(S(=O)(=O)[O-])cc6F)c6ccc3[nH]6)C=C5)C=C4)cc2)cc1Br
REMARK SMILES IDX 19 1 18 2 17 3 15 4 16 5 14 7 13 8 11 9 10 10 12 12 9 13
REMARK SMILES IDX 7 14 8 15 6 17 3 18 4 19 94 20 5 21 93 22 95 23 2 24 1 25
REMARK SMILES IDX 20 26 21 27 22 28 23 29 24 30 25 31 26 33 27 34 28 35 92 36
REMARK SMILES IDX 29 37 91 38 30 39 31 40 32 41 85 42 33 43 90 44 84 45 86 46
REMARK SMILES IDX 34 47 89 48 83 49 82 50 35 52 69 53 48 54 68 55 49 56 52 57
REMARK SMILES IDX 67 58 87 59 50 60 51 61 66 63 88 64 53 65 36 66 37 67 46 68
REMARK SMILES IDX 38 69 39 70 45 71 47 72 40 73 41 74 42 75 43 76 44 77 70 78
REMARK SMILES IDX 71 79 80 80 72 81 73 82 79 83 81 84 74 85 75 86 76 87 77 88
REMARK SMILES IDX 78 89 54 90 55 91 64 92 56 93 57 94 63 95 65 96 58 97 59 98
REMARK SMILES IDX 60 99 61 100 62 101
REMARK H PARENT 17 6 10 11 9 16 24 32 86 51 52 62
REMARK Flexibility Score: inf
ROOT
ATOM      1  C   UNL A   1      38.175  21.480  25.757  1.00  0.00     0.021 C 
ENDROOT
BRANCH   1   2
ATOM      2  C   UNL A   1      37.733  22.925  25.520  1.00  0.00     0.116 C 
BRANCH   2   3
ATOM      3  N   UNL A   1      37.141  23.133  24.204  1.00  0.00    -0.356 N 
ATOM      4  C   UNL A   1      35.845  23.141  23.795  1.00  0.00     0.220 C 
ATOM      5  O   UNL A   1      35.600  23.294  22.597  1.00  0.00    -0.275 OA
ATOM      6  H   UNL A   1      37.794  23.296  23.486  1.00  0.00     0.163 HD
BRANCH   4   7
ATOM      7  C   UNL A   1      34.720  22.900  24.769  1.00  0.00     0.110 C 
BRANCH   7   8
ATOM      8  C   UNL A   1      33.676  21.980  24.149  1.00  0.00     0.112 C 
BRANCH   8   9
ATOM      9  C   UNL A   1      32.293  22.580  24.260  1.00  0.00     0.238 C 
ATOM     10  N   UNL A   1      31.797  23.388  23.266  1.00  0.00    -0.267 N 
ATOM     11  H   UNL A   1      30.896  23.762  23.399  1.00  0.00     0.191 HD
ATOM     12  O   UNL A   1      31.573  22.310  25.224  1.00  0.00    -0.273 OA
BRANCH  10  13
ATOM     13  N   UNL A   1      32.458  23.724  22.092  1.00  0.00    -0.264 N 
ATOM     14  C   UNL A   1      32.791  24.985  21.634  1.00  0.00     0.269 C 
ATOM     15  O   UNL A   1      33.225  25.082  20.483  1.00  0.00    -0.267 OA
ATOM     16  H   UNL A   1      32.722  22.971  21.515  1.00  0.00     0.191 HD
BRANCH  14  17
ATOM     17  C   UNL A   1      32.624  26.246  22.413  1.00  0.00     0.042 A 
ATOM     18  C   UNL A   1      32.504  28.616  23.992  1.00  0.00     0.133 A 
ATOM     19  C   UNL A   1      33.581  27.723  24.088  1.00  0.00     0.048 A 
ATOM     20  C   UNL A   1      31.470  28.296  23.103  1.00  0.00     0.060 A 
ATOM     21  C   UNL A   1      33.646  26.563  23.315  1.00  0.00     0.018 A 
ATOM     22  C   UNL A   1      31.521  27.099  22.346  1.00  0.00     0.033 A 
ATOM     23  Br  UNL A   1      29.934  29.362  22.760  1.00  0.00    -0.047 Br
BRANCH  18  24
ATOM     24  O   UNL A   1      32.692  29.668  24.836  1.00  0.00    -0.496 OA
ATOM     25  C   UNL A   1      31.870  29.900  25.962  1.00  0.00     0.278 C 
ENDBRANCH  18  24
ENDBRANCH  14  17
ENDBRANCH  10  13
ENDBRANCH   8   9
ENDBRANCH   7   8
ENDBRANCH   4   7
ENDBRANCH   2   3
ENDBRANCH   1   2
BRANCH   1  26
ATOM     26  C   UNL A   1      39.690  21.259  25.769  1.00  0.00     0.002 C 
BRANCH  26  27
ATOM     27  C   UNL A   1      40.391  21.563  27.092  1.00  0.00     0.002 C 
BRANCH  27  28
ATOM     28  C   UNL A   1      40.793  23.028  27.286  1.00  0.00     0.021 C 
BRANCH  28  29
ATOM     29  C   UNL A   1      42.138  23.429  26.679  1.00  0.00     0.116 C 
BRANCH  29  30
ATOM     30  N   UNL A   1      42.032  24.549  25.760  1.00  0.00    -0.352 N 
ATOM     31  C   UNL A   1      41.741  25.870  26.008  1.00  0.00     0.251 C 
ATOM     32  H   UNL A   1      42.194  24.329  24.814  1.00  0.00     0.163 HD
ATOM     33  O   UNL A   1      41.546  26.633  25.069  1.00  0.00    -0.269 OA
BRANCH  31  34
ATOM     34  C   UNL A   1      41.641  26.382  27.398  1.00  0.00     0.039 A 
ATOM     35  C   UNL A   1      42.666  27.209  27.868  1.00  0.00     0.014 A 
ATOM     36  C   UNL A   1      40.567  26.063  28.238  1.00  0.00     0.014 A 
ATOM     37  C   UNL A   1      42.556  27.803  29.123  1.00  0.00     0.010 A 
ATOM     38  C   UNL A   1      40.427  26.700  29.469  1.00  0.00     0.010 A 
ATOM     39  C   UNL A   1      41.402  27.607  29.900  1.00  0.00    -0.014 A 
BRANCH  39  40
ATOM     40  C   UNL A   1      41.138  28.495  31.055  1.00  0.00     0.031 A 
ATOM     41  C   UNL A   1      41.951  28.427  32.308  1.00  0.00     0.074 A 
ATOM     42  C   UNL A   1      40.104  29.353  30.946  1.00  0.00     0.049 A 
ATOM     43  N   UNL A   1      41.920  29.219  33.347  1.00  0.00    -0.248 NA
ATOM     44  C   UNL A   1      42.905  27.315  32.424  1.00  0.00     0.031 C 
ATOM     45  C   UNL A   1      39.195  29.427  29.798  1.00  0.00     0.029 A 
ATOM     46  N   UNL A   1      39.649  30.332  31.790  1.00  0.00    -0.354 N 
ATOM     47  C   UNL A   1      42.864  28.720  34.234  1.00  0.00     0.074 A 
ATOM     48  C   UNL A   1      43.404  27.516  33.637  1.00  0.00     0.031 C 
ATOM     49  C   UNL A   1      38.330  30.434  29.983  1.00  0.00     0.029 A 
ATOM     50  C   UNL A   1      38.602  31.058  31.271  1.00  0.00     0.049 A 
ATOM     51  H   UNL A   1      40.033  30.498  32.681  1.00  0.00     0.167 HD
ATOM     52  C   UNL A   1      43.250  29.236  35.427  1.00  0.00     0.037 A 
ATOM     53  C   UNL A   1      37.950  32.123  31.770  1.00  0.00     0.037 A 
ATOM     54  C   UNL A   1      42.668  30.421  36.009  1.00  0.00     0.049 A 
ATOM     55  C   UNL A   1      38.402  32.682  33.087  1.00  0.00     0.074 A 
ATOM     56  C   UNL A   1      43.010  31.064  37.185  1.00  0.00     0.029 A 
ATOM     57  N   UNL A   1      41.602  31.130  35.465  1.00  0.00    -0.354 N 
ATOM     58  N   UNL A   1      39.373  32.268  33.867  1.00  0.00    -0.248 NA
ATOM     59  C   UNL A   1      37.683  33.859  33.588  1.00  0.00     0.031 C 
ATOM     60  C   UNL A   1      42.115  32.124  37.380  1.00  0.00     0.029 A 
ATOM     61  C   UNL A   1      41.252  32.182  36.297  1.00  0.00     0.049 A 
ATOM     62  H   UNL A   1      41.161  30.914  34.611  1.00  0.00     0.167 HD
ATOM     63  C   UNL A   1      39.393  33.141  34.946  1.00  0.00     0.074 A 
ATOM     64  C   UNL A   1      38.353  34.122  34.701  1.00  0.00     0.031 C 
ATOM     65  C   UNL A   1      40.194  33.132  36.042  1.00  0.00     0.037 A 
BRANCH  52  66
ATOM     66  C   UNL A   1      44.343  28.515  36.176  1.00  0.00     0.058 A 
ATOM     67  C   UNL A   1      45.698  28.855  36.013  1.00  0.00     0.135 A 
ATOM     68  C   UNL A   1      44.039  27.481  37.076  1.00  0.00     0.135 A 
ATOM     69  F   UNL A   1      46.052  29.830  35.162  1.00  0.00    -0.206 F 
ATOM     70  C   UNL A   1      46.709  28.168  36.677  1.00  0.00     0.059 A 
ATOM     71  C   UNL A   1      45.032  26.799  37.775  1.00  0.00     0.059 A 
ATOM     72  F   UNL A   1      42.763  27.113  37.277  1.00  0.00    -0.206 F 
ATOM     73  C   UNL A   1      46.367  27.136  37.553  1.00  0.00     0.060 A 
BRANCH  73  74
ATOM     74  S   UNL A   1      47.693  26.238  38.384  1.00  0.00     0.124 S 
ATOM     75  O   UNL A   1      48.760  27.234  38.390  1.00  0.00    -0.237 OA
ATOM     76  O   UNL A   1      47.101  25.937  39.684  1.00  0.00    -0.237 OA
ATOM     77  O   UNL A   1      47.918  25.084  37.519  1.00  0.00    -0.744 OA
ENDBRANCH  73  74
ENDBRANCH  52  66
BRANCH  53  78
ATOM     78  C   UNL A   1      36.850  32.747  30.986  1.00  0.00     0.058 A 
ATOM     79  C   UNL A   1      35.508  32.441  31.252  1.00  0.00     0.135 A 
ATOM     80  C   UNL A   1      37.118  33.706  29.995  1.00  0.00     0.135 A 
ATOM     81  F   UNL A   1      35.202  31.532  32.190  1.00  0.00    -0.206 F 
ATOM     82  C   UNL A   1      34.469  33.057  30.562  1.00  0.00     0.059 A 
ATOM     83  C   UNL A   1      36.095  34.356  29.311  1.00  0.00     0.059 A 
ATOM     84  F   UNL A   1      38.384  34.052  29.718  1.00  0.00    -0.206 F 
ATOM     85  C   UNL A   1      34.773  34.019  29.598  1.00  0.00     0.060 A 
BRANCH  85  86
ATOM     86  S   UNL A   1      33.414  34.864  28.758  1.00  0.00     0.124 S 
ATOM     87  O   UNL A   1      34.105  35.991  28.143  1.00  0.00    -0.237 OA
ATOM     88  O   UNL A   1      32.932  33.833  27.845  1.00  0.00    -0.237 OA
ATOM     89  O   UNL A   1      32.503  35.200  29.849  1.00  0.00    -0.744 OA
ENDBRANCH  85  86
ENDBRANCH  53  78
BRANCH  65  90
ATOM     90  C   UNL A   1      39.967  34.222  37.054  1.00  0.00     0.058 A 
ATOM     91  C   UNL A   1      40.502  35.508  36.884  1.00  0.00     0.135 A 
ATOM     92  C   UNL A   1      39.193  33.980  38.201  1.00  0.00     0.135 A 
ATOM     93  F   UNL A   1      41.257  35.790  35.810  1.00  0.00    -0.206 F 
ATOM     94  C   UNL A   1      40.311  36.506  37.833  1.00  0.00     0.059 A 
ATOM     95  C   UNL A   1      38.960  34.973  39.147  1.00  0.00     0.059 A 
ATOM     96  F   UNL A   1      38.649  32.770  38.408  1.00  0.00    -0.206 F 
ATOM     97  C   UNL A   1      39.540  36.228  38.963  1.00  0.00     0.060 A 
BRANCH  97  98
ATOM     98  S   UNL A   1      39.293  37.534  40.182  1.00  0.00     0.124 S 
ATOM     99  O   UNL A   1      38.843  36.772  41.342  1.00  0.00    -0.237 OA
ATOM    100  O   UNL A   1      40.625  38.120  40.287  1.00  0.00    -0.237 OA
ATOM    101  O   UNL A   1      38.285  38.391  39.564  1.00  0.00    -0.744 OA
ENDBRANCH  97  98
ENDBRANCH  65  90
ENDBRANCH  39  40
ENDBRANCH  31  34
ENDBRANCH  29  30
ENDBRANCH  28  29
ENDBRANCH  27  28
ENDBRANCH  26  27
ENDBRANCH   1  26
TORSDOF 21
ENDMDL
MODEL 3
REMARK VINA RESULT:     -10.3      4.234     10.659
REMARK SMILES COc1ccc(C(=O)NNC(=O)CCC(=O)NCCCCCCNC(=O)c2ccc(-c3c4nc(c(-c5c(F)cc(S(=O)(=O)[O-])cc5F)c5ccc([nH]5)c(-c5c(F)cc(S(=O)(=O)[O-])cc5F)c5nc(c(-c6c(F)cc(S(=O)(=O)[O-])cc6F)c6ccc3[nH]6)C=C5)C=C4)cc2)cc1Br
REMARK SMILES IDX 19 1 18 2 17 3 15 4 16 5 14 7 13 8 11 9 10 10 12 12 9 13
REMARK SMILES IDX 7 14 8 15 6 17 3 18 4 19 94 20 5 21 93 22 95 23 2 24 1 25
REMARK SMILES IDX 20 26 21 27 22 28 23 29 24 30 25 31 26 33 27 34 28 35 92 36
REMARK SMILES IDX 29 37 91 38 30 39 31 40 32 41 85 42 33 43 90 44 84 45 86 46
REMARK SMILES IDX 34 47 89 48 83 49 82 50 35 52 69 53 48 54 68 55 49 56 52 57
REMARK SMILES IDX 67 58 87 59 50 60 51 61 66 63 88 64 53 65 36 66 37 67 46 68
REMARK SMILES IDX 38 69 39 70 45 71 47 72 40 73 41 74 42 75 43 76 44 77 70 78
REMARK SMILES IDX 71 79 80 80 72 81 73 82 79 83 81 84 74 85 75 86 76 87 77 88
REMARK SMILES IDX 78 89 54 90 55 91 64 92 56 93 57 94 63 95 65 96 58 97 59 98
REMARK SMILES IDX 60 99 61 100 62 101
REMARK H PARENT 17 6 10 11 9 16 24 32 86 51 52 62
REMARK Flexibility Score: inf
ROOT
ATOM      1  C   UNL A   1      38.625  33.044  33.039  1.00  0.00     0.021 C 
ENDROOT
BRANCH   1   2
ATOM      2  C   UNL A   1      38.343  32.196  34.279  1.00  0.00     0.116 C 
BRANCH   2   3
ATOM      3  N   UNL A   1      37.747  30.904  33.965  1.00  0.00    -0.356 N 
ATOM      4  C   UNL A   1      38.295  29.758  33.482  1.00  0.00     0.220 C 
ATOM      5  O   UNL A   1      37.559  28.797  33.250  1.00  0.00    -0.275 OA
ATOM      6  H   UNL A   1      36.778  30.851  34.131  1.00  0.00     0.163 HD
BRANCH   4   7
ATOM      7  C   UNL A   1      39.767  29.671  33.167  1.00  0.00     0.110 C 
BRANCH   7   8
ATOM      8  C   UNL A   1      40.146  28.238  32.815  1.00  0.00     0.112 C 
BRANCH   8   9
ATOM      9  C   UNL A   1      41.616  27.991  33.067  1.00  0.00     0.238 C 
ATOM     10  N   UNL A   1      42.031  27.310  34.185  1.00  0.00    -0.267 N 
ATOM     11  H   UNL A   1      43.001  27.191  34.303  1.00  0.00     0.191 HD
ATOM     12  O   UNL A   1      42.458  28.356  32.244  1.00  0.00    -0.273 OA
BRANCH  10  13
ATOM     13  N   UNL A   1      41.201  26.777  35.162  1.00  0.00    -0.264 N 
ATOM     14  C   UNL A   1      41.370  25.604  35.875  1.00  0.00     0.269 C 
ATOM     15  O   UNL A   1      40.432  25.220  36.578  1.00  0.00    -0.267 OA
ATOM     16  H   UNL A   1      40.394  27.299  35.374  1.00  0.00     0.191 HD
BRANCH  14  17
ATOM     17  C   UNL A   1      42.587  24.744  35.825  1.00  0.00     0.042 A 
ATOM     18  C   UNL A   1      44.824  22.999  35.550  1.00  0.00     0.133 A 
ATOM     19  C   UNL A   1      43.710  22.902  34.705  1.00  0.00     0.048 A 
ATOM     20  C   UNL A   1      44.798  23.975  36.555  1.00  0.00     0.060 A 
ATOM     21  C   UNL A   1      42.613  23.755  34.834  1.00  0.00     0.018 A 
ATOM     22  C   UNL A   1      43.667  24.816  36.706  1.00  0.00     0.033 A 
ATOM     23  Br  UNL A   1      46.198  24.335  37.789  1.00  0.00    -0.047 Br
BRANCH  18  24
ATOM     24  O   UNL A   1      45.755  22.067  35.206  1.00  0.00    -0.496 OA
ATOM     25  C   UNL A   1      46.319  21.169  36.140  1.00  0.00     0.278 C 
ENDBRANCH  18  24
ENDBRANCH  14  17
ENDBRANCH  10  13
ENDBRANCH   8   9
ENDBRANCH   7   8
ENDBRANCH   4   7
ENDBRANCH   2   3
ENDBRANCH   1   2
BRANCH   1  26
ATOM     26  C   UNL A   1      37.996  32.526  31.742  1.00  0.00     0.002 C 
BRANCH  26  27
ATOM     27  C   UNL A   1      37.376  33.589  30.837  1.00  0.00     0.002 C 
BRANCH  27  28
ATOM     28  C   UNL A   1      35.845  33.611  30.823  1.00  0.00     0.021 C 
BRANCH  28  29
ATOM     29  C   UNL A   1      35.166  32.243  30.896  1.00  0.00     0.116 C 
BRANCH  29  30
ATOM     30  N   UNL A   1      34.489  31.881  29.663  1.00  0.00    -0.352 N 
ATOM     31  C   UNL A   1      34.926  31.112  28.610  1.00  0.00     0.251 C 
ATOM     32  H   UNL A   1      33.578  32.243  29.565  1.00  0.00     0.163 HD
ATOM     33  O   UNL A   1      34.256  31.053  27.585  1.00  0.00    -0.269 OA
BRANCH  31  34
ATOM     34  C   UNL A   1      36.206  30.364  28.689  1.00  0.00     0.039 A 
ATOM     35  C   UNL A   1      37.003  30.304  27.542  1.00  0.00     0.014 A 
ATOM     36  C   UNL A   1      36.629  29.726  29.862  1.00  0.00     0.014 A 
ATOM     37  C   UNL A   1      38.263  29.712  27.605  1.00  0.00     0.010 A 
ATOM     38  C   UNL A   1      37.910  29.185  29.943  1.00  0.00     0.010 A 
ATOM     39  C   UNL A   1      38.750  29.213  28.825  1.00  0.00    -0.014 A 
BRANCH  39  40
ATOM     40  C   UNL A   1      40.192  28.906  28.965  1.00  0.00     0.031 A 
ATOM     41  C   UNL A   1      40.754  27.566  28.611  1.00  0.00     0.074 A 
ATOM     42  C   UNL A   1      40.982  29.878  29.464  1.00  0.00     0.049 A 
ATOM     43  N   UNL A   1      42.005  27.192  28.562  1.00  0.00    -0.248 NA
ATOM     44  C   UNL A   1      39.792  26.502  28.293  1.00  0.00     0.031 C 
ATOM     45  C   UNL A   1      40.507  31.187  29.926  1.00  0.00     0.029 A 
ATOM     46  N   UNL A   1      42.337  29.934  29.652  1.00  0.00    -0.354 N 
ATOM     47  C   UNL A   1      41.988  25.855  28.186  1.00  0.00     0.074 A 
ATOM     48  C   UNL A   1      40.596  25.468  28.084  1.00  0.00     0.031 C 
ATOM     49  C   UNL A   1      41.558  31.935  30.288  1.00  0.00     0.029 A 
ATOM     50  C   UNL A   1      42.775  31.154  30.113  1.00  0.00     0.049 A 
ATOM     51  H   UNL A   1      42.939  29.175  29.475  1.00  0.00     0.167 HD
ATOM     52  C   UNL A   1      43.042  25.040  27.933  1.00  0.00     0.037 A 
ATOM     53  C   UNL A   1      44.023  31.599  30.347  1.00  0.00     0.037 A 
ATOM     54  C   UNL A   1      44.418  25.449  28.077  1.00  0.00     0.049 A 
ATOM     55  C   UNL A   1      45.173  30.682  30.051  1.00  0.00     0.074 A 
ATOM     56  C   UNL A   1      45.567  24.729  27.804  1.00  0.00     0.029 A 
ATOM     57  N   UNL A   1      44.831  26.688  28.555  1.00  0.00    -0.354 N 
ATOM     58  N   UNL A   1      45.148  29.454  29.587  1.00  0.00    -0.248 NA
ATOM     59  C   UNL A   1      46.519  31.210  30.295  1.00  0.00     0.031 C 
ATOM     60  C   UNL A   1      46.670  25.509  28.172  1.00  0.00     0.029 A 
ATOM     61  C   UNL A   1      46.214  26.740  28.618  1.00  0.00     0.049 A 
ATOM     62  H   UNL A   1      44.226  27.422  28.812  1.00  0.00     0.167 HD
ATOM     63  C   UNL A   1      46.476  29.065  29.470  1.00  0.00     0.074 A 
ATOM     64  C   UNL A   1      47.277  30.202  29.886  1.00  0.00     0.031 C 
ATOM     65  C   UNL A   1      46.988  27.877  29.060  1.00  0.00     0.037 A 
BRANCH  52  66
ATOM     66  C   UNL A   1      42.740  23.631  27.488  1.00  0.00     0.058 A 
ATOM     67  C   UNL A   1      42.525  22.595  28.414  1.00  0.00     0.135 A 
ATOM     68  C   UNL A   1      42.653  23.309  26.124  1.00  0.00     0.135 A 
ATOM     69  F   UNL A   1      42.602  22.839  29.732  1.00  0.00    -0.206 F 
ATOM     70  C   UNL A   1      42.281  21.288  28.005  1.00  0.00     0.059 A 
ATOM     71  C   UNL A   1      42.380  22.013  25.691  1.00  0.00     0.059 A 
ATOM     72  F   UNL A   1      42.846  24.256  25.192  1.00  0.00    -0.206 F 
ATOM     73  C   UNL A   1      42.216  21.005  26.639  1.00  0.00     0.060 A 
BRANCH  73  74
ATOM     74  S   UNL A   1      41.926  19.299  26.127  1.00  0.00     0.124 S 
ATOM     75  O   UNL A   1      42.279  18.567  27.339  1.00  0.00    -0.237 OA
ATOM     76  O   UNL A   1      40.507  19.311  25.785  1.00  0.00    -0.237 OA
ATOM     77  O   UNL A   1      42.837  19.121  25.001  1.00  0.00    -0.744 OA
ENDBRANCH  73  74
ENDBRANCH  52  66
BRANCH  53  78
ATOM     78  C   UNL A   1      44.229  32.991  30.831  1.00  0.00     0.058 A 
ATOM     79  C   UNL A   1      44.326  34.062  29.932  1.00  0.00     0.135 A 
ATOM     80  C   UNL A   1      44.273  33.284  32.203  1.00  0.00     0.135 A 
ATOM     81  F   UNL A   1      44.288  33.833  28.610  1.00  0.00    -0.206 F 
ATOM     82  C   UNL A   1      44.465  35.374  30.373  1.00  0.00     0.059 A 
ATOM     83  C   UNL A   1      44.383  34.590  32.670  1.00  0.00     0.059 A 
ATOM     84  F   UNL A   1      44.160  32.298  33.106  1.00  0.00    -0.206 F 
ATOM     85  C   UNL A   1      44.485  35.629  31.745  1.00  0.00     0.060 A 
BRANCH  85  86
ATOM     86  S   UNL A   1      44.595  37.342  32.306  1.00  0.00     0.124 S 
ATOM     87  O   UNL A   1      43.293  37.865  31.912  1.00  0.00    -0.237 OA
ATOM     88  O   UNL A   1      44.812  37.181  33.740  1.00  0.00    -0.237 OA
ATOM     89  O   UNL A   1      45.737  37.866  31.562  1.00  0.00    -0.744 OA
ENDBRANCH  85  86
ENDBRANCH  53  78
BRANCH  65  90
ATOM     90  C   UNL A   1      48.489  27.757  29.046  1.00  0.00     0.058 A 
ATOM     91  C   UNL A   1      49.209  27.393  30.195  1.00  0.00     0.135 A 
ATOM     92  C   UNL A   1      49.212  27.995  27.866  1.00  0.00     0.135 A 
ATOM     93  F   UNL A   1      48.567  27.163  31.351  1.00  0.00    -0.206 F 
ATOM     94  C   UNL A   1      50.596  27.307  30.185  1.00  0.00     0.059 A 
ATOM     95  C   UNL A   1      50.597  27.882  27.825  1.00  0.00     0.059 A 
ATOM     96  F   UNL A   1      48.572  28.337  26.737  1.00  0.00    -0.206 F 
ATOM     97  C   UNL A   1      51.282  27.556  28.995  1.00  0.00     0.060 A 
BRANCH  97  98
ATOM     98  S   UNL A   1      53.082  27.432  28.994  1.00  0.00     0.124 S 
ATOM     99  O   UNL A   1      53.369  27.325  27.567  1.00  0.00    -0.237 OA
ATOM    100  O   UNL A   1      53.482  28.685  29.628  1.00  0.00    -0.237 OA
ATOM    101  O   UNL A   1      53.341  26.228  29.779  1.00  0.00    -0.744 OA
ENDBRANCH  97  98
ENDBRANCH  65  90
ENDBRANCH  39  40
ENDBRANCH  31  34
ENDBRANCH  29  30
ENDBRANCH  28  29
ENDBRANCH  27  28
ENDBRANCH  26  27
ENDBRANCH   1  26
TORSDOF 21
ENDMDL
