MODEL 1
REMARK VINA RESULT:     -10.6      0.000      0.000
REMARK SMILES O=C(C[C@H]1CCCCO1)N[C@@H](C(=O)NCCCCCCNC(=O)c1ccc(-c2c3nc(c(-c4c(F)cc(S(=O)(=O)[O-])cc4F)c4ccc([nH]4)c(-c4c(F)cc(S(=O)(=O)[O-])cc4F)c4nc(c(-c5c(F)cc(S(=O)(=O)[O-])cc5F)c5ccc2[nH]5)C=C4)C=C3)cc1)C1CCCCC1
REMARK SMILES IDX 17 1 16 2 15 3 14 4 12 5 13 6 11 8 10 9 1 10 2 11 3 13 4 14
REMARK SMILES IDX 5 15 9 16 6 17 8 18 7 19 90 20 91 21 95 22 92 23 94 24 93 25
REMARK SMILES IDX 18 26 19 27 20 28 21 29 22 30 23 32 24 33 25 34 89 35 26 36
REMARK SMILES IDX 88 37 27 38 28 39 29 40 82 41 30 42 87 43 81 44 83 45 31 46
REMARK SMILES IDX 86 47 80 48 79 49 32 51 66 52 45 53 65 54 46 55 49 56 64 57
REMARK SMILES IDX 84 58 47 59 48 60 63 62 85 63 50 64 33 65 34 66 43 67 35 68
REMARK SMILES IDX 36 69 42 70 44 71 37 72 38 73 39 74 40 75 41 76 67 77 68 78
REMARK SMILES IDX 77 79 69 80 70 81 76 82 78 83 71 84 72 85 73 86 74 87 75 88
REMARK SMILES IDX 51 89 52 90 61 91 53 92 54 93 60 94 62 95 55 96 56 97 57 98
REMARK SMILES IDX 58 99 59 100
REMARK H PARENT 14 7 10 12 21 31 83 50 49 61
REMARK Flexibility Score: inf
ROOT
ATOM      1  C   UNL A   1      34.868  31.545  27.610  1.00  0.00     0.002 C 
ENDROOT
BRANCH   1   2
ATOM      2  C   UNL A   1      34.344  30.126  27.880  1.00  0.00     0.021 C 
BRANCH   2   3
ATOM      3  C   UNL A   1      33.146  29.732  27.016  1.00  0.00     0.116 C 
BRANCH   3   4
ATOM      4  N   UNL A   1      33.522  29.664  25.620  1.00  0.00    -0.354 N 
ATOM      5  C   UNL A   1      32.805  29.258  24.535  1.00  0.00     0.242 C 
ATOM      6  O   UNL A   1      33.382  29.342  23.447  1.00  0.00    -0.273 OA
ATOM      7  H   UNL A   1      34.442  29.957  25.423  1.00  0.00     0.163 HD
BRANCH   5   8
ATOM      8  C   UNL A   1      31.312  28.849  24.683  1.00  0.00     0.174 C 
BRANCH   8   9
ATOM      9  N   UNL A   1      31.137  27.410  24.466  1.00  0.00    -0.344 N 
ATOM     10  O   UNL A   1      31.170  26.781  26.674  1.00  0.00    -0.275 OA
ATOM     11  C   UNL A   1      31.071  26.490  25.488  1.00  0.00     0.223 C 
ATOM     12  H   UNL A   1      31.063  27.086  23.539  1.00  0.00     0.164 HD
BRANCH  11  13
ATOM     13  C   UNL A   1      30.900  25.060  25.013  1.00  0.00     0.132 C 
BRANCH  13  14
ATOM     14  C   UNL A   1      32.242  24.355  24.816  1.00  0.00     0.127 C 
ATOM     15  C   UNL A   1      32.059  22.913  24.329  1.00  0.00     0.033 C 
ATOM     16  O   UNL A   1      33.045  25.135  23.920  1.00  0.00    -0.378 OA
ATOM     17  C   UNL A   1      33.404  22.272  24.016  1.00  0.00     0.005 C 
ATOM     18  C   UNL A   1      34.317  24.562  23.638  1.00  0.00     0.160 C 
ATOM     19  C   UNL A   1      34.184  23.161  23.059  1.00  0.00     0.029 C 
ENDBRANCH  13  14
ENDBRANCH  11  13
ENDBRANCH   8   9
BRANCH   8  20
ATOM     20  C   UNL A   1      30.336  29.646  23.771  1.00  0.00     0.021 C 
ATOM     21  C   UNL A   1      29.140  28.773  23.338  1.00  0.00     0.006 C 
ATOM     22  C   UNL A   1      29.889  30.993  24.379  1.00  0.00     0.006 C 
ATOM     23  C   UNL A   1      28.126  29.541  22.497  1.00  0.00     0.000 C 
ATOM     24  C   UNL A   1      28.848  31.711  23.524  1.00  0.00     0.000 C 
ATOM     25  C   UNL A   1      27.664  30.808  23.206  1.00  0.00     0.000 C 
ENDBRANCH   8  20
ENDBRANCH   5   8
ENDBRANCH   3   4
ENDBRANCH   2   3
ENDBRANCH   1   2
BRANCH   1  26
ATOM     26  C   UNL A   1      34.867  32.484  28.822  1.00  0.00     0.002 C 
BRANCH  26  27
ATOM     27  C   UNL A   1      36.117  33.354  28.966  1.00  0.00     0.021 C 
BRANCH  27  28
ATOM     28  C   UNL A   1      37.092  32.880  30.036  1.00  0.00     0.116 C 
BRANCH  28  29
ATOM     29  N   UNL A   1      36.516  31.842  30.877  1.00  0.00    -0.352 N 
ATOM     30  C   UNL A   1      36.922  30.536  31.008  1.00  0.00     0.251 C 
ATOM     31  H   UNL A   1      35.739  32.108  31.420  1.00  0.00     0.163 HD
ATOM     32  O   UNL A   1      36.232  29.725  31.619  1.00  0.00    -0.269 OA
BRANCH  30  33
ATOM     33  C   UNL A   1      38.194  30.118  30.384  1.00  0.00     0.039 A 
ATOM     34  C   UNL A   1      38.293  30.073  28.991  1.00  0.00     0.014 A 
ATOM     35  C   UNL A   1      39.296  29.809  31.187  1.00  0.00     0.014 A 
ATOM     36  C   UNL A   1      39.521  29.775  28.397  1.00  0.00     0.010 A 
ATOM     37  C   UNL A   1      40.529  29.571  30.593  1.00  0.00     0.010 A 
ATOM     38  C   UNL A   1      40.655  29.550  29.195  1.00  0.00    -0.014 A 
BRANCH  38  39
ATOM     39  C   UNL A   1      41.987  29.262  28.609  1.00  0.00     0.031 A 
ATOM     40  C   UNL A   1      42.302  27.863  28.155  1.00  0.00     0.074 A 
ATOM     41  C   UNL A   1      42.940  30.216  28.589  1.00  0.00     0.049 A 
ATOM     42  N   UNL A   1      43.450  27.344  27.810  1.00  0.00    -0.248 NA
ATOM     43  C   UNL A   1      41.176  26.915  28.120  1.00  0.00     0.031 C 
ATOM     44  C   UNL A   1      42.760  31.602  29.023  1.00  0.00     0.029 A 
ATOM     45  N   UNL A   1      44.258  30.154  28.212  1.00  0.00    -0.354 N 
ATOM     46  C   UNL A   1      43.194  26.002  27.553  1.00  0.00     0.074 A 
ATOM     47  C   UNL A   1      41.788  25.781  27.812  1.00  0.00     0.031 C 
ATOM     48  C   UNL A   1      43.925  32.259  28.889  1.00  0.00     0.029 A 
ATOM     49  C   UNL A   1      44.943  31.331  28.403  1.00  0.00     0.049 A 
ATOM     50  H   UNL A   1      44.674  29.342  27.840  1.00  0.00     0.167 HD
ATOM     51  C   UNL A   1      44.052  25.046  27.128  1.00  0.00     0.037 A 
ATOM     52  C   UNL A   1      46.247  31.622  28.228  1.00  0.00     0.037 A 
ATOM     53  C   UNL A   1      45.439  25.286  26.832  1.00  0.00     0.049 A 
ATOM     54  C   UNL A   1      47.181  30.546  27.742  1.00  0.00     0.074 A 
ATOM     55  C   UNL A   1      46.381  24.397  26.347  1.00  0.00     0.029 A 
ATOM     56  N   UNL A   1      46.079  26.507  26.985  1.00  0.00    -0.354 N 
ATOM     57  N   UNL A   1      46.918  29.289  27.473  1.00  0.00    -0.248 NA
ATOM     58  C   UNL A   1      48.587  30.922  27.534  1.00  0.00     0.031 C 
ATOM     59  C   UNL A   1      47.599  25.074  26.233  1.00  0.00     0.029 A 
ATOM     60  C   UNL A   1      47.405  26.394  26.610  1.00  0.00     0.049 A 
ATOM     61  H   UNL A   1      45.653  27.332  27.312  1.00  0.00     0.167 HD
ATOM     62  C   UNL A   1      48.114  28.735  27.033  1.00  0.00     0.074 A 
ATOM     63  C   UNL A   1      49.104  29.791  27.074  1.00  0.00     0.031 C 
ATOM     64  C   UNL A   1      48.368  27.467  26.627  1.00  0.00     0.037 A 
BRANCH  51  65
ATOM     65  C   UNL A   1      43.514  23.654  26.959  1.00  0.00     0.058 A 
ATOM     66  C   UNL A   1      43.398  22.770  28.044  1.00  0.00     0.135 A 
ATOM     67  C   UNL A   1      43.089  23.203  25.698  1.00  0.00     0.135 A 
ATOM     68  F   UNL A   1      43.806  23.145  29.266  1.00  0.00    -0.206 F 
ATOM     69  C   UNL A   1      42.908  21.479  27.880  1.00  0.00     0.059 A 
ATOM     70  C   UNL A   1      42.570  21.925  25.517  1.00  0.00     0.059 A 
ATOM     71  F   UNL A   1      43.179  24.007  24.627  1.00  0.00    -0.206 F 
ATOM     72  C   UNL A   1      42.500  21.064  26.612  1.00  0.00     0.060 A 
BRANCH  72  73
ATOM     73  S   UNL A   1      41.872  19.383  26.412  1.00  0.00     0.124 S 
ATOM     74  O   UNL A   1      42.129  18.820  27.734  1.00  0.00    -0.237 OA
ATOM     75  O   UNL A   1      40.469  19.610  26.083  1.00  0.00    -0.237 OA
ATOM     76  O   UNL A   1      42.687  18.843  25.330  1.00  0.00    -0.744 OA
ENDBRANCH  72  73
ENDBRANCH  51  65
BRANCH  52  77
ATOM     77  C   UNL A   1      46.744  32.996  28.503  1.00  0.00     0.058 A 
ATOM     78  C   UNL A   1      47.185  33.355  29.784  1.00  0.00     0.135 A 
ATOM     79  C   UNL A   1      46.806  33.968  27.493  1.00  0.00     0.135 A 
ATOM     80  F   UNL A   1      47.138  32.462  30.784  1.00  0.00    -0.206 F 
ATOM     81  C   UNL A   1      47.657  34.634  30.060  1.00  0.00     0.059 A 
ATOM     82  C   UNL A   1      47.295  35.248  27.738  1.00  0.00     0.059 A 
ATOM     83  F   UNL A   1      46.411  33.667  26.245  1.00  0.00    -0.206 F 
ATOM     84  C   UNL A   1      47.710  35.573  29.029  1.00  0.00     0.060 A 
BRANCH  84  85
ATOM     85  S   UNL A   1      48.372  37.215  29.387  1.00  0.00     0.124 S 
ATOM     86  O   UNL A   1      49.405  36.908  30.369  1.00  0.00    -0.237 OA
ATOM     87  O   UNL A   1      48.846  37.648  28.076  1.00  0.00    -0.237 OA
ATOM     88  O   UNL A   1      47.211  37.940  29.896  1.00  0.00    -0.744 OA
ENDBRANCH  84  85
ENDBRANCH  52  77
BRANCH  64  89
ATOM     89  C   UNL A   1      49.750  27.149  26.135  1.00  0.00     0.058 A 
ATOM     90  C   UNL A   1      50.102  27.294  24.786  1.00  0.00     0.135 A 
ATOM     91  C   UNL A   1      50.761  26.809  27.049  1.00  0.00     0.135 A 
ATOM     92  F   UNL A   1      49.169  27.611  23.874  1.00  0.00    -0.206 F 
ATOM     93  C   UNL A   1      51.414  27.120  24.358  1.00  0.00     0.059 A 
ATOM     94  C   UNL A   1      52.082  26.649  26.646  1.00  0.00     0.059 A 
ATOM     95  F   UNL A   1      50.472  26.667  28.352  1.00  0.00    -0.206 F 
ATOM     96  C   UNL A   1      52.399  26.808  25.298  1.00  0.00     0.060 A 
BRANCH  96  97
ATOM     97  S   UNL A   1      54.113  26.674  24.745  1.00  0.00     0.124 S 
ATOM     98  O   UNL A   1      53.961  25.962  23.481  1.00  0.00    -0.237 OA
ATOM     99  O   UNL A   1      54.518  28.073  24.639  1.00  0.00    -0.237 OA
ATOM    100  O   UNL A   1      54.758  25.923  25.817  1.00  0.00    -0.744 OA
ENDBRANCH  96  97
ENDBRANCH  64  89
ENDBRANCH  38  39
ENDBRANCH  30  33
ENDBRANCH  28  29
ENDBRANCH  27  28
ENDBRANCH  26  27
ENDBRANCH   1  26
TORSDOF 20
ENDMDL
MODEL 2
REMARK VINA RESULT:     -10.6      6.349      9.074
REMARK SMILES O=C(C[C@H]1CCCCO1)N[C@@H](C(=O)NCCCCCCNC(=O)c1ccc(-c2c3nc(c(-c4c(F)cc(S(=O)(=O)[O-])cc4F)c4ccc([nH]4)c(-c4c(F)cc(S(=O)(=O)[O-])cc4F)c4nc(c(-c5c(F)cc(S(=O)(=O)[O-])cc5F)c5ccc2[nH]5)C=C4)C=C3)cc1)C1CCCCC1
REMARK SMILES IDX 17 1 16 2 15 3 14 4 12 5 13 6 11 8 10 9 1 10 2 11 3 13 4 14
REMARK SMILES IDX 5 15 9 16 6 17 8 18 7 19 90 20 91 21 95 22 92 23 94 24 93 25
REMARK SMILES IDX 18 26 19 27 20 28 21 29 22 30 23 32 24 33 25 34 89 35 26 36
REMARK SMILES IDX 88 37 27 38 28 39 29 40 82 41 30 42 87 43 81 44 83 45 31 46
REMARK SMILES IDX 86 47 80 48 79 49 32 51 66 52 45 53 65 54 46 55 49 56 64 57
REMARK SMILES IDX 84 58 47 59 48 60 63 62 85 63 50 64 33 65 34 66 43 67 35 68
REMARK SMILES IDX 36 69 42 70 44 71 37 72 38 73 39 74 40 75 41 76 67 77 68 78
REMARK SMILES IDX 77 79 69 80 70 81 76 82 78 83 71 84 72 85 73 86 74 87 75 88
REMARK SMILES IDX 51 89 52 90 61 91 53 92 54 93 60 94 62 95 55 96 56 97 57 98
REMARK SMILES IDX 58 99 59 100
REMARK H PARENT 14 7 10 12 21 31 83 50 49 61
REMARK Flexibility Score: inf
ROOT
ATOM      1  C   UNL A   1      35.229  30.413  27.372  1.00  0.00     0.002 C 
ENDROOT
BRANCH   1   2
ATOM      2  C   UNL A   1      34.633  29.044  27.011  1.00  0.00     0.021 C 
BRANCH   2   3
ATOM      3  C   UNL A   1      33.298  29.125  26.270  1.00  0.00     0.116 C 
BRANCH   3   4
ATOM      4  N   UNL A   1      33.505  29.456  24.877  1.00  0.00    -0.354 N 
ATOM      5  C   UNL A   1      33.158  28.774  23.749  1.00  0.00     0.242 C 
ATOM      6  O   UNL A   1      33.437  29.324  22.681  1.00  0.00    -0.273 OA
ATOM      7  H   UNL A   1      33.971  30.310  24.718  1.00  0.00     0.163 HD
BRANCH   5   8
ATOM      8  C   UNL A   1      32.343  27.454  23.846  1.00  0.00     0.174 C 
BRANCH   8   9
ATOM      9  N   UNL A   1      30.912  27.729  24.003  1.00  0.00    -0.344 N 
ATOM     10  O   UNL A   1      30.425  27.991  21.773  1.00  0.00    -0.275 OA
ATOM     11  C   UNL A   1      30.063  27.968  22.945  1.00  0.00     0.223 C 
ATOM     12  H   UNL A   1      30.538  27.745  24.914  1.00  0.00     0.164 HD
BRANCH  11  13
ATOM     13  C   UNL A   1      28.631  28.241  23.360  1.00  0.00     0.132 C 
BRANCH  13  14
ATOM     14  C   UNL A   1      28.131  29.592  22.846  1.00  0.00     0.127 C 
ATOM     15  C   UNL A   1      28.720  30.757  23.651  1.00  0.00     0.033 C 
ATOM     16  O   UNL A   1      28.427  29.690  21.448  1.00  0.00    -0.378 OA
ATOM     17  C   UNL A   1      28.315  32.093  23.044  1.00  0.00     0.005 C 
ATOM     18  C   UNL A   1      28.030  30.924  20.859  1.00  0.00     0.160 C 
ATOM     19  C   UNL A   1      28.668  32.112  21.564  1.00  0.00     0.029 C 
ENDBRANCH  13  14
ENDBRANCH  11  13
ENDBRANCH   8   9
BRANCH   8  20
ATOM     20  C   UNL A   1      32.821  26.485  24.965  1.00  0.00     0.021 C 
ATOM     21  C   UNL A   1      31.692  25.526  25.393  1.00  0.00     0.006 C 
ATOM     22  C   UNL A   1      34.125  25.736  24.612  1.00  0.00     0.006 C 
ATOM     23  C   UNL A   1      32.145  24.516  26.442  1.00  0.00     0.000 C 
ATOM     24  C   UNL A   1      34.522  24.710  25.670  1.00  0.00     0.000 C 
ATOM     25  C   UNL A   1      33.380  23.753  25.980  1.00  0.00     0.000 C 
ENDBRANCH   8  20
ENDBRANCH   5   8
ENDBRANCH   3   4
ENDBRANCH   2   3
ENDBRANCH   1   2
BRANCH   1  26
ATOM     26  C   UNL A   1      34.555  31.130  28.548  1.00  0.00     0.002 C 
BRANCH  26  27
ATOM     27  C   UNL A   1      33.302  31.928  28.186  1.00  0.00     0.021 C 
BRANCH  27  28
ATOM     28  C   UNL A   1      33.568  33.163  27.334  1.00  0.00     0.116 C 
BRANCH  28  29
ATOM     29  N   UNL A   1      32.956  34.357  27.897  1.00  0.00    -0.352 N 
ATOM     30  C   UNL A   1      33.238  34.969  29.093  1.00  0.00     0.251 C 
ATOM     31  H   UNL A   1      32.252  34.778  27.352  1.00  0.00     0.163 HD
ATOM     32  O   UNL A   1      32.519  35.866  29.522  1.00  0.00    -0.269 OA
BRANCH  30  33
ATOM     33  C   UNL A   1      34.412  34.517  29.867  1.00  0.00     0.039 A 
ATOM     34  C   UNL A   1      34.219  33.855  31.083  1.00  0.00     0.014 A 
ATOM     35  C   UNL A   1      35.700  34.717  29.363  1.00  0.00     0.014 A 
ATOM     36  C   UNL A   1      35.321  33.338  31.768  1.00  0.00     0.010 A 
ATOM     37  C   UNL A   1      36.787  34.151  30.016  1.00  0.00     0.010 A 
ATOM     38  C   UNL A   1      36.610  33.458  31.225  1.00  0.00    -0.014 A 
BRANCH  38  39
ATOM     39  C   UNL A   1      37.806  32.896  31.899  1.00  0.00     0.031 A 
ATOM     40  C   UNL A   1      38.492  31.700  31.299  1.00  0.00     0.074 A 
ATOM     41  C   UNL A   1      38.203  33.382  33.092  1.00  0.00     0.049 A 
ATOM     42  N   UNL A   1      39.411  30.928  31.815  1.00  0.00    -0.248 NA
ATOM     43  C   UNL A   1      38.056  31.300  29.950  1.00  0.00     0.031 C 
ATOM     44  C   UNL A   1      37.602  34.523  33.785  1.00  0.00     0.029 A 
ATOM     45  N   UNL A   1      39.190  32.957  33.946  1.00  0.00    -0.354 N 
ATOM     46  C   UNL A   1      39.638  29.932  30.872  1.00  0.00     0.074 A 
ATOM     47  C   UNL A   1      38.738  30.179  29.768  1.00  0.00     0.031 C 
ATOM     48  C   UNL A   1      38.232  34.707  34.958  1.00  0.00     0.029 A 
ATOM     49  C   UNL A   1      39.249  33.671  35.120  1.00  0.00     0.049 A 
ATOM     50  H   UNL A   1      39.798  32.210  33.738  1.00  0.00     0.167 HD
ATOM     51  C   UNL A   1      40.526  28.911  30.921  1.00  0.00     0.037 A 
ATOM     52  C   UNL A   1      40.020  33.497  36.212  1.00  0.00     0.037 A 
ATOM     53  C   UNL A   1      41.447  28.699  32.005  1.00  0.00     0.049 A 
ATOM     54  C   UNL A   1      41.010  32.363  36.238  1.00  0.00     0.074 A 
ATOM     55  C   UNL A   1      42.422  27.726  32.128  1.00  0.00     0.029 A 
ATOM     56  N   UNL A   1      41.513  29.481  33.150  1.00  0.00    -0.354 N 
ATOM     57  N   UNL A   1      41.235  31.447  35.326  1.00  0.00    -0.248 NA
ATOM     58  C   UNL A   1      41.851  32.235  37.437  1.00  0.00     0.031 C 
ATOM     59  C   UNL A   1      43.060  27.901  33.360  1.00  0.00     0.029 A 
ATOM     60  C   UNL A   1      42.508  29.008  33.986  1.00  0.00     0.049 A 
ATOM     61  H   UNL A   1      40.938  30.257  33.339  1.00  0.00     0.167 HD
ATOM     62  C   UNL A   1      42.264  30.658  35.825  1.00  0.00     0.074 A 
ATOM     63  C   UNL A   1      42.617  31.199  37.121  1.00  0.00     0.031 C 
ATOM     64  C   UNL A   1      42.866  29.583  35.259  1.00  0.00     0.037 A 
BRANCH  51  65
ATOM     65  C   UNL A   1      40.542  27.948  29.769  1.00  0.00     0.058 A 
ATOM     66  C   UNL A   1      39.587  26.926  29.648  1.00  0.00     0.135 A 
ATOM     67  C   UNL A   1      41.513  28.060  28.760  1.00  0.00     0.135 A 
ATOM     68  F   UNL A   1      38.648  26.764  30.593  1.00  0.00    -0.206 F 
ATOM     69  C   UNL A   1      39.612  26.031  28.584  1.00  0.00     0.059 A 
ATOM     70  C   UNL A   1      41.540  27.193  27.673  1.00  0.00     0.059 A 
ATOM     71  F   UNL A   1      42.450  29.019  28.827  1.00  0.00    -0.206 F 
ATOM     72  C   UNL A   1      40.595  26.170  27.604  1.00  0.00     0.060 A 
BRANCH  72  73
ATOM     73  S   UNL A   1      40.619  24.997  26.231  1.00  0.00     0.124 S 
ATOM     74  O   UNL A   1      39.225  24.565  26.195  1.00  0.00    -0.237 OA
ATOM     75  O   UNL A   1      41.052  25.830  25.114  1.00  0.00    -0.237 OA
ATOM     76  O   UNL A   1      41.578  23.987  26.665  1.00  0.00    -0.744 OA
ENDBRANCH  72  73
ENDBRANCH  51  65
BRANCH  52  77
ATOM     77  C   UNL A   1      39.895  34.426  37.365  1.00  0.00     0.058 A 
ATOM     78  C   UNL A   1      40.629  35.620  37.406  1.00  0.00     0.135 A 
ATOM     79  C   UNL A   1      39.031  34.152  38.436  1.00  0.00     0.135 A 
ATOM     80  F   UNL A   1      41.474  35.922  36.408  1.00  0.00    -0.206 F 
ATOM     81  C   UNL A   1      40.522  36.505  38.475  1.00  0.00     0.059 A 
ATOM     82  C   UNL A   1      38.889  35.032  39.505  1.00  0.00     0.059 A 
ATOM     83  F   UNL A   1      38.294  33.030  38.435  1.00  0.00    -0.206 F 
ATOM     84  C   UNL A   1      39.648  36.203  39.519  1.00  0.00     0.060 A 
BRANCH  84  85
ATOM     85  S   UNL A   1      39.479  37.382  40.877  1.00  0.00     0.124 S 
ATOM     86  O   UNL A   1      38.976  36.527  41.946  1.00  0.00    -0.237 OA
ATOM     87  O   UNL A   1      40.847  37.865  41.036  1.00  0.00    -0.237 OA
ATOM     88  O   UNL A   1      38.533  38.363  40.352  1.00  0.00    -0.744 OA
ENDBRANCH  84  85
ENDBRANCH  52  77
BRANCH  64  89
ATOM     89  C   UNL A   1      44.008  28.947  35.996  1.00  0.00     0.058 A 
ATOM     90  C   UNL A   1      45.303  29.484  35.950  1.00  0.00     0.135 A 
ATOM     91  C   UNL A   1      43.775  27.856  36.849  1.00  0.00     0.135 A 
ATOM     92  F   UNL A   1      45.576  30.522  35.144  1.00  0.00    -0.206 F 
ATOM     93  C   UNL A   1      46.329  28.965  36.733  1.00  0.00     0.059 A 
ATOM     94  C   UNL A   1      44.781  27.334  37.654  1.00  0.00     0.059 A 
ATOM     95  F   UNL A   1      42.550  27.313  36.930  1.00  0.00    -0.206 F 
ATOM     96  C   UNL A   1      46.055  27.897  37.591  1.00  0.00     0.060 A 
BRANCH  96  97
ATOM     97  S   UNL A   1      47.371  27.292  38.669  1.00  0.00     0.124 S 
ATOM     98  O   UNL A   1      48.303  28.414  38.655  1.00  0.00    -0.237 OA
ATOM     99  O   UNL A   1      46.666  27.069  39.928  1.00  0.00    -0.237 OA
ATOM    100  O   UNL A   1      47.833  26.082  37.996  1.00  0.00    -0.744 OA
ENDBRANCH  96  97
ENDBRANCH  64  89
ENDBRANCH  38  39
ENDBRANCH  30  33
ENDBRANCH  28  29
ENDBRANCH  27  28
ENDBRANCH  26  27
ENDBRANCH   1  26
TORSDOF 20
ENDMDL
MODEL 3
REMARK VINA RESULT:     -10.6      5.237     10.025
REMARK SMILES O=C(C[C@H]1CCCCO1)N[C@@H](C(=O)NCCCCCCNC(=O)c1ccc(-c2c3nc(c(-c4c(F)cc(S(=O)(=O)[O-])cc4F)c4ccc([nH]4)c(-c4c(F)cc(S(=O)(=O)[O-])cc4F)c4nc(c(-c5c(F)cc(S(=O)(=O)[O-])cc5F)c5ccc2[nH]5)C=C4)C=C3)cc1)C1CCCCC1
REMARK SMILES IDX 17 1 16 2 15 3 14 4 12 5 13 6 11 8 10 9 1 10 2 11 3 13 4 14
REMARK SMILES IDX 5 15 9 16 6 17 8 18 7 19 90 20 91 21 95 22 92 23 94 24 93 25
REMARK SMILES IDX 18 26 19 27 20 28 21 29 22 30 23 32 24 33 25 34 89 35 26 36
REMARK SMILES IDX 88 37 27 38 28 39 29 40 82 41 30 42 87 43 81 44 83 45 31 46
REMARK SMILES IDX 86 47 80 48 79 49 32 51 66 52 45 53 65 54 46 55 49 56 64 57
REMARK SMILES IDX 84 58 47 59 48 60 63 62 85 63 50 64 33 65 34 66 43 67 35 68
REMARK SMILES IDX 36 69 42 70 44 71 37 72 38 73 39 74 40 75 41 76 67 77 68 78
REMARK SMILES IDX 77 79 69 80 70 81 76 82 78 83 71 84 72 85 73 86 74 87 75 88
REMARK SMILES IDX 51 89 52 90 61 91 53 92 54 93 60 94 62 95 55 96 56 97 57 98
REMARK SMILES IDX 58 99 59 100
REMARK H PARENT 14 7 10 12 21 31 83 50 49 61
REMARK Flexibility Score: inf
ROOT
ATOM      1  C   UNL A   1      31.392  26.635  26.260  1.00  0.00     0.002 C 
ENDROOT
BRANCH   1   2
ATOM      2  C   UNL A   1      32.310  25.562  25.656  1.00  0.00     0.021 C 
BRANCH   2   3
ATOM      3  C   UNL A   1      31.734  24.147  25.718  1.00  0.00     0.116 C 
BRANCH   3   4
ATOM      4  N   UNL A   1      32.469  23.336  26.665  1.00  0.00    -0.354 N 
ATOM      5  C   UNL A   1      33.469  22.433  26.459  1.00  0.00     0.242 C 
ATOM      6  O   UNL A   1      33.937  21.910  27.474  1.00  0.00    -0.273 OA
ATOM      7  H   UNL A   1      32.204  23.455  27.606  1.00  0.00     0.163 HD
BRANCH   5   8
ATOM      8  C   UNL A   1      34.047  22.207  25.034  1.00  0.00     0.174 C 
BRANCH   8   9
ATOM      9  N   UNL A   1      33.732  20.861  24.547  1.00  0.00    -0.344 N 
ATOM     10  O   UNL A   1      31.505  20.868  25.107  1.00  0.00    -0.275 OA
ATOM     11  C   UNL A   1      32.475  20.302  24.616  1.00  0.00     0.223 C 
ATOM     12  H   UNL A   1      34.459  20.328  24.150  1.00  0.00     0.164 HD
BRANCH  11  13
ATOM     13  C   UNL A   1      32.401  18.894  24.060  1.00  0.00     0.132 C 
BRANCH  13  14
ATOM     14  C   UNL A   1      33.204  17.901  24.900  1.00  0.00     0.127 C 
ATOM     15  C   UNL A   1      32.558  16.510  24.904  1.00  0.00     0.033 C 
ATOM     16  O   UNL A   1      34.552  17.874  24.417  1.00  0.00    -0.378 OA
ATOM     17  C   UNL A   1      33.439  15.506  25.636  1.00  0.00     0.005 C 
ATOM     18  C   UNL A   1      35.396  16.959  25.108  1.00  0.00     0.160 C 
ATOM     19  C   UNL A   1      34.846  15.542  25.057  1.00  0.00     0.029 C 
ENDBRANCH  13  14
ENDBRANCH  11  13
ENDBRANCH   8   9
BRANCH   8  20
ATOM     20  C   UNL A   1      35.576  22.469  24.913  1.00  0.00     0.021 C 
ATOM     21  C   UNL A   1      36.010  23.652  25.803  1.00  0.00     0.006 C 
ATOM     22  C   UNL A   1      36.436  21.209  25.152  1.00  0.00     0.006 C 
ATOM     23  C   UNL A   1      37.515  23.896  25.763  1.00  0.00     0.000 C 
ATOM     24  C   UNL A   1      37.934  21.504  25.139  1.00  0.00     0.000 C 
ATOM     25  C   UNL A   1      38.291  22.630  26.100  1.00  0.00     0.000 C 
ENDBRANCH   8  20
ENDBRANCH   5   8
ENDBRANCH   3   4
ENDBRANCH   2   3
ENDBRANCH   1   2
BRANCH   1  26
ATOM     26  C   UNL A   1      31.713  28.077  25.850  1.00  0.00     0.002 C 
BRANCH  26  27
ATOM     27  C   UNL A   1      33.062  28.266  25.155  1.00  0.00     0.021 C 
BRANCH  27  28
ATOM     28  C   UNL A   1      34.157  28.828  26.053  1.00  0.00     0.116 C 
BRANCH  28  29
ATOM     29  N   UNL A   1      33.854  30.178  26.503  1.00  0.00    -0.352 N 
ATOM     30  C   UNL A   1      34.470  30.898  27.498  1.00  0.00     0.251 C 
ATOM     31  H   UNL A   1      33.116  30.633  26.036  1.00  0.00     0.163 HD
ATOM     32  O   UNL A   1      33.993  31.958  27.890  1.00  0.00    -0.269 OA
BRANCH  30  33
ATOM     33  C   UNL A   1      35.707  30.364  28.103  1.00  0.00     0.039 A 
ATOM     34  C   UNL A   1      36.945  30.717  27.560  1.00  0.00     0.014 A 
ATOM     35  C   UNL A   1      35.633  29.545  29.234  1.00  0.00     0.014 A 
ATOM     36  C   UNL A   1      38.119  30.295  28.190  1.00  0.00     0.010 A 
ATOM     37  C   UNL A   1      36.801  29.177  29.890  1.00  0.00     0.010 A 
ATOM     38  C   UNL A   1      38.054  29.546  29.376  1.00  0.00    -0.014 A 
BRANCH  38  39
ATOM     39  C   UNL A   1      39.272  29.105  30.097  1.00  0.00     0.031 A 
ATOM     40  C   UNL A   1      39.705  29.851  31.329  1.00  0.00     0.074 A 
ATOM     41  C   UNL A   1      40.041  28.120  29.591  1.00  0.00     0.049 A 
ATOM     42  N   UNL A   1      40.830  29.774  31.991  1.00  0.00    -0.248 NA
ATOM     43  C   UNL A   1      38.757  30.841  31.865  1.00  0.00     0.031 C 
ATOM     44  C   UNL A   1      39.737  27.339  28.391  1.00  0.00     0.029 A 
ATOM     45  N   UNL A   1      41.252  27.628  30.010  1.00  0.00    -0.354 N 
ATOM     46  C   UNL A   1      40.740  30.729  32.997  1.00  0.00     0.074 A 
ATOM     47  C   UNL A   1      39.465  31.394  32.838  1.00  0.00     0.031 C 
ATOM     48  C   UNL A   1      40.735  26.467  28.169  1.00  0.00     0.029 A 
ATOM     49  C   UNL A   1      41.769  26.658  29.184  1.00  0.00     0.049 A 
ATOM     50  H   UNL A   1      41.708  27.941  30.825  1.00  0.00     0.167 HD
ATOM     51  C   UNL A   1      41.636  31.016  33.969  1.00  0.00     0.037 A 
ATOM     52  C   UNL A   1      42.951  26.012  29.226  1.00  0.00     0.037 A 
ATOM     53  C   UNL A   1      42.882  30.319  34.144  1.00  0.00     0.049 A 
ATOM     54  C   UNL A   1      43.927  26.337  30.325  1.00  0.00     0.074 A 
ATOM     55  C   UNL A   1      43.837  30.498  35.129  1.00  0.00     0.029 A 
ATOM     56  N   UNL A   1      43.341  29.303  33.318  1.00  0.00    -0.354 N 
ATOM     57  N   UNL A   1      43.815  27.222  31.288  1.00  0.00    -0.248 NA
ATOM     58  C   UNL A   1      45.188  25.581  30.348  1.00  0.00     0.031 C 
ATOM     59  C   UNL A   1      44.888  29.609  34.883  1.00  0.00     0.029 A 
ATOM     60  C   UNL A   1      44.569  28.850  33.767  1.00  0.00     0.049 A 
ATOM     61  H   UNL A   1      42.865  28.957  32.530  1.00  0.00     0.167 HD
ATOM     62  C   UNL A   1      44.972  27.104  32.049  1.00  0.00     0.074 A 
ATOM     63  C   UNL A   1      45.774  26.067  31.434  1.00  0.00     0.031 C 
ATOM     64  C   UNL A   1      45.336  27.791  33.159  1.00  0.00     0.037 A 
BRANCH  51  65
ATOM     65  C   UNL A   1      41.300  32.130  34.920  1.00  0.00     0.058 A 
ATOM     66  C   UNL A   1      40.552  31.903  36.086  1.00  0.00     0.135 A 
ATOM     67  C   UNL A   1      41.749  33.437  34.672  1.00  0.00     0.135 A 
ATOM     68  F   UNL A   1      40.083  30.676  36.360  1.00  0.00    -0.206 F 
ATOM     69  C   UNL A   1      40.235  32.940  36.957  1.00  0.00     0.059 A 
ATOM     70  C   UNL A   1      41.468  34.483  35.545  1.00  0.00     0.059 A 
ATOM     71  F   UNL A   1      42.468  33.708  33.571  1.00  0.00    -0.206 F 
ATOM     72  C   UNL A   1      40.694  34.227  36.677  1.00  0.00     0.060 A 
BRANCH  72  73
ATOM     73  S   UNL A   1      40.270  35.563  37.814  1.00  0.00     0.124 S 
ATOM     74  O   UNL A   1      41.504  35.689  38.586  1.00  0.00    -0.237 OA
ATOM     75  O   UNL A   1      39.977  36.667  36.906  1.00  0.00    -0.237 OA
ATOM     76  O   UNL A   1      39.123  35.036  38.545  1.00  0.00    -0.744 OA
ENDBRANCH  72  73
ENDBRANCH  51  65
BRANCH  52  77
ATOM     77  C   UNL A   1      43.272  24.983  28.202  1.00  0.00     0.058 A 
ATOM     78  C   UNL A   1      42.967  23.632  28.423  1.00  0.00     0.135 A 
ATOM     79  C   UNL A   1      43.870  25.328  26.980  1.00  0.00     0.135 A 
ATOM     80  F   UNL A   1      42.401  23.253  29.579  1.00  0.00    -0.206 F 
ATOM     81  C   UNL A   1      43.255  22.656  27.475  1.00  0.00     0.059 A 
ATOM     82  C   UNL A   1      44.148  24.372  26.007  1.00  0.00     0.059 A 
ATOM     83  F   UNL A   1      44.166  26.610  26.715  1.00  0.00    -0.206 F 
ATOM     84  C   UNL A   1      43.845  23.036  26.269  1.00  0.00     0.060 A 
BRANCH  84  85
ATOM     85  S   UNL A   1      44.169  21.767  25.025  1.00  0.00     0.124 S 
ATOM     86  O   UNL A   1      45.550  21.408  25.326  1.00  0.00    -0.237 OA
ATOM     87  O   UNL A   1      43.162  20.759  25.344  1.00  0.00    -0.237 OA
ATOM     88  O   UNL A   1      43.960  22.474  23.764  1.00  0.00    -0.744 OA
ENDBRANCH  84  85
ENDBRANCH  52  77
BRANCH  64  89
ATOM     89  C   UNL A   1      46.626  27.415  33.828  1.00  0.00     0.058 A 
ATOM     90  C   UNL A   1      46.684  26.404  34.798  1.00  0.00     0.135 A 
ATOM     91  C   UNL A   1      47.833  27.996  33.406  1.00  0.00     0.135 A 
ATOM     92  F   UNL A   1      45.557  25.824  35.238  1.00  0.00    -0.206 F 
ATOM     93  C   UNL A   1      47.899  25.974  35.322  1.00  0.00     0.059 A 
ATOM     94  C   UNL A   1      49.059  27.569  33.903  1.00  0.00     0.059 A 
ATOM     95  F   UNL A   1      47.827  28.963  32.475  1.00  0.00    -0.206 F 
ATOM     96  C   UNL A   1      49.082  26.556  34.860  1.00  0.00     0.060 A 
BRANCH  96  97
ATOM     97  S   UNL A   1      50.657  25.927  35.480  1.00  0.00     0.124 S 
ATOM     98  O   UNL A   1      50.221  25.073  36.580  1.00  0.00    -0.237 OA
ATOM     99  O   UNL A   1      51.197  25.232  34.314  1.00  0.00    -0.237 OA
ATOM    100  O   UNL A   1      51.376  27.135  35.869  1.00  0.00    -0.744 OA
ENDBRANCH  96  97
ENDBRANCH  64  89
ENDBRANCH  38  39
ENDBRANCH  30  33
ENDBRANCH  28  29
ENDBRANCH  27  28
ENDBRANCH  26  27
ENDBRANCH   1  26
TORSDOF 20
ENDMDL
