MODEL 1
REMARK VINA RESULT:     -12.6      0.000      0.000
REMARK SMILES O=C(NCCCCCCNC(=O)[C@@H]1CC(=O)N(c2ccc(Cl)cc2C(=O)c2ccccc2)C1)c1ccc(-c2c3nc(c(-c4c(F)cc(S(=O)(=O)[O-])cc4F)c4ccc([nH]4)c(-c4c(F)cc(S(=O)(=O)[O-])cc4F)c4nc(c(-c5c(F)cc(S(=O)(=O)[O-])cc5F)c5ccc2[nH]5)C=C4)C=C3)cc1
REMARK SMILES IDX 6 1 5 2 4 3 3 4 1 5 2 6 34 8 35 9 99 10 36 11 98 12 37 13
REMARK SMILES IDX 38 14 39 15 92 16 40 17 97 18 91 19 93 20 41 21 96 22 90 23
REMARK SMILES IDX 89 24 42 26 76 27 55 28 75 29 56 30 59 31 74 32 94 33 57 34
REMARK SMILES IDX 58 35 73 37 95 38 60 39 43 40 44 41 53 42 45 43 46 44 52 45
REMARK SMILES IDX 54 46 47 47 48 48 49 49 50 50 51 51 77 52 78 53 87 54 79 55
REMARK SMILES IDX 80 56 86 57 88 58 81 59 82 60 83 61 84 62 85 63 61 64 62 65
REMARK SMILES IDX 71 66 63 67 64 68 70 69 72 70 65 71 66 72 67 73 68 74 69 75
REMARK SMILES IDX 7 76 8 77 9 78 10 79 11 80 12 82 13 83 14 84 33 85 15 86
REMARK SMILES IDX 17 87 16 88 18 89 19 90 24 91 20 92 23 93 21 94 22 95 25 96
REMARK SMILES IDX 26 97 27 98 28 99 32 100 29 101 31 102 30 103
REMARK H PARENT 3 7 93 25 59 36 10 81
REMARK Flexibility Score: inf
ROOT
ATOM      1  C   UNL A   1      37.140  23.125  25.002  1.00  0.00     0.002 C 
ENDROOT
BRANCH   1   2
ATOM      2  C   UNL A   1      37.327  24.120  26.143  1.00  0.00     0.021 C 
BRANCH   2   3
ATOM      3  C   UNL A   1      38.695  24.107  26.811  1.00  0.00     0.116 C 
BRANCH   3   4
ATOM      4  N   UNL A   1      39.778  24.507  25.927  1.00  0.00    -0.352 N 
ATOM      5  O   UNL A   1      41.503  25.774  25.202  1.00  0.00    -0.269 OA
ATOM      6  C   UNL A   1      40.718  25.500  26.104  1.00  0.00     0.251 C 
ATOM      7  H   UNL A   1      39.850  23.998  25.087  1.00  0.00     0.163 HD
BRANCH   6   8
ATOM      8  C   UNL A   1      40.743  26.263  27.374  1.00  0.00     0.039 A 
ATOM      9  C   UNL A   1      39.875  25.936  28.417  1.00  0.00     0.014 A 
ATOM     10  C   UNL A   1      41.611  27.351  27.504  1.00  0.00     0.014 A 
ATOM     11  C   UNL A   1      39.736  26.804  29.495  1.00  0.00     0.010 A 
ATOM     12  C   UNL A   1      41.543  28.163  28.641  1.00  0.00     0.010 A 
ATOM     13  C   UNL A   1      40.568  27.929  29.624  1.00  0.00    -0.014 A 
BRANCH  13  14
ATOM     14  C   UNL A   1      40.406  28.824  30.803  1.00  0.00     0.031 A 
ATOM     15  C   UNL A   1      41.310  28.707  32.005  1.00  0.00     0.074 A 
ATOM     16  C   UNL A   1      39.457  29.781  30.767  1.00  0.00     0.049 A 
ATOM     17  N   UNL A   1      41.329  29.434  33.094  1.00  0.00    -0.248 NA
ATOM     18  C   UNL A   1      42.314  27.633  31.989  1.00  0.00     0.031 C 
ATOM     19  C   UNL A   1      38.513  29.989  29.666  1.00  0.00     0.029 A 
ATOM     20  N   UNL A   1      39.142  30.772  31.662  1.00  0.00    -0.354 N 
ATOM     21  C   UNL A   1      42.325  28.893  33.902  1.00  0.00     0.074 A 
ATOM     22  C   UNL A   1      42.869  27.758  33.187  1.00  0.00     0.031 C 
ATOM     23  C   UNL A   1      37.766  31.072  29.923  1.00  0.00     0.029 A 
ATOM     24  C   UNL A   1      38.128  31.596  31.235  1.00  0.00     0.049 A 
ATOM     25  H   UNL A   1      39.599  30.882  32.527  1.00  0.00     0.167 HD
ATOM     26  C   UNL A   1      42.748  29.307  35.122  1.00  0.00     0.037 A 
ATOM     27  C   UNL A   1      37.541  32.650  31.833  1.00  0.00     0.037 A 
ATOM     28  C   UNL A   1      42.214  30.452  35.818  1.00  0.00     0.049 A 
ATOM     29  C   UNL A   1      38.022  33.080  33.188  1.00  0.00     0.074 A 
ATOM     30  C   UNL A   1      42.604  30.976  37.038  1.00  0.00     0.029 A 
ATOM     31  N   UNL A   1      41.169  31.244  35.362  1.00  0.00    -0.354 N 
ATOM     32  N   UNL A   1      38.989  32.577  33.919  1.00  0.00    -0.248 NA
ATOM     33  C   UNL A   1      37.335  34.224  33.801  1.00  0.00     0.031 C 
ATOM     34  C   UNL A   1      41.764  32.052  37.345  1.00  0.00     0.029 A 
ATOM     35  C   UNL A   1      40.889  32.239  36.287  1.00  0.00     0.049 A 
ATOM     36  H   UNL A   1      40.697  31.118  34.508  1.00  0.00     0.167 HD
ATOM     37  C   UNL A   1      39.048  33.363  35.063  1.00  0.00     0.074 A 
ATOM     38  C   UNL A   1      38.026  34.381  34.922  1.00  0.00     0.031 C 
ATOM     39  C   UNL A   1      39.876  33.254  36.132  1.00  0.00     0.037 A 
BRANCH  26  40
ATOM     40  C   UNL A   1      43.830  28.507  35.802  1.00  0.00     0.058 A 
ATOM     41  C   UNL A   1      43.538  27.442  36.669  1.00  0.00     0.135 A 
ATOM     42  C   UNL A   1      45.184  28.784  35.545  1.00  0.00     0.135 A 
ATOM     43  F   UNL A   1      42.263  27.138  36.962  1.00  0.00    -0.206 F 
ATOM     44  C   UNL A   1      44.546  26.702  37.280  1.00  0.00     0.059 A 
ATOM     45  C   UNL A   1      46.208  28.039  36.122  1.00  0.00     0.059 A 
ATOM     46  F   UNL A   1      45.524  29.788  34.721  1.00  0.00    -0.206 F 
ATOM     47  C   UNL A   1      45.880  27.009  37.001  1.00  0.00     0.060 A 
BRANCH  47  48
ATOM     48  S   UNL A   1      47.174  26.042  37.806  1.00  0.00     0.124 S 
ATOM     49  O   UNL A   1      46.505  24.758  37.990  1.00  0.00    -0.237 OA
ATOM     50  O   UNL A   1      48.243  26.062  36.814  1.00  0.00    -0.237 OA
ATOM     51  O   UNL A   1      47.446  26.787  39.032  1.00  0.00    -0.744 OA
ENDBRANCH  47  48
ENDBRANCH  26  40
BRANCH  27  52
ATOM     52  C   UNL A   1      36.441  33.374  31.143  1.00  0.00     0.058 A 
ATOM     53  C   UNL A   1      36.699  34.200  30.040  1.00  0.00     0.135 A 
ATOM     54  C   UNL A   1      35.107  33.237  31.560  1.00  0.00     0.135 A 
ATOM     55  F   UNL A   1      37.958  34.365  29.605  1.00  0.00    -0.206 F 
ATOM     56  C   UNL A   1      35.678  34.880  29.385  1.00  0.00     0.059 A 
ATOM     57  C   UNL A   1      34.065  33.882  30.901  1.00  0.00     0.059 A 
ATOM     58  F   UNL A   1      34.804  32.442  32.598  1.00  0.00    -0.206 F 
ATOM     59  C   UNL A   1      34.363  34.712  29.822  1.00  0.00     0.060 A 
BRANCH  59  60
ATOM     60  S   UNL A   1      33.040  35.563  28.936  1.00  0.00     0.124 S 
ATOM     61  O   UNL A   1      32.265  36.124  30.035  1.00  0.00    -0.237 OA
ATOM     62  O   UNL A   1      33.784  36.520  28.122  1.00  0.00    -0.237 OA
ATOM     63  O   UNL A   1      32.392  34.488  28.189  1.00  0.00    -0.744 OA
ENDBRANCH  59  60
ENDBRANCH  27  52
BRANCH  39  64
ATOM     64  C   UNL A   1      39.750  34.297  37.209  1.00  0.00     0.058 A 
ATOM     65  C   UNL A   1      38.994  34.081  38.372  1.00  0.00     0.135 A 
ATOM     66  C   UNL A   1      40.417  35.526  37.080  1.00  0.00     0.135 A 
ATOM     67  F   UNL A   1      38.331  32.926  38.543  1.00  0.00    -0.206 F 
ATOM     68  C   UNL A   1      38.874  35.061  39.353  1.00  0.00     0.059 A 
ATOM     69  C   UNL A   1      40.337  36.508  38.062  1.00  0.00     0.059 A 
ATOM     70  F   UNL A   1      41.163  35.781  35.992  1.00  0.00    -0.206 F 
ATOM     71  C   UNL A   1      39.549  36.273  39.187  1.00  0.00     0.060 A 
BRANCH  71  72
ATOM     72  S   UNL A   1      39.394  37.535  40.469  1.00  0.00     0.124 S 
ATOM     73  O   UNL A   1      40.709  38.165  40.421  1.00  0.00    -0.237 OA
ATOM     74  O   UNL A   1      38.285  38.345  39.977  1.00  0.00    -0.237 OA
ATOM     75  O   UNL A   1      39.110  36.762  41.673  1.00  0.00    -0.744 OA
ENDBRANCH  71  72
ENDBRANCH  39  64
ENDBRANCH  13  14
ENDBRANCH   6   8
ENDBRANCH   3   4
ENDBRANCH   2   3
ENDBRANCH   1   2
BRANCH   1  76
ATOM     76  C   UNL A   1      36.862  21.674  25.407  1.00  0.00     0.002 C 
BRANCH  76  77
ATOM     77  C   UNL A   1      35.457  21.122  25.122  1.00  0.00     0.021 C 
BRANCH  77  78
ATOM     78  C   UNL A   1      34.357  21.498  26.115  1.00  0.00     0.116 C 
BRANCH  78  79
ATOM     79  N   UNL A   1      33.081  21.759  25.486  1.00  0.00    -0.356 N 
ATOM     80  C   UNL A   1      32.767  22.763  24.627  1.00  0.00     0.225 C 
ATOM     81  H   UNL A   1      32.352  21.135  25.708  1.00  0.00     0.163 HD
ATOM     82  O   UNL A   1      32.115  22.458  23.625  1.00  0.00    -0.275 OA
BRANCH  80  83
ATOM     83  C   UNL A   1      33.266  24.184  24.815  1.00  0.00     0.107 C 
ATOM     84  C   UNL A   1      33.061  24.826  26.183  1.00  0.00     0.116 C 
ATOM     85  C   UNL A   1      32.511  25.116  23.857  1.00  0.00     0.139 C 
ATOM     86  C   UNL A   1      31.856  25.711  26.029  1.00  0.00     0.227 C 
ATOM     87  N   UNL A   1      31.519  25.770  24.680  1.00  0.00    -0.311 N 
ATOM     88  O   UNL A   1      31.309  26.288  26.955  1.00  0.00    -0.274 OA
BRANCH  87  89
ATOM     89  C   UNL A   1      30.628  26.735  24.160  1.00  0.00     0.055 A 
ATOM     90  C   UNL A   1      29.291  26.329  23.971  1.00  0.00     0.028 A 
ATOM     91  C   UNL A   1      30.979  28.067  23.869  1.00  0.00     0.048 A 
ATOM     92  C   UNL A   1      28.308  27.224  23.545  1.00  0.00     0.023 A 
ATOM     93  C   UNL A   1      29.975  28.955  23.420  1.00  0.00     0.035 A 
ATOM     94  C   UNL A   1      28.656  28.537  23.271  1.00  0.00     0.041 A 
ATOM     95  Cl  UNL A   1      27.453  29.652  22.751  1.00  0.00    -0.084 Cl
BRANCH  91  96
ATOM     96  C   UNL A   1      32.328  28.685  23.997  1.00  0.00     0.195 C 
ATOM     97  O   UNL A   1      33.028  28.719  22.982  1.00  0.00    -0.289 OA
BRANCH  96  98
ATOM     98  C   UNL A   1      32.917  29.229  25.243  1.00  0.00     0.023 A 
ATOM     99  C   UNL A   1      34.062  28.582  25.735  1.00  0.00     0.012 A 
ATOM    100  C   UNL A   1      32.359  30.284  25.970  1.00  0.00     0.012 A 
ATOM    101  C   UNL A   1      34.666  29.006  26.919  1.00  0.00     0.001 A 
ATOM    102  C   UNL A   1      32.970  30.708  27.157  1.00  0.00     0.001 A 
ATOM    103  C   UNL A   1      34.121  30.072  27.629  1.00  0.00     0.000 A 
ENDBRANCH  96  98
ENDBRANCH  91  96
ENDBRANCH  87  89
ENDBRANCH  80  83
ENDBRANCH  78  79
ENDBRANCH  77  78
ENDBRANCH  76  77
ENDBRANCH   1  76
TORSDOF 19
ENDMDL
MODEL 2
REMARK VINA RESULT:     -12.4      6.521     12.032
REMARK SMILES O=C(NCCCCCCNC(=O)[C@@H]1CC(=O)N(c2ccc(Cl)cc2C(=O)c2ccccc2)C1)c1ccc(-c2c3nc(c(-c4c(F)cc(S(=O)(=O)[O-])cc4F)c4ccc([nH]4)c(-c4c(F)cc(S(=O)(=O)[O-])cc4F)c4nc(c(-c5c(F)cc(S(=O)(=O)[O-])cc5F)c5ccc2[nH]5)C=C4)C=C3)cc1
REMARK SMILES IDX 6 1 5 2 4 3 3 4 1 5 2 6 34 8 35 9 99 10 36 11 98 12 37 13
REMARK SMILES IDX 38 14 39 15 92 16 40 17 97 18 91 19 93 20 41 21 96 22 90 23
REMARK SMILES IDX 89 24 42 26 76 27 55 28 75 29 56 30 59 31 74 32 94 33 57 34
REMARK SMILES IDX 58 35 73 37 95 38 60 39 43 40 44 41 53 42 45 43 46 44 52 45
REMARK SMILES IDX 54 46 47 47 48 48 49 49 50 50 51 51 77 52 78 53 87 54 79 55
REMARK SMILES IDX 80 56 86 57 88 58 81 59 82 60 83 61 84 62 85 63 61 64 62 65
REMARK SMILES IDX 71 66 63 67 64 68 70 69 72 70 65 71 66 72 67 73 68 74 69 75
REMARK SMILES IDX 7 76 8 77 9 78 10 79 11 80 12 82 13 83 14 84 33 85 15 86
REMARK SMILES IDX 17 87 16 88 18 89 19 90 24 91 20 92 23 93 21 94 22 95 25 96
REMARK SMILES IDX 26 97 27 98 28 99 32 100 29 101 31 102 30 103
REMARK H PARENT 3 7 93 25 59 36 10 81
REMARK Flexibility Score: inf
ROOT
ATOM      1  C   UNL A   1      37.595  33.806  29.709  1.00  0.00     0.002 C 
ENDROOT
BRANCH   1   2
ATOM      2  C   UNL A   1      37.793  34.037  31.204  1.00  0.00     0.021 C 
BRANCH   2   3
ATOM      3  C   UNL A   1      38.012  32.785  32.041  1.00  0.00     0.116 C 
BRANCH   3   4
ATOM      4  N   UNL A   1      36.903  31.846  31.985  1.00  0.00    -0.352 N 
ATOM      5  O   UNL A   1      35.783  29.997  31.329  1.00  0.00    -0.269 OA
ATOM      6  C   UNL A   1      36.842  30.616  31.366  1.00  0.00     0.251 C 
ATOM      7  H   UNL A   1      36.084  32.127  32.455  1.00  0.00     0.163 HD
BRANCH   6   8
ATOM      8  C   UNL A   1      38.051  30.068  30.707  1.00  0.00     0.039 A 
ATOM      9  C   UNL A   1      39.033  29.414  31.453  1.00  0.00     0.014 A 
ATOM     10  C   UNL A   1      38.228  30.256  29.333  1.00  0.00     0.014 A 
ATOM     11  C   UNL A   1      40.262  29.129  30.872  1.00  0.00     0.010 A 
ATOM     12  C   UNL A   1      39.428  29.869  28.728  1.00  0.00     0.010 A 
ATOM     13  C   UNL A   1      40.479  29.350  29.501  1.00  0.00    -0.014 A 
BRANCH  13  14
ATOM     14  C   UNL A   1      41.802  29.011  28.908  1.00  0.00     0.031 A 
ATOM     15  C   UNL A   1      42.916  30.026  28.846  1.00  0.00     0.074 A 
ATOM     16  C   UNL A   1      42.012  27.756  28.462  1.00  0.00     0.049 A 
ATOM     17  N   UNL A   1      44.139  29.880  28.402  1.00  0.00    -0.248 NA
ATOM     18  C   UNL A   1      42.620  31.381  29.336  1.00  0.00     0.031 C 
ATOM     19  C   UNL A   1      41.010  26.686  28.458  1.00  0.00     0.029 A 
ATOM     20  N   UNL A   1      43.135  27.158  27.948  1.00  0.00    -0.354 N 
ATOM     21  C   UNL A   1      44.749  31.124  28.532  1.00  0.00     0.074 A 
ATOM     22  C   UNL A   1      43.751  32.022  29.074  1.00  0.00     0.031 C 
ATOM     23  C   UNL A   1      41.577  25.553  28.021  1.00  0.00     0.029 A 
ATOM     24  C   UNL A   1      42.961  25.827  27.650  1.00  0.00     0.049 A 
ATOM     25  H   UNL A   1      43.983  27.636  27.807  1.00  0.00     0.167 HD
ATOM     26  C   UNL A   1      46.023  31.483  28.233  1.00  0.00     0.037 A 
ATOM     27  C   UNL A   1      43.811  24.926  27.124  1.00  0.00     0.037 A 
ATOM     28  C   UNL A   1      47.016  30.576  27.713  1.00  0.00     0.049 A 
ATOM     29  C   UNL A   1      45.212  25.352  26.793  1.00  0.00     0.074 A 
ATOM     30  C   UNL A   1      48.345  30.833  27.418  1.00  0.00     0.029 A 
ATOM     31  N   UNL A   1      46.792  29.243  27.400  1.00  0.00    -0.354 N 
ATOM     32  N   UNL A   1      45.779  26.524  26.958  1.00  0.00    -0.248 NA
ATOM     33  C   UNL A   1      46.091  24.334  26.205  1.00  0.00     0.031 C 
ATOM     34  C   UNL A   1      48.909  29.671  26.879  1.00  0.00     0.029 A 
ATOM     35  C   UNL A   1      47.951  28.671  26.896  1.00  0.00     0.049 A 
ATOM     36  H   UNL A   1      45.936  28.772  27.519  1.00  0.00     0.167 HD
ATOM     37  C   UNL A   1      47.091  26.375  26.525  1.00  0.00     0.074 A 
ATOM     38  C   UNL A   1      47.235  24.997  26.102  1.00  0.00     0.031 C 
ATOM     39  C   UNL A   1      48.087  27.295  26.487  1.00  0.00     0.037 A 
BRANCH  26  40
ATOM     40  C   UNL A   1      46.416  32.923  28.439  1.00  0.00     0.058 A 
ATOM     41  C   UNL A   1      46.907  33.395  29.667  1.00  0.00     0.135 A 
ATOM     42  C   UNL A   1      46.342  33.837  27.373  1.00  0.00     0.135 A 
ATOM     43  F   UNL A   1      46.989  32.572  30.724  1.00  0.00    -0.206 F 
ATOM     44  C   UNL A   1      47.281  34.725  29.840  1.00  0.00     0.059 A 
ATOM     45  C   UNL A   1      46.738  35.164  27.516  1.00  0.00     0.059 A 
ATOM     46  F   UNL A   1      45.885  33.442  26.175  1.00  0.00    -0.206 F 
ATOM     47  C   UNL A   1      47.190  35.603  28.758  1.00  0.00     0.060 A 
BRANCH  47  48
ATOM     48  S   UNL A   1      47.674  37.326  29.002  1.00  0.00     0.124 S 
ATOM     49  O   UNL A   1      46.391  38.008  28.876  1.00  0.00    -0.237 OA
ATOM     50  O   UNL A   1      48.248  37.302  30.343  1.00  0.00    -0.237 OA
ATOM     51  O   UNL A   1      48.623  37.570  27.920  1.00  0.00    -0.744 OA
ENDBRANCH  47  48
ENDBRANCH  26  40
BRANCH  27  52
ATOM     52  C   UNL A   1      43.358  23.529  26.891  1.00  0.00     0.058 A 
ATOM     53  C   UNL A   1      43.092  23.061  25.597  1.00  0.00     0.135 A 
ATOM     54  C   UNL A   1      43.202  22.629  27.958  1.00  0.00     0.135 A 
ATOM     55  F   UNL A   1      43.224  23.885  24.546  1.00  0.00    -0.206 F 
ATOM     56  C   UNL A   1      42.671  21.756  25.366  1.00  0.00     0.059 A 
ATOM     57  C   UNL A   1      42.813  21.310  27.749  1.00  0.00     0.059 A 
ATOM     58  F   UNL A   1      43.463  23.021  29.215  1.00  0.00    -0.206 F 
ATOM     59  C   UNL A   1      42.536  20.886  26.450  1.00  0.00     0.060 A 
BRANCH  59  60
ATOM     60  S   UNL A   1      42.034  19.181  26.136  1.00  0.00     0.124 S 
ATOM     61  O   UNL A   1      42.344  18.545  27.410  1.00  0.00    -0.237 OA
ATOM     62  O   UNL A   1      40.615  19.334  25.825  1.00  0.00    -0.237 OA
ATOM     63  O   UNL A   1      42.876  18.786  25.010  1.00  0.00    -0.744 OA
ENDBRANCH  59  60
ENDBRANCH  27  52
BRANCH  39  64
ATOM     64  C   UNL A   1      49.439  26.826  26.022  1.00  0.00     0.058 A 
ATOM     65  C   UNL A   1      49.874  27.000  24.699  1.00  0.00     0.135 A 
ATOM     66  C   UNL A   1      50.320  26.212  26.926  1.00  0.00     0.135 A 
ATOM     67  F   UNL A   1      49.069  27.576  23.792  1.00  0.00    -0.206 F 
ATOM     68  C   UNL A   1      51.122  26.547  24.279  1.00  0.00     0.059 A 
ATOM     69  C   UNL A   1      51.583  25.779  26.537  1.00  0.00     0.059 A 
ATOM     70  F   UNL A   1      49.959  26.030  28.207  1.00  0.00    -0.206 F 
ATOM     71  C   UNL A   1      51.969  25.936  25.206  1.00  0.00     0.060 A 
BRANCH  71  72
ATOM     72  S   UNL A   1      53.588  25.360  24.654  1.00  0.00     0.124 S 
ATOM     73  O   UNL A   1      53.567  23.966  25.086  1.00  0.00    -0.237 OA
ATOM     74  O   UNL A   1      53.522  25.578  23.213  1.00  0.00    -0.237 OA
ATOM     75  O   UNL A   1      54.519  26.226  25.371  1.00  0.00    -0.744 OA
ENDBRANCH  71  72
ENDBRANCH  39  64
ENDBRANCH  13  14
ENDBRANCH   6   8
ENDBRANCH   3   4
ENDBRANCH   2   3
ENDBRANCH   1   2
BRANCH   1  76
ATOM     76  C   UNL A   1      36.161  33.939  29.188  1.00  0.00     0.002 C 
BRANCH  76  77
ATOM     77  C   UNL A   1      35.760  33.052  28.001  1.00  0.00     0.021 C 
BRANCH  77  78
ATOM     78  C   UNL A   1      34.465  32.252  28.147  1.00  0.00     0.116 C 
BRANCH  78  79
ATOM     79  N   UNL A   1      34.685  30.857  28.462  1.00  0.00    -0.356 N 
ATOM     80  C   UNL A   1      34.622  29.794  27.619  1.00  0.00     0.225 C 
ATOM     81  H   UNL A   1      34.906  30.653  29.400  1.00  0.00     0.163 HD
ATOM     82  O   UNL A   1      35.530  28.964  27.697  1.00  0.00    -0.275 OA
BRANCH  80  83
ATOM     83  C   UNL A   1      33.549  29.661  26.554  1.00  0.00     0.107 C 
ATOM     84  C   UNL A   1      32.140  29.300  27.015  1.00  0.00     0.116 C 
ATOM     85  C   UNL A   1      33.924  28.519  25.598  1.00  0.00     0.139 C 
ATOM     86  C   UNL A   1      32.002  27.827  26.750  1.00  0.00     0.227 C 
ATOM     87  N   UNL A   1      33.103  27.404  26.012  1.00  0.00    -0.311 N 
ATOM     88  O   UNL A   1      31.051  27.154  27.115  1.00  0.00    -0.274 OA
BRANCH  87  89
ATOM     89  C   UNL A   1      33.141  26.155  25.352  1.00  0.00     0.055 A 
ATOM     90  C   UNL A   1      33.534  25.041  26.122  1.00  0.00     0.028 A 
ATOM     91  C   UNL A   1      32.772  25.955  24.008  1.00  0.00     0.048 A 
ATOM     92  C   UNL A   1      33.525  23.748  25.595  1.00  0.00     0.023 A 
ATOM     93  C   UNL A   1      32.786  24.641  23.486  1.00  0.00     0.035 A 
ATOM     94  C   UNL A   1      33.149  23.554  24.275  1.00  0.00     0.041 A 
ATOM     95  Cl  UNL A   1      33.127  21.965  23.616  1.00  0.00    -0.084 Cl
BRANCH  91  96
ATOM     96  C   UNL A   1      32.334  26.994  23.036  1.00  0.00     0.195 C 
ATOM     97  O   UNL A   1      33.153  27.343  22.182  1.00  0.00    -0.289 OA
BRANCH  96  98
ATOM     98  C   UNL A   1      31.016  27.672  23.026  1.00  0.00     0.023 A 
ATOM     99  C   UNL A   1      29.922  26.932  23.504  1.00  0.00     0.012 A 
ATOM    100  C   UNL A   1      30.806  28.953  22.511  1.00  0.00     0.012 A 
ATOM    101  C   UNL A   1      28.638  27.478  23.503  1.00  0.00     0.001 A 
ATOM    102  C   UNL A   1      29.516  29.499  22.514  1.00  0.00     0.001 A 
ATOM    103  C   UNL A   1      28.436  28.764  23.010  1.00  0.00     0.000 A 
ENDBRANCH  96  98
ENDBRANCH  91  96
ENDBRANCH  87  89
ENDBRANCH  80  83
ENDBRANCH  78  79
ENDBRANCH  77  78
ENDBRANCH  76  77
ENDBRANCH   1  76
TORSDOF 19
ENDMDL
MODEL 3
REMARK VINA RESULT:     -12.3      1.042      7.959
REMARK SMILES O=C(NCCCCCCNC(=O)[C@@H]1CC(=O)N(c2ccc(Cl)cc2C(=O)c2ccccc2)C1)c1ccc(-c2c3nc(c(-c4c(F)cc(S(=O)(=O)[O-])cc4F)c4ccc([nH]4)c(-c4c(F)cc(S(=O)(=O)[O-])cc4F)c4nc(c(-c5c(F)cc(S(=O)(=O)[O-])cc5F)c5ccc2[nH]5)C=C4)C=C3)cc1
REMARK SMILES IDX 6 1 5 2 4 3 3 4 1 5 2 6 34 8 35 9 99 10 36 11 98 12 37 13
REMARK SMILES IDX 38 14 39 15 92 16 40 17 97 18 91 19 93 20 41 21 96 22 90 23
REMARK SMILES IDX 89 24 42 26 76 27 55 28 75 29 56 30 59 31 74 32 94 33 57 34
REMARK SMILES IDX 58 35 73 37 95 38 60 39 43 40 44 41 53 42 45 43 46 44 52 45
REMARK SMILES IDX 54 46 47 47 48 48 49 49 50 50 51 51 77 52 78 53 87 54 79 55
REMARK SMILES IDX 80 56 86 57 88 58 81 59 82 60 83 61 84 62 85 63 61 64 62 65
REMARK SMILES IDX 71 66 63 67 64 68 70 69 72 70 65 71 66 72 67 73 68 74 69 75
REMARK SMILES IDX 7 76 8 77 9 78 10 79 11 80 12 82 13 83 14 84 33 85 15 86
REMARK SMILES IDX 17 87 16 88 18 89 19 90 24 91 20 92 23 93 21 94 22 95 25 96
REMARK SMILES IDX 26 97 27 98 28 99 32 100 29 101 31 102 30 103
REMARK H PARENT 3 7 93 25 59 36 10 81
REMARK Flexibility Score: inf
ROOT
ATOM      1  C   UNL A   1      37.600  22.417  25.718  1.00  0.00     0.002 C 
ENDROOT
BRANCH   1   2
ATOM      2  C   UNL A   1      37.581  23.904  26.059  1.00  0.00     0.021 C 
BRANCH   2   3
ATOM      3  C   UNL A   1      38.812  24.432  26.781  1.00  0.00     0.116 C 
BRANCH   3   4
ATOM      4  N   UNL A   1      39.937  24.692  25.898  1.00  0.00    -0.352 N 
ATOM      5  O   UNL A   1      41.775  25.769  25.143  1.00  0.00    -0.269 OA
ATOM      6  C   UNL A   1      40.957  25.609  26.044  1.00  0.00     0.251 C 
ATOM      7  H   UNL A   1      39.977  24.138  25.085  1.00  0.00     0.163 HD
BRANCH   6   8
ATOM      8  C   UNL A   1      41.032  26.429  27.276  1.00  0.00     0.039 A 
ATOM      9  C   UNL A   1      40.447  25.984  28.462  1.00  0.00     0.014 A 
ATOM     10  C   UNL A   1      41.651  27.682  27.229  1.00  0.00     0.014 A 
ATOM     11  C   UNL A   1      40.308  26.862  29.532  1.00  0.00     0.010 A 
ATOM     12  C   UNL A   1      41.602  28.523  28.346  1.00  0.00     0.010 A 
ATOM     13  C   UNL A   1      40.884  28.143  29.491  1.00  0.00    -0.014 A 
BRANCH  13  14
ATOM     14  C   UNL A   1      40.734  29.047  30.665  1.00  0.00     0.031 A 
ATOM     15  C   UNL A   1      39.631  30.073  30.726  1.00  0.00     0.074 A 
ATOM     16  C   UNL A   1      41.579  28.906  31.706  1.00  0.00     0.049 A 
ATOM     17  N   UNL A   1      39.335  30.908  31.692  1.00  0.00    -0.248 NA
ATOM     18  C   UNL A   1      38.751  30.187  29.553  1.00  0.00     0.031 C 
ATOM     19  C   UNL A   1      42.694  27.957  31.762  1.00  0.00     0.029 A 
ATOM     20  N   UNL A   1      41.624  29.539  32.922  1.00  0.00    -0.354 N 
ATOM     21  C   UNL A   1      38.258  31.660  31.235  1.00  0.00     0.074 A 
ATOM     22  C   UNL A   1      37.967  31.201  29.894  1.00  0.00     0.031 C 
ATOM     23  C   UNL A   1      43.275  28.029  32.968  1.00  0.00     0.029 A 
ATOM     24  C   UNL A   1      42.621  29.074  33.747  1.00  0.00     0.049 A 
ATOM     25  H   UNL A   1      41.001  30.257  33.180  1.00  0.00     0.167 HD
ATOM     26  C   UNL A   1      37.571  32.639  31.878  1.00  0.00     0.037 A 
ATOM     27  C   UNL A   1      42.982  29.451  34.987  1.00  0.00     0.037 A 
ATOM     28  C   UNL A   1      37.855  33.076  33.223  1.00  0.00     0.049 A 
ATOM     29  C   UNL A   1      42.212  30.544  35.671  1.00  0.00     0.074 A 
ATOM     30  C   UNL A   1      37.190  34.030  33.975  1.00  0.00     0.029 A 
ATOM     31  N   UNL A   1      38.889  32.598  34.014  1.00  0.00    -0.354 N 
ATOM     32  N   UNL A   1      41.173  31.218  35.236  1.00  0.00    -0.248 NA
ATOM     33  C   UNL A   1      42.661  30.928  37.015  1.00  0.00     0.031 C 
ATOM     34  C   UNL A   1      37.854  34.165  35.200  1.00  0.00     0.029 A 
ATOM     35  C   UNL A   1      38.894  33.251  35.237  1.00  0.00     0.049 A 
ATOM     36  H   UNL A   1      39.526  31.897  33.746  1.00  0.00     0.167 HD
ATOM     37  C   UNL A   1      40.824  32.082  36.266  1.00  0.00     0.074 A 
ATOM     38  C   UNL A   1      41.756  31.838  37.349  1.00  0.00     0.031 C 
ATOM     39  C   UNL A   1      39.820  32.993  36.312  1.00  0.00     0.037 A 
BRANCH  26  40
ATOM     40  C   UNL A   1      36.457  33.326  31.130  1.00  0.00     0.058 A 
ATOM     41  C   UNL A   1      35.110  33.180  31.497  1.00  0.00     0.135 A 
ATOM     42  C   UNL A   1      36.749  34.181  30.054  1.00  0.00     0.135 A 
ATOM     43  F   UNL A   1      34.770  32.366  32.510  1.00  0.00    -0.206 F 
ATOM     44  C   UNL A   1      34.091  33.830  30.807  1.00  0.00     0.059 A 
ATOM     45  C   UNL A   1      35.749  34.865  29.367  1.00  0.00     0.059 A 
ATOM     46  F   UNL A   1      38.019  34.364  29.660  1.00  0.00    -0.206 F 
ATOM     47  C   UNL A   1      34.421  34.671  29.741  1.00  0.00     0.060 A 
BRANCH  47  48
ATOM     48  S   UNL A   1      33.086  35.503  28.855  1.00  0.00     0.124 S 
ATOM     49  O   UNL A   1      32.288  36.028  29.958  1.00  0.00    -0.237 OA
ATOM     50  O   UNL A   1      33.806  36.496  28.066  1.00  0.00    -0.237 OA
ATOM     51  O   UNL A   1      32.464  34.428  28.088  1.00  0.00    -0.744 OA
ENDBRANCH  47  48
ENDBRANCH  26  40
BRANCH  27  52
ATOM     52  C   UNL A   1      44.123  28.778  35.663  1.00  0.00     0.058 A 
ATOM     53  C   UNL A   1      45.440  29.220  35.473  1.00  0.00     0.135 A 
ATOM     54  C   UNL A   1      43.916  27.691  36.528  1.00  0.00     0.135 A 
ATOM     55  F   UNL A   1      45.688  30.254  34.654  1.00  0.00    -0.206 F 
ATOM     56  C   UNL A   1      46.514  28.600  36.101  1.00  0.00     0.059 A 
ATOM     57  C   UNL A   1      44.972  27.075  37.192  1.00  0.00     0.059 A 
ATOM     58  F   UNL A   1      42.673  27.241  36.759  1.00  0.00    -0.206 F 
ATOM     59  C   UNL A   1      46.269  27.529  36.962  1.00  0.00     0.060 A 
BRANCH  59  60
ATOM     60  S   UNL A   1      47.666  26.761  37.809  1.00  0.00     0.124 S 
ATOM     61  O   UNL A   1      47.998  25.672  36.898  1.00  0.00    -0.237 OA
ATOM     62  O   UNL A   1      48.627  27.859  37.870  1.00  0.00    -0.237 OA
ATOM     63  O   UNL A   1      47.100  26.360  39.094  1.00  0.00    -0.744 OA
ENDBRANCH  59  60
ENDBRANCH  27  52
BRANCH  39  64
ATOM     64  C   UNL A   1      39.640  33.754  37.598  1.00  0.00     0.058 A 
ATOM     65  C   UNL A   1      38.792  33.300  38.620  1.00  0.00     0.135 A 
ATOM     66  C   UNL A   1      40.347  34.947  37.815  1.00  0.00     0.135 A 
ATOM     67  F   UNL A   1      38.088  32.168  38.462  1.00  0.00    -0.206 F 
ATOM     68  C   UNL A   1      38.623  34.021  39.798  1.00  0.00     0.059 A 
ATOM     69  C   UNL A   1      40.218  35.669  38.997  1.00  0.00     0.059 A 
ATOM     70  F   UNL A   1      41.180  35.423  36.875  1.00  0.00    -0.206 F 
ATOM     71  C   UNL A   1      39.340  35.207  39.976  1.00  0.00     0.060 A 
BRANCH  71  72
ATOM     72  S   UNL A   1      39.120  36.131  41.511  1.00  0.00     0.124 S 
ATOM     73  O   UNL A   1      40.352  35.813  42.224  1.00  0.00    -0.237 OA
ATOM     74  O   UNL A   1      39.001  37.505  41.034  1.00  0.00    -0.237 OA
ATOM     75  O   UNL A   1      37.901  35.564  42.078  1.00  0.00    -0.744 OA
ENDBRANCH  71  72
ENDBRANCH  39  64
ENDBRANCH  13  14
ENDBRANCH   6   8
ENDBRANCH   3   4
ENDBRANCH   2   3
ENDBRANCH   1   2
BRANCH   1  76
ATOM     76  C   UNL A   1      37.027  22.028  24.352  1.00  0.00     0.002 C 
BRANCH  76  77
ATOM     77  C   UNL A   1      36.532  23.165  23.448  1.00  0.00     0.021 C 
BRANCH  77  78
ATOM     78  C   UNL A   1      35.025  23.424  23.434  1.00  0.00     0.116 C 
BRANCH  78  79
ATOM     79  N   UNL A   1      34.263  22.418  24.141  1.00  0.00    -0.356 N 
ATOM     80  C   UNL A   1      33.187  22.604  24.948  1.00  0.00     0.225 C 
ATOM     81  H   UNL A   1      34.560  21.486  24.023  1.00  0.00     0.163 HD
ATOM     82  O   UNL A   1      32.230  21.843  24.788  1.00  0.00    -0.275 OA
BRANCH  80  83
ATOM     83  C   UNL A   1      33.100  23.749  25.941  1.00  0.00     0.107 C 
ATOM     84  C   UNL A   1      31.856  23.827  26.819  1.00  0.00     0.116 C 
ATOM     85  C   UNL A   1      33.093  25.081  25.178  1.00  0.00     0.139 C 
ATOM     86  C   UNL A   1      30.982  24.867  26.176  1.00  0.00     0.227 C 
ATOM     87  N   UNL A   1      31.709  25.498  25.171  1.00  0.00    -0.311 N 
ATOM     88  O   UNL A   1      29.838  25.108  26.525  1.00  0.00    -0.274 OA
BRANCH  87  89
ATOM     89  C   UNL A   1      31.291  26.708  24.574  1.00  0.00     0.055 A 
ATOM     90  C   UNL A   1      30.785  26.627  23.260  1.00  0.00     0.028 A 
ATOM     91  C   UNL A   1      31.305  27.959  25.219  1.00  0.00     0.048 A 
ATOM     92  C   UNL A   1      30.265  27.745  22.607  1.00  0.00     0.023 A 
ATOM     93  C   UNL A   1      30.791  29.084  24.536  1.00  0.00     0.035 A 
ATOM     94  C   UNL A   1      30.270  28.973  23.250  1.00  0.00     0.041 A 
ATOM     95  Cl  UNL A   1      29.625  30.358  22.459  1.00  0.00    -0.084 Cl
BRANCH  91  96
ATOM     96  C   UNL A   1      31.798  28.252  26.593  1.00  0.00     0.195 C 
ATOM     97  O   UNL A   1      31.194  27.726  27.531  1.00  0.00    -0.289 OA
BRANCH  96  98
ATOM     98  C   UNL A   1      32.928  29.149  26.935  1.00  0.00     0.023 A 
ATOM     99  C   UNL A   1      34.200  28.560  27.017  1.00  0.00     0.012 A 
ATOM    100  C   UNL A   1      32.778  30.504  27.241  1.00  0.00     0.012 A 
ATOM    101  C   UNL A   1      35.316  29.321  27.364  1.00  0.00     0.001 A 
ATOM    102  C   UNL A   1      33.902  31.266  27.587  1.00  0.00     0.001 A 
ATOM    103  C   UNL A   1      35.167  30.675  27.646  1.00  0.00     0.000 A 
ENDBRANCH  96  98
ENDBRANCH  91  96
ENDBRANCH  87  89
ENDBRANCH  80  83
ENDBRANCH  78  79
ENDBRANCH  77  78
ENDBRANCH  76  77
ENDBRANCH   1  76
TORSDOF 19
ENDMDL
