MODEL 1
REMARK VINA RESULT:     -10.2      0.000      0.000
REMARK SMILES CC[N@H+](CC(C)(C)C(=O)NCCCCCCNC(=O)c1ccc(-c2c3nc(c(-c4c(F)cc(S(=O)(=O)[O-])cc4F)c4ccc([nH]4)c(-c4c(F)cc(S(=O)(=O)[O-])cc4F)c4nc(c(-c5c(F)cc(S(=O)(=O)[O-])cc5F)c5ccc2[nH]5)C=C4)C=C3)cc1)[C@H]1CC[NH2+]C1
REMARK SMILES IDX 13 1 12 2 11 3 10 4 8 5 9 6 5 8 6 9 7 10 4 11 3 12 2 14 1 15
REMARK SMILES IDX 86 16 87 17 90 18 88 19 89 20 14 23 15 24 16 25 17 26 18 27
REMARK SMILES IDX 19 29 20 30 21 31 85 32 22 33 84 34 23 35 24 36 25 37 78 38
REMARK SMILES IDX 26 39 83 40 77 41 79 42 27 43 82 44 76 45 75 46 28 48 62 49
REMARK SMILES IDX 41 50 61 51 42 52 45 53 60 54 80 55 43 56 44 57 59 59 81 60
REMARK SMILES IDX 46 61 29 62 30 63 39 64 31 65 32 66 38 67 40 68 33 69 34 70
REMARK SMILES IDX 35 71 36 72 37 73 63 74 64 75 73 76 65 77 66 78 72 79 74 80
REMARK SMILES IDX 67 81 68 82 69 83 70 84 71 85 47 86 48 87 57 88 49 89 50 90
REMARK SMILES IDX 56 91 58 92 51 93 52 94 53 95 54 96 55 97
REMARK H PARENT 10 7 3 13 89 21 89 22 17 28 79 47 45 58
REMARK Flexibility Score: inf
ROOT
ATOM      1  C   UNL A   1      40.092  22.453  27.325  1.00  0.00     0.002 C 
ENDROOT
BRANCH   1   2
ATOM      2  C   UNL A   1      39.820  21.936  25.905  1.00  0.00     0.021 C 
BRANCH   2   3
ATOM      3  C   UNL A   1      38.347  21.632  25.637  1.00  0.00     0.116 C 
BRANCH   3   4
ATOM      4  N   UNL A   1      37.807  22.633  24.742  1.00  0.00    -0.355 N 
ATOM      5  C   UNL A   1      36.568  22.693  24.191  1.00  0.00     0.231 C 
ATOM      6  O   UNL A   1      36.519  23.061  23.013  1.00  0.00    -0.274 OA
ATOM      7  H   UNL A   1      38.418  23.366  24.502  1.00  0.00     0.163 HD
BRANCH   5   8
ATOM      8  C   UNL A   1      35.311  22.304  24.986  1.00  0.00     0.092 C 
ATOM      9  C   UNL A   1      35.299  22.815  26.437  1.00  0.00     0.027 C 
ATOM     10  C   UNL A   1      35.193  20.764  24.948  1.00  0.00     0.027 C 
BRANCH   8  11
ATOM     11  C   UNL A   1      34.048  22.869  24.252  1.00  0.00     0.279 C 
BRANCH  11  12
ATOM     12  N   UNL A   1      33.310  24.030  24.828  1.00  0.00    -0.327 N 
ATOM     13  H   UNL A   1      33.791  24.304  25.685  1.00  0.00     0.348 HD
BRANCH  12  14
ATOM     14  C   UNL A   1      33.351  25.207  23.940  1.00  0.00     0.259 C 
ATOM     15  C   UNL A   1      32.961  24.948  22.486  1.00  0.00     0.071 C 
ENDBRANCH  12  14
BRANCH  12  16
ATOM     16  C   UNL A   1      31.930  23.655  25.211  1.00  0.00     0.245 C 
ATOM     17  C   UNL A   1      31.696  22.896  26.520  1.00  0.00     0.132 C 
ATOM     18  C   UNL A   1      30.993  24.873  25.343  1.00  0.00     0.326 C 
ATOM     19  C   UNL A   1      30.229  23.169  26.783  1.00  0.00     0.267 C 
ATOM     20  N   UNL A   1      30.050  24.588  26.446  1.00  0.00    -0.341 N 
ATOM     21  H   UNL A   1      30.263  25.173  27.253  1.00  0.00     0.346 HD
ATOM     22  H   UNL A   1      29.088  24.786  26.172  1.00  0.00     0.346 HD
ENDBRANCH  12  16
ENDBRANCH  11  12
ENDBRANCH   8  11
ENDBRANCH   5   8
ENDBRANCH   3   4
ENDBRANCH   2   3
ENDBRANCH   1   2
BRANCH   1  23
ATOM     23  C   UNL A   1      41.271  21.776  28.031  1.00  0.00     0.002 C 
BRANCH  23  24
ATOM     24  C   UNL A   1      42.623  21.987  27.348  1.00  0.00     0.021 C 
BRANCH  24  25
ATOM     25  C   UNL A   1      43.116  23.428  27.383  1.00  0.00     0.116 C 
BRANCH  25  26
ATOM     26  N   UNL A   1      42.774  24.142  26.164  1.00  0.00    -0.352 N 
ATOM     27  C   UNL A   1      42.135  25.347  26.032  1.00  0.00     0.251 C 
ATOM     28  H   UNL A   1      43.036  23.702  25.323  1.00  0.00     0.163 HD
ATOM     29  O   UNL A   1      41.719  25.709  24.934  1.00  0.00    -0.269 OA
BRANCH  27  30
ATOM     30  C   UNL A   1      41.939  26.194  27.226  1.00  0.00     0.039 A 
ATOM     31  C   UNL A   1      42.813  27.256  27.455  1.00  0.00     0.014 A 
ATOM     32  C   UNL A   1      40.884  25.940  28.108  1.00  0.00     0.014 A 
ATOM     33  C   UNL A   1      42.602  28.095  28.551  1.00  0.00     0.010 A 
ATOM     34  C   UNL A   1      40.626  26.826  29.149  1.00  0.00     0.010 A 
ATOM     35  C   UNL A   1      41.491  27.903  29.391  1.00  0.00    -0.014 A 
BRANCH  35  36
ATOM     36  C   UNL A   1      41.233  28.802  30.543  1.00  0.00     0.031 A 
ATOM     37  C   UNL A   1      42.074  28.687  31.787  1.00  0.00     0.074 A 
ATOM     38  C   UNL A   1      40.213  29.681  30.491  1.00  0.00     0.049 A 
ATOM     39  N   UNL A   1      41.969  29.335  32.918  1.00  0.00    -0.248 NA
ATOM     40  C   UNL A   1      43.157  27.690  31.766  1.00  0.00     0.031 C 
ATOM     41  C   UNL A   1      39.303  29.856  29.357  1.00  0.00     0.029 A 
ATOM     42  N   UNL A   1      39.765  30.589  31.417  1.00  0.00    -0.354 N 
ATOM     43  C   UNL A   1      42.963  28.821  33.742  1.00  0.00     0.074 A 
ATOM     44  C   UNL A   1      43.616  27.761  33.007  1.00  0.00     0.031 C 
ATOM     45  C   UNL A   1      38.427  30.832  29.642  1.00  0.00     0.029 A 
ATOM     46  C   UNL A   1      38.683  31.322  30.994  1.00  0.00     0.049 A 
ATOM     47  H   UNL A   1      40.182  30.706  32.302  1.00  0.00     0.167 HD
ATOM     48  C   UNL A   1      43.318  29.215  34.989  1.00  0.00     0.037 A 
ATOM     49  C   UNL A   1      37.972  32.277  31.625  1.00  0.00     0.037 A 
ATOM     50  C   UNL A   1      42.672  30.282  35.707  1.00  0.00     0.049 A 
ATOM     51  C   UNL A   1      38.371  32.684  33.018  1.00  0.00     0.074 A 
ATOM     52  C   UNL A   1      42.981  30.788  36.957  1.00  0.00     0.029 A 
ATOM     53  N   UNL A   1      41.584  31.006  35.241  1.00  0.00    -0.354 N 
ATOM     54  N   UNL A   1      39.349  32.225  33.763  1.00  0.00    -0.248 NA
ATOM     55  C   UNL A   1      37.577  33.744  33.654  1.00  0.00     0.031 C 
ATOM     56  C   UNL A   1      42.048  31.782  37.269  1.00  0.00     0.029 A 
ATOM     57  C   UNL A   1      41.196  31.940  36.188  1.00  0.00     0.049 A 
ATOM     58  H   UNL A   1      41.151  30.875  34.366  1.00  0.00     0.167 HD
ATOM     59  C   UNL A   1      39.310  32.965  34.940  1.00  0.00     0.074 A 
ATOM     60  C   UNL A   1      38.217  33.906  34.804  1.00  0.00     0.031 C 
ATOM     61  C   UNL A   1      40.111  32.878  36.032  1.00  0.00     0.037 A 
BRANCH  48  62
ATOM     62  C   UNL A   1      44.457  28.485  35.651  1.00  0.00     0.058 A 
ATOM     63  C   UNL A   1      44.242  27.358  36.462  1.00  0.00     0.135 A 
ATOM     64  C   UNL A   1      45.784  28.904  35.457  1.00  0.00     0.135 A 
ATOM     65  F   UNL A   1      42.995  26.920  36.695  1.00  0.00    -0.206 F 
ATOM     66  C   UNL A   1      45.294  26.697  37.086  1.00  0.00     0.059 A 
ATOM     67  C   UNL A   1      46.855  28.238  36.045  1.00  0.00     0.059 A 
ATOM     68  F   UNL A   1      46.050  29.975  34.693  1.00  0.00    -0.206 F 
ATOM     69  C   UNL A   1      46.599  27.146  36.873  1.00  0.00     0.060 A 
BRANCH  69  70
ATOM     70  S   UNL A   1      47.952  26.281  37.696  1.00  0.00     0.124 S 
ATOM     71  O   UNL A   1      47.323  25.007  38.029  1.00  0.00    -0.237 OA
ATOM     72  O   UNL A   1      48.970  26.230  36.650  1.00  0.00    -0.237 OA
ATOM     73  O   UNL A   1      48.266  27.141  38.832  1.00  0.00    -0.744 OA
ENDBRANCH  69  70
ENDBRANCH  48  62
BRANCH  49  74
ATOM     74  C   UNL A   1      36.829  32.934  30.933  1.00  0.00     0.058 A 
ATOM     75  C   UNL A   1      35.505  32.608  31.260  1.00  0.00     0.135 A 
ATOM     76  C   UNL A   1      37.035  33.908  29.944  1.00  0.00     0.135 A 
ATOM     77  F   UNL A   1      35.255  31.678  32.196  1.00  0.00    -0.206 F 
ATOM     78  C   UNL A   1      34.425  33.208  30.622  1.00  0.00     0.059 A 
ATOM     79  C   UNL A   1      35.972  34.545  29.310  1.00  0.00     0.059 A 
ATOM     80  F   UNL A   1      38.283  34.270  29.606  1.00  0.00    -0.206 F 
ATOM     81  C   UNL A   1      34.670  34.180  29.650  1.00  0.00     0.060 A 
BRANCH  81  82
ATOM     82  S   UNL A   1      33.261  34.989  28.861  1.00  0.00     0.124 S 
ATOM     83  O   UNL A   1      32.398  35.258  30.005  1.00  0.00    -0.237 OA
ATOM     84  O   UNL A   1      33.887  36.155  28.244  1.00  0.00    -0.237 OA
ATOM     85  O   UNL A   1      32.776  33.980  27.926  1.00  0.00    -0.744 OA
ENDBRANCH  81  82
ENDBRANCH  49  74
BRANCH  61  86
ATOM     86  C   UNL A   1      39.871  33.857  37.150  1.00  0.00     0.058 A 
ATOM     87  C   UNL A   1      40.376  35.167  37.114  1.00  0.00     0.135 A 
ATOM     88  C   UNL A   1      39.076  33.492  38.249  1.00  0.00     0.135 A 
ATOM     89  F   UNL A   1      41.147  35.566  36.090  1.00  0.00    -0.206 F 
ATOM     90  C   UNL A   1      40.124  36.070  38.141  1.00  0.00     0.059 A 
ATOM     91  C   UNL A   1      38.785  34.389  39.271  1.00  0.00     0.059 A 
ATOM     92  F   UNL A   1      38.558  32.256  38.328  1.00  0.00    -0.206 F 
ATOM     93  C   UNL A   1      39.324  35.674  39.215  1.00  0.00     0.060 A 
BRANCH  93  94
ATOM     94  S   UNL A   1      38.978  36.867  40.522  1.00  0.00     0.124 S 
ATOM     95  O   UNL A   1      37.969  36.161  41.306  1.00  0.00    -0.237 OA
ATOM     96  O   UNL A   1      40.282  37.021  41.159  1.00  0.00    -0.237 OA
ATOM     97  O   UNL A   1      38.500  38.039  39.796  1.00  0.00    -0.744 OA
ENDBRANCH  93  94
ENDBRANCH  61  86
ENDBRANCH  35  36
ENDBRANCH  27  30
ENDBRANCH  25  26
ENDBRANCH  24  25
ENDBRANCH  23  24
ENDBRANCH   1  23
TORSDOF 20
ENDMDL
MODEL 2
REMARK VINA RESULT:     -10.2      6.597     12.014
REMARK SMILES CC[N@H+](CC(C)(C)C(=O)NCCCCCCNC(=O)c1ccc(-c2c3nc(c(-c4c(F)cc(S(=O)(=O)[O-])cc4F)c4ccc([nH]4)c(-c4c(F)cc(S(=O)(=O)[O-])cc4F)c4nc(c(-c5c(F)cc(S(=O)(=O)[O-])cc5F)c5ccc2[nH]5)C=C4)C=C3)cc1)[C@H]1CC[NH2+]C1
REMARK SMILES IDX 13 1 12 2 11 3 10 4 8 5 9 6 5 8 6 9 7 10 4 11 3 12 2 14 1 15
REMARK SMILES IDX 86 16 87 17 90 18 88 19 89 20 14 23 15 24 16 25 17 26 18 27
REMARK SMILES IDX 19 29 20 30 21 31 85 32 22 33 84 34 23 35 24 36 25 37 78 38
REMARK SMILES IDX 26 39 83 40 77 41 79 42 27 43 82 44 76 45 75 46 28 48 62 49
REMARK SMILES IDX 41 50 61 51 42 52 45 53 60 54 80 55 43 56 44 57 59 59 81 60
REMARK SMILES IDX 46 61 29 62 30 63 39 64 31 65 32 66 38 67 40 68 33 69 34 70
REMARK SMILES IDX 35 71 36 72 37 73 63 74 64 75 73 76 65 77 66 78 72 79 74 80
REMARK SMILES IDX 67 81 68 82 69 83 70 84 71 85 47 86 48 87 57 88 49 89 50 90
REMARK SMILES IDX 56 91 58 92 51 93 52 94 53 95 54 96 55 97
REMARK H PARENT 10 7 3 13 89 21 89 22 17 28 79 47 45 58
REMARK Flexibility Score: inf
ROOT
ATOM      1  C   UNL A   1      35.057  32.021  27.801  1.00  0.00     0.002 C 
ENDROOT
BRANCH   1   2
ATOM      2  C   UNL A   1      34.032  30.888  27.946  1.00  0.00     0.021 C 
BRANCH   2   3
ATOM      3  C   UNL A   1      34.555  29.528  27.484  1.00  0.00     0.116 C 
BRANCH   3   4
ATOM      4  N   UNL A   1      33.531  28.527  27.689  1.00  0.00    -0.355 N 
ATOM      5  C   UNL A   1      32.309  28.437  27.105  1.00  0.00     0.231 C 
ATOM      6  O   UNL A   1      31.382  28.089  27.844  1.00  0.00    -0.274 OA
ATOM      7  H   UNL A   1      33.749  27.818  28.336  1.00  0.00     0.163 HD
BRANCH   5   8
ATOM      8  C   UNL A   1      32.097  28.771  25.620  1.00  0.00     0.092 C 
ATOM      9  C   UNL A   1      33.352  28.595  24.748  1.00  0.00     0.027 C 
ATOM     10  C   UNL A   1      31.575  30.223  25.537  1.00  0.00     0.027 C 
BRANCH   8  11
ATOM     11  C   UNL A   1      30.965  27.854  25.046  1.00  0.00     0.279 C 
BRANCH  11  12
ATOM     12  N   UNL A   1      31.096  27.277  23.677  1.00  0.00    -0.327 N 
ATOM     13  H   UNL A   1      32.077  27.348  23.408  1.00  0.00     0.348 HD
BRANCH  12  14
ATOM     14  C   UNL A   1      30.766  25.840  23.649  1.00  0.00     0.259 C 
ATOM     15  C   UNL A   1      30.994  25.087  24.960  1.00  0.00     0.071 C 
ENDBRANCH  12  14
BRANCH  12  16
ATOM     16  C   UNL A   1      30.321  28.057  22.687  1.00  0.00     0.245 C 
ATOM     17  C   UNL A   1      29.042  28.772  23.131  1.00  0.00     0.132 C 
ATOM     18  C   UNL A   1      31.144  29.188  22.037  1.00  0.00     0.326 C 
ATOM     19  C   UNL A   1      28.870  29.812  22.043  1.00  0.00     0.267 C 
ATOM     20  N   UNL A   1      30.226  30.324  21.802  1.00  0.00    -0.341 N 
ATOM     21  H   UNL A   1      30.437  31.087  22.444  1.00  0.00     0.346 HD
ATOM     22  H   UNL A   1      30.322  30.689  20.854  1.00  0.00     0.346 HD
ENDBRANCH  12  16
ENDBRANCH  11  12
ENDBRANCH   8  11
ENDBRANCH   5   8
ENDBRANCH   3   4
ENDBRANCH   2   3
ENDBRANCH   1   2
BRANCH   1  23
ATOM     23  C   UNL A   1      35.000  33.075  28.912  1.00  0.00     0.002 C 
BRANCH  23  24
ATOM     24  C   UNL A   1      36.358  33.666  29.293  1.00  0.00     0.021 C 
BRANCH  24  25
ATOM     25  C   UNL A   1      36.912  33.147  30.613  1.00  0.00     0.116 C 
BRANCH  25  26
ATOM     26  N   UNL A   1      36.259  31.914  31.021  1.00  0.00    -0.352 N 
ATOM     27  C   UNL A   1      36.672  30.623  30.818  1.00  0.00     0.251 C 
ATOM     28  H   UNL A   1      35.410  32.021  31.507  1.00  0.00     0.163 HD
ATOM     29  O   UNL A   1      35.901  29.688  31.024  1.00  0.00    -0.269 OA
BRANCH  27  30
ATOM     30  C   UNL A   1      38.044  30.372  30.335  1.00  0.00     0.039 A 
ATOM     31  C   UNL A   1      39.060  30.145  31.263  1.00  0.00     0.014 A 
ATOM     32  C   UNL A   1      38.319  30.351  28.964  1.00  0.00     0.014 A 
ATOM     33  C   UNL A   1      40.349  29.852  30.814  1.00  0.00     0.010 A 
ATOM     34  C   UNL A   1      39.582  29.976  28.518  1.00  0.00     0.010 A 
ATOM     35  C   UNL A   1      40.614  29.739  29.438  1.00  0.00    -0.014 A 
BRANCH  35  36
ATOM     36  C   UNL A   1      41.970  29.399  28.941  1.00  0.00     0.031 A 
ATOM     37  C   UNL A   1      42.271  27.997  28.482  1.00  0.00     0.074 A 
ATOM     38  C   UNL A   1      42.941  30.333  28.953  1.00  0.00     0.049 A 
ATOM     39  N   UNL A   1      43.404  27.487  28.072  1.00  0.00    -0.248 NA
ATOM     40  C   UNL A   1      41.158  27.034  28.516  1.00  0.00     0.031 C 
ATOM     41  C   UNL A   1      42.781  31.714  29.413  1.00  0.00     0.029 A 
ATOM     42  N   UNL A   1      44.258  30.262  28.572  1.00  0.00    -0.354 N 
ATOM     43  C   UNL A   1      43.142  26.147  27.809  1.00  0.00     0.074 A 
ATOM     44  C   UNL A   1      41.762  25.907  28.169  1.00  0.00     0.031 C 
ATOM     45  C   UNL A   1      43.945  32.367  29.259  1.00  0.00     0.029 A 
ATOM     46  C   UNL A   1      44.944  31.442  28.732  1.00  0.00     0.049 A 
ATOM     47  H   UNL A   1      44.672  29.442  28.216  1.00  0.00     0.167 HD
ATOM     48  C   UNL A   1      43.968  25.208  27.288  1.00  0.00     0.037 A 
ATOM     49  C   UNL A   1      46.235  31.743  28.488  1.00  0.00     0.037 A 
ATOM     50  C   UNL A   1      45.336  25.462  26.917  1.00  0.00     0.049 A 
ATOM     51  C   UNL A   1      47.140  30.679  27.929  1.00  0.00     0.074 A 
ATOM     52  C   UNL A   1      46.246  24.592  26.342  1.00  0.00     0.029 A 
ATOM     53  N   UNL A   1      45.993  26.672  27.088  1.00  0.00    -0.354 N 
ATOM     54  N   UNL A   1      46.862  29.431  27.635  1.00  0.00    -0.248 NA
ATOM     55  C   UNL A   1      48.532  31.064  27.661  1.00  0.00     0.031 C 
ATOM     56  C   UNL A   1      47.468  25.261  26.214  1.00  0.00     0.029 A 
ATOM     57  C   UNL A   1      47.302  26.566  26.649  1.00  0.00     0.049 A 
ATOM     58  H   UNL A   1      45.588  27.486  27.465  1.00  0.00     0.167 HD
ATOM     59  C   UNL A   1      48.034  28.893  27.113  1.00  0.00     0.074 A 
ATOM     60  C   UNL A   1      49.020  29.954  27.126  1.00  0.00     0.031 C 
ATOM     61  C   UNL A   1      48.270  27.636  26.658  1.00  0.00     0.037 A 
BRANCH  48  62
ATOM     62  C   UNL A   1      43.411  23.824  27.090  1.00  0.00     0.058 A 
ATOM     63  C   UNL A   1      43.333  22.900  28.145  1.00  0.00     0.135 A 
ATOM     64  C   UNL A   1      42.928  23.420  25.833  1.00  0.00     0.135 A 
ATOM     65  F   UNL A   1      43.791  23.224  29.364  1.00  0.00    -0.206 F 
ATOM     66  C   UNL A   1      42.834  21.615  27.955  1.00  0.00     0.059 A 
ATOM     67  C   UNL A   1      42.394  22.152  25.628  1.00  0.00     0.059 A 
ATOM     68  F   UNL A   1      42.977  24.260  24.788  1.00  0.00    -0.206 F 
ATOM     69  C   UNL A   1      42.368  21.250  26.691  1.00  0.00     0.060 A 
BRANCH  69  70
ATOM     70  S   UNL A   1      41.730  19.577  26.459  1.00  0.00     0.124 S 
ATOM     71  O   UNL A   1      42.169  18.926  27.689  1.00  0.00    -0.237 OA
ATOM     72  O   UNL A   1      40.293  19.806  26.343  1.00  0.00    -0.237 OA
ATOM     73  O   UNL A   1      42.391  19.125  25.240  1.00  0.00    -0.744 OA
ENDBRANCH  69  70
ENDBRANCH  48  62
BRANCH  49  74
ATOM     74  C   UNL A   1      46.738  33.120  28.744  1.00  0.00     0.058 A 
ATOM     75  C   UNL A   1      47.327  33.456  29.971  1.00  0.00     0.135 A 
ATOM     76  C   UNL A   1      46.655  34.122  27.765  1.00  0.00     0.135 A 
ATOM     77  F   UNL A   1      47.425  32.535  30.942  1.00  0.00    -0.206 F 
ATOM     78  C   UNL A   1      47.799  34.739  30.229  1.00  0.00     0.059 A 
ATOM     79  C   UNL A   1      47.146  35.406  27.986  1.00  0.00     0.059 A 
ATOM     80  F   UNL A   1      46.116  33.849  26.565  1.00  0.00    -0.206 F 
ATOM     81  C   UNL A   1      47.708  35.706  29.226  1.00  0.00     0.060 A 
BRANCH  81  82
ATOM     82  S   UNL A   1      48.368  37.355  29.553  1.00  0.00     0.124 S 
ATOM     83  O   UNL A   1      47.218  38.018  30.156  1.00  0.00    -0.237 OA
ATOM     84  O   UNL A   1      49.482  37.065  30.451  1.00  0.00    -0.237 OA
ATOM     85  O   UNL A   1      48.749  37.832  28.227  1.00  0.00    -0.744 OA
ENDBRANCH  81  82
ENDBRANCH  49  74
BRANCH  61  86
ATOM     86  C   UNL A   1      49.633  27.348  26.089  1.00  0.00     0.058 A 
ATOM     87  C   UNL A   1      50.723  27.006  26.905  1.00  0.00     0.135 A 
ATOM     88  C   UNL A   1      49.835  27.363  24.699  1.00  0.00     0.135 A 
ATOM     89  F   UNL A   1      50.587  26.982  28.240  1.00  0.00    -0.206 F 
ATOM     90  C   UNL A   1      51.972  26.715  26.364  1.00  0.00     0.059 A 
ATOM     91  C   UNL A   1      51.066  27.045  24.135  1.00  0.00     0.059 A 
ATOM     92  F   UNL A   1      48.824  27.673  23.872  1.00  0.00    -0.206 F 
ATOM     93  C   UNL A   1      52.133  26.734  24.977  1.00  0.00     0.060 A 
BRANCH  93  94
ATOM     94  S   UNL A   1      53.748  26.322  24.288  1.00  0.00     0.124 S 
ATOM     95  O   UNL A   1      54.648  26.946  25.253  1.00  0.00    -0.237 OA
ATOM     96  O   UNL A   1      53.727  24.862  24.293  1.00  0.00    -0.237 OA
ATOM     97  O   UNL A   1      53.722  26.938  22.965  1.00  0.00    -0.744 OA
ENDBRANCH  93  94
ENDBRANCH  61  86
ENDBRANCH  35  36
ENDBRANCH  27  30
ENDBRANCH  25  26
ENDBRANCH  24  25
ENDBRANCH  23  24
ENDBRANCH   1  23
TORSDOF 20
ENDMDL
MODEL 3
REMARK VINA RESULT:     -10.1      6.612     11.977
REMARK SMILES CC[N@H+](CC(C)(C)C(=O)NCCCCCCNC(=O)c1ccc(-c2c3nc(c(-c4c(F)cc(S(=O)(=O)[O-])cc4F)c4ccc([nH]4)c(-c4c(F)cc(S(=O)(=O)[O-])cc4F)c4nc(c(-c5c(F)cc(S(=O)(=O)[O-])cc5F)c5ccc2[nH]5)C=C4)C=C3)cc1)[C@H]1CC[NH2+]C1
REMARK SMILES IDX 13 1 12 2 11 3 10 4 8 5 9 6 5 8 6 9 7 10 4 11 3 12 2 14 1 15
REMARK SMILES IDX 86 16 87 17 90 18 88 19 89 20 14 23 15 24 16 25 17 26 18 27
REMARK SMILES IDX 19 29 20 30 21 31 85 32 22 33 84 34 23 35 24 36 25 37 78 38
REMARK SMILES IDX 26 39 83 40 77 41 79 42 27 43 82 44 76 45 75 46 28 48 62 49
REMARK SMILES IDX 41 50 61 51 42 52 45 53 60 54 80 55 43 56 44 57 59 59 81 60
REMARK SMILES IDX 46 61 29 62 30 63 39 64 31 65 32 66 38 67 40 68 33 69 34 70
REMARK SMILES IDX 35 71 36 72 37 73 63 74 64 75 73 76 65 77 66 78 72 79 74 80
REMARK SMILES IDX 67 81 68 82 69 83 70 84 71 85 47 86 48 87 57 88 49 89 50 90
REMARK SMILES IDX 56 91 58 92 51 93 52 94 53 95 54 96 55 97
REMARK H PARENT 10 7 3 13 89 21 89 22 17 28 79 47 45 58
REMARK Flexibility Score: inf
ROOT
ATOM      1  C   UNL A   1      33.873  31.187  27.623  1.00  0.00     0.002 C 
ENDROOT
BRANCH   1   2
ATOM      2  C   UNL A   1      34.888  30.038  27.548  1.00  0.00     0.021 C 
BRANCH   2   3
ATOM      3  C   UNL A   1      34.376  28.819  26.782  1.00  0.00     0.116 C 
BRANCH   3   4
ATOM      4  N   UNL A   1      32.998  29.038  26.400  1.00  0.00    -0.355 N 
ATOM      5  C   UNL A   1      32.468  29.099  25.152  1.00  0.00     0.231 C 
ATOM      6  O   UNL A   1      31.603  29.963  24.975  1.00  0.00    -0.274 OA
ATOM      7  H   UNL A   1      32.363  29.158  27.141  1.00  0.00     0.163 HD
BRANCH   5   8
ATOM      8  C   UNL A   1      32.936  28.160  24.029  1.00  0.00     0.092 C 
ATOM      9  C   UNL A   1      33.595  26.862  24.525  1.00  0.00     0.027 C 
ATOM     10  C   UNL A   1      33.909  28.956  23.130  1.00  0.00     0.027 C 
BRANCH   8  11
ATOM     11  C   UNL A   1      31.708  27.781  23.134  1.00  0.00     0.279 C 
BRANCH  11  12
ATOM     12  N   UNL A   1      30.374  27.551  23.760  1.00  0.00    -0.327 N 
ATOM     13  H   UNL A   1      30.419  27.904  24.716  1.00  0.00     0.348 HD
BRANCH  12  14
ATOM     14  C   UNL A   1      29.309  28.320  23.089  1.00  0.00     0.259 C 
ATOM     15  C   UNL A   1      29.788  29.375  22.092  1.00  0.00     0.071 C 
ENDBRANCH  12  14
BRANCH  12  16
ATOM     16  C   UNL A   1      30.062  26.107  23.849  1.00  0.00     0.245 C 
ATOM     17  C   UNL A   1      30.886  25.111  23.029  1.00  0.00     0.132 C 
ATOM     18  C   UNL A   1      30.180  25.556  25.285  1.00  0.00     0.326 C 
ATOM     19  C   UNL A   1      30.630  23.811  23.764  1.00  0.00     0.267 C 
ATOM     20  N   UNL A   1      30.692  24.172  25.187  1.00  0.00    -0.341 N 
ATOM     21  H   UNL A   1      31.654  24.127  25.522  1.00  0.00     0.346 HD
ATOM     22  H   UNL A   1      30.140  23.531  25.757  1.00  0.00     0.346 HD
ENDBRANCH  12  16
ENDBRANCH  11  12
ENDBRANCH   8  11
ENDBRANCH   5   8
ENDBRANCH   3   4
ENDBRANCH   2   3
ENDBRANCH   1   2
BRANCH   1  23
ATOM     23  C   UNL A   1      34.419  32.477  28.242  1.00  0.00     0.002 C 
BRANCH  23  24
ATOM     24  C   UNL A   1      35.917  32.699  28.024  1.00  0.00     0.021 C 
BRANCH  24  25
ATOM     25  C   UNL A   1      36.724  32.786  29.312  1.00  0.00     0.116 C 
BRANCH  25  26
ATOM     26  N   UNL A   1      36.221  31.872  30.324  1.00  0.00    -0.352 N 
ATOM     27  C   UNL A   1      36.712  30.644  30.683  1.00  0.00     0.251 C 
ATOM     28  H   UNL A   1      35.425  32.176  30.816  1.00  0.00     0.163 HD
ATOM     29  O   UNL A   1      36.045  29.897  31.396  1.00  0.00    -0.269 OA
BRANCH  27  30
ATOM     30  C   UNL A   1      38.039  30.224  30.189  1.00  0.00     0.039 A 
ATOM     31  C   UNL A   1      38.210  29.986  28.826  1.00  0.00     0.014 A 
ATOM     32  C   UNL A   1      39.110  30.078  31.075  1.00  0.00     0.014 A 
ATOM     33  C   UNL A   1      39.474  29.643  28.342  1.00  0.00     0.010 A 
ATOM     34  C   UNL A   1      40.384  29.820  30.581  1.00  0.00     0.010 A 
ATOM     35  C   UNL A   1      40.577  29.584  29.213  1.00  0.00    -0.014 A 
BRANCH  35  36
ATOM     36  C   UNL A   1      41.934  29.250  28.713  1.00  0.00     0.031 A 
ATOM     37  C   UNL A   1      42.248  27.843  28.279  1.00  0.00     0.074 A 
ATOM     38  C   UNL A   1      42.894  30.195  28.701  1.00  0.00     0.049 A 
ATOM     39  N   UNL A   1      43.384  27.338  27.871  1.00  0.00    -0.248 NA
ATOM     40  C   UNL A   1      41.146  26.868  28.339  1.00  0.00     0.031 C 
ATOM     41  C   UNL A   1      42.721  31.583  29.136  1.00  0.00     0.029 A 
ATOM     42  N   UNL A   1      44.209  30.132  28.313  1.00  0.00    -0.354 N 
ATOM     43  C   UNL A   1      43.136  25.991  27.636  1.00  0.00     0.074 A 
ATOM     44  C   UNL A   1      41.761  25.742  28.009  1.00  0.00     0.031 C 
ATOM     45  C   UNL A   1      43.876  32.245  28.962  1.00  0.00     0.029 A 
ATOM     46  C   UNL A   1      44.883  31.322  28.447  1.00  0.00     0.049 A 
ATOM     47  H   UNL A   1      44.630  29.310  27.970  1.00  0.00     0.167 HD
ATOM     48  C   UNL A   1      43.969  25.051  27.127  1.00  0.00     0.037 A 
ATOM     49  C   UNL A   1      46.168  31.633  28.188  1.00  0.00     0.037 A 
ATOM     50  C   UNL A   1      45.332  25.313  26.742  1.00  0.00     0.049 A 
ATOM     51  C   UNL A   1      47.082  30.569  27.643  1.00  0.00     0.074 A 
ATOM     52  C   UNL A   1      46.248  24.443  26.178  1.00  0.00     0.029 A 
ATOM     53  N   UNL A   1      45.976  26.534  26.886  1.00  0.00    -0.354 N 
ATOM     54  N   UNL A   1      46.817  29.312  27.375  1.00  0.00    -0.248 NA
ATOM     55  C   UNL A   1      48.468  30.965  27.359  1.00  0.00     0.031 C 
ATOM     56  C   UNL A   1      47.461  25.123  26.029  1.00  0.00     0.029 A 
ATOM     57  C   UNL A   1      47.284  26.435  26.440  1.00  0.00     0.049 A 
ATOM     58  H   UNL A   1      45.564  27.351  27.250  1.00  0.00     0.167 HD
ATOM     59  C   UNL A   1      47.991  28.778  26.855  1.00  0.00     0.074 A 
ATOM     60  C   UNL A   1      48.965  29.850  26.842  1.00  0.00     0.031 C 
ATOM     61  C   UNL A   1      48.239  27.516  26.423  1.00  0.00     0.037 A 
BRANCH  48  62
ATOM     62  C   UNL A   1      43.427  23.657  26.959  1.00  0.00     0.058 A 
ATOM     63  C   UNL A   1      43.055  23.154  25.701  1.00  0.00     0.135 A 
ATOM     64  C   UNL A   1      43.295  22.803  28.066  1.00  0.00     0.135 A 
ATOM     65  F   UNL A   1      43.146  23.929  24.608  1.00  0.00    -0.206 F 
ATOM     66  C   UNL A   1      42.538  21.872  25.551  1.00  0.00     0.059 A 
ATOM     67  C   UNL A   1      42.811  21.504  27.936  1.00  0.00     0.059 A 
ATOM     68  F   UNL A   1      43.634  23.229  29.293  1.00  0.00    -0.206 F 
ATOM     69  C   UNL A   1      42.418  21.055  26.676  1.00  0.00     0.060 A 
BRANCH  69  70
ATOM     70  S   UNL A   1      41.738  19.396  26.466  1.00  0.00     0.124 S 
ATOM     71  O   UNL A   1      42.549  18.887  25.364  1.00  0.00    -0.237 OA
ATOM     72  O   UNL A   1      41.989  18.789  27.770  1.00  0.00    -0.237 OA
ATOM     73  O   UNL A   1      40.334  19.639  26.151  1.00  0.00    -0.744 OA
ENDBRANCH  69  70
ENDBRANCH  48  62
BRANCH  49  74
ATOM     74  C   UNL A   1      46.657  33.021  28.414  1.00  0.00     0.058 A 
ATOM     75  C   UNL A   1      46.603  33.979  27.392  1.00  0.00     0.135 A 
ATOM     76  C   UNL A   1      47.174  33.420  29.657  1.00  0.00     0.135 A 
ATOM     77  F   UNL A   1      46.123  33.645  26.184  1.00  0.00    -0.206 F 
ATOM     78  C   UNL A   1      47.059  35.279  27.585  1.00  0.00     0.059 A 
ATOM     79  C   UNL A   1      47.610  34.722  29.884  1.00  0.00     0.059 A 
ATOM     80  F   UNL A   1      47.232  32.547  30.674  1.00  0.00    -0.206 F 
ATOM     81  C   UNL A   1      47.557  35.642  28.837  1.00  0.00     0.060 A 
BRANCH  81  82
ATOM     82  S   UNL A   1      48.102  37.346  29.092  1.00  0.00     0.124 S 
ATOM     83  O   UNL A   1      46.833  38.064  29.083  1.00  0.00    -0.237 OA
ATOM     84  O   UNL A   1      48.778  37.259  30.383  1.00  0.00    -0.237 OA
ATOM     85  O   UNL A   1      48.976  37.592  27.951  1.00  0.00    -0.744 OA
ENDBRANCH  81  82
ENDBRANCH  49  74
BRANCH  61  86
ATOM     86  C   UNL A   1      49.602  27.232  25.851  1.00  0.00     0.058 A 
ATOM     87  C   UNL A   1      50.679  26.831  26.657  1.00  0.00     0.135 A 
ATOM     88  C   UNL A   1      49.815  27.313  24.465  1.00  0.00     0.135 A 
ATOM     89  F   UNL A   1      50.532  26.745  27.988  1.00  0.00    -0.206 F 
ATOM     90  C   UNL A   1      51.927  26.547  26.111  1.00  0.00     0.059 A 
ATOM     91  C   UNL A   1      51.045  27.001  23.895  1.00  0.00     0.059 A 
ATOM     92  F   UNL A   1      48.817  27.680  23.646  1.00  0.00    -0.206 F 
ATOM     93  C   UNL A   1      52.100  26.631  24.728  1.00  0.00     0.060 A 
BRANCH  93  94
ATOM     94  S   UNL A   1      53.714  26.225  24.032  1.00  0.00     0.124 S 
ATOM     95  O   UNL A   1      54.523  27.349  24.490  1.00  0.00    -0.237 OA
ATOM     96  O   UNL A   1      54.007  24.937  24.653  1.00  0.00    -0.237 OA
ATOM     97  O   UNL A   1      53.463  26.177  22.594  1.00  0.00    -0.744 OA
ENDBRANCH  93  94
ENDBRANCH  61  86
ENDBRANCH  35  36
ENDBRANCH  27  30
ENDBRANCH  25  26
ENDBRANCH  24  25
ENDBRANCH  23  24
ENDBRANCH   1  23
TORSDOF 20
ENDMDL
