MODEL 1
REMARK VINA RESULT:     -12.4      0.000      0.000
REMARK SMILES O=C(NCCCCCCNC(=O)c1cc(S(=O)(=O)NNC(=O)[C@H]2C=C(c3ccccc3)N=N2)ccc1F)c1ccc(-c2c3nc(c(-c4c(F)cc(S(=O)(=O)[O-])cc4F)c4ccc([nH]4)c(-c4c(F)cc(S(=O)(=O)[O-])cc4F)c4nc(c(-c5c(F)cc(S(=O)(=O)[O-])cc5F)c5ccc2[nH]5)C=C4)C=C3)cc1
REMARK SMILES IDX 7 1 6 2 5 3 4 4 3 5 1 6 2 7 38 9 39 10 103 11 40 12 102 13
REMARK SMILES IDX 41 14 42 15 43 16 96 17 44 18 101 19 95 20 97 21 45 22
REMARK SMILES IDX 100 23 94 24 93 25 46 27 80 28 59 29 79 30 60 31 63 32 78 33
REMARK SMILES IDX 98 34 61 35 62 36 77 38 99 39 64 40 47 41 48 42 57 43 49 44
REMARK SMILES IDX 50 45 56 46 58 47 51 48 52 49 53 50 54 51 55 52 81 53 82 54
REMARK SMILES IDX 91 55 83 56 84 57 90 58 92 59 85 60 86 61 87 62 88 63 89 64
REMARK SMILES IDX 65 65 66 66 75 67 67 68 68 69 74 70 76 71 69 72 70 73 71 74
REMARK SMILES IDX 72 75 73 76 8 77 9 78 10 79 11 80 12 82 13 83 14 84 36 85
REMARK SMILES IDX 15 86 35 87 37 88 34 89 16 90 17 91 18 92 19 93 20 95 21 96
REMARK SMILES IDX 22 98 23 99 24 100 33 101 25 102 32 103 26 104 27 105 31 106
REMARK SMILES IDX 28 107 30 108 29 109
REMARK H PARENT 3 8 97 26 63 37 10 81 19 94 20 97
REMARK Flexibility Score: inf
ROOT
ATOM      1  C   UNL A   1      37.850  19.813  24.668  1.00  0.00     0.002 C 
ENDROOT
BRANCH   1   2
ATOM      2  C   UNL A   1      38.336  20.488  25.955  1.00  0.00     0.002 C 
BRANCH   2   3
ATOM      3  C   UNL A   1      39.797  20.957  25.954  1.00  0.00     0.021 C 
BRANCH   3   4
ATOM      4  C   UNL A   1      40.811  19.894  26.373  1.00  0.00     0.116 C 
BRANCH   4   5
ATOM      5  N   UNL A   1      42.118  20.058  25.773  1.00  0.00    -0.352 N 
ATOM      6  O   UNL A   1      44.101  20.820  25.167  1.00  0.00    -0.269 OA
ATOM      7  C   UNL A   1      43.072  21.038  25.811  1.00  0.00     0.251 C 
ATOM      8  H   UNL A   1      42.380  19.292  25.212  1.00  0.00     0.163 HD
BRANCH   7   9
ATOM      9  C   UNL A   1      42.936  22.334  26.534  1.00  0.00     0.039 A 
ATOM     10  C   UNL A   1      43.758  22.768  27.575  1.00  0.00     0.014 A 
ATOM     11  C   UNL A   1      41.918  23.193  26.082  1.00  0.00     0.014 A 
ATOM     12  C   UNL A   1      43.543  24.005  28.181  1.00  0.00     0.010 A 
ATOM     13  C   UNL A   1      41.717  24.444  26.667  1.00  0.00     0.010 A 
ATOM     14  C   UNL A   1      42.523  24.846  27.731  1.00  0.00    -0.014 A 
BRANCH  14  15
ATOM     15  C   UNL A   1      42.429  26.182  28.325  1.00  0.00     0.031 A 
ATOM     16  C   UNL A   1      43.534  27.140  28.000  1.00  0.00     0.074 A 
ATOM     17  C   UNL A   1      41.342  26.642  28.976  1.00  0.00     0.049 A 
ATOM     18  N   UNL A   1      44.293  27.820  28.802  1.00  0.00    -0.248 NA
ATOM     19  C   UNL A   1      43.844  27.340  26.574  1.00  0.00     0.031 C 
ATOM     20  C   UNL A   1      40.029  26.006  29.093  1.00  0.00     0.029 A 
ATOM     21  N   UNL A   1      41.160  27.855  29.574  1.00  0.00    -0.354 N 
ATOM     22  C   UNL A   1      45.065  28.655  27.992  1.00  0.00     0.074 A 
ATOM     23  C   UNL A   1      44.811  28.255  26.630  1.00  0.00     0.031 C 
ATOM     24  C   UNL A   1      39.134  26.923  29.525  1.00  0.00     0.029 A 
ATOM     25  C   UNL A   1      39.834  28.160  29.834  1.00  0.00     0.049 A 
ATOM     26  H   UNL A   1      41.904  28.459  29.802  1.00  0.00     0.167 HD
ATOM     27  C   UNL A   1      45.767  29.724  28.461  1.00  0.00     0.037 A 
ATOM     28  C   UNL A   1      39.337  29.369  30.192  1.00  0.00     0.037 A 
ATOM     29  C   UNL A   1      45.955  29.686  29.882  1.00  0.00     0.049 A 
ATOM     30  C   UNL A   1      40.453  30.184  30.736  1.00  0.00     0.074 A 
ATOM     31  C   UNL A   1      46.592  28.832  30.760  1.00  0.00     0.029 A 
ATOM     32  N   UNL A   1      45.191  30.516  30.664  1.00  0.00    -0.354 N 
ATOM     33  N   UNL A   1      41.078  29.941  31.855  1.00  0.00    -0.248 NA
ATOM     34  C   UNL A   1      41.109  31.133  29.851  1.00  0.00     0.031 C 
ATOM     35  C   UNL A   1      45.823  28.884  31.960  1.00  0.00     0.029 A 
ATOM     36  C   UNL A   1      44.768  29.771  31.736  1.00  0.00     0.049 A 
ATOM     37  H   UNL A   1      44.987  31.463  30.489  1.00  0.00     0.167 HD
ATOM     38  C   UNL A   1      42.372  30.392  31.647  1.00  0.00     0.074 A 
ATOM     39  C   UNL A   1      42.294  31.228  30.456  1.00  0.00     0.031 C 
ATOM     40  C   UNL A   1      43.435  29.835  32.297  1.00  0.00     0.037 A 
BRANCH  27  41
ATOM     41  C   UNL A   1      46.084  30.947  27.639  1.00  0.00     0.058 A 
ATOM     42  C   UNL A   1      45.124  31.949  27.374  1.00  0.00     0.135 A 
ATOM     43  C   UNL A   1      47.414  31.268  27.303  1.00  0.00     0.135 A 
ATOM     44  F   UNL A   1      43.847  31.812  27.757  1.00  0.00    -0.206 F 
ATOM     45  C   UNL A   1      45.450  33.165  26.784  1.00  0.00     0.059 A 
ATOM     46  C   UNL A   1      47.771  32.503  26.755  1.00  0.00     0.059 A 
ATOM     47  F   UNL A   1      48.408  30.401  27.555  1.00  0.00    -0.206 F 
ATOM     48  C   UNL A   1      46.779  33.444  26.496  1.00  0.00     0.060 A 
BRANCH  48  49
ATOM     49  S   UNL A   1      47.187  35.094  25.889  1.00  0.00     0.124 S 
ATOM     50  O   UNL A   1      48.267  34.802  24.953  1.00  0.00    -0.237 OA
ATOM     51  O   UNL A   1      45.925  35.521  25.293  1.00  0.00    -0.237 OA
ATOM     52  O   UNL A   1      47.577  35.810  27.100  1.00  0.00    -0.744 OA
ENDBRANCH  48  49
ENDBRANCH  27  41
BRANCH  28  53
ATOM     53  C   UNL A   1      38.038  29.969  29.796  1.00  0.00     0.058 A 
ATOM     54  C   UNL A   1      37.715  30.199  28.443  1.00  0.00     0.135 A 
ATOM     55  C   UNL A   1      37.206  30.586  30.747  1.00  0.00     0.135 A 
ATOM     56  F   UNL A   1      38.479  29.715  27.452  1.00  0.00    -0.206 F 
ATOM     57  C   UNL A   1      36.656  31.015  28.056  1.00  0.00     0.059 A 
ATOM     58  C   UNL A   1      36.146  31.422  30.382  1.00  0.00     0.059 A 
ATOM     59  F   UNL A   1      37.457  30.441  32.057  1.00  0.00    -0.206 F 
ATOM     60  C   UNL A   1      35.896  31.649  29.032  1.00  0.00     0.060 A 
BRANCH  60  61
ATOM     61  S   UNL A   1      34.656  32.844  28.488  1.00  0.00     0.124 S 
ATOM     62  O   UNL A   1      33.658  31.976  27.869  1.00  0.00    -0.237 OA
ATOM     63  O   UNL A   1      34.260  33.465  29.748  1.00  0.00    -0.237 OA
ATOM     64  O   UNL A   1      35.393  33.706  27.569  1.00  0.00    -0.744 OA
ENDBRANCH  60  61
ENDBRANCH  28  53
BRANCH  40  65
ATOM     65  C   UNL A   1      43.169  28.971  33.502  1.00  0.00     0.058 A 
ATOM     66  C   UNL A   1      42.878  27.612  33.302  1.00  0.00     0.135 A 
ATOM     67  C   UNL A   1      43.025  29.472  34.808  1.00  0.00     0.135 A 
ATOM     68  F   UNL A   1      42.941  27.084  32.068  1.00  0.00    -0.206 F 
ATOM     69  C   UNL A   1      42.455  26.788  34.342  1.00  0.00     0.059 A 
ATOM     70  C   UNL A   1      42.637  28.657  35.873  1.00  0.00     0.059 A 
ATOM     71  F   UNL A   1      43.186  30.778  35.065  1.00  0.00    -0.206 F 
ATOM     72  C   UNL A   1      42.332  27.320  35.626  1.00  0.00     0.060 A 
BRANCH  72  73
ATOM     73  S   UNL A   1      41.728  26.250  36.947  1.00  0.00     0.124 S 
ATOM     74  O   UNL A   1      41.541  24.983  36.245  1.00  0.00    -0.237 OA
ATOM     75  O   UNL A   1      42.828  26.281  37.907  1.00  0.00    -0.237 OA
ATOM     76  O   UNL A   1      40.499  26.902  37.390  1.00  0.00    -0.744 OA
ENDBRANCH  72  73
ENDBRANCH  40  65
ENDBRANCH  14  15
ENDBRANCH   7   9
ENDBRANCH   4   5
ENDBRANCH   3   4
ENDBRANCH   2   3
ENDBRANCH   1   2
BRANCH   1  77
ATOM     77  C   UNL A   1      36.641  18.887  24.821  1.00  0.00     0.021 C 
BRANCH  77  78
ATOM     78  C   UNL A   1      35.298  19.599  24.936  1.00  0.00     0.116 C 
BRANCH  78  79
ATOM     79  N   UNL A   1      34.182  18.667  24.951  1.00  0.00    -0.352 N 
ATOM     80  C   UNL A   1      32.845  18.920  24.782  1.00  0.00     0.254 C 
ATOM     81  H   UNL A   1      34.419  17.724  25.104  1.00  0.00     0.163 HD
ATOM     82  O   UNL A   1      32.012  18.033  24.943  1.00  0.00    -0.269 OA
BRANCH  80  83
ATOM     83  C   UNL A   1      32.384  20.287  24.484  1.00  0.00     0.076 A 
ATOM     84  C   UNL A   1      32.134  21.149  25.552  1.00  0.00     0.038 A 
ATOM     85  C   UNL A   1      32.175  20.724  23.178  1.00  0.00     0.136 A 
ATOM     86  C   UNL A   1      31.750  22.470  25.294  1.00  0.00     0.085 A 
ATOM     87  C   UNL A   1      31.824  22.048  22.922  1.00  0.00     0.041 A 
ATOM     88  F   UNL A   1      32.331  19.892  22.140  1.00  0.00    -0.206 F 
ATOM     89  C   UNL A   1      31.631  22.936  23.981  1.00  0.00     0.025 A 
BRANCH  86  90
ATOM     90  S   UNL A   1      31.307  23.457  26.695  1.00  0.00     0.257 S 
ATOM     91  O   UNL A   1      30.029  22.959  27.168  1.00  0.00    -0.205 OA
ATOM     92  O   UNL A   1      32.467  23.536  27.548  1.00  0.00    -0.205 OA
BRANCH  90  93
ATOM     93  N   UNL A   1      31.029  25.017  26.095  1.00  0.00    -0.123 NA
ATOM     94  H   UNL A   1      30.128  24.993  25.618  1.00  0.00     0.167 HD
BRANCH  93  95
ATOM     95  N   UNL A   1      30.992  26.144  26.998  1.00  0.00    -0.275 N 
ATOM     96  C   UNL A   1      31.462  27.403  26.715  1.00  0.00     0.265 C 
ATOM     97  H   UNL A   1      30.597  25.998  27.888  1.00  0.00     0.186 HD
ATOM     98  O   UNL A   1      31.209  28.313  27.513  1.00  0.00    -0.271 OA
BRANCH  96  99
ATOM     99  C   UNL A   1      32.448  27.634  25.569  1.00  0.00     0.244 C 
ATOM    100  C   UNL A   1      33.642  26.775  25.768  1.00  0.00     0.042 C 
ATOM    101  N   UNL A   1      31.928  27.174  24.252  1.00  0.00    -0.171 NA
ATOM    102  C   UNL A   1      33.687  25.984  24.696  1.00  0.00     0.091 C 
ATOM    103  N   UNL A   1      32.685  26.265  23.796  1.00  0.00    -0.155 NA
BRANCH 102 104
ATOM    104  C   UNL A   1      34.646  24.899  24.496  1.00  0.00     0.002 A 
ATOM    105  C   UNL A   1      34.718  24.233  23.267  1.00  0.00     0.010 A 
ATOM    106  C   UNL A   1      35.488  24.486  25.540  1.00  0.00     0.010 A 
ATOM    107  C   UNL A   1      35.625  23.185  23.082  1.00  0.00     0.001 A 
ATOM    108  C   UNL A   1      36.383  23.431  25.359  1.00  0.00     0.001 A 
ATOM    109  C   UNL A   1      36.455  22.784  24.128  1.00  0.00     0.000 A 
ENDBRANCH 102 104
ENDBRANCH  96  99
ENDBRANCH  93  95
ENDBRANCH  90  93
ENDBRANCH  86  90
ENDBRANCH  80  83
ENDBRANCH  78  79
ENDBRANCH  77  78
ENDBRANCH   1  77
TORSDOF 21
ENDMDL
MODEL 2
REMARK VINA RESULT:     -12.0      1.621      2.613
REMARK SMILES O=C(NCCCCCCNC(=O)c1cc(S(=O)(=O)NNC(=O)[C@H]2C=C(c3ccccc3)N=N2)ccc1F)c1ccc(-c2c3nc(c(-c4c(F)cc(S(=O)(=O)[O-])cc4F)c4ccc([nH]4)c(-c4c(F)cc(S(=O)(=O)[O-])cc4F)c4nc(c(-c5c(F)cc(S(=O)(=O)[O-])cc5F)c5ccc2[nH]5)C=C4)C=C3)cc1
REMARK SMILES IDX 7 1 6 2 5 3 4 4 3 5 1 6 2 7 38 9 39 10 103 11 40 12 102 13
REMARK SMILES IDX 41 14 42 15 43 16 96 17 44 18 101 19 95 20 97 21 45 22
REMARK SMILES IDX 100 23 94 24 93 25 46 27 80 28 59 29 79 30 60 31 63 32 78 33
REMARK SMILES IDX 98 34 61 35 62 36 77 38 99 39 64 40 47 41 48 42 57 43 49 44
REMARK SMILES IDX 50 45 56 46 58 47 51 48 52 49 53 50 54 51 55 52 81 53 82 54
REMARK SMILES IDX 91 55 83 56 84 57 90 58 92 59 85 60 86 61 87 62 88 63 89 64
REMARK SMILES IDX 65 65 66 66 75 67 67 68 68 69 74 70 76 71 69 72 70 73 71 74
REMARK SMILES IDX 72 75 73 76 8 77 9 78 10 79 11 80 12 82 13 83 14 84 36 85
REMARK SMILES IDX 15 86 35 87 37 88 34 89 16 90 17 91 18 92 19 93 20 95 21 96
REMARK SMILES IDX 22 98 23 99 24 100 33 101 25 102 32 103 26 104 27 105 31 106
REMARK SMILES IDX 28 107 30 108 29 109
REMARK H PARENT 3 8 97 26 63 37 10 81 19 94 20 97
REMARK Flexibility Score: inf
ROOT
ATOM      1  C   UNL A   1      37.178  21.067  24.522  1.00  0.00     0.002 C 
ENDROOT
BRANCH   1   2
ATOM      2  C   UNL A   1      38.437  20.354  25.030  1.00  0.00     0.002 C 
BRANCH   2   3
ATOM      3  C   UNL A   1      39.304  21.148  26.015  1.00  0.00     0.021 C 
BRANCH   3   4
ATOM      4  C   UNL A   1      40.544  20.410  26.516  1.00  0.00     0.116 C 
BRANCH   4   5
ATOM      5  N   UNL A   1      41.748  20.703  25.767  1.00  0.00    -0.352 N 
ATOM      6  O   UNL A   1      43.578  21.645  24.963  1.00  0.00    -0.269 OA
ATOM      7  C   UNL A   1      42.627  21.750  25.743  1.00  0.00     0.251 C 
ATOM      8  H   UNL A   1      41.988  19.989  25.134  1.00  0.00     0.163 HD
BRANCH   7   9
ATOM      9  C   UNL A   1      42.496  22.995  26.552  1.00  0.00     0.039 A 
ATOM     10  C   UNL A   1      42.986  23.172  27.847  1.00  0.00     0.014 A 
ATOM     11  C   UNL A   1      41.862  24.082  25.922  1.00  0.00     0.014 A 
ATOM     12  C   UNL A   1      42.809  24.383  28.514  1.00  0.00     0.010 A 
ATOM     13  C   UNL A   1      41.709  25.305  26.575  1.00  0.00     0.010 A 
ATOM     14  C   UNL A   1      42.171  25.453  27.882  1.00  0.00    -0.014 A 
BRANCH  14  15
ATOM     15  C   UNL A   1      42.128  26.736  28.589  1.00  0.00     0.031 A 
ATOM     16  C   UNL A   1      43.267  27.677  28.340  1.00  0.00     0.074 A 
ATOM     17  C   UNL A   1      41.061  27.177  29.284  1.00  0.00     0.049 A 
ATOM     18  N   UNL A   1      44.053  28.257  29.192  1.00  0.00    -0.248 NA
ATOM     19  C   UNL A   1      43.579  27.987  26.934  1.00  0.00     0.031 C 
ATOM     20  C   UNL A   1      39.726  26.582  29.355  1.00  0.00     0.029 A 
ATOM     21  N   UNL A   1      40.927  28.340  29.985  1.00  0.00    -0.354 N 
ATOM     22  C   UNL A   1      44.852  29.130  28.452  1.00  0.00     0.074 A 
ATOM     23  C   UNL A   1      44.579  28.858  27.062  1.00  0.00     0.031 C 
ATOM     24  C   UNL A   1      38.867  27.490  29.870  1.00  0.00     0.029 A 
ATOM     25  C   UNL A   1      39.614  28.670  30.279  1.00  0.00     0.049 A 
ATOM     26  H   UNL A   1      41.693  28.894  30.259  1.00  0.00     0.167 HD
ATOM     27  C   UNL A   1      45.595  30.128  29.006  1.00  0.00     0.037 A 
ATOM     28  C   UNL A   1      39.162  29.860  30.742  1.00  0.00     0.037 A 
ATOM     29  C   UNL A   1      45.787  29.961  30.417  1.00  0.00     0.049 A 
ATOM     30  C   UNL A   1      40.309  30.584  31.347  1.00  0.00     0.074 A 
ATOM     31  C   UNL A   1      46.395  29.013  31.214  1.00  0.00     0.029 A 
ATOM     32  N   UNL A   1      45.057  30.749  31.272  1.00  0.00    -0.354 N 
ATOM     33  N   UNL A   1      40.930  30.224  32.437  1.00  0.00    -0.248 NA
ATOM     34  C   UNL A   1      40.998  31.581  30.542  1.00  0.00     0.031 C 
ATOM     35  C   UNL A   1      45.633  28.990  32.419  1.00  0.00     0.029 A 
ATOM     36  C   UNL A   1      44.611  29.930  32.279  1.00  0.00     0.049 A 
ATOM     37  H   UNL A   1      44.887  31.714  31.181  1.00  0.00     0.167 HD
ATOM     38  C   UNL A   1      42.239  30.644  32.259  1.00  0.00     0.074 A 
ATOM     39  C   UNL A   1      42.187  31.581  31.145  1.00  0.00     0.031 C 
ATOM     40  C   UNL A   1      43.283  29.995  32.852  1.00  0.00     0.037 A 
BRANCH  27  41
ATOM     41  C   UNL A   1      45.954  31.405  28.289  1.00  0.00     0.058 A 
ATOM     42  C   UNL A   1      47.195  31.585  27.640  1.00  0.00     0.135 A 
ATOM     43  C   UNL A   1      44.976  32.385  28.025  1.00  0.00     0.135 A 
ATOM     44  F   UNL A   1      48.163  30.661  27.716  1.00  0.00    -0.206 F 
ATOM     45  C   UNL A   1      47.464  32.675  26.820  1.00  0.00     0.059 A 
ATOM     46  C   UNL A   1      45.208  33.461  27.165  1.00  0.00     0.059 A 
ATOM     47  F   UNL A   1      43.748  32.283  28.560  1.00  0.00    -0.206 F 
ATOM     48  C   UNL A   1      46.458  33.599  26.569  1.00  0.00     0.060 A 
BRANCH  48  49
ATOM     49  S   UNL A   1      46.787  34.905  25.368  1.00  0.00     0.124 S 
ATOM     50  O   UNL A   1      45.815  34.593  24.325  1.00  0.00    -0.237 OA
ATOM     51  O   UNL A   1      46.522  36.110  26.147  1.00  0.00    -0.237 OA
ATOM     52  O   UNL A   1      48.186  34.689  25.012  1.00  0.00    -0.744 OA
ENDBRANCH  48  49
ENDBRANCH  27  41
BRANCH  28  53
ATOM     53  C   UNL A   1      37.885  30.540  30.408  1.00  0.00     0.058 A 
ATOM     54  C   UNL A   1      37.556  30.876  29.079  1.00  0.00     0.135 A 
ATOM     55  C   UNL A   1      37.091  31.122  31.412  1.00  0.00     0.135 A 
ATOM     56  F   UNL A   1      38.287  30.431  28.046  1.00  0.00    -0.206 F 
ATOM     57  C   UNL A   1      36.528  31.760  28.765  1.00  0.00     0.059 A 
ATOM     58  C   UNL A   1      36.063  32.024  31.121  1.00  0.00     0.059 A 
ATOM     59  F   UNL A   1      37.351  30.876  32.705  1.00  0.00    -0.206 F 
ATOM     60  C   UNL A   1      35.806  32.355  29.794  1.00  0.00     0.060 A 
BRANCH  60  61
ATOM     61  S   UNL A   1      34.612  33.634  29.351  1.00  0.00     0.124 S 
ATOM     62  O   UNL A   1      35.483  34.691  28.845  1.00  0.00    -0.237 OA
ATOM     63  O   UNL A   1      33.796  32.954  28.350  1.00  0.00    -0.237 OA
ATOM     64  O   UNL A   1      33.940  33.926  30.613  1.00  0.00    -0.744 OA
ENDBRANCH  60  61
ENDBRANCH  28  53
BRANCH  40  65
ATOM     65  C   UNL A   1      42.989  29.040  33.981  1.00  0.00     0.058 A 
ATOM     66  C   UNL A   1      42.698  27.703  33.670  1.00  0.00     0.135 A 
ATOM     67  C   UNL A   1      42.820  29.439  35.318  1.00  0.00     0.135 A 
ATOM     68  F   UNL A   1      42.785  27.272  32.400  1.00  0.00    -0.206 F 
ATOM     69  C   UNL A   1      42.251  26.803  34.633  1.00  0.00     0.059 A 
ATOM     70  C   UNL A   1      42.407  28.546  36.309  1.00  0.00     0.059 A 
ATOM     71  F   UNL A   1      42.979  30.720  35.680  1.00  0.00    -0.206 F 
ATOM     72  C   UNL A   1      42.103  27.234  35.952  1.00  0.00     0.060 A 
BRANCH  72  73
ATOM     73  S   UNL A   1      41.469  26.066  37.174  1.00  0.00     0.124 S 
ATOM     74  O   UNL A   1      42.588  25.972  38.108  1.00  0.00    -0.237 OA
ATOM     75  O   UNL A   1      40.283  26.751  37.679  1.00  0.00    -0.237 OA
ATOM     76  O   UNL A   1      41.205  24.858  36.397  1.00  0.00    -0.744 OA
ENDBRANCH  72  73
ENDBRANCH  40  65
ENDBRANCH  14  15
ENDBRANCH   7   9
ENDBRANCH   4   5
ENDBRANCH   3   4
ENDBRANCH   2   3
ENDBRANCH   1   2
BRANCH   1  77
ATOM     77  C   UNL A   1      37.227  22.596  24.546  1.00  0.00     0.021 C 
BRANCH  77  78
ATOM     78  C   UNL A   1      36.191  23.286  23.665  1.00  0.00     0.116 C 
BRANCH  78  79
ATOM     79  N   UNL A   1      35.052  22.428  23.383  1.00  0.00    -0.352 N 
ATOM     80  C   UNL A   1      33.814  22.769  22.905  1.00  0.00     0.254 C 
ATOM     81  H   UNL A   1      35.189  21.469  23.559  1.00  0.00     0.163 HD
ATOM     82  O   UNL A   1      32.915  21.936  22.833  1.00  0.00    -0.269 OA
BRANCH  80  83
ATOM     83  C   UNL A   1      33.520  24.168  22.547  1.00  0.00     0.076 A 
ATOM     84  C   UNL A   1      33.590  25.136  23.549  1.00  0.00     0.038 A 
ATOM     85  C   UNL A   1      33.158  24.535  21.253  1.00  0.00     0.136 A 
ATOM     86  C   UNL A   1      33.371  26.480  23.223  1.00  0.00     0.085 A 
ATOM     87  C   UNL A   1      32.971  25.876  20.923  1.00  0.00     0.041 A 
ATOM     88  F   UNL A   1      33.006  23.614  20.293  1.00  0.00    -0.206 F 
ATOM     89  C   UNL A   1      33.100  26.860  21.905  1.00  0.00     0.025 A 
BRANCH  86  90
ATOM     90  S   UNL A   1      33.330  27.628  24.570  1.00  0.00     0.257 S 
ATOM     91  O   UNL A   1      33.941  26.961  25.704  1.00  0.00    -0.205 OA
ATOM     92  O   UNL A   1      33.808  28.892  24.070  1.00  0.00    -0.205 OA
BRANCH  90  93
ATOM     93  N   UNL A   1      31.692  27.836  24.952  1.00  0.00    -0.123 NA
ATOM     94  H   UNL A   1      31.525  28.841  24.993  1.00  0.00     0.167 HD
BRANCH  93  95
ATOM     95  N   UNL A   1      30.672  27.280  24.094  1.00  0.00    -0.275 N 
ATOM     96  C   UNL A   1      29.638  26.477  24.509  1.00  0.00     0.265 C 
ATOM     97  H   UNL A   1      30.721  27.494  23.135  1.00  0.00     0.186 HD
ATOM     98  O   UNL A   1      28.741  26.216  23.698  1.00  0.00    -0.271 OA
BRANCH  96  99
ATOM     99  C   UNL A   1      29.698  25.751  25.853  1.00  0.00     0.244 C 
ATOM    100  C   UNL A   1      30.272  24.397  25.653  1.00  0.00     0.042 C 
ATOM    101  N   UNL A   1      30.653  26.375  26.810  1.00  0.00    -0.171 NA
ATOM    102  C   UNL A   1      31.375  24.371  26.402  1.00  0.00     0.091 C 
ATOM    103  N   UNL A   1      31.558  25.539  27.106  1.00  0.00    -0.155 NA
BRANCH 102 104
ATOM    104  C   UNL A   1      32.329  23.263  26.448  1.00  0.00     0.002 A 
ATOM    105  C   UNL A   1      33.630  23.467  26.921  1.00  0.00     0.010 A 
ATOM    106  C   UNL A   1      31.967  21.987  25.992  1.00  0.00     0.010 A 
ATOM    107  C   UNL A   1      34.547  22.412  26.951  1.00  0.00     0.001 A 
ATOM    108  C   UNL A   1      32.887  20.937  26.008  1.00  0.00     0.001 A 
ATOM    109  C   UNL A   1      34.175  21.149  26.493  1.00  0.00     0.000 A 
ENDBRANCH 102 104
ENDBRANCH  96  99
ENDBRANCH  93  95
ENDBRANCH  90  93
ENDBRANCH  86  90
ENDBRANCH  80  83
ENDBRANCH  78  79
ENDBRANCH  77  78
ENDBRANCH   1  77
TORSDOF 21
ENDMDL
MODEL 3
REMARK VINA RESULT:     -11.9      1.974      2.968
REMARK SMILES O=C(NCCCCCCNC(=O)c1cc(S(=O)(=O)NNC(=O)[C@H]2C=C(c3ccccc3)N=N2)ccc1F)c1ccc(-c2c3nc(c(-c4c(F)cc(S(=O)(=O)[O-])cc4F)c4ccc([nH]4)c(-c4c(F)cc(S(=O)(=O)[O-])cc4F)c4nc(c(-c5c(F)cc(S(=O)(=O)[O-])cc5F)c5ccc2[nH]5)C=C4)C=C3)cc1
REMARK SMILES IDX 7 1 6 2 5 3 4 4 3 5 1 6 2 7 38 9 39 10 103 11 40 12 102 13
REMARK SMILES IDX 41 14 42 15 43 16 96 17 44 18 101 19 95 20 97 21 45 22
REMARK SMILES IDX 100 23 94 24 93 25 46 27 80 28 59 29 79 30 60 31 63 32 78 33
REMARK SMILES IDX 98 34 61 35 62 36 77 38 99 39 64 40 47 41 48 42 57 43 49 44
REMARK SMILES IDX 50 45 56 46 58 47 51 48 52 49 53 50 54 51 55 52 81 53 82 54
REMARK SMILES IDX 91 55 83 56 84 57 90 58 92 59 85 60 86 61 87 62 88 63 89 64
REMARK SMILES IDX 65 65 66 66 75 67 67 68 68 69 74 70 76 71 69 72 70 73 71 74
REMARK SMILES IDX 72 75 73 76 8 77 9 78 10 79 11 80 12 82 13 83 14 84 36 85
REMARK SMILES IDX 15 86 35 87 37 88 34 89 16 90 17 91 18 92 19 93 20 95 21 96
REMARK SMILES IDX 22 98 23 99 24 100 33 101 25 102 32 103 26 104 27 105 31 106
REMARK SMILES IDX 28 107 30 108 29 109
REMARK H PARENT 3 8 97 26 63 37 10 81 19 94 20 97
REMARK Flexibility Score: inf
ROOT
ATOM      1  C   UNL A   1      37.109  19.636  24.611  1.00  0.00     0.002 C 
ENDROOT
BRANCH   1   2
ATOM      2  C   UNL A   1      36.343  20.942  24.856  1.00  0.00     0.002 C 
BRANCH   2   3
ATOM      3  C   UNL A   1      37.185  22.224  24.843  1.00  0.00     0.021 C 
BRANCH   3   4
ATOM      4  C   UNL A   1      38.133  22.379  26.031  1.00  0.00     0.116 C 
BRANCH   4   5
ATOM      5  N   UNL A   1      39.527  22.163  25.706  1.00  0.00    -0.352 N 
ATOM      6  O   UNL A   1      41.730  22.288  25.592  1.00  0.00    -0.269 OA
ATOM      7  C   UNL A   1      40.699  22.767  26.071  1.00  0.00     0.251 C 
ATOM      8  H   UNL A   1      39.662  21.413  25.083  1.00  0.00     0.163 HD
BRANCH   7   9
ATOM      9  C   UNL A   1      40.804  23.958  26.960  1.00  0.00     0.039 A 
ATOM     10  C   UNL A   1      41.711  24.104  28.011  1.00  0.00     0.014 A 
ATOM     11  C   UNL A   1      39.941  25.030  26.668  1.00  0.00     0.014 A 
ATOM     12  C   UNL A   1      41.727  25.266  28.780  1.00  0.00     0.010 A 
ATOM     13  C   UNL A   1      39.972  26.206  27.417  1.00  0.00     0.010 A 
ATOM     14  C   UNL A   1      40.858  26.321  28.487  1.00  0.00    -0.014 A 
BRANCH  14  15
ATOM     15  C   UNL A   1      41.010  27.561  29.252  1.00  0.00     0.031 A 
ATOM     16  C   UNL A   1      42.082  28.503  28.797  1.00  0.00     0.074 A 
ATOM     17  C   UNL A   1      40.142  27.973  30.197  1.00  0.00     0.049 A 
ATOM     18  N   UNL A   1      43.057  29.025  29.475  1.00  0.00    -0.248 NA
ATOM     19  C   UNL A   1      42.071  28.889  27.376  1.00  0.00     0.031 C 
ATOM     20  C   UNL A   1      38.844  27.390  30.541  1.00  0.00     0.029 A 
ATOM     21  N   UNL A   1      40.199  29.097  30.971  1.00  0.00    -0.354 N 
ATOM     22  C   UNL A   1      43.686  29.929  28.617  1.00  0.00     0.074 A 
ATOM     23  C   UNL A   1      43.094  29.740  27.316  1.00  0.00     0.031 C 
ATOM     24  C   UNL A   1      38.148  28.277  31.288  1.00  0.00     0.029 A 
ATOM     25  C   UNL A   1      38.997  29.423  31.576  1.00  0.00     0.049 A 
ATOM     26  H   UNL A   1      41.020  29.626  31.089  1.00  0.00     0.167 HD
ATOM     27  C   UNL A   1      44.559  30.886  29.038  1.00  0.00     0.037 A 
ATOM     28  C   UNL A   1      38.692  30.590  32.193  1.00  0.00     0.037 A 
ATOM     29  C   UNL A   1      45.066  30.638  30.356  1.00  0.00     0.049 A 
ATOM     30  C   UNL A   1      39.964  31.266  32.555  1.00  0.00     0.074 A 
ATOM     31  C   UNL A   1      45.817  29.638  30.940  1.00  0.00     0.029 A 
ATOM     32  N   UNL A   1      44.570  31.383  31.397  1.00  0.00    -0.354 N 
ATOM     33  N   UNL A   1      40.810  30.837  33.452  1.00  0.00    -0.248 NA
ATOM     34  C   UNL A   1      40.473  32.300  31.667  1.00  0.00     0.031 C 
ATOM     35  C   UNL A   1      45.352  29.555  32.285  1.00  0.00     0.029 A 
ATOM     36  C   UNL A   1      44.348  30.513  32.435  1.00  0.00     0.049 A 
ATOM     37  H   UNL A   1      44.407  32.354  31.398  1.00  0.00     0.167 HD
ATOM     38  C   UNL A   1      42.052  31.252  33.000  1.00  0.00     0.074 A 
ATOM     39  C   UNL A   1      41.769  32.252  31.978  1.00  0.00     0.031 C 
ATOM     40  C   UNL A   1      43.189  30.559  33.301  1.00  0.00     0.037 A 
BRANCH  27  41
ATOM     41  C   UNL A   1      44.774  32.199  28.327  1.00  0.00     0.058 A 
ATOM     42  C   UNL A   1      43.888  33.289  28.469  1.00  0.00     0.135 A 
ATOM     43  C   UNL A   1      45.995  32.480  27.682  1.00  0.00     0.135 A 
ATOM     44  F   UNL A   1      42.750  33.178  29.168  1.00  0.00    -0.206 F 
ATOM     45  C   UNL A   1      44.172  34.558  27.975  1.00  0.00     0.059 A 
ATOM     46  C   UNL A   1      46.322  33.758  27.222  1.00  0.00     0.059 A 
ATOM     47  F   UNL A   1      46.925  31.521  27.535  1.00  0.00    -0.206 F 
ATOM     48  C   UNL A   1      45.400  34.791  27.371  1.00  0.00     0.060 A 
BRANCH  48  49
ATOM     49  S   UNL A   1      45.804  36.484  26.896  1.00  0.00     0.124 S 
ATOM     50  O   UNL A   1      46.623  36.266  25.708  1.00  0.00    -0.237 OA
ATOM     51  O   UNL A   1      44.483  37.059  26.662  1.00  0.00    -0.237 OA
ATOM     52  O   UNL A   1      46.510  37.001  28.064  1.00  0.00    -0.744 OA
ENDBRANCH  48  49
ENDBRANCH  27  41
BRANCH  28  53
ATOM     53  C   UNL A   1      37.389  31.302  32.199  1.00  0.00     0.058 A 
ATOM     54  C   UNL A   1      36.780  31.732  31.002  1.00  0.00     0.135 A 
ATOM     55  C   UNL A   1      36.852  31.819  33.391  1.00  0.00     0.135 A 
ATOM     56  F   UNL A   1      37.252  31.354  29.805  1.00  0.00    -0.206 F 
ATOM     57  C   UNL A   1      35.729  32.643  30.985  1.00  0.00     0.059 A 
ATOM     58  C   UNL A   1      35.806  32.747  33.398  1.00  0.00     0.059 A 
ATOM     59  F   UNL A   1      37.388  31.482  34.574  1.00  0.00    -0.206 F 
ATOM     60  C   UNL A   1      35.268  33.172  32.186  1.00  0.00     0.060 A 
BRANCH  60  61
ATOM     61  S   UNL A   1      34.036  34.488  32.108  1.00  0.00     0.124 S 
ATOM     62  O   UNL A   1      33.739  34.532  30.679  1.00  0.00    -0.237 OA
ATOM     63  O   UNL A   1      32.973  33.960  32.958  1.00  0.00    -0.237 OA
ATOM     64  O   UNL A   1      34.742  35.650  32.637  1.00  0.00    -0.744 OA
ENDBRANCH  60  61
ENDBRANCH  28  53
BRANCH  40  65
ATOM     65  C   UNL A   1      43.139  29.545  34.415  1.00  0.00     0.058 A 
ATOM     66  C   UNL A   1      43.728  29.872  35.646  1.00  0.00     0.135 A 
ATOM     67  C   UNL A   1      42.691  28.223  34.249  1.00  0.00     0.135 A 
ATOM     68  F   UNL A   1      44.228  31.103  35.848  1.00  0.00    -0.206 F 
ATOM     69  C   UNL A   1      43.876  28.934  36.665  1.00  0.00     0.059 A 
ATOM     70  C   UNL A   1      42.795  27.275  35.269  1.00  0.00     0.059 A 
ATOM     71  F   UNL A   1      42.209  27.802  33.071  1.00  0.00    -0.206 F 
ATOM     72  C   UNL A   1      43.410  27.635  36.466  1.00  0.00     0.060 A 
BRANCH  72  73
ATOM     73  S   UNL A   1      43.663  26.420  37.778  1.00  0.00     0.124 S 
ATOM     74  O   UNL A   1      44.331  27.219  38.802  1.00  0.00    -0.237 OA
ATOM     75  O   UNL A   1      42.298  26.007  38.093  1.00  0.00    -0.237 OA
ATOM     76  O   UNL A   1      44.492  25.395  37.149  1.00  0.00    -0.744 OA
ENDBRANCH  72  73
ENDBRANCH  40  65
ENDBRANCH  14  15
ENDBRANCH   7   9
ENDBRANCH   4   5
ENDBRANCH   3   4
ENDBRANCH   2   3
ENDBRANCH   1   2
BRANCH   1  77
ATOM     77  C   UNL A   1      36.384  18.355  25.028  1.00  0.00     0.021 C 
BRANCH  77  78
ATOM     78  C   UNL A   1      35.179  17.990  24.167  1.00  0.00     0.116 C 
BRANCH  78  79
ATOM     79  N   UNL A   1      34.036  17.581  24.968  1.00  0.00    -0.352 N 
ATOM     80  C   UNL A   1      32.806  18.174  25.080  1.00  0.00     0.254 C 
ATOM     81  H   UNL A   1      34.164  16.765  25.503  1.00  0.00     0.163 HD
ATOM     82  O   UNL A   1      31.984  17.769  25.896  1.00  0.00    -0.269 OA
BRANCH  80  83
ATOM     83  C   UNL A   1      32.485  19.365  24.275  1.00  0.00     0.076 A 
ATOM     84  C   UNL A   1      32.409  20.600  24.920  1.00  0.00     0.038 A 
ATOM     85  C   UNL A   1      32.237  19.283  22.906  1.00  0.00     0.136 A 
ATOM     86  C   UNL A   1      32.162  21.754  24.167  1.00  0.00     0.085 A 
ATOM     87  C   UNL A   1      32.022  20.436  22.154  1.00  0.00     0.041 A 
ATOM     88  F   UNL A   1      32.225  18.099  22.279  1.00  0.00    -0.206 F 
ATOM     89  C   UNL A   1      32.006  21.684  22.780  1.00  0.00     0.025 A 
BRANCH  86  90
ATOM     90  S   UNL A   1      31.932  23.258  25.073  1.00  0.00     0.257 S 
ATOM     91  O   UNL A   1      30.921  22.990  26.078  1.00  0.00    -0.205 OA
ATOM     92  O   UNL A   1      33.241  23.758  25.412  1.00  0.00    -0.205 OA
BRANCH  90  93
ATOM     93  N   UNL A   1      31.252  24.360  23.979  1.00  0.00    -0.123 NA
ATOM     94  H   UNL A   1      31.127  23.861  23.099  1.00  0.00     0.167 HD
BRANCH  93  95
ATOM     95  N   UNL A   1      29.990  24.994  24.282  1.00  0.00    -0.275 N 
ATOM     96  C   UNL A   1      29.596  26.230  23.833  1.00  0.00     0.265 C 
ATOM     97  H   UNL A   1      29.361  24.499  24.855  1.00  0.00     0.186 HD
ATOM     98  O   UNL A   1      28.424  26.574  24.024  1.00  0.00    -0.271 OA
BRANCH  96  99
ATOM     99  C   UNL A   1      30.619  27.238  23.309  1.00  0.00     0.244 C 
ATOM    100  C   UNL A   1      30.881  28.259  24.355  1.00  0.00     0.042 C 
ATOM    101  N   UNL A   1      31.965  26.641  23.088  1.00  0.00    -0.171 NA
ATOM    102  C   UNL A   1      32.183  28.159  24.622  1.00  0.00     0.091 C 
ATOM    103  N   UNL A   1      32.810  27.222  23.833  1.00  0.00    -0.155 NA
BRANCH 102 104
ATOM    104  C   UNL A   1      32.883  28.907  25.666  1.00  0.00     0.002 A 
ATOM    105  C   UNL A   1      32.330  30.082  26.188  1.00  0.00     0.010 A 
ATOM    106  C   UNL A   1      34.132  28.478  26.140  1.00  0.00     0.010 A 
ATOM    107  C   UNL A   1      33.007  30.806  27.175  1.00  0.00     0.001 A 
ATOM    108  C   UNL A   1      34.813  29.208  27.115  1.00  0.00     0.001 A 
ATOM    109  C   UNL A   1      34.247  30.369  27.636  1.00  0.00     0.000 A 
ENDBRANCH 102 104
ENDBRANCH  96  99
ENDBRANCH  93  95
ENDBRANCH  90  93
ENDBRANCH  86  90
ENDBRANCH  80  83
ENDBRANCH  78  79
ENDBRANCH  77  78
ENDBRANCH   1  77
TORSDOF 21
ENDMDL
