MODEL 1
REMARK VINA RESULT:     -12.5      0.000      0.000
REMARK SMILES O=C(NCCCCCCNC(=O)[C@@H]1CCCN1S(=O)(=O)c1ccc2[nH]c(=O)c(=O)[nH]c2c1)c1ccc(-c2c3nc(c(-c4c(F)cc(S(=O)(=O)[O-])cc4F)c4ccc([nH]4)c(-c4c(F)cc(S(=O)(=O)[O-])cc4F)c4nc(c(-c5c(F)cc(S(=O)(=O)[O-])cc5F)c5ccc2[nH]5)C=C4)C=C3)cc1
REMARK SMILES IDX 6 1 5 2 4 3 3 4 1 5 2 6 33 8 34 9 98 10 35 11 97 12 36 13
REMARK SMILES IDX 37 14 38 15 91 16 39 17 96 18 90 19 92 20 40 21 95 22 89 23
REMARK SMILES IDX 88 24 41 26 75 27 54 28 74 29 55 30 58 31 73 32 93 33 56 34
REMARK SMILES IDX 57 35 72 37 94 38 59 39 42 40 43 41 52 42 44 43 45 44 51 45
REMARK SMILES IDX 53 46 46 47 47 48 48 49 49 50 50 51 76 52 77 53 86 54 78 55
REMARK SMILES IDX 79 56 85 57 87 58 80 59 81 60 82 61 83 62 84 63 60 64 61 65
REMARK SMILES IDX 70 66 62 67 63 68 69 69 71 70 64 71 65 72 66 73 67 74 68 75
REMARK SMILES IDX 7 76 8 77 9 78 10 79 11 80 12 82 13 83 14 84 17 85 15 86
REMARK SMILES IDX 16 87 18 88 19 89 20 90 21 91 22 92 32 93 23 94 31 95 24 96
REMARK SMILES IDX 30 97 25 98 28 99 26 101 29 103 27 104
REMARK H PARENT 3 7 92 25 58 36 10 81 30 100 25 102
REMARK Flexibility Score: inf
ROOT
ATOM      1  C   UNL A   1      38.353  23.492  26.168  1.00  0.00     0.002 C 
ENDROOT
BRANCH   1   2
ATOM      2  C   UNL A   1      39.496  22.630  26.703  1.00  0.00     0.021 C 
BRANCH   2   3
ATOM      3  C   UNL A   1      40.729  23.405  27.142  1.00  0.00     0.116 C 
BRANCH   3   4
ATOM      4  N   UNL A   1      41.301  24.187  26.060  1.00  0.00    -0.352 N 
ATOM      5  O   UNL A   1      41.812  26.069  24.929  1.00  0.00    -0.269 OA
ATOM      6  C   UNL A   1      41.497  25.546  25.993  1.00  0.00     0.251 C 
ATOM      7  H   UNL A   1      41.586  23.675  25.268  1.00  0.00     0.163 HD
BRANCH   6   8
ATOM      8  C   UNL A   1      41.311  26.374  27.207  1.00  0.00     0.039 A 
ATOM      9  C   UNL A   1      42.173  27.439  27.478  1.00  0.00     0.014 A 
ATOM     10  C   UNL A   1      40.249  26.094  28.072  1.00  0.00     0.014 A 
ATOM     11  C   UNL A   1      42.043  28.154  28.664  1.00  0.00     0.010 A 
ATOM     12  C   UNL A   1      40.068  26.867  29.223  1.00  0.00     0.010 A 
ATOM     13  C   UNL A   1      40.970  27.897  29.533  1.00  0.00    -0.014 A 
BRANCH  13  14
ATOM     14  C   UNL A   1      40.741  28.806  30.685  1.00  0.00     0.031 A 
ATOM     15  C   UNL A   1      39.649  29.837  30.672  1.00  0.00     0.074 A 
ATOM     16  C   UNL A   1      41.546  28.676  31.760  1.00  0.00     0.049 A 
ATOM     17  N   UNL A   1      39.328  30.700  31.602  1.00  0.00    -0.248 NA
ATOM     18  C   UNL A   1      38.812  29.920  29.465  1.00  0.00     0.031 C 
ATOM     19  C   UNL A   1      42.659  27.725  31.866  1.00  0.00     0.029 A 
ATOM     20  N   UNL A   1      41.559  29.332  32.963  1.00  0.00    -0.354 N 
ATOM     21  C   UNL A   1      38.269  31.440  31.091  1.00  0.00     0.074 A 
ATOM     22  C   UNL A   1      38.006  30.934  29.760  1.00  0.00     0.031 C 
ATOM     23  C   UNL A   1      43.223  27.837  33.076  1.00  0.00     0.029 A 
ATOM     24  C   UNL A   1      42.558  28.908  33.807  1.00  0.00     0.049 A 
ATOM     25  H   UNL A   1      40.914  30.037  33.200  1.00  0.00     0.167 HD
ATOM     26  C   UNL A   1      37.583  32.447  31.685  1.00  0.00     0.037 A 
ATOM     27  C   UNL A   1      42.923  29.352  35.024  1.00  0.00     0.037 A 
ATOM     28  C   UNL A   1      37.843  32.927  33.019  1.00  0.00     0.049 A 
ATOM     29  C   UNL A   1      42.151  30.479  35.646  1.00  0.00     0.074 A 
ATOM     30  C   UNL A   1      37.157  33.896  33.732  1.00  0.00     0.029 A 
ATOM     31  N   UNL A   1      38.874  32.487  33.837  1.00  0.00    -0.354 N 
ATOM     32  N   UNL A   1      41.112  31.122  35.171  1.00  0.00    -0.248 NA
ATOM     33  C   UNL A   1      42.604  30.947  36.962  1.00  0.00     0.031 C 
ATOM     34  C   UNL A   1      37.802  34.076  34.960  1.00  0.00     0.029 A 
ATOM     35  C   UNL A   1      38.862  33.187  35.032  1.00  0.00     0.049 A 
ATOM     36  H   UNL A   1      39.519  31.781  33.602  1.00  0.00     0.167 HD
ATOM     37  C   UNL A   1      40.781  32.067  36.134  1.00  0.00     0.074 A 
ATOM     38  C   UNL A   1      41.713  31.891  37.230  1.00  0.00     0.031 C 
ATOM     39  C   UNL A   1      39.801  33.002  36.110  1.00  0.00     0.037 A 
BRANCH  26  40
ATOM     40  C   UNL A   1      36.483  33.118  30.909  1.00  0.00     0.058 A 
ATOM     41  C   UNL A   1      35.134  32.968  31.262  1.00  0.00     0.135 A 
ATOM     42  C   UNL A   1      36.793  34.012  29.870  1.00  0.00     0.135 A 
ATOM     43  F   UNL A   1      34.781  32.118  32.238  1.00  0.00    -0.206 F 
ATOM     44  C   UNL A   1      34.130  33.683  30.614  1.00  0.00     0.059 A 
ATOM     45  C   UNL A   1      35.808  34.750  29.221  1.00  0.00     0.059 A 
ATOM     46  F   UNL A   1      38.068  34.190  29.491  1.00  0.00    -0.206 F 
ATOM     47  C   UNL A   1      34.478  34.577  29.600  1.00  0.00     0.060 A 
BRANCH  47  48
ATOM     48  S   UNL A   1      33.166  35.533  28.806  1.00  0.00     0.124 S 
ATOM     49  O   UNL A   1      32.473  36.092  29.963  1.00  0.00    -0.237 OA
ATOM     50  O   UNL A   1      33.920  36.486  27.999  1.00  0.00    -0.237 OA
ATOM     51  O   UNL A   1      32.420  34.529  28.054  1.00  0.00    -0.744 OA
ENDBRANCH  47  48
ENDBRANCH  26  40
BRANCH  27  52
ATOM     52  C   UNL A   1      44.097  28.754  35.713  1.00  0.00     0.058 A 
ATOM     53  C   UNL A   1      43.944  27.713  36.639  1.00  0.00     0.135 A 
ATOM     54  C   UNL A   1      45.397  29.218  35.457  1.00  0.00     0.135 A 
ATOM     55  F   UNL A   1      42.721  27.237  36.918  1.00  0.00    -0.206 F 
ATOM     56  C   UNL A   1      45.035  27.172  37.311  1.00  0.00     0.059 A 
ATOM     57  C   UNL A   1      46.507  28.672  36.091  1.00  0.00     0.059 A 
ATOM     58  F   UNL A   1      45.598  30.198  34.562  1.00  0.00    -0.206 F 
ATOM     59  C   UNL A   1      46.313  27.661  37.032  1.00  0.00     0.060 A 
BRANCH  59  60
ATOM     60  S   UNL A   1      47.728  26.944  37.892  1.00  0.00     0.124 S 
ATOM     61  O   UNL A   1      47.608  25.537  37.526  1.00  0.00    -0.237 OA
ATOM     62  O   UNL A   1      48.849  27.665  37.296  1.00  0.00    -0.237 OA
ATOM     63  O   UNL A   1      47.464  27.259  39.292  1.00  0.00    -0.744 OA
ENDBRANCH  59  60
ENDBRANCH  27  52
BRANCH  39  64
ATOM     64  C   UNL A   1      39.682  33.896  37.311  1.00  0.00     0.058 A 
ATOM     65  C   UNL A   1      40.332  35.138  37.365  1.00  0.00     0.135 A 
ATOM     66  C   UNL A   1      38.886  33.521  38.405  1.00  0.00     0.135 A 
ATOM     67  F   UNL A   1      41.113  35.537  36.349  1.00  0.00    -0.206 F 
ATOM     68  C   UNL A   1      40.219  35.969  38.475  1.00  0.00     0.059 A 
ATOM     69  C   UNL A   1      38.736  34.347  39.513  1.00  0.00     0.059 A 
ATOM     70  F   UNL A   1      38.237  32.346  38.398  1.00  0.00    -0.206 F 
ATOM     71  C   UNL A   1      39.418  35.564  39.544  1.00  0.00     0.060 A 
BRANCH  71  72
ATOM     72  S   UNL A   1      39.256  36.662  40.967  1.00  0.00     0.124 S 
ATOM     73  O   UNL A   1      40.653  36.871  41.336  1.00  0.00    -0.237 OA
ATOM     74  O   UNL A   1      38.571  37.817  40.395  1.00  0.00    -0.237 OA
ATOM     75  O   UNL A   1      38.467  35.877  41.912  1.00  0.00    -0.744 OA
ENDBRANCH  71  72
ENDBRANCH  39  64
ENDBRANCH  13  14
ENDBRANCH   6   8
ENDBRANCH   3   4
ENDBRANCH   2   3
ENDBRANCH   1   2
BRANCH   1  76
ATOM     76  C   UNL A   1      37.413  22.808  25.167  1.00  0.00     0.002 C 
BRANCH  76  77
ATOM     77  C   UNL A   1      35.910  22.903  25.470  1.00  0.00     0.021 C 
BRANCH  77  78
ATOM     78  C   UNL A   1      35.291  21.648  26.079  1.00  0.00     0.116 C 
BRANCH  78  79
ATOM     79  N   UNL A   1      34.282  21.050  25.233  1.00  0.00    -0.355 N 
ATOM     80  C   UNL A   1      33.017  21.435  24.934  1.00  0.00     0.238 C 
ATOM     81  H   UNL A   1      34.564  20.214  24.797  1.00  0.00     0.163 HD
ATOM     82  O   UNL A   1      32.563  20.985  23.874  1.00  0.00    -0.273 OA
BRANCH  80  83
ATOM     83  C   UNL A   1      32.191  22.414  25.760  1.00  0.00     0.162 C 
ATOM     84  C   UNL A   1      30.685  22.295  25.931  1.00  0.00     0.032 C 
ATOM     85  N   UNL A   1      32.373  23.880  25.415  1.00  0.00    -0.185 NA
ATOM     86  C   UNL A   1      30.313  23.587  26.651  1.00  0.00     0.019 C 
ATOM     87  C   UNL A   1      31.455  24.567  26.385  1.00  0.00     0.103 C 
BRANCH  85  88
ATOM     88  S   UNL A   1      32.104  24.443  23.813  1.00  0.00     0.243 S 
ATOM     89  O   UNL A   1      33.362  24.384  23.100  1.00  0.00    -0.207 OA
ATOM     90  O   UNL A   1      30.962  23.706  23.303  1.00  0.00    -0.207 OA
BRANCH  88  91
ATOM     91  C   UNL A   1      31.608  26.145  23.863  1.00  0.00     0.084 A 
ATOM     92  C   UNL A   1      32.580  27.140  24.041  1.00  0.00     0.024 A 
ATOM     93  C   UNL A   1      30.285  26.493  23.563  1.00  0.00     0.050 A 
ATOM     94  C   UNL A   1      32.207  28.484  24.067  1.00  0.00     0.030 A 
ATOM     95  C   UNL A   1      29.933  27.843  23.525  1.00  0.00     0.066 A 
ATOM     96  C   UNL A   1      30.882  28.831  23.817  1.00  0.00     0.065 A 
ATOM     97  N   UNL A   1      28.633  28.215  23.167  1.00  0.00    -0.316 N 
ATOM     98  N   UNL A   1      30.503  30.175  23.847  1.00  0.00    -0.316 N 
ATOM     99  C   UNL A   1      28.213  29.526  23.109  1.00  0.00     0.314 A 
ATOM    100  H   UNL A   1      27.988  27.506  22.946  1.00  0.00     0.170 HD
ATOM    101  C   UNL A   1      29.229  30.606  23.554  1.00  0.00     0.314 A 
ATOM    102  H   UNL A   1      31.181  30.847  24.088  1.00  0.00     0.170 HD
ATOM    103  O   UNL A   1      27.091  29.828  22.721  1.00  0.00    -0.263 OA
ATOM    104  O   UNL A   1      28.915  31.787  23.630  1.00  0.00    -0.263 OA
ENDBRANCH  88  91
ENDBRANCH  85  88
ENDBRANCH  80  83
ENDBRANCH  78  79
ENDBRANCH  77  78
ENDBRANCH  76  77
ENDBRANCH   1  76
TORSDOF 18
ENDMDL
MODEL 2
REMARK VINA RESULT:     -12.4      6.176     11.305
REMARK SMILES O=C(NCCCCCCNC(=O)[C@@H]1CCCN1S(=O)(=O)c1ccc2[nH]c(=O)c(=O)[nH]c2c1)c1ccc(-c2c3nc(c(-c4c(F)cc(S(=O)(=O)[O-])cc4F)c4ccc([nH]4)c(-c4c(F)cc(S(=O)(=O)[O-])cc4F)c4nc(c(-c5c(F)cc(S(=O)(=O)[O-])cc5F)c5ccc2[nH]5)C=C4)C=C3)cc1
REMARK SMILES IDX 6 1 5 2 4 3 3 4 1 5 2 6 33 8 34 9 98 10 35 11 97 12 36 13
REMARK SMILES IDX 37 14 38 15 91 16 39 17 96 18 90 19 92 20 40 21 95 22 89 23
REMARK SMILES IDX 88 24 41 26 75 27 54 28 74 29 55 30 58 31 73 32 93 33 56 34
REMARK SMILES IDX 57 35 72 37 94 38 59 39 42 40 43 41 52 42 44 43 45 44 51 45
REMARK SMILES IDX 53 46 46 47 47 48 48 49 49 50 50 51 76 52 77 53 86 54 78 55
REMARK SMILES IDX 79 56 85 57 87 58 80 59 81 60 82 61 83 62 84 63 60 64 61 65
REMARK SMILES IDX 70 66 62 67 63 68 69 69 71 70 64 71 65 72 66 73 67 74 68 75
REMARK SMILES IDX 7 76 8 77 9 78 10 79 11 80 12 82 13 83 14 84 17 85 15 86
REMARK SMILES IDX 16 87 18 88 19 89 20 90 21 91 22 92 32 93 23 94 31 95 24 96
REMARK SMILES IDX 30 97 25 98 28 99 26 101 29 103 27 104
REMARK H PARENT 3 7 92 25 58 36 10 81 30 100 25 102
REMARK Flexibility Score: inf
ROOT
ATOM      1  C   UNL A   1      37.080  20.673  25.041  1.00  0.00     0.002 C 
ENDROOT
BRANCH   1   2
ATOM      2  C   UNL A   1      38.421  19.955  24.899  1.00  0.00     0.021 C 
BRANCH   2   3
ATOM      3  C   UNL A   1      39.479  20.372  25.909  1.00  0.00     0.116 C 
BRANCH   3   4
ATOM      4  N   UNL A   1      40.476  19.336  26.119  1.00  0.00    -0.352 N 
ATOM      5  O   UNL A   1      42.558  18.485  26.266  1.00  0.00    -0.269 OA
ATOM      6  C   UNL A   1      41.833  19.474  26.296  1.00  0.00     0.251 C 
ATOM      7  H   UNL A   1      40.135  18.413  26.138  1.00  0.00     0.163 HD
BRANCH   6   8
ATOM      8  C   UNL A   1      42.411  20.821  26.506  1.00  0.00     0.039 A 
ATOM      9  C   UNL A   1      42.727  21.635  25.415  1.00  0.00     0.014 A 
ATOM     10  C   UNL A   1      42.618  21.283  27.809  1.00  0.00     0.014 A 
ATOM     11  C   UNL A   1      43.350  22.862  25.622  1.00  0.00     0.010 A 
ATOM     12  C   UNL A   1      43.168  22.552  28.017  1.00  0.00     0.010 A 
ATOM     13  C   UNL A   1      43.547  23.347  26.925  1.00  0.00    -0.014 A 
BRANCH  13  14
ATOM     14  C   UNL A   1      44.028  24.740  27.111  1.00  0.00     0.031 A 
ATOM     15  C   UNL A   1      45.468  25.113  26.901  1.00  0.00     0.074 A 
ATOM     16  C   UNL A   1      43.125  25.675  27.472  1.00  0.00     0.049 A 
ATOM     17  N   UNL A   1      46.035  26.286  27.025  1.00  0.00    -0.248 NA
ATOM     18  C   UNL A   1      46.393  24.039  26.508  1.00  0.00     0.031 C 
ATOM     19  C   UNL A   1      41.703  25.415  27.731  1.00  0.00     0.029 A 
ATOM     20  N   UNL A   1      43.255  27.023  27.681  1.00  0.00    -0.354 N 
ATOM     21  C   UNL A   1      47.382  26.093  26.747  1.00  0.00     0.074 A 
ATOM     22  C   UNL A   1      47.553  24.684  26.458  1.00  0.00     0.031 C 
ATOM     23  C   UNL A   1      41.090  26.568  28.031  1.00  0.00     0.029 A 
ATOM     24  C   UNL A   1      42.081  27.636  28.051  1.00  0.00     0.049 A 
ATOM     25  H   UNL A   1      44.106  27.505  27.575  1.00  0.00     0.167 HD
ATOM     26  C   UNL A   1      48.378  27.011  26.734  1.00  0.00     0.037 A 
ATOM     27  C   UNL A   1      41.831  28.911  28.399  1.00  0.00     0.037 A 
ATOM     28  C   UNL A   1      48.188  28.415  27.004  1.00  0.00     0.049 A 
ATOM     29  C   UNL A   1      42.961  29.900  28.389  1.00  0.00     0.074 A 
ATOM     30  C   UNL A   1      49.124  29.434  26.948  1.00  0.00     0.029 A 
ATOM     31  N   UNL A   1      46.990  28.996  27.393  1.00  0.00    -0.354 N 
ATOM     32  N   UNL A   1      44.215  29.709  28.060  1.00  0.00    -0.248 NA
ATOM     33  C   UNL A   1      42.645  31.273  28.803  1.00  0.00     0.031 C 
ATOM     34  C   UNL A   1      48.503  30.622  27.350  1.00  0.00     0.029 A 
ATOM     35  C   UNL A   1      47.170  30.352  27.611  1.00  0.00     0.049 A 
ATOM     36  H   UNL A   1      46.137  28.515  27.498  1.00  0.00     0.167 HD
ATOM     37  C   UNL A   1      44.839  30.940  28.221  1.00  0.00     0.074 A 
ATOM     38  C   UNL A   1      43.817  31.874  28.648  1.00  0.00     0.031 C 
ATOM     39  C   UNL A   1      46.142  31.266  28.041  1.00  0.00     0.037 A 
BRANCH  26  40
ATOM     40  C   UNL A   1      49.776  26.547  26.426  1.00  0.00     0.058 A 
ATOM     41  C   UNL A   1      50.618  26.033  27.423  1.00  0.00     0.135 A 
ATOM     42  C   UNL A   1      50.234  26.513  25.099  1.00  0.00     0.135 A 
ATOM     43  F   UNL A   1      50.235  26.054  28.709  1.00  0.00    -0.206 F 
ATOM     44  C   UNL A   1      51.866  25.499  27.115  1.00  0.00     0.059 A 
ATOM     45  C   UNL A   1      51.470  25.966  24.765  1.00  0.00     0.059 A 
ATOM     46  F   UNL A   1      49.468  26.994  24.107  1.00  0.00    -0.206 F 
ATOM     47  C   UNL A   1      52.280  25.462  25.781  1.00  0.00     0.060 A 
BRANCH  47  48
ATOM     48  S   UNL A   1      53.880  24.718  25.396  1.00  0.00     0.124 S 
ATOM     49  O   UNL A   1      53.488  23.359  25.033  1.00  0.00    -0.237 OA
ATOM     50  O   UNL A   1      54.356  25.553  24.299  1.00  0.00    -0.237 OA
ATOM     51  O   UNL A   1      54.625  24.844  26.645  1.00  0.00    -0.744 OA
ENDBRANCH  47  48
ENDBRANCH  26  40
BRANCH  27  52
ATOM     52  C   UNL A   1      40.464  29.313  28.824  1.00  0.00     0.058 A 
ATOM     53  C   UNL A   1      40.152  29.512  30.176  1.00  0.00     0.135 A 
ATOM     54  C   UNL A   1      39.442  29.502  27.880  1.00  0.00     0.135 A 
ATOM     55  F   UNL A   1      41.095  29.342  31.114  1.00  0.00    -0.206 F 
ATOM     56  C   UNL A   1      38.866  29.856  30.582  1.00  0.00     0.059 A 
ATOM     57  C   UNL A   1      38.158  29.877  28.258  1.00  0.00     0.059 A 
ATOM     58  F   UNL A   1      39.697  29.345  26.572  1.00  0.00    -0.206 F 
ATOM     59  C   UNL A   1      37.875  30.032  29.614  1.00  0.00     0.060 A 
BRANCH  59  60
ATOM     60  S   UNL A   1      36.213  30.497  30.143  1.00  0.00     0.124 S 
ATOM     61  O   UNL A   1      35.904  29.435  31.094  1.00  0.00    -0.237 OA
ATOM     62  O   UNL A   1      36.431  31.823  30.715  1.00  0.00    -0.237 OA
ATOM     63  O   UNL A   1      35.449  30.477  28.900  1.00  0.00    -0.744 OA
ENDBRANCH  59  60
ENDBRANCH  27  52
BRANCH  39  64
ATOM     64  C   UNL A   1      46.528  32.694  28.295  1.00  0.00     0.058 A 
ATOM     65  C   UNL A   1      46.421  33.670  27.292  1.00  0.00     0.135 A 
ATOM     66  C   UNL A   1      46.980  33.099  29.561  1.00  0.00     0.135 A 
ATOM     67  F   UNL A   1      46.004  33.331  26.061  1.00  0.00    -0.206 F 
ATOM     68  C   UNL A   1      46.774  34.994  27.527  1.00  0.00     0.059 A 
ATOM     69  C   UNL A   1      47.312  34.422  29.826  1.00  0.00     0.059 A 
ATOM     70  F   UNL A   1      47.093  32.205  30.556  1.00  0.00    -0.206 F 
ATOM     71  C   UNL A   1      47.219  35.361  28.799  1.00  0.00     0.060 A 
BRANCH  71  72
ATOM     72  S   UNL A   1      47.648  37.087  29.101  1.00  0.00     0.124 S 
ATOM     73  O   UNL A   1      46.353  37.744  28.939  1.00  0.00    -0.237 OA
ATOM     74  O   UNL A   1      48.172  37.046  30.463  1.00  0.00    -0.237 OA
ATOM     75  O   UNL A   1      48.633  37.378  28.064  1.00  0.00    -0.744 OA
ENDBRANCH  71  72
ENDBRANCH  39  64
ENDBRANCH  13  14
ENDBRANCH   6   8
ENDBRANCH   3   4
ENDBRANCH   2   3
ENDBRANCH   1   2
BRANCH   1  76
ATOM     76  C   UNL A   1      37.105  22.189  24.805  1.00  0.00     0.002 C 
BRANCH  76  77
ATOM     77  C   UNL A   1      36.037  23.010  25.543  1.00  0.00     0.021 C 
BRANCH  77  78
ATOM     78  C   UNL A   1      35.305  24.039  24.686  1.00  0.00     0.116 C 
BRANCH  78  79
ATOM     79  N   UNL A   1      34.857  25.187  25.443  1.00  0.00    -0.355 N 
ATOM     80  C   UNL A   1      33.846  26.065  25.230  1.00  0.00     0.238 C 
ATOM     81  H   UNL A   1      35.380  25.363  26.258  1.00  0.00     0.163 HD
ATOM     82  O   UNL A   1      33.435  26.654  26.238  1.00  0.00    -0.273 OA
BRANCH  80  83
ATOM     83  C   UNL A   1      33.166  26.293  23.886  1.00  0.00     0.162 C 
ATOM     84  C   UNL A   1      32.109  27.363  23.659  1.00  0.00     0.032 C 
ATOM     85  N   UNL A   1      32.541  25.067  23.249  1.00  0.00    -0.185 NA
ATOM     86  C   UNL A   1      31.607  27.064  22.250  1.00  0.00     0.019 C 
ATOM     87  C   UNL A   1      31.976  25.607  21.967  1.00  0.00     0.103 C 
BRANCH  85  88
ATOM     88  S   UNL A   1      31.364  24.144  24.097  1.00  0.00     0.243 S 
ATOM     89  O   UNL A   1      31.055  24.835  25.330  1.00  0.00    -0.207 OA
ATOM     90  O   UNL A   1      30.298  23.866  23.150  1.00  0.00    -0.207 OA
BRANCH  88  91
ATOM     91  C   UNL A   1      32.054  22.570  24.536  1.00  0.00     0.084 A 
ATOM     92  C   UNL A   1      32.385  22.313  25.874  1.00  0.00     0.024 A 
ATOM     93  C   UNL A   1      32.111  21.545  23.583  1.00  0.00     0.050 A 
ATOM     94  C   UNL A   1      32.914  21.074  26.237  1.00  0.00     0.030 A 
ATOM     95  C   UNL A   1      32.580  20.289  23.968  1.00  0.00     0.066 A 
ATOM     96  C   UNL A   1      33.017  20.068  25.280  1.00  0.00     0.065 A 
ATOM     97  N   UNL A   1      32.587  19.235  23.049  1.00  0.00    -0.316 N 
ATOM     98  N   UNL A   1      33.551  18.828  25.639  1.00  0.00    -0.316 N 
ATOM     99  C   UNL A   1      33.036  17.969  23.357  1.00  0.00     0.314 A 
ATOM    100  H   UNL A   1      32.256  19.406  22.138  1.00  0.00     0.170 HD
ATOM    101  C   UNL A   1      33.635  17.763  24.770  1.00  0.00     0.314 A 
ATOM    102  H   UNL A   1      33.883  18.710  26.558  1.00  0.00     0.170 HD
ATOM    103  O   UNL A   1      32.962  17.045  22.556  1.00  0.00    -0.263 OA
ATOM    104  O   UNL A   1      34.147  16.701  25.100  1.00  0.00    -0.263 OA
ENDBRANCH  88  91
ENDBRANCH  85  88
ENDBRANCH  80  83
ENDBRANCH  78  79
ENDBRANCH  77  78
ENDBRANCH  76  77
ENDBRANCH   1  76
TORSDOF 18
ENDMDL
MODEL 3
REMARK VINA RESULT:     -12.4      6.307     11.828
REMARK SMILES O=C(NCCCCCCNC(=O)[C@@H]1CCCN1S(=O)(=O)c1ccc2[nH]c(=O)c(=O)[nH]c2c1)c1ccc(-c2c3nc(c(-c4c(F)cc(S(=O)(=O)[O-])cc4F)c4ccc([nH]4)c(-c4c(F)cc(S(=O)(=O)[O-])cc4F)c4nc(c(-c5c(F)cc(S(=O)(=O)[O-])cc5F)c5ccc2[nH]5)C=C4)C=C3)cc1
REMARK SMILES IDX 6 1 5 2 4 3 3 4 1 5 2 6 33 8 34 9 98 10 35 11 97 12 36 13
REMARK SMILES IDX 37 14 38 15 91 16 39 17 96 18 90 19 92 20 40 21 95 22 89 23
REMARK SMILES IDX 88 24 41 26 75 27 54 28 74 29 55 30 58 31 73 32 93 33 56 34
REMARK SMILES IDX 57 35 72 37 94 38 59 39 42 40 43 41 52 42 44 43 45 44 51 45
REMARK SMILES IDX 53 46 46 47 47 48 48 49 49 50 50 51 76 52 77 53 86 54 78 55
REMARK SMILES IDX 79 56 85 57 87 58 80 59 81 60 82 61 83 62 84 63 60 64 61 65
REMARK SMILES IDX 70 66 62 67 63 68 69 69 71 70 64 71 65 72 66 73 67 74 68 75
REMARK SMILES IDX 7 76 8 77 9 78 10 79 11 80 12 82 13 83 14 84 17 85 15 86
REMARK SMILES IDX 16 87 18 88 19 89 20 90 21 91 22 92 32 93 23 94 31 95 24 96
REMARK SMILES IDX 30 97 25 98 28 99 26 101 29 103 27 104
REMARK H PARENT 3 7 92 25 58 36 10 81 30 100 25 102
REMARK Flexibility Score: inf
ROOT
ATOM      1  C   UNL A   1      33.385  31.345  27.593  1.00  0.00     0.002 C 
ENDROOT
BRANCH   1   2
ATOM      2  C   UNL A   1      34.737  30.631  27.613  1.00  0.00     0.021 C 
BRANCH   2   3
ATOM      3  C   UNL A   1      35.801  31.302  28.467  1.00  0.00     0.116 C 
BRANCH   3   4
ATOM      4  N   UNL A   1      35.661  30.976  29.875  1.00  0.00    -0.352 N 
ATOM      5  O   UNL A   1      36.194  29.954  31.813  1.00  0.00    -0.269 OA
ATOM      6  C   UNL A   1      36.549  30.322  30.697  1.00  0.00     0.251 C 
ATOM      7  H   UNL A   1      34.818  31.260  30.298  1.00  0.00     0.163 HD
BRANCH   6   8
ATOM      8  C   UNL A   1      37.925  30.053  30.222  1.00  0.00     0.039 A 
ATOM      9  C   UNL A   1      38.972  29.896  31.134  1.00  0.00     0.014 A 
ATOM     10  C   UNL A   1      38.167  29.934  28.851  1.00  0.00     0.014 A 
ATOM     11  C   UNL A   1      40.274  29.730  30.675  1.00  0.00     0.010 A 
ATOM     12  C   UNL A   1      39.464  29.684  28.392  1.00  0.00     0.010 A 
ATOM     13  C   UNL A   1      40.530  29.590  29.301  1.00  0.00    -0.014 A 
BRANCH  13  14
ATOM     14  C   UNL A   1      41.896  29.214  28.856  1.00  0.00     0.031 A 
ATOM     15  C   UNL A   1      43.010  30.220  28.795  1.00  0.00     0.074 A 
ATOM     16  C   UNL A   1      42.114  27.929  28.509  1.00  0.00     0.049 A 
ATOM     17  N   UNL A   1      44.254  30.041  28.427  1.00  0.00    -0.248 NA
ATOM     18  C   UNL A   1      42.696  31.602  29.188  1.00  0.00     0.031 C 
ATOM     19  C   UNL A   1      41.093  26.875  28.504  1.00  0.00     0.029 A 
ATOM     20  N   UNL A   1      43.253  27.285  28.100  1.00  0.00    -0.354 N 
ATOM     21  C   UNL A   1      44.866  31.284  28.525  1.00  0.00     0.074 A 
ATOM     22  C   UNL A   1      43.854  32.216  28.975  1.00  0.00     0.031 C 
ATOM     23  C   UNL A   1      41.657  25.714  28.143  1.00  0.00     0.029 A 
ATOM     24  C   UNL A   1      43.060  25.951  27.829  1.00  0.00     0.049 A 
ATOM     25  H   UNL A   1      44.124  27.735  28.010  1.00  0.00     0.167 HD
ATOM     26  C   UNL A   1      46.155  31.609  28.263  1.00  0.00     0.037 A 
ATOM     27  C   UNL A   1      43.909  25.023  27.351  1.00  0.00     0.037 A 
ATOM     28  C   UNL A   1      47.157  30.665  27.833  1.00  0.00     0.049 A 
ATOM     29  C   UNL A   1      45.326  25.422  27.055  1.00  0.00     0.074 A 
ATOM     30  C   UNL A   1      48.505  30.887  27.609  1.00  0.00     0.029 A 
ATOM     31  N   UNL A   1      46.922  29.327  27.552  1.00  0.00    -0.354 N 
ATOM     32  N   UNL A   1      45.901  26.588  27.217  1.00  0.00    -0.248 NA
ATOM     33  C   UNL A   1      46.208  24.382  26.509  1.00  0.00     0.031 C 
ATOM     34  C   UNL A   1      49.074  29.695  27.146  1.00  0.00     0.029 A 
ATOM     35  C   UNL A   1      48.091  28.720  27.126  1.00  0.00     0.049 A 
ATOM     36  H   UNL A   1      46.051  28.875  27.643  1.00  0.00     0.167 HD
ATOM     37  C   UNL A   1      47.215  26.423  26.796  1.00  0.00     0.074 A 
ATOM     38  C   UNL A   1      47.356  25.035  26.403  1.00  0.00     0.031 C 
ATOM     39  C   UNL A   1      48.212  27.338  26.733  1.00  0.00     0.037 A 
BRANCH  26  40
ATOM     40  C   UNL A   1      46.577  33.044  28.418  1.00  0.00     0.058 A 
ATOM     41  C   UNL A   1      46.401  33.981  27.388  1.00  0.00     0.135 A 
ATOM     42  C   UNL A   1      47.058  33.511  29.653  1.00  0.00     0.135 A 
ATOM     43  F   UNL A   1      45.957  33.587  26.185  1.00  0.00    -0.206 F 
ATOM     44  C   UNL A   1      46.686  35.330  27.578  1.00  0.00     0.059 A 
ATOM     45  C   UNL A   1      47.331  34.859  29.871  1.00  0.00     0.059 A 
ATOM     46  F   UNL A   1      47.246  32.657  30.671  1.00  0.00    -0.206 F 
ATOM     47  C   UNL A   1      47.143  35.761  28.825  1.00  0.00     0.060 A 
BRANCH  47  48
ATOM     48  S   UNL A   1      47.457  37.524  29.066  1.00  0.00     0.124 S 
ATOM     49  O   UNL A   1      46.327  38.119  28.359  1.00  0.00    -0.237 OA
ATOM     50  O   UNL A   1      47.431  37.648  30.519  1.00  0.00    -0.237 OA
ATOM     51  O   UNL A   1      48.763  37.725  28.445  1.00  0.00    -0.744 OA
ENDBRANCH  47  48
ENDBRANCH  26  40
BRANCH  27  52
ATOM     52  C   UNL A   1      43.429  23.642  27.084  1.00  0.00     0.058 A 
ATOM     53  C   UNL A   1      43.104  23.222  25.787  1.00  0.00     0.135 A 
ATOM     54  C   UNL A   1      43.284  22.714  28.129  1.00  0.00     0.135 A 
ATOM     55  F   UNL A   1      43.226  24.074  24.757  1.00  0.00    -0.206 F 
ATOM     56  C   UNL A   1      42.624  21.941  25.536  1.00  0.00     0.059 A 
ATOM     57  C   UNL A   1      42.836  21.419  27.899  1.00  0.00     0.059 A 
ATOM     58  F   UNL A   1      43.603  23.061  29.385  1.00  0.00    -0.206 F 
ATOM     59  C   UNL A   1      42.490  21.048  26.601  1.00  0.00     0.060 A 
BRANCH  59  60
ATOM     60  S   UNL A   1      41.884  19.381  26.269  1.00  0.00     0.124 S 
ATOM     61  O   UNL A   1      42.350  18.662  27.449  1.00  0.00    -0.237 OA
ATOM     62  O   UNL A   1      40.442  19.589  26.176  1.00  0.00    -0.237 OA
ATOM     63  O   UNL A   1      42.540  19.031  25.013  1.00  0.00    -0.744 OA
ENDBRANCH  59  60
ENDBRANCH  27  52
BRANCH  39  64
ATOM     64  C   UNL A   1      49.544  26.861  26.231  1.00  0.00     0.058 A 
ATOM     65  C   UNL A   1      49.902  26.978  24.879  1.00  0.00     0.135 A 
ATOM     66  C   UNL A   1      50.486  26.309  27.115  1.00  0.00     0.135 A 
ATOM     67  F   UNL A   1      49.032  27.490  23.993  1.00  0.00    -0.206 F 
ATOM     68  C   UNL A   1      51.137  26.541  24.414  1.00  0.00     0.059 A 
ATOM     69  C   UNL A   1      51.737  25.890  26.677  1.00  0.00     0.059 A 
ATOM     70  F   UNL A   1      50.195  26.182  28.419  1.00  0.00    -0.206 F 
ATOM     71  C   UNL A   1      52.048  25.998  25.322  1.00  0.00     0.060 A 
BRANCH  71  72
ATOM     72  S   UNL A   1      53.659  25.459  24.713  1.00  0.00     0.124 S 
ATOM     73  O   UNL A   1      53.519  24.007  24.759  1.00  0.00    -0.237 OA
ATOM     74  O   UNL A   1      53.703  26.050  23.379  1.00  0.00    -0.237 OA
ATOM     75  O   UNL A   1      54.595  26.031  25.677  1.00  0.00    -0.744 OA
ENDBRANCH  71  72
ENDBRANCH  39  64
ENDBRANCH  13  14
ENDBRANCH   6   8
ENDBRANCH   3   4
ENDBRANCH   2   3
ENDBRANCH   1   2
BRANCH   1  76
ATOM     76  C   UNL A   1      32.265  30.632  26.825  1.00  0.00     0.002 C 
BRANCH  76  77
ATOM     77  C   UNL A   1      32.050  29.147  27.157  1.00  0.00     0.021 C 
BRANCH  77  78
ATOM     78  C   UNL A   1      32.224  28.188  25.983  1.00  0.00     0.116 C 
BRANCH  78  79
ATOM     79  N   UNL A   1      31.140  28.262  25.029  1.00  0.00    -0.355 N 
ATOM     80  C   UNL A   1      30.878  27.544  23.909  1.00  0.00     0.238 C 
ATOM     81  H   UNL A   1      30.474  28.959  25.228  1.00  0.00     0.163 HD
ATOM     82  O   UNL A   1      29.692  27.531  23.554  1.00  0.00    -0.273 OA
BRANCH  80  83
ATOM     83  C   UNL A   1      31.909  26.722  23.146  1.00  0.00     0.162 C 
ATOM     84  C   UNL A   1      31.668  26.175  21.748  1.00  0.00     0.032 C 
ATOM     85  N   UNL A   1      32.466  25.519  23.884  1.00  0.00    -0.185 NA
ATOM     86  C   UNL A   1      32.880  25.278  21.511  1.00  0.00     0.019 C 
ATOM     87  C   UNL A   1      33.436  24.941  22.894  1.00  0.00     0.103 C 
BRANCH  85  88
ATOM     88  S   UNL A   1      31.416  24.303  24.494  1.00  0.00     0.243 S 
ATOM     89  O   UNL A   1      30.998  24.697  25.823  1.00  0.00    -0.207 OA
ATOM     90  O   UNL A   1      30.412  24.072  23.471  1.00  0.00    -0.207 OA
BRANCH  88  91
ATOM     91  C   UNL A   1      32.311  22.780  24.657  1.00  0.00     0.084 A 
ATOM     92  C   UNL A   1      33.133  22.581  25.776  1.00  0.00     0.024 A 
ATOM     93  C   UNL A   1      32.066  21.730  23.763  1.00  0.00     0.050 A 
ATOM     94  C   UNL A   1      33.831  21.382  25.925  1.00  0.00     0.030 A 
ATOM     95  C   UNL A   1      32.718  20.512  23.955  1.00  0.00     0.066 A 
ATOM     96  C   UNL A   1      33.627  20.353  25.009  1.00  0.00     0.065 A 
ATOM     97  N   UNL A   1      32.441  19.431  23.111  1.00  0.00    -0.316 N 
ATOM     98  N   UNL A   1      34.327  19.154  25.152  1.00  0.00    -0.316 N 
ATOM     99  C   UNL A   1      33.045  18.200  23.240  1.00  0.00     0.314 A 
ATOM    100  H   UNL A   1      31.784  19.558  22.390  1.00  0.00     0.170 HD
ATOM    101  C   UNL A   1      34.141  18.068  24.326  1.00  0.00     0.314 A 
ATOM    102  H   UNL A   1      34.986  19.081  25.880  1.00  0.00     0.170 HD
ATOM    103  O   UNL A   1      32.731  17.249  22.534  1.00  0.00    -0.263 OA
ATOM    104  O   UNL A   1      34.801  17.044  24.449  1.00  0.00    -0.263 OA
ENDBRANCH  88  91
ENDBRANCH  85  88
ENDBRANCH  80  83
ENDBRANCH  78  79
ENDBRANCH  77  78
ENDBRANCH  76  77
ENDBRANCH   1  76
TORSDOF 18
ENDMDL
