MODEL 1
REMARK VINA RESULT:     -10.5      0.000      0.000
REMARK SMILES CN(CC(C)(C)O)C(=O)N1CCCC[C@H]1CC(=O)NCCCCCCNC(=O)c1ccc(-c2c3nc(c(-c4c(F)cc(S(=O)(=O)[O-])cc4F)c4ccc([nH]4)c(-c4c(F)cc(S(=O)(=O)[O-])cc4F)c4nc(c(-c5c(F)cc(S(=O)(=O)[O-])cc5F)c5ccc2[nH]5)C=C4)C=C3)cc1
REMARK SMILES IDX 21 1 20 2 19 3 17 4 18 5 16 7 15 8 10 9 11 10 12 11 14 12
REMARK SMILES IDX 13 13 8 14 9 15 2 16 1 17 3 18 4 19 5 20 6 21 7 22 22 24
REMARK SMILES IDX 23 25 24 26 25 27 26 28 27 29 28 31 29 32 30 33 94 34 31 35
REMARK SMILES IDX 93 36 32 37 33 38 34 39 87 40 35 41 92 42 86 43 88 44 36 45
REMARK SMILES IDX 91 46 85 47 84 48 37 50 71 51 50 52 70 53 51 54 54 55 69 56
REMARK SMILES IDX 89 57 52 58 53 59 68 61 90 62 55 63 38 64 39 65 48 66 40 67
REMARK SMILES IDX 41 68 47 69 49 70 42 71 43 72 44 73 45 74 46 75 72 76 73 77
REMARK SMILES IDX 82 78 74 79 75 80 81 81 83 82 76 83 77 84 78 85 79 86 80 87
REMARK SMILES IDX 56 88 57 89 66 90 58 91 59 92 65 93 67 94 60 95 61 96 62 97
REMARK SMILES IDX 63 98 64 99
REMARK H PARENT 19 6 7 23 26 30 88 49 54 60
REMARK Flexibility Score: inf
ROOT
ATOM      1  C   UNL A   1      31.615  28.676  23.397  1.00  0.00     0.021 C 
ENDROOT
BRANCH   1   2
ATOM      2  C   UNL A   1      31.138  27.266  23.043  1.00  0.00     0.116 C 
BRANCH   2   3
ATOM      3  N   UNL A   1      31.798  26.771  21.855  1.00  0.00    -0.356 N 
ATOM      4  C   UNL A   1      32.819  25.882  21.736  1.00  0.00     0.222 C 
ATOM      5  O   UNL A   1      33.242  25.631  20.606  1.00  0.00    -0.275 OA
ATOM      6  H   UNL A   1      31.455  27.131  21.005  1.00  0.00     0.163 HD
BRANCH   4   7
ATOM      7  C   UNL A   1      33.410  25.198  22.953  1.00  0.00     0.125 C 
BRANCH   7   8
ATOM      8  C   UNL A   1      32.985  23.734  23.190  1.00  0.00     0.096 C 
ATOM      9  N   UNL A   1      33.226  23.307  24.596  1.00  0.00    -0.321 N 
ATOM     10  C   UNL A   1      32.274  23.845  25.577  1.00  0.00     0.121 C 
ATOM     11  C   UNL A   1      30.825  23.543  25.202  1.00  0.00     0.022 C 
ATOM     12  C   UNL A   1      31.520  23.424  22.807  1.00  0.00     0.026 C 
ATOM     13  C   UNL A   1      30.522  24.030  23.790  1.00  0.00     0.004 C 
BRANCH   9  14
ATOM     14  C   UNL A   1      33.805  22.091  24.941  1.00  0.00     0.320 C 
ATOM     15  O   UNL A   1      33.355  21.042  24.471  1.00  0.00    -0.248 OA
BRANCH  14  16
ATOM     16  N   UNL A   1      34.806  22.061  25.903  1.00  0.00    -0.325 N 
ATOM     17  C   UNL A   1      34.374  21.587  27.214  1.00  0.00     0.148 C 
BRANCH  16  18
ATOM     18  C   UNL A   1      36.100  22.759  25.871  1.00  0.00     0.155 C 
BRANCH  18  19
ATOM     19  C   UNL A   1      37.162  22.164  24.893  1.00  0.00     0.077 C 
ATOM     20  C   UNL A   1      37.191  20.636  24.898  1.00  0.00     0.043 C 
ATOM     21  C   UNL A   1      36.905  22.700  23.477  1.00  0.00     0.043 C 
BRANCH  19  22
ATOM     22  O   UNL A   1      38.473  22.615  25.258  1.00  0.00    -0.389 OA
ATOM     23  H   UNL A   1      38.472  22.894  26.186  1.00  0.00     0.211 HD
ENDBRANCH  19  22
ENDBRANCH  18  19
ENDBRANCH  16  18
ENDBRANCH  14  16
ENDBRANCH   9  14
ENDBRANCH   7   8
ENDBRANCH   4   7
ENDBRANCH   2   3
ENDBRANCH   1   2
BRANCH   1  24
ATOM     24  C   UNL A   1      33.133  28.860  23.317  1.00  0.00     0.002 C 
BRANCH  24  25
ATOM     25  C   UNL A   1      33.871  28.654  24.645  1.00  0.00     0.002 C 
BRANCH  25  26
ATOM     26  C   UNL A   1      33.044  28.005  25.763  1.00  0.00     0.021 C 
BRANCH  26  27
ATOM     27  C   UNL A   1      33.518  28.327  27.179  1.00  0.00     0.116 C 
BRANCH  27  28
ATOM     28  N   UNL A   1      33.456  29.752  27.452  1.00  0.00    -0.352 N 
ATOM     29  C   UNL A   1      34.371  30.561  28.066  1.00  0.00     0.251 C 
ATOM     30  H   UNL A   1      32.634  30.202  27.152  1.00  0.00     0.163 HD
ATOM     31  O   UNL A   1      34.028  31.691  28.437  1.00  0.00    -0.269 OA
BRANCH  29  32
ATOM     32  C   UNL A   1      35.759  30.106  28.288  1.00  0.00     0.039 A 
ATOM     33  C   UNL A   1      36.142  29.688  29.565  1.00  0.00     0.014 A 
ATOM     34  C   UNL A   1      36.703  30.154  27.256  1.00  0.00     0.014 A 
ATOM     35  C   UNL A   1      37.462  29.302  29.805  1.00  0.00     0.010 A 
ATOM     36  C   UNL A   1      38.002  29.702  27.479  1.00  0.00     0.010 A 
ATOM     37  C   UNL A   1      38.402  29.298  28.761  1.00  0.00    -0.014 A 
BRANCH  37  38
ATOM     38  C   UNL A   1      39.820  28.933  29.010  1.00  0.00     0.031 A 
ATOM     39  C   UNL A   1      40.756  29.944  29.624  1.00  0.00     0.074 A 
ATOM     40  C   UNL A   1      40.274  27.717  28.649  1.00  0.00     0.049 A 
ATOM     41  N   UNL A   1      42.035  29.840  29.875  1.00  0.00    -0.248 NA
ATOM     42  C   UNL A   1      40.184  31.255  29.975  1.00  0.00     0.031 C 
ATOM     43  C   UNL A   1      39.475  26.670  28.007  1.00  0.00     0.029 A 
ATOM     44  N   UNL A   1      41.521  27.156  28.765  1.00  0.00    -0.354 N 
ATOM     45  C   UNL A   1      42.424  31.072  30.388  1.00  0.00     0.074 A 
ATOM     46  C   UNL A   1      41.257  31.926  30.370  1.00  0.00     0.031 C 
ATOM     47  C   UNL A   1      40.245  25.587  27.810  1.00  0.00     0.029 A 
ATOM     48  C   UNL A   1      41.597  25.871  28.281  1.00  0.00     0.049 A 
ATOM     49  H   UNL A   1      42.290  27.629  29.160  1.00  0.00     0.167 HD
ATOM     50  C   UNL A   1      43.638  31.453  30.853  1.00  0.00     0.037 A 
ATOM     51  C   UNL A   1      42.641  25.021  28.226  1.00  0.00     0.037 A 
ATOM     52  C   UNL A   1      44.782  30.581  30.916  1.00  0.00     0.049 A 
ATOM     53  C   UNL A   1      43.970  25.458  28.782  1.00  0.00     0.074 A 
ATOM     54  C   UNL A   1      46.038  30.846  31.433  1.00  0.00     0.029 A 
ATOM     55  N   UNL A   1      44.807  29.273  30.456  1.00  0.00    -0.354 N 
ATOM     56  N   UNL A   1      44.303  26.607  29.321  1.00  0.00    -0.248 NA
ATOM     57  C   UNL A   1      45.064  24.478  28.738  1.00  0.00     0.031 C 
ATOM     58  C   UNL A   1      46.834  29.711  31.251  1.00  0.00     0.029 A 
ATOM     59  C   UNL A   1      46.059  28.721  30.668  1.00  0.00     0.049 A 
ATOM     60  H   UNL A   1      44.047  28.805  30.040  1.00  0.00     0.167 HD
ATOM     61  C   UNL A   1      45.627  26.470  29.723  1.00  0.00     0.074 A 
ATOM     62  C   UNL A   1      46.033  25.126  29.367  1.00  0.00     0.031 C 
ATOM     63  C   UNL A   1      46.434  27.372  30.335  1.00  0.00     0.037 A 
BRANCH  50  64
ATOM     64  C   UNL A   1      43.796  32.865  31.344  1.00  0.00     0.058 A 
ATOM     65  C   UNL A   1      43.581  33.210  32.688  1.00  0.00     0.135 A 
ATOM     66  C   UNL A   1      44.231  33.877  30.471  1.00  0.00     0.135 A 
ATOM     67  F   UNL A   1      43.147  32.288  33.562  1.00  0.00    -0.206 F 
ATOM     68  C   UNL A   1      43.774  34.510  33.146  1.00  0.00     0.059 A 
ATOM     69  C   UNL A   1      44.457  35.177  30.913  1.00  0.00     0.059 A 
ATOM     70  F   UNL A   1      44.449  33.603  29.175  1.00  0.00    -0.206 F 
ATOM     71  C   UNL A   1      44.217  35.486  32.251  1.00  0.00     0.060 A 
BRANCH  71  72
ATOM     72  S   UNL A   1      44.497  37.159  32.869  1.00  0.00     0.124 S 
ATOM     73  O   UNL A   1      43.191  37.480  33.438  1.00  0.00    -0.237 OA
ATOM     74  O   UNL A   1      45.576  36.960  33.832  1.00  0.00    -0.237 OA
ATOM     75  O   UNL A   1      44.861  37.907  31.671  1.00  0.00    -0.744 OA
ENDBRANCH  71  72
ENDBRANCH  50  64
BRANCH  51  76
ATOM     76  C   UNL A   1      42.473  23.657  27.655  1.00  0.00     0.058 A 
ATOM     77  C   UNL A   1      42.296  22.543  28.491  1.00  0.00     0.135 A 
ATOM     78  C   UNL A   1      42.515  23.433  26.271  1.00  0.00     0.135 A 
ATOM     79  F   UNL A   1      42.249  22.704  29.822  1.00  0.00    -0.206 F 
ATOM     80  C   UNL A   1      42.208  21.252  27.978  1.00  0.00     0.059 A 
ATOM     81  C   UNL A   1      42.401  22.156  25.733  1.00  0.00     0.059 A 
ATOM     82  F   UNL A   1      42.660  24.466  25.426  1.00  0.00    -0.206 F 
ATOM     83  C   UNL A   1      42.268  21.069  26.596  1.00  0.00     0.060 A 
BRANCH  83  84
ATOM     84  S   UNL A   1      42.147  19.392  25.938  1.00  0.00     0.124 S 
ATOM     85  O   UNL A   1      40.719  19.287  25.663  1.00  0.00    -0.237 OA
ATOM     86  O   UNL A   1      43.021  19.455  24.770  1.00  0.00    -0.237 OA
ATOM     87  O   UNL A   1      42.642  18.567  27.037  1.00  0.00    -0.744 OA
ENDBRANCH  83  84
ENDBRANCH  51  76
BRANCH  63  88
ATOM     88  C   UNL A   1      47.811  26.911  30.727  1.00  0.00     0.058 A 
ATOM     89  C   UNL A   1      48.915  27.053  29.874  1.00  0.00     0.135 A 
ATOM     90  C   UNL A   1      48.028  26.347  31.996  1.00  0.00     0.135 A 
ATOM     91  F   UNL A   1      48.761  27.582  28.651  1.00  0.00    -0.206 F 
ATOM     92  C   UNL A   1      50.181  26.613  30.249  1.00  0.00     0.059 A 
ATOM     93  C   UNL A   1      49.290  25.931  32.403  1.00  0.00     0.059 A 
ATOM     94  F   UNL A   1      47.007  26.204  32.856  1.00  0.00    -0.206 F 
ATOM     95  C   UNL A   1      50.358  26.050  31.514  1.00  0.00     0.060 A 
BRANCH  95  96
ATOM     96  S   UNL A   1      52.006  25.492  31.995  1.00  0.00     0.124 S 
ATOM     97  O   UNL A   1      52.230  26.259  33.215  1.00  0.00    -0.237 OA
ATOM     98  O   UNL A   1      51.811  24.056  32.174  1.00  0.00    -0.237 OA
ATOM     99  O   UNL A   1      52.836  25.868  30.854  1.00  0.00    -0.744 OA
ENDBRANCH  95  96
ENDBRANCH  63  88
ENDBRANCH  37  38
ENDBRANCH  29  32
ENDBRANCH  27  28
ENDBRANCH  26  27
ENDBRANCH  25  26
ENDBRANCH  24  25
ENDBRANCH   1  24
TORSDOF 22
ENDMDL
MODEL 2
REMARK VINA RESULT:      -9.9      4.519     10.379
REMARK SMILES CN(CC(C)(C)O)C(=O)N1CCCC[C@H]1CC(=O)NCCCCCCNC(=O)c1ccc(-c2c3nc(c(-c4c(F)cc(S(=O)(=O)[O-])cc4F)c4ccc([nH]4)c(-c4c(F)cc(S(=O)(=O)[O-])cc4F)c4nc(c(-c5c(F)cc(S(=O)(=O)[O-])cc5F)c5ccc2[nH]5)C=C4)C=C3)cc1
REMARK SMILES IDX 21 1 20 2 19 3 17 4 18 5 16 7 15 8 10 9 11 10 12 11 14 12
REMARK SMILES IDX 13 13 8 14 9 15 2 16 1 17 3 18 4 19 5 20 6 21 7 22 22 24
REMARK SMILES IDX 23 25 24 26 25 27 26 28 27 29 28 31 29 32 30 33 94 34 31 35
REMARK SMILES IDX 93 36 32 37 33 38 34 39 87 40 35 41 92 42 86 43 88 44 36 45
REMARK SMILES IDX 91 46 85 47 84 48 37 50 71 51 50 52 70 53 51 54 54 55 69 56
REMARK SMILES IDX 89 57 52 58 53 59 68 61 90 62 55 63 38 64 39 65 48 66 40 67
REMARK SMILES IDX 41 68 47 69 49 70 42 71 43 72 44 73 45 74 46 75 72 76 73 77
REMARK SMILES IDX 82 78 74 79 75 80 81 81 83 82 76 83 77 84 78 85 79 86 80 87
REMARK SMILES IDX 56 88 57 89 66 90 58 91 59 92 65 93 67 94 60 95 61 96 62 97
REMARK SMILES IDX 63 98 64 99
REMARK H PARENT 19 6 7 23 26 30 88 49 54 60
REMARK Flexibility Score: inf
ROOT
ATOM      1  C   UNL A   1      39.407  22.017  26.070  1.00  0.00     0.021 C 
ENDROOT
BRANCH   1   2
ATOM      2  C   UNL A   1      38.113  22.831  26.034  1.00  0.00     0.116 C 
BRANCH   2   3
ATOM      3  N   UNL A   1      37.718  23.128  24.674  1.00  0.00    -0.356 N 
ATOM      4  C   UNL A   1      36.779  22.531  23.892  1.00  0.00     0.222 C 
ATOM      5  O   UNL A   1      36.636  22.942  22.740  1.00  0.00    -0.275 OA
ATOM      6  H   UNL A   1      38.200  23.875  24.252  1.00  0.00     0.163 HD
BRANCH   4   7
ATOM      7  C   UNL A   1      35.915  21.405  24.426  1.00  0.00     0.125 C 
BRANCH   7   8
ATOM      8  C   UNL A   1      34.639  21.823  25.186  1.00  0.00     0.096 C 
ATOM      9  N   UNL A   1      33.752  22.679  24.352  1.00  0.00    -0.321 N 
ATOM     10  C   UNL A   1      33.012  21.965  23.303  1.00  0.00     0.121 C 
ATOM     11  C   UNL A   1      32.202  20.796  23.860  1.00  0.00     0.022 C 
ATOM     12  C   UNL A   1      33.820  20.642  25.756  1.00  0.00     0.026 C 
ATOM     13  C   UNL A   1      33.095  19.859  24.665  1.00  0.00     0.004 C 
BRANCH   9  14
ATOM     14  C   UNL A   1      33.143  23.838  24.820  1.00  0.00     0.320 C 
ATOM     15  O   UNL A   1      32.230  23.761  25.648  1.00  0.00    -0.248 OA
BRANCH  14  16
ATOM     16  N   UNL A   1      33.486  25.062  24.261  1.00  0.00    -0.325 N 
ATOM     17  C   UNL A   1      33.690  25.035  22.816  1.00  0.00     0.148 C 
BRANCH  16  18
ATOM     18  C   UNL A   1      34.006  26.249  24.957  1.00  0.00     0.155 C 
BRANCH  18  19
ATOM     19  C   UNL A   1      32.937  27.122  25.688  1.00  0.00     0.077 C 
ATOM     20  C   UNL A   1      33.503  28.433  26.231  1.00  0.00     0.043 C 
ATOM     21  C   UNL A   1      31.761  27.388  24.737  1.00  0.00     0.043 C 
BRANCH  19  22
ATOM     22  O   UNL A   1      32.393  26.400  26.801  1.00  0.00    -0.389 OA
ATOM     23  H   UNL A   1      31.538  26.785  27.050  1.00  0.00     0.211 HD
ENDBRANCH  19  22
ENDBRANCH  18  19
ENDBRANCH  16  18
ENDBRANCH  14  16
ENDBRANCH   9  14
ENDBRANCH   7   8
ENDBRANCH   4   7
ENDBRANCH   2   3
ENDBRANCH   1   2
BRANCH   1  24
ATOM     24  C   UNL A   1      40.265  22.261  27.315  1.00  0.00     0.002 C 
BRANCH  24  25
ATOM     25  C   UNL A   1      41.753  21.937  27.137  1.00  0.00     0.002 C 
BRANCH  25  26
ATOM     26  C   UNL A   1      42.688  22.542  28.192  1.00  0.00     0.021 C 
BRANCH  26  27
ATOM     27  C   UNL A   1      43.641  23.614  27.665  1.00  0.00     0.116 C 
BRANCH  27  28
ATOM     28  N   UNL A   1      43.174  24.173  26.408  1.00  0.00    -0.352 N 
ATOM     29  C   UNL A   1      42.333  25.228  26.184  1.00  0.00     0.251 C 
ATOM     30  H   UNL A   1      43.512  23.727  25.599  1.00  0.00     0.163 HD
ATOM     31  O   UNL A   1      41.851  25.388  25.055  1.00  0.00    -0.269 OA
BRANCH  29  32
ATOM     32  C   UNL A   1      41.998  26.175  27.266  1.00  0.00     0.039 A 
ATOM     33  C   UNL A   1      42.799  27.306  27.452  1.00  0.00     0.014 A 
ATOM     34  C   UNL A   1      40.938  25.919  28.142  1.00  0.00     0.014 A 
ATOM     35  C   UNL A   1      42.527  28.186  28.502  1.00  0.00     0.010 A 
ATOM     36  C   UNL A   1      40.625  26.834  29.144  1.00  0.00     0.010 A 
ATOM     37  C   UNL A   1      41.432  27.962  29.352  1.00  0.00    -0.014 A 
BRANCH  37  38
ATOM     38  C   UNL A   1      41.157  28.865  30.499  1.00  0.00     0.031 A 
ATOM     39  C   UNL A   1      41.996  28.764  31.748  1.00  0.00     0.074 A 
ATOM     40  C   UNL A   1      40.134  29.740  30.434  1.00  0.00     0.049 A 
ATOM     41  N   UNL A   1      41.886  29.423  32.872  1.00  0.00    -0.248 NA
ATOM     42  C   UNL A   1      43.084  27.772  31.742  1.00  0.00     0.031 C 
ATOM     43  C   UNL A   1      39.225  29.899  29.297  1.00  0.00     0.029 A 
ATOM     44  N   UNL A   1      39.683  30.658  31.348  1.00  0.00    -0.354 N 
ATOM     45  C   UNL A   1      42.869  28.911  33.711  1.00  0.00     0.074 A 
ATOM     46  C   UNL A   1      43.538  27.854  32.985  1.00  0.00     0.031 C 
ATOM     47  C   UNL A   1      38.342  30.874  29.572  1.00  0.00     0.029 A 
ATOM     48  C   UNL A   1      38.601  31.386  30.914  1.00  0.00     0.049 A 
ATOM     49  H   UNL A   1      40.096  30.784  32.234  1.00  0.00     0.167 HD
ATOM     50  C   UNL A   1      43.201  29.300  34.965  1.00  0.00     0.037 A 
ATOM     51  C   UNL A   1      37.899  32.358  31.530  1.00  0.00     0.037 A 
ATOM     52  C   UNL A   1      42.566  30.389  35.662  1.00  0.00     0.049 A 
ATOM     53  C   UNL A   1      38.313  32.795  32.910  1.00  0.00     0.074 A 
ATOM     54  C   UNL A   1      42.873  30.909  36.908  1.00  0.00     0.029 A 
ATOM     55  N   UNL A   1      41.503  31.130  35.170  1.00  0.00    -0.354 N 
ATOM     56  N   UNL A   1      39.286  32.340  33.664  1.00  0.00    -0.248 NA
ATOM     57  C   UNL A   1      37.543  33.888  33.520  1.00  0.00     0.031 C 
ATOM     58  C   UNL A   1      41.971  31.939  37.185  1.00  0.00     0.029 A 
ATOM     59  C   UNL A   1      41.134  32.096  36.091  1.00  0.00     0.049 A 
ATOM     60  H   UNL A   1      41.072  30.990  34.296  1.00  0.00     0.167 HD
ATOM     61  C   UNL A   1      39.275  33.123  34.813  1.00  0.00     0.074 A 
ATOM     62  C   UNL A   1      38.200  34.082  34.654  1.00  0.00     0.031 C 
ATOM     63  C   UNL A   1      40.082  33.060  35.901  1.00  0.00     0.037 A 
BRANCH  50  64
ATOM     64  C   UNL A   1      44.307  28.560  35.666  1.00  0.00     0.058 A 
ATOM     65  C   UNL A   1      44.060  27.401  36.420  1.00  0.00     0.135 A 
ATOM     66  C   UNL A   1      45.641  28.981  35.532  1.00  0.00     0.135 A 
ATOM     67  F   UNL A   1      42.803  26.965  36.597  1.00  0.00    -0.206 F 
ATOM     68  C   UNL A   1      45.093  26.695  37.028  1.00  0.00     0.059 A 
ATOM     69  C   UNL A   1      46.692  28.274  36.108  1.00  0.00     0.059 A 
ATOM     70  F   UNL A   1      45.933  30.084  34.825  1.00  0.00    -0.206 F 
ATOM     71  C   UNL A   1      46.407  27.137  36.862  1.00  0.00     0.060 A 
BRANCH  71  72
ATOM     72  S   UNL A   1      47.738  26.189  37.629  1.00  0.00     0.124 S 
ATOM     73  O   UNL A   1      47.046  25.576  38.759  1.00  0.00    -0.237 OA
ATOM     74  O   UNL A   1      48.130  25.278  36.558  1.00  0.00    -0.237 OA
ATOM     75  O   UNL A   1      48.725  27.206  37.974  1.00  0.00    -0.744 OA
ENDBRANCH  71  72
ENDBRANCH  50  64
BRANCH  51  76
ATOM     76  C   UNL A   1      36.755  33.014  30.841  1.00  0.00     0.058 A 
ATOM     77  C   UNL A   1      36.968  33.901  29.775  1.00  0.00     0.135 A 
ATOM     78  C   UNL A   1      35.431  32.793  31.251  1.00  0.00     0.135 A 
ATOM     79  F   UNL A   1      38.215  34.146  29.346  1.00  0.00    -0.206 F 
ATOM     80  C   UNL A   1      35.915  34.577  29.165  1.00  0.00     0.059 A 
ATOM     81  C   UNL A   1      34.359  33.435  30.639  1.00  0.00     0.059 A 
ATOM     82  F   UNL A   1      35.170  31.937  32.251  1.00  0.00    -0.206 F 
ATOM     83  C   UNL A   1      34.614  34.341  29.610  1.00  0.00     0.060 A 
BRANCH  83  84
ATOM     84  S   UNL A   1      33.252  35.217  28.811  1.00  0.00     0.124 S 
ATOM     85  O   UNL A   1      32.656  34.159  28.004  1.00  0.00    -0.237 OA
ATOM     86  O   UNL A   1      32.465  35.671  29.953  1.00  0.00    -0.237 OA
ATOM     87  O   UNL A   1      33.929  36.276  28.067  1.00  0.00    -0.744 OA
ENDBRANCH  83  84
ENDBRANCH  51  76
BRANCH  63  88
ATOM     88  C   UNL A   1      39.885  34.101  36.968  1.00  0.00     0.058 A 
ATOM     89  C   UNL A   1      40.444  35.384  36.868  1.00  0.00     0.135 A 
ATOM     90  C   UNL A   1      39.094  33.814  38.093  1.00  0.00     0.135 A 
ATOM     91  F   UNL A   1      41.210  35.709  35.816  1.00  0.00    -0.206 F 
ATOM     92  C   UNL A   1      40.260  36.334  37.869  1.00  0.00     0.059 A 
ATOM     93  C   UNL A   1      38.871  34.757  39.088  1.00  0.00     0.059 A 
ATOM     94  F   UNL A   1      38.524  32.606  38.228  1.00  0.00    -0.206 F 
ATOM     95  C   UNL A   1      39.474  36.010  38.977  1.00  0.00     0.060 A 
BRANCH  95  96
ATOM     96  S   UNL A   1      39.233  37.252  40.264  1.00  0.00     0.124 S 
ATOM     97  O   UNL A   1      38.454  36.507  41.246  1.00  0.00    -0.237 OA
ATOM     98  O   UNL A   1      40.604  37.572  40.652  1.00  0.00    -0.237 OA
ATOM     99  O   UNL A   1      38.518  38.321  39.574  1.00  0.00    -0.744 OA
ENDBRANCH  95  96
ENDBRANCH  63  88
ENDBRANCH  37  38
ENDBRANCH  29  32
ENDBRANCH  27  28
ENDBRANCH  26  27
ENDBRANCH  25  26
ENDBRANCH  24  25
ENDBRANCH   1  24
TORSDOF 22
ENDMDL
MODEL 3
REMARK VINA RESULT:      -9.7      2.648      3.548
REMARK SMILES CN(CC(C)(C)O)C(=O)N1CCCC[C@H]1CC(=O)NCCCCCCNC(=O)c1ccc(-c2c3nc(c(-c4c(F)cc(S(=O)(=O)[O-])cc4F)c4ccc([nH]4)c(-c4c(F)cc(S(=O)(=O)[O-])cc4F)c4nc(c(-c5c(F)cc(S(=O)(=O)[O-])cc5F)c5ccc2[nH]5)C=C4)C=C3)cc1
REMARK SMILES IDX 21 1 20 2 19 3 17 4 18 5 16 7 15 8 10 9 11 10 12 11 14 12
REMARK SMILES IDX 13 13 8 14 9 15 2 16 1 17 3 18 4 19 5 20 6 21 7 22 22 24
REMARK SMILES IDX 23 25 24 26 25 27 26 28 27 29 28 31 29 32 30 33 94 34 31 35
REMARK SMILES IDX 93 36 32 37 33 38 34 39 87 40 35 41 92 42 86 43 88 44 36 45
REMARK SMILES IDX 91 46 85 47 84 48 37 50 71 51 50 52 70 53 51 54 54 55 69 56
REMARK SMILES IDX 89 57 52 58 53 59 68 61 90 62 55 63 38 64 39 65 48 66 40 67
REMARK SMILES IDX 41 68 47 69 49 70 42 71 43 72 44 73 45 74 46 75 72 76 73 77
REMARK SMILES IDX 82 78 74 79 75 80 81 81 83 82 76 83 77 84 78 85 79 86 80 87
REMARK SMILES IDX 56 88 57 89 66 90 58 91 59 92 65 93 67 94 60 95 61 96 62 97
REMARK SMILES IDX 63 98 64 99
REMARK H PARENT 19 6 7 23 26 30 88 49 54 60
REMARK Flexibility Score: inf
ROOT
ATOM      1  C   UNL A   1      31.050  27.462  22.349  1.00  0.00     0.021 C 
ENDROOT
BRANCH   1   2
ATOM      2  C   UNL A   1      31.015  25.996  22.781  1.00  0.00     0.116 C 
BRANCH   2   3
ATOM      3  N   UNL A   1      31.817  25.170  21.905  1.00  0.00    -0.356 N 
ATOM      4  C   UNL A   1      32.850  24.337  22.202  1.00  0.00     0.222 C 
ATOM      5  O   UNL A   1      33.409  23.751  21.274  1.00  0.00    -0.275 OA
ATOM      6  H   UNL A   1      31.580  25.218  20.952  1.00  0.00     0.163 HD
BRANCH   4   7
ATOM      7  C   UNL A   1      33.289  24.113  23.636  1.00  0.00     0.125 C 
BRANCH   7   8
ATOM      8  C   UNL A   1      32.692  22.884  24.353  1.00  0.00     0.096 C 
ATOM      9  N   UNL A   1      33.352  22.631  25.663  1.00  0.00    -0.321 N 
ATOM     10  C   UNL A   1      32.974  23.563  26.734  1.00  0.00     0.121 C 
ATOM     11  C   UNL A   1      31.462  23.628  26.938  1.00  0.00     0.022 C 
ATOM     12  C   UNL A   1      31.161  22.945  24.555  1.00  0.00     0.026 C 
ATOM     13  C   UNL A   1      30.757  23.954  25.627  1.00  0.00     0.004 C 
BRANCH   9  14
ATOM     14  C   UNL A   1      33.752  21.371  26.090  1.00  0.00     0.320 C 
ATOM     15  O   UNL A   1      33.842  21.132  27.299  1.00  0.00    -0.248 OA
BRANCH  14  16
ATOM     16  N   UNL A   1      34.164  20.432  25.154  1.00  0.00    -0.325 N 
ATOM     17  C   UNL A   1      35.601  20.423  24.892  1.00  0.00     0.148 C 
BRANCH  16  18
ATOM     18  C   UNL A   1      33.332  19.727  24.167  1.00  0.00     0.155 C 
BRANCH  18  19
ATOM     19  C   UNL A   1      33.166  18.193  24.401  1.00  0.00     0.077 C 
ATOM     20  C   UNL A   1      34.427  17.395  24.068  1.00  0.00     0.043 C 
ATOM     21  C   UNL A   1      32.730  17.945  25.853  1.00  0.00     0.043 C 
BRANCH  19  22
ATOM     22  O   UNL A   1      32.110  17.682  23.576  1.00  0.00    -0.389 OA
ATOM     23  H   UNL A   1      32.467  17.016  22.969  1.00  0.00     0.211 HD
ENDBRANCH  19  22
ENDBRANCH  18  19
ENDBRANCH  16  18
ENDBRANCH  14  16
ENDBRANCH   9  14
ENDBRANCH   7   8
ENDBRANCH   4   7
ENDBRANCH   2   3
ENDBRANCH   1   2
BRANCH   1  24
ATOM     24  C   UNL A   1      31.834  28.374  23.296  1.00  0.00     0.002 C 
BRANCH  24  25
ATOM     25  C   UNL A   1      32.158  27.750  24.659  1.00  0.00     0.002 C 
BRANCH  25  26
ATOM     26  C   UNL A   1      33.651  27.561  24.957  1.00  0.00     0.021 C 
BRANCH  26  27
ATOM     27  C   UNL A   1      34.098  28.062  26.329  1.00  0.00     0.116 C 
BRANCH  27  28
ATOM     28  N   UNL A   1      33.772  29.465  26.518  1.00  0.00    -0.352 N 
ATOM     29  C   UNL A   1      34.327  30.380  27.369  1.00  0.00     0.251 C 
ATOM     30  H   UNL A   1      33.044  29.807  25.951  1.00  0.00     0.163 HD
ATOM     31  O   UNL A   1      33.741  31.453  27.569  1.00  0.00    -0.269 OA
BRANCH  29  32
ATOM     32  C   UNL A   1      35.610  30.108  28.046  1.00  0.00     0.039 A 
ATOM     33  C   UNL A   1      36.805  30.376  27.373  1.00  0.00     0.014 A 
ATOM     34  C   UNL A   1      35.641  29.524  29.317  1.00  0.00     0.014 A 
ATOM     35  C   UNL A   1      38.028  30.078  27.977  1.00  0.00     0.010 A 
ATOM     36  C   UNL A   1      36.862  29.293  29.948  1.00  0.00     0.010 A 
ATOM     37  C   UNL A   1      38.067  29.541  29.274  1.00  0.00    -0.014 A 
BRANCH  37  38
ATOM     38  C   UNL A   1      39.357  29.177  29.914  1.00  0.00     0.031 A 
ATOM     39  C   UNL A   1      39.828  29.931  31.131  1.00  0.00     0.074 A 
ATOM     40  C   UNL A   1      40.119  28.201  29.380  1.00  0.00     0.049 A 
ATOM     41  N   UNL A   1      40.942  29.801  31.804  1.00  0.00    -0.248 NA
ATOM     42  C   UNL A   1      38.943  30.992  31.642  1.00  0.00     0.031 C 
ATOM     43  C   UNL A   1      39.790  27.430  28.179  1.00  0.00     0.029 A 
ATOM     44  N   UNL A   1      41.331  27.695  29.776  1.00  0.00    -0.354 N 
ATOM     45  C   UNL A   1      40.903  30.774  32.797  1.00  0.00     0.074 A 
ATOM     46  C   UNL A   1      39.677  31.518  32.613  1.00  0.00     0.031 C 
ATOM     47  C   UNL A   1      40.764  26.533  27.952  1.00  0.00     0.029 A 
ATOM     48  C   UNL A   1      41.799  26.685  28.969  1.00  0.00     0.049 A 
ATOM     49  H   UNL A   1      41.821  28.025  30.565  1.00  0.00     0.167 HD
ATOM     50  C   UNL A   1      41.796  31.011  33.787  1.00  0.00     0.037 A 
ATOM     51  C   UNL A   1      42.935  25.964  29.045  1.00  0.00     0.037 A 
ATOM     52  C   UNL A   1      42.988  30.231  33.996  1.00  0.00     0.049 A 
ATOM     53  C   UNL A   1      43.893  26.226  30.176  1.00  0.00     0.074 A 
ATOM     54  C   UNL A   1      43.923  30.344  35.011  1.00  0.00     0.029 A 
ATOM     55  N   UNL A   1      43.405  29.188  33.184  1.00  0.00    -0.354 N 
ATOM     56  N   UNL A   1      43.808  27.109  31.143  1.00  0.00    -0.248 NA
ATOM     57  C   UNL A   1      45.095  25.383  30.238  1.00  0.00     0.031 C 
ATOM     58  C   UNL A   1      44.925  29.395  34.789  1.00  0.00     0.029 A 
ATOM     59  C   UNL A   1      44.587  28.656  33.666  1.00  0.00     0.049 A 
ATOM     60  H   UNL A   1      42.930  28.873  32.381  1.00  0.00     0.167 HD
ATOM     61  C   UNL A   1      44.918  26.895  31.953  1.00  0.00     0.074 A 
ATOM     62  C   UNL A   1      45.658  25.797  31.364  1.00  0.00     0.031 C 
ATOM     63  C   UNL A   1      45.292  27.543  33.084  1.00  0.00     0.037 A 
BRANCH  50  64
ATOM     64  C   UNL A   1      41.519  32.148  34.732  1.00  0.00     0.058 A 
ATOM     65  C   UNL A   1      41.920  33.463  34.444  1.00  0.00     0.135 A 
ATOM     66  C   UNL A   1      40.789  31.931  35.912  1.00  0.00     0.135 A 
ATOM     67  F   UNL A   1      42.636  33.726  33.340  1.00  0.00    -0.206 F 
ATOM     68  C   UNL A   1      41.620  34.519  35.300  1.00  0.00     0.059 A 
ATOM     69  C   UNL A   1      40.454  32.975  36.769  1.00  0.00     0.059 A 
ATOM     70  F   UNL A   1      40.384  30.693  36.237  1.00  0.00    -0.206 F 
ATOM     71  C   UNL A   1      40.882  34.265  36.458  1.00  0.00     0.060 A 
BRANCH  71  72
ATOM     72  S   UNL A   1      40.473  35.652  37.539  1.00  0.00     0.124 S 
ATOM     73  O   UNL A   1      39.956  36.625  36.581  1.00  0.00    -0.237 OA
ATOM     74  O   UNL A   1      39.486  35.064  38.440  1.00  0.00    -0.237 OA
ATOM     75  O   UNL A   1      41.751  35.993  38.153  1.00  0.00    -0.744 OA
ENDBRANCH  71  72
ENDBRANCH  50  64
BRANCH  51  76
ATOM     76  C   UNL A   1      43.221  24.901  28.043  1.00  0.00     0.058 A 
ATOM     77  C   UNL A   1      42.863  23.566  28.287  1.00  0.00     0.135 A 
ATOM     78  C   UNL A   1      43.883  25.189  26.841  1.00  0.00     0.135 A 
ATOM     79  F   UNL A   1      42.228  23.240  29.424  1.00  0.00    -0.206 F 
ATOM     80  C   UNL A   1      43.184  22.548  27.395  1.00  0.00     0.059 A 
ATOM     81  C   UNL A   1      44.192  24.193  25.919  1.00  0.00     0.059 A 
ATOM     82  F   UNL A   1      44.229  26.452  26.548  1.00  0.00    -0.206 F 
ATOM     83  C   UNL A   1      43.856  22.873  26.215  1.00  0.00     0.060 A 
BRANCH  83  84
ATOM     84  S   UNL A   1      44.266  21.547  25.059  1.00  0.00     0.124 S 
ATOM     85  O   UNL A   1      45.595  21.159  25.518  1.00  0.00    -0.237 OA
ATOM     86  O   UNL A   1      43.198  20.583  25.304  1.00  0.00    -0.237 OA
ATOM     87  O   UNL A   1      44.215  22.211  23.759  1.00  0.00    -0.744 OA
ENDBRANCH  83  84
ENDBRANCH  51  76
BRANCH  63  88
ATOM     88  C   UNL A   1      46.512  27.034  33.801  1.00  0.00     0.058 A 
ATOM     89  C   UNL A   1      46.436  26.033  34.780  1.00  0.00     0.135 A 
ATOM     90  C   UNL A   1      47.781  27.539  33.472  1.00  0.00     0.135 A 
ATOM     91  F   UNL A   1      45.247  25.519  35.132  1.00  0.00    -0.206 F 
ATOM     92  C   UNL A   1      47.573  25.578  35.441  1.00  0.00     0.059 A 
ATOM     93  C   UNL A   1      48.933  27.076  34.097  1.00  0.00     0.059 A 
ATOM     94  F   UNL A   1      47.910  28.486  32.530  1.00  0.00    -0.206 F 
ATOM     95  C   UNL A   1      48.818  26.109  35.094  1.00  0.00     0.060 A 
BRANCH  95  96
ATOM     96  S   UNL A   1      50.288  25.505  35.950  1.00  0.00     0.124 S 
ATOM     97  O   UNL A   1      49.697  24.761  37.056  1.00  0.00    -0.237 OA
ATOM     98  O   UNL A   1      50.942  24.701  34.921  1.00  0.00    -0.237 OA
ATOM     99  O   UNL A   1      50.991  26.730  36.320  1.00  0.00    -0.744 OA
ENDBRANCH  95  96
ENDBRANCH  63  88
ENDBRANCH  37  38
ENDBRANCH  29  32
ENDBRANCH  27  28
ENDBRANCH  26  27
ENDBRANCH  25  26
ENDBRANCH  24  25
ENDBRANCH   1  24
TORSDOF 22
ENDMDL
