MODEL 1
REMARK VINA RESULT:     -12.3      0.000      0.000
REMARK SMILES C/C(=N\NC(N)=O)c1nnn(-c2ccc(C(=O)NCCCCCCNC(=O)c3ccc(-c4c5nc(c(-c6c(F)cc(S(=O)(=O)[O-])cc6F)c6ccc([nH]6)c(-c6c(F)cc(S(=O)(=O)[O-])cc6F)c6nc(c(-c7c(F)cc(S(=O)(=O)[O-])cc7F)c7ccc4[nH]7)C=C6)C=C5)cc3)cc2)c1C
REMARK SMILES IDX 21 1 20 2 19 3 18 4 16 5 17 6 15 8 12 9 13 10 95 11 14 12
REMARK SMILES IDX 94 13 11 14 8 15 9 16 96 17 10 18 97 19 2 20 1 21 3 22 4 23
REMARK SMILES IDX 5 24 6 26 7 27 22 30 23 31 24 32 25 33 26 34 27 36 28 37
REMARK SMILES IDX 29 38 93 39 30 40 92 41 31 42 32 43 33 44 86 45 34 46 91 47
REMARK SMILES IDX 85 48 87 49 35 50 90 51 84 52 83 53 36 55 70 56 49 57 69 58
REMARK SMILES IDX 50 59 53 60 68 61 88 62 51 63 52 64 67 66 89 67 54 68 37 69
REMARK SMILES IDX 38 70 47 71 39 72 40 73 46 74 48 75 41 76 42 77 43 78 44 79
REMARK SMILES IDX 45 80 71 81 72 82 81 83 73 84 74 85 80 86 82 87 75 88 76 89
REMARK SMILES IDX 77 90 78 91 79 92 55 93 56 94 65 95 57 96 58 97 64 98 66 99
REMARK SMILES IDX 59 100 60 101 61 102 62 103 63 104
REMARK H PARENT 18 7 4 25 6 28 6 29 25 35 87 54 53 65
REMARK Flexibility Score: inf
ROOT
ATOM      1  C   UNL A   1      36.678  23.264  24.399  1.00  0.00     0.002 C 
ENDROOT
BRANCH   1   2
ATOM      2  C   UNL A   1      36.821  21.794  23.983  1.00  0.00     0.021 C 
BRANCH   2   3
ATOM      3  C   UNL A   1      36.757  20.817  25.158  1.00  0.00     0.116 C 
BRANCH   3   4
ATOM      4  N   UNL A   1      35.707  19.835  24.950  1.00  0.00    -0.352 N 
ATOM      5  C   UNL A   1      34.342  19.880  25.095  1.00  0.00     0.251 C 
ATOM      6  O   UNL A   1      33.706  18.873  24.783  1.00  0.00    -0.269 OA
ATOM      7  H   UNL A   1      36.041  18.960  24.643  1.00  0.00     0.163 HD
BRANCH   5   8
ATOM      8  C   UNL A   1      33.604  21.108  25.510  1.00  0.00     0.039 A 
ATOM      9  C   UNL A   1      32.386  23.582  25.956  1.00  0.00     0.067 A 
ATOM     10  C   UNL A   1      31.965  22.803  24.878  1.00  0.00     0.029 A 
ATOM     11  C   UNL A   1      33.302  23.082  26.883  1.00  0.00     0.029 A 
ATOM     12  C   UNL A   1      32.602  21.580  24.642  1.00  0.00     0.016 A 
ATOM     13  C   UNL A   1      33.862  21.818  26.685  1.00  0.00     0.016 A 
BRANCH   9  14
ATOM     14  N   UNL A   1      31.964  24.920  26.052  1.00  0.00    -0.217 N 
ATOM     15  C   UNL A   1      31.647  27.043  25.701  1.00  0.00     0.132 A 
ATOM     16  N   UNL A   1      30.637  26.573  26.498  1.00  0.00    -0.128 NA
ATOM     17  C   UNL A   1      32.486  26.000  25.357  1.00  0.00     0.071 A 
ATOM     18  N   UNL A   1      30.792  25.262  26.629  1.00  0.00    -0.061 NA
ATOM     19  C   UNL A   1      33.556  25.916  24.336  1.00  0.00     0.069 C 
BRANCH  15  20
ATOM     20  C   UNL A   1      31.608  28.367  25.109  1.00  0.00     0.087 C 
ATOM     21  C   UNL A   1      32.634  29.335  25.633  1.00  0.00     0.071 C 
ATOM     22  N   UNL A   1      30.715  28.549  24.182  1.00  0.00    -0.174 NA
BRANCH  22  23
ATOM     23  N   UNL A   1      30.536  29.743  23.542  1.00  0.00    -0.229 N 
ATOM     24  C   UNL A   1      29.695  30.013  22.486  1.00  0.00     0.332 C 
ATOM     25  H   UNL A   1      31.071  30.500  23.874  1.00  0.00     0.195 HD
ATOM     26  N   UNL A   1      29.743  31.322  22.104  1.00  0.00    -0.350 N 
ATOM     27  O   UNL A   1      28.942  29.240  21.909  1.00  0.00    -0.247 OA
ATOM     28  H   UNL A   1      30.348  31.947  22.566  1.00  0.00     0.161 HD
ATOM     29  H   UNL A   1      29.174  31.641  21.367  1.00  0.00     0.161 HD
ENDBRANCH  22  23
ENDBRANCH  15  20
ENDBRANCH   9  14
ENDBRANCH   5   8
ENDBRANCH   3   4
ENDBRANCH   2   3
ENDBRANCH   1   2
BRANCH   1  30
ATOM     30  C   UNL A   1      37.081  23.588  25.846  1.00  0.00     0.002 C 
BRANCH  30  31
ATOM     31  C   UNL A   1      38.567  23.897  26.087  1.00  0.00     0.021 C 
BRANCH  31  32
ATOM     32  C   UNL A   1      39.300  22.827  26.885  1.00  0.00     0.116 C 
BRANCH  32  33
ATOM     33  N   UNL A   1      40.559  22.442  26.254  1.00  0.00    -0.352 N 
ATOM     34  C   UNL A   1      41.637  23.230  25.901  1.00  0.00     0.251 C 
ATOM     35  H   UNL A   1      40.653  21.483  26.052  1.00  0.00     0.163 HD
ATOM     36  O   UNL A   1      42.422  22.841  25.051  1.00  0.00    -0.269 OA
BRANCH  34  37
ATOM     37  C   UNL A   1      41.826  24.541  26.554  1.00  0.00     0.039 A 
ATOM     38  C   UNL A   1      41.352  25.707  25.950  1.00  0.00     0.014 A 
ATOM     39  C   UNL A   1      42.489  24.602  27.778  1.00  0.00     0.014 A 
ATOM     40  C   UNL A   1      41.481  26.917  26.628  1.00  0.00     0.010 A 
ATOM     41  C   UNL A   1      42.480  25.764  28.512  1.00  0.00     0.010 A 
ATOM     42  C   UNL A   1      42.021  26.935  27.927  1.00  0.00    -0.014 A 
BRANCH  42  43
ATOM     43  C   UNL A   1      41.961  28.154  28.731  1.00  0.00     0.031 A 
ATOM     44  C   UNL A   1      43.049  29.116  28.418  1.00  0.00     0.074 A 
ATOM     45  C   UNL A   1      40.929  28.496  29.536  1.00  0.00     0.049 A 
ATOM     46  N   UNL A   1      44.102  29.357  29.124  1.00  0.00    -0.248 NA
ATOM     47  C   UNL A   1      43.079  29.730  27.080  1.00  0.00     0.031 C 
ATOM     48  C   UNL A   1      39.653  27.794  29.708  1.00  0.00     0.029 A 
ATOM     49  N   UNL A   1      40.760  29.609  30.305  1.00  0.00    -0.354 N 
ATOM     50  C   UNL A   1      44.766  30.380  28.457  1.00  0.00     0.074 A 
ATOM     51  C   UNL A   1      44.246  30.379  27.115  1.00  0.00     0.031 C 
ATOM     52  C   UNL A   1      38.769  28.603  30.332  1.00  0.00     0.029 A 
ATOM     53  C   UNL A   1      39.456  29.810  30.756  1.00  0.00     0.049 A 
ATOM     54  H   UNL A   1      41.498  30.222  30.524  1.00  0.00     0.167 HD
ATOM     55  C   UNL A   1      45.427  31.342  29.159  1.00  0.00     0.037 A 
ATOM     56  C   UNL A   1      38.968  30.890  31.419  1.00  0.00     0.037 A 
ATOM     57  C   UNL A   1      45.652  30.918  30.525  1.00  0.00     0.049 A 
ATOM     58  C   UNL A   1      40.129  31.573  32.040  1.00  0.00     0.074 A 
ATOM     59  C   UNL A   1      46.238  29.821  31.129  1.00  0.00     0.029 A 
ATOM     60  N   UNL A   1      44.880  31.509  31.495  1.00  0.00    -0.354 N 
ATOM     61  N   UNL A   1      40.838  31.063  33.008  1.00  0.00    -0.248 NA
ATOM     62  C   UNL A   1      40.770  32.646  31.299  1.00  0.00     0.031 C 
ATOM     63  C   UNL A   1      45.430  29.548  32.273  1.00  0.00     0.029 A 
ATOM     64  C   UNL A   1      44.446  30.535  32.355  1.00  0.00     0.049 A 
ATOM     65  H   UNL A   1      44.672  32.469  31.562  1.00  0.00     0.167 HD
ATOM     66  C   UNL A   1      42.144  31.409  32.703  1.00  0.00     0.074 A 
ATOM     67  C   UNL A   1      42.027  32.483  31.720  1.00  0.00     0.031 C 
ATOM     68  C   UNL A   1      43.182  30.593  33.056  1.00  0.00     0.037 A 
BRANCH  55  69
ATOM     69  C   UNL A   1      45.452  32.808  28.769  1.00  0.00     0.058 A 
ATOM     70  C   UNL A   1      46.687  33.493  28.783  1.00  0.00     0.135 A 
ATOM     71  C   UNL A   1      44.307  33.635  28.689  1.00  0.00     0.135 A 
ATOM     72  F   UNL A   1      47.843  32.812  28.857  1.00  0.00    -0.206 F 
ATOM     73  C   UNL A   1      46.773  34.884  28.819  1.00  0.00     0.059 A 
ATOM     74  C   UNL A   1      44.373  35.022  28.666  1.00  0.00     0.059 A 
ATOM     75  F   UNL A   1      43.061  33.155  28.725  1.00  0.00    -0.206 F 
ATOM     76  C   UNL A   1      45.605  35.639  28.778  1.00  0.00     0.060 A 
BRANCH  76  77
ATOM     77  S   UNL A   1      45.700  37.430  28.920  1.00  0.00     0.124 S 
ATOM     78  O   UNL A   1      46.972  37.596  29.610  1.00  0.00    -0.237 OA
ATOM     79  O   UNL A   1      45.667  37.844  27.521  1.00  0.00    -0.237 OA
ATOM     80  O   UNL A   1      44.509  37.766  29.695  1.00  0.00    -0.744 OA
ENDBRANCH  76  77
ENDBRANCH  55  69
BRANCH  56  81
ATOM     81  C   UNL A   1      37.622  31.523  31.343  1.00  0.00     0.058 A 
ATOM     82  C   UNL A   1      36.708  31.415  32.409  1.00  0.00     0.135 A 
ATOM     83  C   UNL A   1      37.319  32.492  30.366  1.00  0.00     0.135 A 
ATOM     84  F   UNL A   1      36.917  30.525  33.390  1.00  0.00    -0.206 F 
ATOM     85  C   UNL A   1      35.604  32.265  32.539  1.00  0.00     0.059 A 
ATOM     86  C   UNL A   1      36.217  33.343  30.469  1.00  0.00     0.059 A 
ATOM     87  F   UNL A   1      38.140  32.711  29.329  1.00  0.00    -0.206 F 
ATOM     88  C   UNL A   1      35.382  33.247  31.575  1.00  0.00     0.060 A 
BRANCH  88  89
ATOM     89  S   UNL A   1      34.082  34.477  31.840  1.00  0.00     0.124 S 
ATOM     90  O   UNL A   1      34.849  35.641  32.268  1.00  0.00    -0.237 OA
ATOM     91  O   UNL A   1      33.466  34.567  30.521  1.00  0.00    -0.237 OA
ATOM     92  O   UNL A   1      33.247  33.866  32.872  1.00  0.00    -0.744 OA
ENDBRANCH  88  89
ENDBRANCH  56  81
BRANCH  68  93
ATOM     93  C   UNL A   1      42.937  29.559  34.127  1.00  0.00     0.058 A 
ATOM     94  C   UNL A   1      43.025  29.781  35.513  1.00  0.00     0.135 A 
ATOM     95  C   UNL A   1      42.499  28.291  33.711  1.00  0.00     0.135 A 
ATOM     96  F   UNL A   1      43.326  30.992  36.004  1.00  0.00    -0.206 F 
ATOM     97  C   UNL A   1      42.759  28.766  36.437  1.00  0.00     0.059 A 
ATOM     98  C   UNL A   1      42.192  27.279  34.614  1.00  0.00     0.059 A 
ATOM     99  F   UNL A   1      42.333  28.031  32.403  1.00  0.00    -0.206 F 
ATOM    100  C   UNL A   1      42.349  27.515  35.977  1.00  0.00     0.060 A 
BRANCH 100 101
ATOM    101  S   UNL A   1      41.978  26.210  37.167  1.00  0.00     0.124 S 
ATOM    102  O   UNL A   1      42.054  25.010  36.341  1.00  0.00    -0.237 OA
ATOM    103  O   UNL A   1      43.042  26.370  38.155  1.00  0.00    -0.237 OA
ATOM    104  O   UNL A   1      40.640  26.554  37.646  1.00  0.00    -0.744 OA
ENDBRANCH 100 101
ENDBRANCH  68  93
ENDBRANCH  42  43
ENDBRANCH  34  37
ENDBRANCH  32  33
ENDBRANCH  31  32
ENDBRANCH  30  31
ENDBRANCH   1  30
TORSDOF 19
ENDMDL
MODEL 2
REMARK VINA RESULT:     -11.8      2.598      9.572
REMARK SMILES C/C(=N\NC(N)=O)c1nnn(-c2ccc(C(=O)NCCCCCCNC(=O)c3ccc(-c4c5nc(c(-c6c(F)cc(S(=O)(=O)[O-])cc6F)c6ccc([nH]6)c(-c6c(F)cc(S(=O)(=O)[O-])cc6F)c6nc(c(-c7c(F)cc(S(=O)(=O)[O-])cc7F)c7ccc4[nH]7)C=C6)C=C5)cc3)cc2)c1C
REMARK SMILES IDX 21 1 20 2 19 3 18 4 16 5 17 6 15 8 12 9 13 10 95 11 14 12
REMARK SMILES IDX 94 13 11 14 8 15 9 16 96 17 10 18 97 19 2 20 1 21 3 22 4 23
REMARK SMILES IDX 5 24 6 26 7 27 22 30 23 31 24 32 25 33 26 34 27 36 28 37
REMARK SMILES IDX 29 38 93 39 30 40 92 41 31 42 32 43 33 44 86 45 34 46 91 47
REMARK SMILES IDX 85 48 87 49 35 50 90 51 84 52 83 53 36 55 70 56 49 57 69 58
REMARK SMILES IDX 50 59 53 60 68 61 88 62 51 63 52 64 67 66 89 67 54 68 37 69
REMARK SMILES IDX 38 70 47 71 39 72 40 73 46 74 48 75 41 76 42 77 43 78 44 79
REMARK SMILES IDX 45 80 71 81 72 82 81 83 73 84 74 85 80 86 82 87 75 88 76 89
REMARK SMILES IDX 77 90 78 91 79 92 55 93 56 94 65 95 57 96 58 97 64 98 66 99
REMARK SMILES IDX 59 100 60 101 61 102 62 103 63 104
REMARK H PARENT 18 7 4 25 6 28 6 29 25 35 87 54 53 65
REMARK Flexibility Score: inf
ROOT
ATOM      1  C   UNL A   1      34.128  31.311  28.113  1.00  0.00     0.002 C 
ENDROOT
BRANCH   1   2
ATOM      2  C   UNL A   1      33.727  30.498  26.875  1.00  0.00     0.021 C 
BRANCH   2   3
ATOM      3  C   UNL A   1      32.378  29.792  27.017  1.00  0.00     0.116 C 
BRANCH   3   4
ATOM      4  N   UNL A   1      31.458  30.233  25.984  1.00  0.00    -0.352 N 
ATOM      5  C   UNL A   1      31.100  29.711  24.766  1.00  0.00     0.251 C 
ATOM      6  O   UNL A   1      30.232  30.307  24.127  1.00  0.00    -0.269 OA
ATOM      7  H   UNL A   1      30.998  31.077  26.201  1.00  0.00     0.163 HD
BRANCH   5   8
ATOM      8  C   UNL A   1      31.633  28.422  24.239  1.00  0.00     0.039 A 
ATOM      9  C   UNL A   1      32.608  25.874  23.640  1.00  0.00     0.067 A 
ATOM     10  C   UNL A   1      31.268  26.020  23.996  1.00  0.00     0.029 A 
ATOM     11  C   UNL A   1      33.422  26.991  23.448  1.00  0.00     0.029 A 
ATOM     12  C   UNL A   1      30.795  27.295  24.326  1.00  0.00     0.016 A 
ATOM     13  C   UNL A   1      32.909  28.266  23.692  1.00  0.00     0.016 A 
BRANCH   9  14
ATOM     14  N   UNL A   1      33.173  24.587  23.575  1.00  0.00    -0.217 N 
ATOM     15  C   UNL A   1      33.989  22.634  24.075  1.00  0.00     0.132 A 
ATOM     16  N   UNL A   1      33.578  22.618  22.769  1.00  0.00    -0.128 NA
ATOM     17  C   UNL A   1      33.699  23.864  24.634  1.00  0.00     0.071 A 
ATOM     18  N   UNL A   1      33.001  23.783  22.505  1.00  0.00    -0.061 NA
ATOM     19  C   UNL A   1      33.703  24.310  26.048  1.00  0.00     0.069 C 
BRANCH  15  20
ATOM     20  C   UNL A   1      34.380  21.424  24.775  1.00  0.00     0.087 C 
ATOM     21  C   UNL A   1      35.787  21.417  25.309  1.00  0.00     0.071 C 
ATOM     22  N   UNL A   1      33.464  20.508  24.881  1.00  0.00    -0.174 NA
BRANCH  22  23
ATOM     23  N   UNL A   1      33.679  19.305  25.493  1.00  0.00    -0.229 N 
ATOM     24  C   UNL A   1      32.924  18.159  25.382  1.00  0.00     0.332 C 
ATOM     25  H   UNL A   1      34.466  19.249  26.080  1.00  0.00     0.195 HD
ATOM     26  N   UNL A   1      33.437  17.126  26.109  1.00  0.00    -0.350 N 
ATOM     27  O   UNL A   1      31.909  17.989  24.718  1.00  0.00    -0.247 OA
ATOM     28  H   UNL A   1      34.253  17.258  26.644  1.00  0.00     0.161 HD
ATOM     29  H   UNL A   1      32.992  16.247  26.099  1.00  0.00     0.161 HD
ENDBRANCH  22  23
ENDBRANCH  15  20
ENDBRANCH   9  14
ENDBRANCH   5   8
ENDBRANCH   3   4
ENDBRANCH   2   3
ENDBRANCH   1   2
BRANCH   1  30
ATOM     30  C   UNL A   1      34.384  32.808  27.872  1.00  0.00     0.002 C 
BRANCH  30  31
ATOM     31  C   UNL A   1      33.416  33.784  28.559  1.00  0.00     0.021 C 
BRANCH  31  32
ATOM     32  C   UNL A   1      34.107  34.908  29.319  1.00  0.00     0.116 C 
BRANCH  32  33
ATOM     33  N   UNL A   1      33.866  34.825  30.756  1.00  0.00    -0.352 N 
ATOM     34  C   UNL A   1      34.354  33.916  31.674  1.00  0.00     0.251 C 
ATOM     35  H   UNL A   1      33.269  35.516  31.124  1.00  0.00     0.163 HD
ATOM     36  O   UNL A   1      33.767  33.742  32.730  1.00  0.00    -0.269 OA
BRANCH  34  37
ATOM     37  C   UNL A   1      35.582  33.157  31.364  1.00  0.00     0.039 A 
ATOM     38  C   UNL A   1      36.797  33.820  31.178  1.00  0.00     0.014 A 
ATOM     39  C   UNL A   1      35.514  31.770  31.252  1.00  0.00     0.014 A 
ATOM     40  C   UNL A   1      37.948  33.068  30.961  1.00  0.00     0.010 A 
ATOM     41  C   UNL A   1      36.666  31.024  31.190  1.00  0.00     0.010 A 
ATOM     42  C   UNL A   1      37.883  31.663  30.997  1.00  0.00    -0.014 A 
BRANCH  42  43
ATOM     43  C   UNL A   1      39.110  30.870  30.991  1.00  0.00     0.031 A 
ATOM     44  C   UNL A   1      39.670  30.649  32.349  1.00  0.00     0.074 A 
ATOM     45  C   UNL A   1      39.601  30.220  29.912  1.00  0.00     0.049 A 
ATOM     46  N   UNL A   1      40.698  31.229  32.871  1.00  0.00    -0.248 NA
ATOM     47  C   UNL A   1      38.890  29.848  33.308  1.00  0.00     0.031 C 
ATOM     48  C   UNL A   1      38.992  30.095  28.583  1.00  0.00     0.029 A 
ATOM     49  N   UNL A   1      40.715  29.440  29.801  1.00  0.00    -0.354 N 
ATOM     50  C   UNL A   1      40.865  30.632  34.115  1.00  0.00     0.074 A 
ATOM     51  C   UNL A   1      39.607  30.006  34.424  1.00  0.00     0.031 C 
ATOM     52  C   UNL A   1      39.612  29.115  27.889  1.00  0.00     0.029 A 
ATOM     53  C   UNL A   1      40.762  28.659  28.647  1.00  0.00     0.049 A 
ATOM     54  H   UNL A   1      41.426  29.429  30.481  1.00  0.00     0.167 HD
ATOM     55  C   UNL A   1      42.115  30.423  34.614  1.00  0.00     0.037 A 
ATOM     56  C   UNL A   1      41.671  27.699  28.337  1.00  0.00     0.037 A 
ATOM     57  C   UNL A   1      43.091  31.225  33.906  1.00  0.00     0.049 A 
ATOM     58  C   UNL A   1      42.880  27.971  29.153  1.00  0.00     0.074 A 
ATOM     59  C   UNL A   1      43.236  32.569  33.619  1.00  0.00     0.029 A 
ATOM     60  N   UNL A   1      43.922  30.566  33.032  1.00  0.00    -0.354 N 
ATOM     61  N   UNL A   1      43.645  29.014  28.991  1.00  0.00    -0.248 NA
ATOM     62  C   UNL A   1      43.004  27.303  30.438  1.00  0.00     0.031 C 
ATOM     63  C   UNL A   1      43.776  32.614  32.299  1.00  0.00     0.029 A 
ATOM     64  C   UNL A   1      44.009  31.303  31.881  1.00  0.00     0.049 A 
ATOM     65  H   UNL A   1      44.377  29.710  33.203  1.00  0.00     0.167 HD
ATOM     66  C   UNL A   1      43.982  29.403  30.277  1.00  0.00     0.074 A 
ATOM     67  C   UNL A   1      43.668  28.246  31.112  1.00  0.00     0.031 C 
ATOM     68  C   UNL A   1      44.203  30.718  30.572  1.00  0.00     0.037 A 
BRANCH  55  69
ATOM     69  C   UNL A   1      42.519  29.186  35.394  1.00  0.00     0.058 A 
ATOM     70  C   UNL A   1      43.372  29.336  36.509  1.00  0.00     0.135 A 
ATOM     71  C   UNL A   1      42.370  27.860  34.925  1.00  0.00     0.135 A 
ATOM     72  F   UNL A   1      43.591  30.550  37.042  1.00  0.00    -0.206 F 
ATOM     73  C   UNL A   1      44.097  28.273  37.048  1.00  0.00     0.059 A 
ATOM     74  C   UNL A   1      43.039  26.778  35.484  1.00  0.00     0.059 A 
ATOM     75  F   UNL A   1      41.649  27.548  33.845  1.00  0.00    -0.206 F 
ATOM     76  C   UNL A   1      43.934  26.999  36.514  1.00  0.00     0.060 A 
BRANCH  76  77
ATOM     77  S   UNL A   1      44.933  25.640  37.139  1.00  0.00     0.124 S 
ATOM     78  O   UNL A   1      44.199  25.274  38.343  1.00  0.00    -0.237 OA
ATOM     79  O   UNL A   1      44.872  24.690  36.033  1.00  0.00    -0.237 OA
ATOM     80  O   UNL A   1      46.238  26.258  37.354  1.00  0.00    -0.744 OA
ENDBRANCH  76  77
ENDBRANCH  55  69
BRANCH  56  81
ATOM     81  C   UNL A   1      41.488  26.422  27.592  1.00  0.00     0.058 A 
ATOM     82  C   UNL A   1      42.375  26.048  26.563  1.00  0.00     0.135 A 
ATOM     83  C   UNL A   1      40.634  25.408  28.068  1.00  0.00     0.135 A 
ATOM     84  F   UNL A   1      43.232  26.944  26.051  1.00  0.00    -0.206 F 
ATOM     85  C   UNL A   1      42.462  24.735  26.089  1.00  0.00     0.059 A 
ATOM     86  C   UNL A   1      40.694  24.094  27.602  1.00  0.00     0.059 A 
ATOM     87  F   UNL A   1      39.778  25.640  29.074  1.00  0.00    -0.206 F 
ATOM     88  C   UNL A   1      41.634  23.756  26.636  1.00  0.00     0.060 A 
BRANCH  88  89
ATOM     89  S   UNL A   1      41.881  22.023  26.178  1.00  0.00     0.124 S 
ATOM     90  O   UNL A   1      42.452  21.465  27.398  1.00  0.00    -0.237 OA
ATOM     91  O   UNL A   1      40.526  21.593  25.852  1.00  0.00    -0.237 OA
ATOM     92  O   UNL A   1      42.794  22.104  25.040  1.00  0.00    -0.744 OA
ENDBRANCH  88  89
ENDBRANCH  56  81
BRANCH  68  93
ATOM     93  C   UNL A   1      44.493  31.661  29.430  1.00  0.00     0.058 A 
ATOM     94  C   UNL A   1      45.731  31.797  28.776  1.00  0.00     0.135 A 
ATOM     95  C   UNL A   1      43.416  32.403  28.917  1.00  0.00     0.135 A 
ATOM     96  F   UNL A   1      46.786  31.046  29.124  1.00  0.00    -0.206 F 
ATOM     97  C   UNL A   1      45.904  32.684  27.709  1.00  0.00     0.059 A 
ATOM     98  C   UNL A   1      43.557  33.262  27.833  1.00  0.00     0.059 A 
ATOM     99  F   UNL A   1      42.192  32.273  29.455  1.00  0.00    -0.206 F 
ATOM    100  C   UNL A   1      44.811  33.417  27.249  1.00  0.00     0.060 A 
BRANCH 100 101
ATOM    101  S   UNL A   1      45.023  34.543  25.854  1.00  0.00     0.124 S 
ATOM    102  O   UNL A   1      43.778  34.356  25.116  1.00  0.00    -0.237 OA
ATOM    103  O   UNL A   1      45.182  35.837  26.511  1.00  0.00    -0.237 OA
ATOM    104  O   UNL A   1      46.224  34.041  25.189  1.00  0.00    -0.744 OA
ENDBRANCH 100 101
ENDBRANCH  68  93
ENDBRANCH  42  43
ENDBRANCH  34  37
ENDBRANCH  32  33
ENDBRANCH  31  32
ENDBRANCH  30  31
ENDBRANCH   1  30
TORSDOF 19
ENDMDL
MODEL 3
REMARK VINA RESULT:     -11.7      1.855      2.756
REMARK SMILES C/C(=N\NC(N)=O)c1nnn(-c2ccc(C(=O)NCCCCCCNC(=O)c3ccc(-c4c5nc(c(-c6c(F)cc(S(=O)(=O)[O-])cc6F)c6ccc([nH]6)c(-c6c(F)cc(S(=O)(=O)[O-])cc6F)c6nc(c(-c7c(F)cc(S(=O)(=O)[O-])cc7F)c7ccc4[nH]7)C=C6)C=C5)cc3)cc2)c1C
REMARK SMILES IDX 21 1 20 2 19 3 18 4 16 5 17 6 15 8 12 9 13 10 95 11 14 12
REMARK SMILES IDX 94 13 11 14 8 15 9 16 96 17 10 18 97 19 2 20 1 21 3 22 4 23
REMARK SMILES IDX 5 24 6 26 7 27 22 30 23 31 24 32 25 33 26 34 27 36 28 37
REMARK SMILES IDX 29 38 93 39 30 40 92 41 31 42 32 43 33 44 86 45 34 46 91 47
REMARK SMILES IDX 85 48 87 49 35 50 90 51 84 52 83 53 36 55 70 56 49 57 69 58
REMARK SMILES IDX 50 59 53 60 68 61 88 62 51 63 52 64 67 66 89 67 54 68 37 69
REMARK SMILES IDX 38 70 47 71 39 72 40 73 46 74 48 75 41 76 42 77 43 78 44 79
REMARK SMILES IDX 45 80 71 81 72 82 81 83 73 84 74 85 80 86 82 87 75 88 76 89
REMARK SMILES IDX 77 90 78 91 79 92 55 93 56 94 65 95 57 96 58 97 64 98 66 99
REMARK SMILES IDX 59 100 60 101 61 102 62 103 63 104
REMARK H PARENT 18 7 4 25 6 28 6 29 25 35 87 54 53 65
REMARK Flexibility Score: inf
ROOT
ATOM      1  C   UNL A   1      34.776  22.201  26.889  1.00  0.00     0.002 C 
ENDROOT
BRANCH   1   2
ATOM      2  C   UNL A   1      33.917  21.024  26.408  1.00  0.00     0.021 C 
BRANCH   2   3
ATOM      3  C   UNL A   1      34.555  20.225  25.270  1.00  0.00     0.116 C 
BRANCH   3   4
ATOM      4  N   UNL A   1      33.540  19.753  24.345  1.00  0.00    -0.352 N 
ATOM      5  C   UNL A   1      32.583  20.396  23.599  1.00  0.00     0.251 C 
ATOM      6  O   UNL A   1      31.889  19.705  22.852  1.00  0.00    -0.269 OA
ATOM      7  H   UNL A   1      33.537  18.775  24.229  1.00  0.00     0.163 HD
BRANCH   5   8
ATOM      8  C   UNL A   1      32.420  21.878  23.579  1.00  0.00     0.039 A 
ATOM      9  C   UNL A   1      31.733  24.580  23.411  1.00  0.00     0.067 A 
ATOM     10  C   UNL A   1      31.146  23.792  24.400  1.00  0.00     0.029 A 
ATOM     11  C   UNL A   1      32.751  24.071  22.604  1.00  0.00     0.029 A 
ATOM     12  C   UNL A   1      31.470  22.432  24.458  1.00  0.00     0.016 A 
ATOM     13  C   UNL A   1      33.131  22.734  22.735  1.00  0.00     0.016 A 
BRANCH   9  14
ATOM     14  N   UNL A   1      31.224  25.866  23.155  1.00  0.00    -0.217 N 
ATOM     15  C   UNL A   1      30.654  27.959  23.311  1.00  0.00     0.132 A 
ATOM     16  N   UNL A   1      30.691  27.611  21.988  1.00  0.00    -0.128 NA
ATOM     17  C   UNL A   1      31.038  26.879  24.083  1.00  0.00     0.071 A 
ATOM     18  N   UNL A   1      31.126  26.361  21.902  1.00  0.00    -0.061 NA
ATOM     19  C   UNL A   1      31.405  26.794  25.516  1.00  0.00     0.069 C 
BRANCH  15  20
ATOM     20  C   UNL A   1      30.519  29.339  23.743  1.00  0.00     0.087 C 
ATOM     21  C   UNL A   1      31.392  29.737  24.902  1.00  0.00     0.071 C 
ATOM     22  N   UNL A   1      29.685  30.068  23.062  1.00  0.00    -0.174 NA
BRANCH  22  23
ATOM     23  N   UNL A   1      29.430  31.378  23.354  1.00  0.00    -0.229 N 
ATOM     24  C   UNL A   1      28.915  32.341  22.515  1.00  0.00     0.332 C 
ATOM     25  H   UNL A   1      29.636  31.669  24.271  1.00  0.00     0.195 HD
ATOM     26  N   UNL A   1      28.761  33.544  23.138  1.00  0.00    -0.350 N 
ATOM     27  O   UNL A   1      28.587  32.218  21.342  1.00  0.00    -0.247 OA
ATOM     28  H   UNL A   1      29.024  33.648  24.081  1.00  0.00     0.161 HD
ATOM     29  H   UNL A   1      28.387  34.310  22.644  1.00  0.00     0.161 HD
ENDBRANCH  22  23
ENDBRANCH  15  20
ENDBRANCH   9  14
ENDBRANCH   5   8
ENDBRANCH   3   4
ENDBRANCH   2   3
ENDBRANCH   1   2
BRANCH   1  30
ATOM     30  C   UNL A   1      34.861  23.399  25.929  1.00  0.00     0.002 C 
BRANCH  30  31
ATOM     31  C   UNL A   1      35.836  23.260  24.750  1.00  0.00     0.021 C 
BRANCH  31  32
ATOM     32  C   UNL A   1      37.277  23.614  25.094  1.00  0.00     0.116 C 
BRANCH  32  33
ATOM     33  N   UNL A   1      38.041  22.444  25.516  1.00  0.00    -0.352 N 
ATOM     34  C   UNL A   1      39.229  22.381  26.217  1.00  0.00     0.251 C 
ATOM     35  H   UNL A   1      37.653  21.575  25.264  1.00  0.00     0.163 HD
ATOM     36  O   UNL A   1      39.923  21.380  26.149  1.00  0.00    -0.269 OA
BRANCH  34  37
ATOM     37  C   UNL A   1      39.650  23.533  27.039  1.00  0.00     0.039 A 
ATOM     38  C   UNL A   1      40.904  23.544  27.653  1.00  0.00     0.014 A 
ATOM     39  C   UNL A   1      38.778  24.608  27.202  1.00  0.00     0.014 A 
ATOM     40  C   UNL A   1      41.299  24.678  28.359  1.00  0.00     0.010 A 
ATOM     41  C   UNL A   1      39.222  25.780  27.766  1.00  0.00     0.010 A 
ATOM     42  C   UNL A   1      40.462  25.809  28.388  1.00  0.00    -0.014 A 
BRANCH  42  43
ATOM     43  C   UNL A   1      40.954  27.073  28.934  1.00  0.00     0.031 A 
ATOM     44  C   UNL A   1      42.113  27.622  28.184  1.00  0.00     0.074 A 
ATOM     45  C   UNL A   1      40.326  27.795  29.888  1.00  0.00     0.049 A 
ATOM     46  N   UNL A   1      43.351  27.614  28.549  1.00  0.00    -0.248 NA
ATOM     47  C   UNL A   1      41.909  28.045  26.788  1.00  0.00     0.031 C 
ATOM     48  C   UNL A   1      39.019  27.532  30.501  1.00  0.00     0.029 A 
ATOM     49  N   UNL A   1      40.680  28.987  30.449  1.00  0.00    -0.354 N 
ATOM     50  C   UNL A   1      44.032  28.309  27.556  1.00  0.00     0.074 A 
ATOM     51  C   UNL A   1      43.161  28.313  26.410  1.00  0.00     0.031 C 
ATOM     52  C   UNL A   1      38.595  28.634  31.158  1.00  0.00     0.029 A 
ATOM     53  C   UNL A   1      39.661  29.619  31.161  1.00  0.00     0.049 A 
ATOM     54  H   UNL A   1      41.582  29.371  30.357  1.00  0.00     0.167 HD
ATOM     55  C   UNL A   1      45.092  29.101  27.877  1.00  0.00     0.037 A 
ATOM     56  C   UNL A   1      39.682  30.863  31.705  1.00  0.00     0.037 A 
ATOM     57  C   UNL A   1      45.588  28.785  29.200  1.00  0.00     0.049 A 
ATOM     58  C   UNL A   1      41.109  31.231  31.879  1.00  0.00     0.074 A 
ATOM     59  C   UNL A   1      46.021  27.637  29.838  1.00  0.00     0.029 A 
ATOM     60  N   UNL A   1      45.311  29.685  30.200  1.00  0.00    -0.354 N 
ATOM     61  N   UNL A   1      41.913  30.644  32.720  1.00  0.00    -0.248 NA
ATOM     62  C   UNL A   1      41.760  31.973  30.811  1.00  0.00     0.031 C 
ATOM     63  C   UNL A   1      45.540  27.750  31.177  1.00  0.00     0.029 A 
ATOM     64  C   UNL A   1      44.912  28.988  31.309  1.00  0.00     0.049 A 
ATOM     65  H   UNL A   1      45.386  30.664  30.131  1.00  0.00     0.167 HD
ATOM     66  C   UNL A   1      43.116  30.546  32.042  1.00  0.00     0.074 A 
ATOM     67  C   UNL A   1      42.999  31.488  30.932  1.00  0.00     0.031 C 
ATOM     68  C   UNL A   1      43.966  29.501  32.276  1.00  0.00     0.037 A 
BRANCH  55  69
ATOM     69  C   UNL A   1      45.379  30.439  27.220  1.00  0.00     0.058 A 
ATOM     70  C   UNL A   1      46.693  30.712  26.783  1.00  0.00     0.135 A 
ATOM     71  C   UNL A   1      44.520  31.561  27.283  1.00  0.00     0.135 A 
ATOM     72  F   UNL A   1      47.598  29.724  26.684  1.00  0.00    -0.206 F 
ATOM     73  C   UNL A   1      47.146  32.006  26.529  1.00  0.00     0.059 A 
ATOM     74  C   UNL A   1      44.936  32.851  26.979  1.00  0.00     0.059 A 
ATOM     75  F   UNL A   1      43.264  31.491  27.732  1.00  0.00    -0.206 F 
ATOM     76  C   UNL A   1      46.260  33.072  26.648  1.00  0.00     0.060 A 
BRANCH  76  77
ATOM     77  S   UNL A   1      46.856  34.753  26.415  1.00  0.00     0.124 S 
ATOM     78  O   UNL A   1      47.810  34.571  25.330  1.00  0.00    -0.237 OA
ATOM     79  O   UNL A   1      45.627  35.464  26.080  1.00  0.00    -0.237 OA
ATOM     80  O   UNL A   1      47.430  35.086  27.716  1.00  0.00    -0.744 OA
ENDBRANCH  76  77
ENDBRANCH  55  69
BRANCH  56  81
ATOM     81  C   UNL A   1      38.583  31.858  31.845  1.00  0.00     0.058 A 
ATOM     82  C   UNL A   1      38.050  32.514  30.719  1.00  0.00     0.135 A 
ATOM     83  C   UNL A   1      37.831  31.961  33.032  1.00  0.00     0.135 A 
ATOM     84  F   UNL A   1      38.692  32.465  29.542  1.00  0.00    -0.206 F 
ATOM     85  C   UNL A   1      36.813  33.167  30.747  1.00  0.00     0.059 A 
ATOM     86  C   UNL A   1      36.601  32.618  33.088  1.00  0.00     0.059 A 
ATOM     87  F   UNL A   1      38.221  31.341  34.156  1.00  0.00    -0.206 F 
ATOM     88  C   UNL A   1      36.081  33.190  31.933  1.00  0.00     0.060 A 
BRANCH  88  89
ATOM     89  S   UNL A   1      34.397  33.850  31.927  1.00  0.00     0.124 S 
ATOM     90  O   UNL A   1      34.032  33.737  30.520  1.00  0.00    -0.237 OA
ATOM     91  O   UNL A   1      33.707  32.947  32.841  1.00  0.00    -0.237 OA
ATOM     92  O   UNL A   1      34.569  35.215  32.420  1.00  0.00    -0.744 OA
ENDBRANCH  88  89
ENDBRANCH  56  81
BRANCH  68  93
ATOM     93  C   UNL A   1      43.785  28.715  33.551  1.00  0.00     0.058 A 
ATOM     94  C   UNL A   1      42.899  27.637  33.729  1.00  0.00     0.135 A 
ATOM     95  C   UNL A   1      44.633  29.028  34.627  1.00  0.00     0.135 A 
ATOM     96  F   UNL A   1      42.132  27.196  32.722  1.00  0.00    -0.206 F 
ATOM     97  C   UNL A   1      42.813  26.951  34.944  1.00  0.00     0.059 A 
ATOM     98  C   UNL A   1      44.590  28.333  35.832  1.00  0.00     0.059 A 
ATOM     99  F   UNL A   1      45.546  30.006  34.503  1.00  0.00    -0.206 F 
ATOM    100  C   UNL A   1      43.659  27.311  35.992  1.00  0.00     0.060 A 
BRANCH 100 101
ATOM    101  S   UNL A   1      43.570  26.409  37.553  1.00  0.00     0.124 S 
ATOM    102  O   UNL A   1      44.309  27.285  38.457  1.00  0.00    -0.237 OA
ATOM    103  O   UNL A   1      42.131  26.324  37.788  1.00  0.00    -0.237 OA
ATOM    104  O   UNL A   1      44.218  25.135  37.250  1.00  0.00    -0.744 OA
ENDBRANCH 100 101
ENDBRANCH  68  93
ENDBRANCH  42  43
ENDBRANCH  34  37
ENDBRANCH  32  33
ENDBRANCH  31  32
ENDBRANCH  30  31
ENDBRANCH   1  30
TORSDOF 19
ENDMDL
