MODEL 1
REMARK VINA RESULT:     -12.4      0.000      0.000
REMARK SMILES O=C(NCCCCCCNC(=O)c1ccc(-n2cc(CSc3nc4ccccc4c(=O)n3-c3ccc(Br)cc3)nn2)cc1)c1ccc(-c2c3nc(c(-c4c(F)cc(S(=O)(=O)[O-])cc4F)c4ccc([nH]4)c(-c4c(F)cc(S(=O)(=O)[O-])cc4F)c4nc(c(-c5c(F)cc(S(=O)(=O)[O-])cc5F)c5ccc2[nH]5)C=C4)C=C3)cc1
REMARK SMILES IDX 7 1 6 2 5 3 4 4 3 5 1 6 2 7 44 9 45 10 109 11 46 12 108 13
REMARK SMILES IDX 47 14 48 15 49 16 102 17 50 18 107 19 101 20 103 21 51 22
REMARK SMILES IDX 106 23 100 24 99 25 52 27 86 28 65 29 85 30 66 31 69 32
REMARK SMILES IDX 84 33 104 34 67 35 68 36 83 38 105 39 70 40 53 41 54 42
REMARK SMILES IDX 63 43 55 44 56 45 62 46 64 47 57 48 58 49 59 50 60 51 61 52
REMARK SMILES IDX 87 53 88 54 97 55 89 56 90 57 96 58 98 59 91 60 92 61 93 62
REMARK SMILES IDX 94 63 95 64 71 65 72 66 81 67 73 68 74 69 80 70 82 71 75 72
REMARK SMILES IDX 76 73 77 74 78 75 79 76 8 77 9 78 10 79 11 80 12 82 13 83
REMARK SMILES IDX 14 84 43 85 15 86 42 87 16 88 17 89 18 90 41 91 19 92 40 93
REMARK SMILES IDX 20 94 21 95 22 96 23 97 32 98 24 99 30 100 25 101 29 102
REMARK SMILES IDX 31 103 26 104 28 105 27 106 33 107 34 108 39 109 35 110
REMARK SMILES IDX 38 111 36 112 37 113
REMARK H PARENT 3 8 103 26 69 37 10 81
REMARK Flexibility Score: inf
ROOT
ATOM      1  C   UNL A   1      34.663  35.426  33.509  1.00  0.00     0.002 C 
ENDROOT
BRANCH   1   2
ATOM      2  C   UNL A   1      34.586  33.978  33.010  1.00  0.00     0.002 C 
BRANCH   2   3
ATOM      3  C   UNL A   1      35.474  32.965  33.745  1.00  0.00     0.021 C 
BRANCH   3   4
ATOM      4  C   UNL A   1      36.435  32.188  32.850  1.00  0.00     0.116 C 
BRANCH   4   5
ATOM      5  N   UNL A   1      37.018  32.971  31.781  1.00  0.00    -0.352 N 
ATOM      6  O   UNL A   1      38.236  33.677  30.078  1.00  0.00    -0.269 OA
ATOM      7  C   UNL A   1      38.067  32.790  30.921  1.00  0.00     0.251 C 
ATOM      8  H   UNL A   1      36.554  33.828  31.641  1.00  0.00     0.163 HD
BRANCH   7   9
ATOM      9  C   UNL A   1      39.019  31.646  30.961  1.00  0.00     0.039 A 
ATOM     10  C   UNL A   1      38.855  30.431  30.294  1.00  0.00     0.014 A 
ATOM     11  C   UNL A   1      40.193  31.845  31.711  1.00  0.00     0.014 A 
ATOM     12  C   UNL A   1      39.812  29.423  30.412  1.00  0.00     0.010 A 
ATOM     13  C   UNL A   1      41.163  30.850  31.813  1.00  0.00     0.010 A 
ATOM     14  C   UNL A   1      40.965  29.628  31.173  1.00  0.00    -0.014 A 
BRANCH  14  15
ATOM     15  C   UNL A   1      42.007  28.599  31.134  1.00  0.00     0.031 A 
ATOM     16  C   UNL A   1      42.550  28.176  32.463  1.00  0.00     0.074 A 
ATOM     17  C   UNL A   1      42.350  27.916  30.023  1.00  0.00     0.049 A 
ATOM     18  N   UNL A   1      43.777  28.171  32.878  1.00  0.00    -0.248 NA
ATOM     19  C   UNL A   1      41.575  27.760  33.485  1.00  0.00     0.031 C 
ATOM     20  C   UNL A   1      41.699  27.952  28.712  1.00  0.00     0.029 A 
ATOM     21  N   UNL A   1      43.299  26.946  29.874  1.00  0.00    -0.354 N 
ATOM     22  C   UNL A   1      43.757  27.583  34.144  1.00  0.00     0.074 A 
ATOM     23  C   UNL A   1      42.370  27.461  34.513  1.00  0.00     0.031 C 
ATOM     24  C   UNL A   1      42.126  26.900  27.979  1.00  0.00     0.029 A 
ATOM     25  C   UNL A   1      43.163  26.195  28.714  1.00  0.00     0.049 A 
ATOM     26  H   UNL A   1      44.016  26.792  30.531  1.00  0.00     0.167 HD
ATOM     27  C   UNL A   1      44.872  27.077  34.742  1.00  0.00     0.037 A 
ATOM     28  C   UNL A   1      43.800  25.035  28.414  1.00  0.00     0.037 A 
ATOM     29  C   UNL A   1      46.078  27.586  34.150  1.00  0.00     0.049 A 
ATOM     30  C   UNL A   1      45.003  24.938  29.280  1.00  0.00     0.074 A 
ATOM     31  C   UNL A   1      46.626  28.843  33.989  1.00  0.00     0.029 A 
ATOM     32  N   UNL A   1      46.800  26.761  33.325  1.00  0.00    -0.354 N 
ATOM     33  N   UNL A   1      46.050  25.710  29.182  1.00  0.00    -0.248 NA
ATOM     34  C   UNL A   1      44.891  24.196  30.525  1.00  0.00     0.031 C 
ATOM     35  C   UNL A   1      47.300  28.796  32.734  1.00  0.00     0.029 A 
ATOM     36  C   UNL A   1      47.147  27.506  32.227  1.00  0.00     0.049 A 
ATOM     37  H   UNL A   1      47.025  25.816  33.489  1.00  0.00     0.167 HD
ATOM     38  C   UNL A   1      46.497  25.869  30.484  1.00  0.00     0.074 A 
ATOM     39  C   UNL A   1      45.819  24.828  31.248  1.00  0.00     0.031 C 
ATOM     40  C   UNL A   1      47.165  26.994  30.875  1.00  0.00     0.037 A 
BRANCH  27  41
ATOM     41  C   UNL A   1      44.873  25.890  35.680  1.00  0.00     0.058 A 
ATOM     42  C   UNL A   1      45.369  26.028  36.994  1.00  0.00     0.135 A 
ATOM     43  C   UNL A   1      44.662  24.561  35.246  1.00  0.00     0.135 A 
ATOM     44  F   UNL A   1      45.622  27.243  37.505  1.00  0.00    -0.206 F 
ATOM     45  C   UNL A   1      45.691  24.929  37.792  1.00  0.00     0.059 A 
ATOM     46  C   UNL A   1      44.925  23.453  36.045  1.00  0.00     0.059 A 
ATOM     47  F   UNL A   1      44.285  24.276  33.994  1.00  0.00    -0.206 F 
ATOM     48  C   UNL A   1      45.480  23.643  37.300  1.00  0.00     0.060 A 
BRANCH  48  49
ATOM     49  S   UNL A   1      46.006  22.223  38.277  1.00  0.00     0.124 S 
ATOM     50  O   UNL A   1      47.441  22.460  38.382  1.00  0.00    -0.237 OA
ATOM     51  O   UNL A   1      45.237  22.395  39.505  1.00  0.00    -0.237 OA
ATOM     52  O   UNL A   1      45.610  21.085  37.452  1.00  0.00    -0.744 OA
ENDBRANCH  48  49
ENDBRANCH  27  41
BRANCH  28  53
ATOM     53  C   UNL A   1      43.279  23.871  27.650  1.00  0.00     0.058 A 
ATOM     54  C   UNL A   1      44.071  23.217  26.689  1.00  0.00     0.135 A 
ATOM     55  C   UNL A   1      42.102  23.203  28.041  1.00  0.00     0.135 A 
ATOM     56  F   UNL A   1      45.224  23.766  26.276  1.00  0.00    -0.206 F 
ATOM     57  C   UNL A   1      43.739  21.956  26.181  1.00  0.00     0.059 A 
ATOM     58  C   UNL A   1      41.741  21.955  27.538  1.00  0.00     0.059 A 
ATOM     59  F   UNL A   1      41.308  23.701  29.002  1.00  0.00    -0.206 F 
ATOM     60  C   UNL A   1      42.579  21.325  26.628  1.00  0.00     0.060 A 
BRANCH  60  61
ATOM     61  S   UNL A   1      42.238  19.624  26.116  1.00  0.00     0.124 S 
ATOM     62  O   UNL A   1      42.594  18.872  27.315  1.00  0.00    -0.237 OA
ATOM     63  O   UNL A   1      40.815  19.678  25.797  1.00  0.00    -0.237 OA
ATOM     64  O   UNL A   1      43.123  19.431  24.971  1.00  0.00    -0.744 OA
ENDBRANCH  60  61
ENDBRANCH  28  53
BRANCH  40  65
ATOM     65  C   UNL A   1      47.718  27.908  29.812  1.00  0.00     0.058 A 
ATOM     66  C   UNL A   1      46.986  28.936  29.192  1.00  0.00     0.135 A 
ATOM     67  C   UNL A   1      49.090  27.838  29.526  1.00  0.00     0.135 A 
ATOM     68  F   UNL A   1      45.695  29.143  29.492  1.00  0.00    -0.206 F 
ATOM     69  C   UNL A   1      47.584  29.828  28.302  1.00  0.00     0.059 A 
ATOM     70  C   UNL A   1      49.715  28.738  28.668  1.00  0.00     0.059 A 
ATOM     71  F   UNL A   1      49.858  26.918  30.135  1.00  0.00    -0.206 F 
ATOM     72  C   UNL A   1      48.951  29.725  28.048  1.00  0.00     0.060 A 
BRANCH  72  73
ATOM     73  S   UNL A   1      49.742  30.947  26.979  1.00  0.00     0.124 S 
ATOM     74  O   UNL A   1      48.603  31.736  26.520  1.00  0.00    -0.237 OA
ATOM     75  O   UNL A   1      50.657  31.626  27.893  1.00  0.00    -0.237 OA
ATOM     76  O   UNL A   1      50.392  30.135  25.953  1.00  0.00    -0.744 OA
ENDBRANCH  72  73
ENDBRANCH  40  65
ENDBRANCH  14  15
ENDBRANCH   7   9
ENDBRANCH   4   5
ENDBRANCH   3   4
ENDBRANCH   2   3
ENDBRANCH   1   2
BRANCH   1  77
ATOM     77  C   UNL A   1      33.635  36.393  32.910  1.00  0.00     0.021 C 
BRANCH  77  78
ATOM     78  C   UNL A   1      32.856  35.847  31.716  1.00  0.00     0.116 C 
BRANCH  78  79
ATOM     79  N   UNL A   1      32.867  36.770  30.594  1.00  0.00    -0.352 N 
ATOM     80  C   UNL A   1      33.259  36.556  29.293  1.00  0.00     0.251 C 
ATOM     81  H   UNL A   1      32.545  37.679  30.793  1.00  0.00     0.163 HD
ATOM     82  O   UNL A   1      33.363  37.482  28.508  1.00  0.00    -0.269 OA
BRANCH  80  83
ATOM     83  C   UNL A   1      33.574  35.181  28.850  1.00  0.00     0.039 A 
ATOM     84  C   UNL A   1      32.615  34.467  28.126  1.00  0.00     0.016 A 
ATOM     85  C   UNL A   1      34.792  34.589  29.189  1.00  0.00     0.016 A 
ATOM     86  C   UNL A   1      32.893  33.167  27.694  1.00  0.00     0.029 A 
ATOM     87  C   UNL A   1      35.068  33.287  28.772  1.00  0.00     0.029 A 
ATOM     88  C   UNL A   1      34.113  32.567  28.031  1.00  0.00     0.066 A 
BRANCH  88  89
ATOM     89  N   UNL A   1      34.358  31.219  27.673  1.00  0.00    -0.220 N 
ATOM     90  C   UNL A   1      33.555  30.401  26.922  1.00  0.00     0.141 A 
ATOM     91  N   UNL A   1      35.476  30.537  28.024  1.00  0.00    -0.062 NA
ATOM     92  C   UNL A   1      34.254  29.225  26.772  1.00  0.00     0.093 A 
ATOM     93  N   UNL A   1      35.407  29.315  27.500  1.00  0.00    -0.134 NA
BRANCH  92  94
ATOM     94  C   UNL A   1      33.803  27.970  26.134  1.00  0.00     0.138 C 
BRANCH  94  95
ATOM     95  S   UNL A   1      32.210  27.229  26.510  1.00  0.00    -0.081 SA
BRANCH  95  96
ATOM     96  C   UNL A   1      31.097  27.419  25.180  1.00  0.00     0.176 A 
ATOM     97  N   UNL A   1      31.040  28.659  24.787  1.00  0.00    -0.223 NA
ATOM     98  N   UNL A   1      30.376  26.403  24.555  1.00  0.00    -0.255 N 
ATOM     99  C   UNL A   1      30.163  29.000  23.756  1.00  0.00     0.079 A 
ATOM    100  C   UNL A   1      29.145  26.819  24.022  1.00  0.00     0.266 A 
ATOM    101  C   UNL A   1      30.276  30.228  23.102  1.00  0.00     0.029 A 
ATOM    102  C   UNL A   1      29.114  28.161  23.424  1.00  0.00     0.066 A 
ATOM    103  O   UNL A   1      28.092  26.183  24.031  1.00  0.00    -0.268 OA
ATOM    104  C   UNL A   1      29.312  30.623  22.167  1.00  0.00     0.002 A 
ATOM    105  C   UNL A   1      28.118  28.557  22.525  1.00  0.00     0.016 A 
ATOM    106  C   UNL A   1      28.217  29.800  21.900  1.00  0.00     0.001 A 
BRANCH  98 107
ATOM    107  C   UNL A   1      30.730  24.992  24.458  1.00  0.00     0.051 A 
ATOM    108  C   UNL A   1      30.712  24.168  25.605  1.00  0.00     0.028 A 
ATOM    109  C   UNL A   1      31.073  24.336  23.266  1.00  0.00     0.028 A 
ATOM    110  C   UNL A   1      31.221  22.864  25.609  1.00  0.00     0.018 A 
ATOM    111  C   UNL A   1      31.630  23.046  23.261  1.00  0.00     0.018 A 
ATOM    112  C   UNL A   1      31.740  22.331  24.444  1.00  0.00     0.018 A 
ATOM    113  Br  UNL A   1      32.604  20.658  24.471  1.00  0.00    -0.051 Br
ENDBRANCH  98 107
ENDBRANCH  95  96
ENDBRANCH  94  95
ENDBRANCH  92  94
ENDBRANCH  88  89
ENDBRANCH  80  83
ENDBRANCH  78  79
ENDBRANCH  77  78
ENDBRANCH   1  77
TORSDOF 21
ENDMDL
MODEL 2
REMARK VINA RESULT:     -12.2      6.197     12.454
REMARK SMILES O=C(NCCCCCCNC(=O)c1ccc(-n2cc(CSc3nc4ccccc4c(=O)n3-c3ccc(Br)cc3)nn2)cc1)c1ccc(-c2c3nc(c(-c4c(F)cc(S(=O)(=O)[O-])cc4F)c4ccc([nH]4)c(-c4c(F)cc(S(=O)(=O)[O-])cc4F)c4nc(c(-c5c(F)cc(S(=O)(=O)[O-])cc5F)c5ccc2[nH]5)C=C4)C=C3)cc1
REMARK SMILES IDX 7 1 6 2 5 3 4 4 3 5 1 6 2 7 44 9 45 10 109 11 46 12 108 13
REMARK SMILES IDX 47 14 48 15 49 16 102 17 50 18 107 19 101 20 103 21 51 22
REMARK SMILES IDX 106 23 100 24 99 25 52 27 86 28 65 29 85 30 66 31 69 32
REMARK SMILES IDX 84 33 104 34 67 35 68 36 83 38 105 39 70 40 53 41 54 42
REMARK SMILES IDX 63 43 55 44 56 45 62 46 64 47 57 48 58 49 59 50 60 51 61 52
REMARK SMILES IDX 87 53 88 54 97 55 89 56 90 57 96 58 98 59 91 60 92 61 93 62
REMARK SMILES IDX 94 63 95 64 71 65 72 66 81 67 73 68 74 69 80 70 82 71 75 72
REMARK SMILES IDX 76 73 77 74 78 75 79 76 8 77 9 78 10 79 11 80 12 82 13 83
REMARK SMILES IDX 14 84 43 85 15 86 42 87 16 88 17 89 18 90 41 91 19 92 40 93
REMARK SMILES IDX 20 94 21 95 22 96 23 97 32 98 24 99 30 100 25 101 29 102
REMARK SMILES IDX 31 103 26 104 28 105 27 106 33 107 34 108 39 109 35 110
REMARK SMILES IDX 38 111 36 112 37 113
REMARK H PARENT 3 8 103 26 69 37 10 81
REMARK Flexibility Score: inf
ROOT
ATOM      1  C   UNL A   1      45.111  39.432  29.709  1.00  0.00     0.002 C 
ENDROOT
BRANCH   1   2
ATOM      2  C   UNL A   1      43.937  40.260  30.247  1.00  0.00     0.002 C 
BRANCH   2   3
ATOM      3  C   UNL A   1      44.309  41.530  31.022  1.00  0.00     0.021 C 
BRANCH   3   4
ATOM      4  C   UNL A   1      44.068  41.456  32.527  1.00  0.00     0.116 C 
BRANCH   4   5
ATOM      5  N   UNL A   1      45.157  40.866  33.277  1.00  0.00    -0.352 N 
ATOM      6  O   UNL A   1      46.485  39.480  34.371  1.00  0.00    -0.269 OA
ATOM      7  C   UNL A   1      45.380  39.642  33.844  1.00  0.00     0.251 C 
ATOM      8  H   UNL A   1      45.909  41.489  33.409  1.00  0.00     0.163 HD
BRANCH   7   9
ATOM      9  C   UNL A   1      44.388  38.533  33.903  1.00  0.00     0.039 A 
ATOM     10  C   UNL A   1      43.947  37.779  32.815  1.00  0.00     0.014 A 
ATOM     11  C   UNL A   1      43.896  38.212  35.183  1.00  0.00     0.014 A 
ATOM     12  C   UNL A   1      43.004  36.766  32.989  1.00  0.00     0.010 A 
ATOM     13  C   UNL A   1      42.971  37.186  35.366  1.00  0.00     0.010 A 
ATOM     14  C   UNL A   1      42.512  36.470  34.262  1.00  0.00    -0.014 A 
BRANCH  14  15
ATOM     15  C   UNL A   1      41.646  35.297  34.408  1.00  0.00     0.031 A 
ATOM     16  C   UNL A   1      42.073  34.079  33.649  1.00  0.00     0.074 A 
ATOM     17  C   UNL A   1      40.636  35.211  35.297  1.00  0.00     0.049 A 
ATOM     18  N   UNL A   1      41.405  33.383  32.784  1.00  0.00    -0.248 NA
ATOM     19  C   UNL A   1      43.457  33.617  33.843  1.00  0.00     0.031 C 
ATOM     20  C   UNL A   1      40.287  36.166  36.351  1.00  0.00     0.029 A 
ATOM     21  N   UNL A   1      39.773  34.176  35.515  1.00  0.00    -0.354 N 
ATOM     22  C   UNL A   1      42.213  32.292  32.457  1.00  0.00     0.074 A 
ATOM     23  C   UNL A   1      43.502  32.550  33.045  1.00  0.00     0.031 C 
ATOM     24  C   UNL A   1      39.440  35.572  37.221  1.00  0.00     0.029 A 
ATOM     25  C   UNL A   1      39.093  34.251  36.723  1.00  0.00     0.049 A 
ATOM     26  H   UNL A   1      39.644  33.441  34.872  1.00  0.00     0.167 HD
ATOM     27  C   UNL A   1      41.727  31.162  31.870  1.00  0.00     0.037 A 
ATOM     28  C   UNL A   1      38.363  33.270  37.310  1.00  0.00     0.037 A 
ATOM     29  C   UNL A   1      40.448  31.384  31.253  1.00  0.00     0.049 A 
ATOM     30  C   UNL A   1      38.001  32.282  36.262  1.00  0.00     0.074 A 
ATOM     31  C   UNL A   1      39.983  32.214  30.251  1.00  0.00     0.029 A 
ATOM     32  N   UNL A   1      39.328  30.895  31.876  1.00  0.00    -0.354 N 
ATOM     33  N   UNL A   1      37.175  32.513  35.279  1.00  0.00    -0.248 NA
ATOM     34  C   UNL A   1      38.858  31.119  36.094  1.00  0.00     0.031 C 
ATOM     35  C   UNL A   1      38.656  32.559  30.642  1.00  0.00     0.029 A 
ATOM     36  C   UNL A   1      38.388  31.893  31.838  1.00  0.00     0.049 A 
ATOM     37  H   UNL A   1      39.221  30.002  32.276  1.00  0.00     0.167 HD
ATOM     38  C   UNL A   1      37.683  31.791  34.211  1.00  0.00     0.074 A 
ATOM     39  C   UNL A   1      38.646  30.869  34.800  1.00  0.00     0.031 C 
ATOM     40  C   UNL A   1      37.477  32.189  32.921  1.00  0.00     0.037 A 
BRANCH  27  41
ATOM     41  C   UNL A   1      42.278  29.773  32.104  1.00  0.00     0.058 A 
ATOM     42  C   UNL A   1      42.329  29.244  33.411  1.00  0.00     0.135 A 
ATOM     43  C   UNL A   1      43.009  29.057  31.129  1.00  0.00     0.135 A 
ATOM     44  F   UNL A   1      41.685  29.851  34.420  1.00  0.00    -0.206 F 
ATOM     45  C   UNL A   1      43.099  28.126  33.737  1.00  0.00     0.059 A 
ATOM     46  C   UNL A   1      43.739  27.909  31.421  1.00  0.00     0.059 A 
ATOM     47  F   UNL A   1      43.128  29.494  29.869  1.00  0.00    -0.206 F 
ATOM     48  C   UNL A   1      43.815  27.476  32.735  1.00  0.00     0.060 A 
BRANCH  48  49
ATOM     49  S   UNL A   1      44.905  26.108  33.170  1.00  0.00     0.124 S 
ATOM     50  O   UNL A   1      45.730  26.003  31.971  1.00  0.00    -0.237 OA
ATOM     51  O   UNL A   1      45.574  26.616  34.363  1.00  0.00    -0.237 OA
ATOM     52  O   UNL A   1      43.980  25.003  33.402  1.00  0.00    -0.744 OA
ENDBRANCH  48  49
ENDBRANCH  27  41
BRANCH  28  53
ATOM     53  C   UNL A   1      38.213  32.976  38.759  1.00  0.00     0.058 A 
ATOM     54  C   UNL A   1      36.960  32.661  39.314  1.00  0.00     0.135 A 
ATOM     55  C   UNL A   1      39.333  32.725  39.577  1.00  0.00     0.135 A 
ATOM     56  F   UNL A   1      35.839  32.842  38.597  1.00  0.00    -0.206 F 
ATOM     57  C   UNL A   1      36.828  32.088  40.583  1.00  0.00     0.059 A 
ATOM     58  C   UNL A   1      39.227  32.170  40.851  1.00  0.00     0.059 A 
ATOM     59  F   UNL A   1      40.581  32.922  39.125  1.00  0.00    -0.206 F 
ATOM     60  C   UNL A   1      37.972  31.829  41.337  1.00  0.00     0.060 A 
BRANCH  60  61
ATOM     61  S   UNL A   1      37.825  30.926  42.897  1.00  0.00     0.124 S 
ATOM     62  O   UNL A   1      38.318  29.604  42.526  1.00  0.00    -0.237 OA
ATOM     63  O   UNL A   1      38.685  31.701  43.784  1.00  0.00    -0.237 OA
ATOM     64  O   UNL A   1      36.397  30.999  43.197  1.00  0.00    -0.744 OA
ENDBRANCH  60  61
ENDBRANCH  28  53
BRANCH  40  65
ATOM     65  C   UNL A   1      36.410  33.217  32.647  1.00  0.00     0.058 A 
ATOM     66  C   UNL A   1      35.096  32.911  32.254  1.00  0.00     0.135 A 
ATOM     67  C   UNL A   1      36.692  34.560  32.949  1.00  0.00     0.135 A 
ATOM     68  F   UNL A   1      34.713  31.641  32.053  1.00  0.00    -0.206 F 
ATOM     69  C   UNL A   1      34.118  33.899  32.131  1.00  0.00     0.059 A 
ATOM     70  C   UNL A   1      35.723  35.556  32.865  1.00  0.00     0.059 A 
ATOM     71  F   UNL A   1      37.912  34.909  33.390  1.00  0.00    -0.206 F 
ATOM     72  C   UNL A   1      34.439  35.219  32.442  1.00  0.00     0.060 A 
BRANCH  72  73
ATOM     73  S   UNL A   1      33.143  36.476  32.385  1.00  0.00     0.124 S 
ATOM     74  O   UNL A   1      31.939  35.668  32.228  1.00  0.00    -0.237 OA
ATOM     75  O   UNL A   1      33.294  37.148  33.673  1.00  0.00    -0.237 OA
ATOM     76  O   UNL A   1      33.506  37.288  31.225  1.00  0.00    -0.744 OA
ENDBRANCH  72  73
ENDBRANCH  40  65
ENDBRANCH  14  15
ENDBRANCH   7   9
ENDBRANCH   4   5
ENDBRANCH   3   4
ENDBRANCH   2   3
ENDBRANCH   1   2
BRANCH   1  77
ATOM     77  C   UNL A   1      44.769  38.010  29.251  1.00  0.00     0.021 C 
BRANCH  77  78
ATOM     78  C   UNL A   1      43.888  37.928  28.008  1.00  0.00     0.116 C 
BRANCH  78  79
ATOM     79  N   UNL A   1      42.536  37.502  28.327  1.00  0.00    -0.352 N 
ATOM     80  C   UNL A   1      41.964  36.257  28.213  1.00  0.00     0.251 C 
ATOM     81  H   UNL A   1      41.944  38.207  28.677  1.00  0.00     0.163 HD
ATOM     82  O   UNL A   1      40.766  36.099  28.368  1.00  0.00    -0.269 OA
BRANCH  80  83
ATOM     83  C   UNL A   1      42.819  35.097  27.882  1.00  0.00     0.039 A 
ATOM     84  C   UNL A   1      43.236  34.918  26.560  1.00  0.00     0.016 A 
ATOM     85  C   UNL A   1      43.165  34.168  28.866  1.00  0.00     0.016 A 
ATOM     86  C   UNL A   1      44.047  33.831  26.225  1.00  0.00     0.029 A 
ATOM     87  C   UNL A   1      43.962  33.074  28.533  1.00  0.00     0.029 A 
ATOM     88  C   UNL A   1      44.398  32.895  27.208  1.00  0.00     0.066 A 
BRANCH  88  89
ATOM     89  N   UNL A   1      45.142  31.745  26.850  1.00  0.00    -0.220 N 
ATOM     90  C   UNL A   1      45.349  30.621  27.608  1.00  0.00     0.141 A 
ATOM     91  N   UNL A   1      45.760  31.588  25.653  1.00  0.00    -0.062 NA
ATOM     92  C   UNL A   1      46.053  29.753  26.805  1.00  0.00     0.093 A 
ATOM     93  N   UNL A   1      46.337  30.389  25.629  1.00  0.00    -0.134 NA
BRANCH  92  94
ATOM     94  C   UNL A   1      46.622  28.436  27.164  1.00  0.00     0.138 C 
BRANCH  94  95
ATOM     95  S   UNL A   1      45.758  27.288  28.241  1.00  0.00    -0.081 SA
BRANCH  95  96
ATOM     96  C   UNL A   1      44.887  26.090  27.317  1.00  0.00     0.176 A 
ATOM     97  N   UNL A   1      45.604  25.018  27.141  1.00  0.00    -0.223 NA
ATOM     98  N   UNL A   1      43.579  26.200  26.848  1.00  0.00    -0.255 N 
ATOM     99  C   UNL A   1      45.077  23.971  26.385  1.00  0.00     0.079 A 
ATOM    100  C   UNL A   1      43.336  25.490  25.661  1.00  0.00     0.266 A 
ATOM    101  C   UNL A   1      45.664  22.704  26.415  1.00  0.00     0.029 A 
ATOM    102  C   UNL A   1      44.016  24.194  25.526  1.00  0.00     0.066 A 
ATOM    103  O   UNL A   1      42.634  25.858  24.720  1.00  0.00    -0.268 OA
ATOM    104  C   UNL A   1      45.218  21.697  25.550  1.00  0.00     0.002 A 
ATOM    105  C   UNL A   1      43.586  23.214  24.625  1.00  0.00     0.016 A 
ATOM    106  C   UNL A   1      44.198  21.961  24.635  1.00  0.00     0.001 A 
BRANCH  98 107
ATOM    107  C   UNL A   1      42.496  26.998  27.411  1.00  0.00     0.051 A 
ATOM    108  C   UNL A   1      41.742  26.513  28.502  1.00  0.00     0.028 A 
ATOM    109  C   UNL A   1      42.137  28.279  26.969  1.00  0.00     0.028 A 
ATOM    110  C   UNL A   1      40.578  27.144  28.959  1.00  0.00     0.018 A 
ATOM    111  C   UNL A   1      40.948  28.903  27.383  1.00  0.00     0.018 A 
ATOM    112  C   UNL A   1      40.150  28.308  28.348  1.00  0.00     0.018 A 
ATOM    113  Br  UNL A   1      38.490  29.066  28.814  1.00  0.00    -0.051 Br
ENDBRANCH  98 107
ENDBRANCH  95  96
ENDBRANCH  94  95
ENDBRANCH  92  94
ENDBRANCH  88  89
ENDBRANCH  80  83
ENDBRANCH  78  79
ENDBRANCH  77  78
ENDBRANCH   1  77
TORSDOF 21
ENDMDL
MODEL 3
REMARK VINA RESULT:     -11.5      1.522      6.730
REMARK SMILES O=C(NCCCCCCNC(=O)c1ccc(-n2cc(CSc3nc4ccccc4c(=O)n3-c3ccc(Br)cc3)nn2)cc1)c1ccc(-c2c3nc(c(-c4c(F)cc(S(=O)(=O)[O-])cc4F)c4ccc([nH]4)c(-c4c(F)cc(S(=O)(=O)[O-])cc4F)c4nc(c(-c5c(F)cc(S(=O)(=O)[O-])cc5F)c5ccc2[nH]5)C=C4)C=C3)cc1
REMARK SMILES IDX 7 1 6 2 5 3 4 4 3 5 1 6 2 7 44 9 45 10 109 11 46 12 108 13
REMARK SMILES IDX 47 14 48 15 49 16 102 17 50 18 107 19 101 20 103 21 51 22
REMARK SMILES IDX 106 23 100 24 99 25 52 27 86 28 65 29 85 30 66 31 69 32
REMARK SMILES IDX 84 33 104 34 67 35 68 36 83 38 105 39 70 40 53 41 54 42
REMARK SMILES IDX 63 43 55 44 56 45 62 46 64 47 57 48 58 49 59 50 60 51 61 52
REMARK SMILES IDX 87 53 88 54 97 55 89 56 90 57 96 58 98 59 91 60 92 61 93 62
REMARK SMILES IDX 94 63 95 64 71 65 72 66 81 67 73 68 74 69 80 70 82 71 75 72
REMARK SMILES IDX 76 73 77 74 78 75 79 76 8 77 9 78 10 79 11 80 12 82 13 83
REMARK SMILES IDX 14 84 43 85 15 86 42 87 16 88 17 89 18 90 41 91 19 92 40 93
REMARK SMILES IDX 20 94 21 95 22 96 23 97 32 98 24 99 30 100 25 101 29 102
REMARK SMILES IDX 31 103 26 104 28 105 27 106 33 107 34 108 39 109 35 110
REMARK SMILES IDX 38 111 36 112 37 113
REMARK H PARENT 3 8 103 26 69 37 10 81
REMARK Flexibility Score: inf
ROOT
ATOM      1  C   UNL A   1      34.316  35.831  33.661  1.00  0.00     0.002 C 
ENDROOT
BRANCH   1   2
ATOM      2  C   UNL A   1      34.700  34.464  33.080  1.00  0.00     0.002 C 
BRANCH   2   3
ATOM      3  C   UNL A   1      35.757  33.674  33.863  1.00  0.00     0.021 C 
BRANCH   3   4
ATOM      4  C   UNL A   1      36.819  32.997  33.001  1.00  0.00     0.116 C 
BRANCH   4   5
ATOM      5  N   UNL A   1      37.276  33.796  31.883  1.00  0.00    -0.352 N 
ATOM      6  O   UNL A   1      38.331  34.549  30.093  1.00  0.00    -0.269 OA
ATOM      7  C   UNL A   1      38.278  33.671  30.960  1.00  0.00     0.251 C 
ATOM      8  H   UNL A   1      36.745  34.617  31.759  1.00  0.00     0.163 HD
BRANCH   7   9
ATOM      9  C   UNL A   1      39.309  32.597  30.957  1.00  0.00     0.039 A 
ATOM     10  C   UNL A   1      39.465  31.624  29.968  1.00  0.00     0.014 A 
ATOM     11  C   UNL A   1      40.215  32.606  32.035  1.00  0.00     0.014 A 
ATOM     12  C   UNL A   1      40.465  30.658  30.075  1.00  0.00     0.010 A 
ATOM     13  C   UNL A   1      41.230  31.656  32.135  1.00  0.00     0.010 A 
ATOM     14  C   UNL A   1      41.345  30.669  31.158  1.00  0.00    -0.014 A 
BRANCH  14  15
ATOM     15  C   UNL A   1      42.470  29.730  31.139  1.00  0.00     0.031 A 
ATOM     16  C   UNL A   1      43.687  30.193  30.399  1.00  0.00     0.074 A 
ATOM     17  C   UNL A   1      42.525  28.603  31.877  1.00  0.00     0.049 A 
ATOM     18  N   UNL A   1      44.316  29.616  29.424  1.00  0.00    -0.248 NA
ATOM     19  C   UNL A   1      44.234  31.510  30.763  1.00  0.00     0.031 C 
ATOM     20  C   UNL A   1      41.585  28.163  32.909  1.00  0.00     0.029 A 
ATOM     21  N   UNL A   1      43.515  27.665  31.935  1.00  0.00    -0.354 N 
ATOM     22  C   UNL A   1      45.442  30.403  29.170  1.00  0.00     0.074 A 
ATOM     23  C   UNL A   1      45.277  31.610  29.938  1.00  0.00     0.031 C 
ATOM     24  C   UNL A   1      42.156  27.173  33.632  1.00  0.00     0.029 A 
ATOM     25  C   UNL A   1      43.439  26.829  33.040  1.00  0.00     0.049 A 
ATOM     26  H   UNL A   1      44.221  27.588  31.253  1.00  0.00     0.167 HD
ATOM     27  C   UNL A   1      46.523  29.944  28.478  1.00  0.00     0.037 A 
ATOM     28  C   UNL A   1      44.394  25.973  33.483  1.00  0.00     0.037 A 
ATOM     29  C   UNL A   1      46.208  28.777  27.700  1.00  0.00     0.049 A 
ATOM     30  C   UNL A   1      45.326  25.708  32.358  1.00  0.00     0.074 A 
ATOM     31  C   UNL A   1      45.322  28.500  26.678  1.00  0.00     0.029 A 
ATOM     32  N   UNL A   1      46.650  27.557  28.145  1.00  0.00    -0.354 N 
ATOM     33  N   UNL A   1      45.017  25.041  31.281  1.00  0.00    -0.248 NA
ATOM     34  C   UNL A   1      46.531  26.517  32.265  1.00  0.00     0.031 C 
ATOM     35  C   UNL A   1      44.913  27.152  26.896  1.00  0.00     0.029 A 
ATOM     36  C   UNL A   1      45.599  26.685  28.017  1.00  0.00     0.049 A 
ATOM     37  H   UNL A   1      47.548  27.347  28.491  1.00  0.00     0.167 HD
ATOM     38  C   UNL A   1      45.734  25.653  30.265  1.00  0.00     0.074 A 
ATOM     39  C   UNL A   1      46.728  26.475  30.945  1.00  0.00     0.031 C 
ATOM     40  C   UNL A   1      45.285  25.649  28.976  1.00  0.00     0.037 A 
BRANCH  27  41
ATOM     41  C   UNL A   1      47.948  30.383  28.731  1.00  0.00     0.058 A 
ATOM     42  C   UNL A   1      48.654  31.097  27.739  1.00  0.00     0.135 A 
ATOM     43  C   UNL A   1      48.731  29.890  29.799  1.00  0.00     0.135 A 
ATOM     44  F   UNL A   1      48.014  31.597  26.671  1.00  0.00    -0.206 F 
ATOM     45  C   UNL A   1      50.041  31.253  27.773  1.00  0.00     0.059 A 
ATOM     46  C   UNL A   1      50.107  30.081  29.880  1.00  0.00     0.059 A 
ATOM     47  F   UNL A   1      48.212  29.117  30.760  1.00  0.00    -0.206 F 
ATOM     48  C   UNL A   1      50.760  30.725  28.842  1.00  0.00     0.060 A 
BRANCH  48  49
ATOM     49  S   UNL A   1      52.560  30.817  28.831  1.00  0.00     0.124 S 
ATOM     50  O   UNL A   1      52.845  31.078  30.238  1.00  0.00    -0.237 OA
ATOM     51  O   UNL A   1      52.931  29.494  28.339  1.00  0.00    -0.237 OA
ATOM     52  O   UNL A   1      52.834  31.918  27.913  1.00  0.00    -0.744 OA
ENDBRANCH  48  49
ENDBRANCH  27  41
BRANCH  28  53
ATOM     53  C   UNL A   1      44.723  25.608  34.886  1.00  0.00     0.058 A 
ATOM     54  C   UNL A   1      44.309  24.382  35.437  1.00  0.00     0.135 A 
ATOM     55  C   UNL A   1      45.684  26.326  35.626  1.00  0.00     0.135 A 
ATOM     56  F   UNL A   1      43.417  23.617  34.789  1.00  0.00    -0.206 F 
ATOM     57  C   UNL A   1      44.850  23.876  36.624  1.00  0.00     0.059 A 
ATOM     58  C   UNL A   1      46.225  25.852  36.818  1.00  0.00     0.059 A 
ATOM     59  F   UNL A   1      46.201  27.473  35.161  1.00  0.00    -0.206 F 
ATOM     60  C   UNL A   1      45.823  24.613  37.298  1.00  0.00     0.060 A 
BRANCH  60  61
ATOM     61  S   UNL A   1      46.655  23.887  38.731  1.00  0.00     0.124 S 
ATOM     62  O   UNL A   1      46.563  24.965  39.710  1.00  0.00    -0.237 OA
ATOM     63  O   UNL A   1      45.835  22.710  39.000  1.00  0.00    -0.237 OA
ATOM     64  O   UNL A   1      47.999  23.606  38.235  1.00  0.00    -0.744 OA
ENDBRANCH  60  61
ENDBRANCH  28  53
BRANCH  40  65
ATOM     65  C   UNL A   1      44.188  24.687  28.598  1.00  0.00     0.058 A 
ATOM     66  C   UNL A   1      42.816  24.951  28.749  1.00  0.00     0.135 A 
ATOM     67  C   UNL A   1      44.543  23.516  27.910  1.00  0.00     0.135 A 
ATOM     68  F   UNL A   1      42.389  26.099  29.297  1.00  0.00    -0.206 F 
ATOM     69  C   UNL A   1      41.843  24.072  28.272  1.00  0.00     0.059 A 
ATOM     70  C   UNL A   1      43.589  22.642  27.396  1.00  0.00     0.059 A 
ATOM     71  F   UNL A   1      45.837  23.238  27.677  1.00  0.00    -0.206 F 
ATOM     72  C   UNL A   1      42.238  22.921  27.592  1.00  0.00     0.060 A 
BRANCH  72  73
ATOM     73  S   UNL A   1      40.976  21.842  26.882  1.00  0.00     0.124 S 
ATOM     74  O   UNL A   1      39.885  22.775  26.622  1.00  0.00    -0.237 OA
ATOM     75  O   UNL A   1      41.645  21.303  25.701  1.00  0.00    -0.237 OA
ATOM     76  O   UNL A   1      40.725  20.867  27.942  1.00  0.00    -0.744 OA
ENDBRANCH  72  73
ENDBRANCH  40  65
ENDBRANCH  14  15
ENDBRANCH   7   9
ENDBRANCH   4   5
ENDBRANCH   3   4
ENDBRANCH   2   3
ENDBRANCH   1   2
BRANCH   1  77
ATOM     77  C   UNL A   1      33.195  36.576  32.928  1.00  0.00     0.021 C 
BRANCH  77  78
ATOM     78  C   UNL A   1      32.732  35.925  31.627  1.00  0.00     0.116 C 
BRANCH  78  79
ATOM     79  N   UNL A   1      32.835  36.834  30.498  1.00  0.00    -0.352 N 
ATOM     80  C   UNL A   1      33.300  36.596  29.227  1.00  0.00     0.251 C 
ATOM     81  H   UNL A   1      32.526  37.754  30.669  1.00  0.00     0.163 HD
ATOM     82  O   UNL A   1      33.476  37.510  28.440  1.00  0.00    -0.269 OA
BRANCH  80  83
ATOM     83  C   UNL A   1      33.605  35.208  28.817  1.00  0.00     0.039 A 
ATOM     84  C   UNL A   1      32.652  34.493  28.085  1.00  0.00     0.016 A 
ATOM     85  C   UNL A   1      34.807  34.606  29.194  1.00  0.00     0.016 A 
ATOM     86  C   UNL A   1      32.921  33.182  27.684  1.00  0.00     0.029 A 
ATOM     87  C   UNL A   1      35.073  33.293  28.809  1.00  0.00     0.029 A 
ATOM     88  C   UNL A   1      34.125  32.571  28.061  1.00  0.00     0.066 A 
BRANCH  88  89
ATOM     89  N   UNL A   1      34.358  31.214  27.733  1.00  0.00    -0.220 N 
ATOM     90  C   UNL A   1      33.621  30.425  26.889  1.00  0.00     0.141 A 
ATOM     91  N   UNL A   1      35.396  30.489  28.219  1.00  0.00    -0.062 NA
ATOM     92  C   UNL A   1      34.286  29.221  26.825  1.00  0.00     0.093 A 
ATOM     93  N   UNL A   1      35.344  29.269  27.689  1.00  0.00    -0.134 NA
BRANCH  92  94
ATOM     94  C   UNL A   1      33.867  27.983  26.136  1.00  0.00     0.138 C 
BRANCH  94  95
ATOM     95  S   UNL A   1      32.310  27.168  26.504  1.00  0.00    -0.081 SA
BRANCH  95  96
ATOM     96  C   UNL A   1      31.171  27.361  25.196  1.00  0.00     0.176 A 
ATOM     97  N   UNL A   1      31.129  28.596  24.787  1.00  0.00    -0.223 NA
ATOM     98  N   UNL A   1      30.419  26.350  24.600  1.00  0.00    -0.255 N 
ATOM     99  C   UNL A   1      30.237  28.940  23.770  1.00  0.00     0.079 A 
ATOM    100  C   UNL A   1      29.184  26.782  24.088  1.00  0.00     0.266 A 
ATOM    101  C   UNL A   1      30.358  30.157  23.098  1.00  0.00     0.029 A 
ATOM    102  C   UNL A   1      29.166  28.117  23.472  1.00  0.00     0.066 A 
ATOM    103  O   UNL A   1      28.120  26.166  24.127  1.00  0.00    -0.268 OA
ATOM    104  C   UNL A   1      29.381  30.558  22.178  1.00  0.00     0.002 A 
ATOM    105  C   UNL A   1      28.158  28.519  22.589  1.00  0.00     0.016 A 
ATOM    106  C   UNL A   1      28.267  29.751  21.946  1.00  0.00     0.001 A 
BRANCH  98 107
ATOM    107  C   UNL A   1      30.745  24.932  24.514  1.00  0.00     0.051 A 
ATOM    108  C   UNL A   1      30.565  24.087  25.631  1.00  0.00     0.028 A 
ATOM    109  C   UNL A   1      31.213  24.290  23.358  1.00  0.00     0.028 A 
ATOM    110  C   UNL A   1      31.035  22.768  25.668  1.00  0.00     0.018 A 
ATOM    111  C   UNL A   1      31.732  22.983  23.391  1.00  0.00     0.018 A 
ATOM    112  C   UNL A   1      31.678  22.243  24.562  1.00  0.00     0.018 A 
ATOM    113  Br  UNL A   1      32.488  20.545  24.656  1.00  0.00    -0.051 Br
ENDBRANCH  98 107
ENDBRANCH  95  96
ENDBRANCH  94  95
ENDBRANCH  92  94
ENDBRANCH  88  89
ENDBRANCH  80  83
ENDBRANCH  78  79
ENDBRANCH  77  78
ENDBRANCH   1  77
TORSDOF 21
ENDMDL
