MODEL 1
REMARK VINA RESULT:     -12.8      0.000      0.000
REMARK SMILES Cc1cccc(C[C@H](C(=O)NCCCCCCNC(=O)c2ccc(-c3c4nc(c(-c5c(F)cc(S(=O)(=O)[O-])cc5F)c5ccc([nH]5)c(-c5c(F)cc(S(=O)(=O)[O-])cc5F)c5nc(c(-c6c(F)cc(S(=O)(=O)[O-])cc6F)c6ccc3[nH]6)C=C5)C=C4)cc2)[C@@H]2CCCC[C@@H]2O)c1
REMARK SMILES IDX 15 1 14 2 13 3 12 4 11 5 9 6 10 7 8 9 7 10 6 11 1 12 2 13
REMARK SMILES IDX 3 14 94 15 4 16 5 17 87 18 88 19 92 20 89 21 91 22 90 23
REMARK SMILES IDX 93 24 16 26 17 27 18 28 19 29 20 31 21 32 22 33 86 34 23 35
REMARK SMILES IDX 85 36 24 37 25 38 26 39 79 40 27 41 84 42 78 43 80 44 28 45
REMARK SMILES IDX 83 46 77 47 76 48 29 50 63 51 42 52 62 53 43 54 46 55 61 56
REMARK SMILES IDX 81 57 44 58 45 59 60 61 82 62 47 63 30 64 31 65 40 66 32 67
REMARK SMILES IDX 33 68 39 69 41 70 34 71 35 72 36 73 37 74 38 75 64 76 65 77
REMARK SMILES IDX 74 78 66 79 67 80 73 81 75 82 68 83 69 84 70 85 71 86 72 87
REMARK SMILES IDX 48 88 49 89 58 90 50 91 51 92 57 93 59 94 52 95 53 96 54 97
REMARK SMILES IDX 55 98 56 99
REMARK H PARENT 11 8 93 25 18 30 80 49 46 60
REMARK Flexibility Score: inf
ROOT
ATOM      1  C   UNL A   1      31.347  29.131  24.821  1.00  0.00     0.002 C 
ENDROOT
BRANCH   1   2
ATOM      2  C   UNL A   1      30.292  29.709  23.863  1.00  0.00     0.002 C 
BRANCH   2   3
ATOM      3  C   UNL A   1      30.195  29.078  22.466  1.00  0.00     0.021 C 
BRANCH   3   4
ATOM      4  C   UNL A   1      30.455  27.569  22.402  1.00  0.00     0.116 C 
BRANCH   4   5
ATOM      5  N   UNL A   1      31.713  27.259  21.746  1.00  0.00    -0.356 N 
ATOM      6  C   UNL A   1      32.547  26.185  21.859  1.00  0.00     0.223 C 
ATOM      7  O   UNL A   1      33.585  26.230  21.189  1.00  0.00    -0.275 OA
ATOM      8  H   UNL A   1      32.018  27.943  21.107  1.00  0.00     0.163 HD
BRANCH   6   9
ATOM      9  C   UNL A   1      32.211  24.963  22.764  1.00  0.00     0.088 C 
BRANCH   9  10
ATOM     10  C   UNL A   1      33.234  23.853  22.363  1.00  0.00     0.049 C 
BRANCH  10  11
ATOM     11  C   UNL A   1      33.325  22.526  23.082  1.00  0.00    -0.047 A 
ATOM     12  C   UNL A   1      35.975  20.681  25.147  1.00  0.00     0.044 C 
ATOM     13  C   UNL A   1      34.683  21.015  24.463  1.00  0.00    -0.051 A 
ATOM     14  C   UNL A   1      33.609  20.126  24.529  1.00  0.00     0.003 A 
ATOM     15  C   UNL A   1      34.522  22.219  23.763  1.00  0.00     0.007 A 
ATOM     16  C   UNL A   1      32.437  20.396  23.826  1.00  0.00     0.001 A 
ATOM     17  C   UNL A   1      32.318  21.566  23.069  1.00  0.00     0.004 A 
ENDBRANCH  10  11
ENDBRANCH   9  10
BRANCH   9  18
ATOM     18  C   UNL A   1      32.180  25.428  24.268  1.00  0.00     0.030 C 
ATOM     19  C   UNL A   1      33.506  25.893  24.891  1.00  0.00     0.007 C 
ATOM     20  C   UNL A   1      31.336  24.590  25.264  1.00  0.00     0.118 C 
ATOM     21  C   UNL A   1      34.256  24.816  25.664  1.00  0.00     0.001 C 
ATOM     22  C   UNL A   1      32.096  23.598  26.144  1.00  0.00     0.032 C 
ATOM     23  C   UNL A   1      33.379  24.165  26.725  1.00  0.00     0.003 C 
BRANCH  20  24
ATOM     24  O   UNL A   1      30.238  23.950  24.619  1.00  0.00    -0.393 OA
ATOM     25  H   UNL A   1      30.166  23.036  24.936  1.00  0.00     0.210 HD
ENDBRANCH  20  24
ENDBRANCH   9  18
ENDBRANCH   6   9
ENDBRANCH   4   5
ENDBRANCH   3   4
ENDBRANCH   2   3
ENDBRANCH   1   2
BRANCH   1  26
ATOM     26  C   UNL A   1      31.655  29.942  26.083  1.00  0.00     0.021 C 
BRANCH  26  27
ATOM     27  C   UNL A   1      33.007  29.655  26.715  1.00  0.00     0.116 C 
BRANCH  27  28
ATOM     28  N   UNL A   1      34.030  30.665  26.502  1.00  0.00    -0.352 N 
ATOM     29  C   UNL A   1      34.665  31.170  27.637  1.00  0.00     0.251 C 
ATOM     30  H   UNL A   1      34.265  30.979  25.599  1.00  0.00     0.163 HD
ATOM     31  O   UNL A   1      34.258  32.090  28.322  1.00  0.00    -0.269 OA
BRANCH  29  32
ATOM     32  C   UNL A   1      35.719  30.256  28.134  1.00  0.00     0.039 A 
ATOM     33  C   UNL A   1      35.744  29.805  29.452  1.00  0.00     0.014 A 
ATOM     34  C   UNL A   1      36.817  30.089  27.287  1.00  0.00     0.014 A 
ATOM     35  C   UNL A   1      36.937  29.289  29.967  1.00  0.00     0.010 A 
ATOM     36  C   UNL A   1      38.009  29.653  27.818  1.00  0.00     0.010 A 
ATOM     37  C   UNL A   1      38.080  29.283  29.169  1.00  0.00    -0.014 A 
BRANCH  37  38
ATOM     38  C   UNL A   1      39.426  28.962  29.629  1.00  0.00     0.031 A 
ATOM     39  C   UNL A   1      40.038  27.659  29.277  1.00  0.00     0.074 A 
ATOM     40  C   UNL A   1      40.189  29.951  30.144  1.00  0.00     0.049 A 
ATOM     41  N   UNL A   1      41.189  27.259  29.703  1.00  0.00    -0.248 NA
ATOM     42  C   UNL A   1      39.361  26.661  28.446  1.00  0.00     0.031 C 
ATOM     43  C   UNL A   1      41.648  30.026  30.163  1.00  0.00     0.029 A 
ATOM     44  N   UNL A   1      39.778  31.001  30.967  1.00  0.00    -0.354 N 
ATOM     45  C   UNL A   1      41.540  26.163  28.953  1.00  0.00     0.074 A 
ATOM     46  C   UNL A   1      40.323  25.741  28.313  1.00  0.00     0.031 C 
ATOM     47  C   UNL A   1      42.029  30.888  31.118  1.00  0.00     0.029 A 
ATOM     48  C   UNL A   1      40.838  31.247  31.865  1.00  0.00     0.049 A 
ATOM     49  H   UNL A   1      38.916  31.477  30.929  1.00  0.00     0.167 HD
ATOM     50  C   UNL A   1      42.859  25.849  28.824  1.00  0.00     0.037 A 
ATOM     51  C   UNL A   1      40.686  31.036  33.209  1.00  0.00     0.037 A 
ATOM     52  C   UNL A   1      43.662  26.520  29.845  1.00  0.00     0.049 A 
ATOM     53  C   UNL A   1      41.617  29.995  33.789  1.00  0.00     0.074 A 
ATOM     54  C   UNL A   1      44.587  27.547  29.817  1.00  0.00     0.029 A 
ATOM     55  N   UNL A   1      43.373  26.287  31.189  1.00  0.00    -0.354 N 
ATOM     56  N   UNL A   1      42.306  29.146  33.077  1.00  0.00    -0.248 NA
ATOM     57  C   UNL A   1      41.835  29.820  35.223  1.00  0.00     0.031 C 
ATOM     58  C   UNL A   1      44.743  28.022  31.150  1.00  0.00     0.029 A 
ATOM     59  C   UNL A   1      43.962  27.243  31.990  1.00  0.00     0.049 A 
ATOM     60  H   UNL A   1      42.821  25.542  31.521  1.00  0.00     0.167 HD
ATOM     61  C   UNL A   1      42.989  28.296  33.905  1.00  0.00     0.074 A 
ATOM     62  C   UNL A   1      42.694  28.785  35.240  1.00  0.00     0.031 C 
ATOM     63  C   UNL A   1      43.724  27.248  33.428  1.00  0.00     0.037 A 
BRANCH  50  64
ATOM     64  C   UNL A   1      43.450  25.097  27.643  1.00  0.00     0.058 A 
ATOM     65  C   UNL A   1      43.595  23.694  27.688  1.00  0.00     0.135 A 
ATOM     66  C   UNL A   1      44.034  25.710  26.509  1.00  0.00     0.135 A 
ATOM     67  F   UNL A   1      43.113  22.985  28.720  1.00  0.00    -0.206 F 
ATOM     68  C   UNL A   1      44.268  22.964  26.698  1.00  0.00     0.059 A 
ATOM     69  C   UNL A   1      44.660  24.998  25.484  1.00  0.00     0.059 A 
ATOM     70  F   UNL A   1      44.100  27.038  26.366  1.00  0.00    -0.206 F 
ATOM     71  C   UNL A   1      44.802  23.626  25.599  1.00  0.00     0.060 A 
BRANCH  71  72
ATOM     72  S   UNL A   1      45.705  22.709  24.337  1.00  0.00     0.124 S 
ATOM     73  O   UNL A   1      46.307  21.636  25.121  1.00  0.00    -0.237 OA
ATOM     74  O   UNL A   1      44.648  22.310  23.414  1.00  0.00    -0.237 OA
ATOM     75  O   UNL A   1      46.644  23.697  23.809  1.00  0.00    -0.744 OA
ENDBRANCH  71  72
ENDBRANCH  50  64
BRANCH  51  76
ATOM     76  C   UNL A   1      39.301  31.322  33.679  1.00  0.00     0.058 A 
ATOM     77  C   UNL A   1      38.997  32.660  33.995  1.00  0.00     0.135 A 
ATOM     78  C   UNL A   1      38.237  30.479  33.326  1.00  0.00     0.135 A 
ATOM     79  F   UNL A   1      39.977  33.499  34.372  1.00  0.00    -0.206 F 
ATOM     80  C   UNL A   1      37.736  33.195  33.757  1.00  0.00     0.059 A 
ATOM     81  C   UNL A   1      36.958  30.993  33.098  1.00  0.00     0.059 A 
ATOM     82  F   UNL A   1      38.463  29.189  33.035  1.00  0.00    -0.206 F 
ATOM     83  C   UNL A   1      36.751  32.368  33.223  1.00  0.00     0.060 A 
BRANCH  83  84
ATOM     84  S   UNL A   1      35.283  33.153  32.512  1.00  0.00     0.124 S 
ATOM     85  O   UNL A   1      34.997  32.295  31.368  1.00  0.00    -0.237 OA
ATOM     86  O   UNL A   1      34.330  33.069  33.622  1.00  0.00    -0.237 OA
ATOM     87  O   UNL A   1      35.743  34.500  32.191  1.00  0.00    -0.744 OA
ENDBRANCH  83  84
ENDBRANCH  51  76
BRANCH  63  88
ATOM     88  C   UNL A   1      44.340  26.166  34.285  1.00  0.00     0.058 A 
ATOM     89  C   UNL A   1      43.607  25.134  34.896  1.00  0.00     0.135 A 
ATOM     90  C   UNL A   1      45.747  26.070  34.411  1.00  0.00     0.135 A 
ATOM     91  F   UNL A   1      42.277  25.043  34.744  1.00  0.00    -0.206 F 
ATOM     92  C   UNL A   1      44.213  24.128  35.653  1.00  0.00     0.059 A 
ATOM     93  C   UNL A   1      46.375  25.047  35.117  1.00  0.00     0.059 A 
ATOM     94  F   UNL A   1      46.559  26.975  33.843  1.00  0.00    -0.206 F 
ATOM     95  C   UNL A   1      45.598  24.096  35.764  1.00  0.00     0.060 A 
BRANCH  95  96
ATOM     96  S   UNL A   1      46.397  22.785  36.710  1.00  0.00     0.124 S 
ATOM     97  O   UNL A   1      47.781  22.904  36.260  1.00  0.00    -0.237 OA
ATOM     98  O   UNL A   1      46.150  23.181  38.094  1.00  0.00    -0.237 OA
ATOM     99  O   UNL A   1      45.691  21.585  36.274  1.00  0.00    -0.744 OA
ENDBRANCH  95  96
ENDBRANCH  63  88
ENDBRANCH  37  38
ENDBRANCH  29  32
ENDBRANCH  27  28
ENDBRANCH  26  27
ENDBRANCH   1  26
TORSDOF 20
ENDMDL
MODEL 2
REMARK VINA RESULT:     -12.7      3.699     10.055
REMARK SMILES Cc1cccc(C[C@H](C(=O)NCCCCCCNC(=O)c2ccc(-c3c4nc(c(-c5c(F)cc(S(=O)(=O)[O-])cc5F)c5ccc([nH]5)c(-c5c(F)cc(S(=O)(=O)[O-])cc5F)c5nc(c(-c6c(F)cc(S(=O)(=O)[O-])cc6F)c6ccc3[nH]6)C=C5)C=C4)cc2)[C@@H]2CCCC[C@@H]2O)c1
REMARK SMILES IDX 15 1 14 2 13 3 12 4 11 5 9 6 10 7 8 9 7 10 6 11 1 12 2 13
REMARK SMILES IDX 3 14 94 15 4 16 5 17 87 18 88 19 92 20 89 21 91 22 90 23
REMARK SMILES IDX 93 24 16 26 17 27 18 28 19 29 20 31 21 32 22 33 86 34 23 35
REMARK SMILES IDX 85 36 24 37 25 38 26 39 79 40 27 41 84 42 78 43 80 44 28 45
REMARK SMILES IDX 83 46 77 47 76 48 29 50 63 51 42 52 62 53 43 54 46 55 61 56
REMARK SMILES IDX 81 57 44 58 45 59 60 61 82 62 47 63 30 64 31 65 40 66 32 67
REMARK SMILES IDX 33 68 39 69 41 70 34 71 35 72 36 73 37 74 38 75 64 76 65 77
REMARK SMILES IDX 74 78 66 79 67 80 73 81 75 82 68 83 69 84 70 85 71 86 72 87
REMARK SMILES IDX 48 88 49 89 58 90 50 91 51 92 57 93 59 94 52 95 53 96 54 97
REMARK SMILES IDX 55 98 56 99
REMARK H PARENT 11 8 93 25 18 30 80 49 46 60
REMARK Flexibility Score: inf
ROOT
ATOM      1  C   UNL A   1      35.933  23.570  26.002  1.00  0.00     0.002 C 
ENDROOT
BRANCH   1   2
ATOM      2  C   UNL A   1      34.630  22.793  26.255  1.00  0.00     0.002 C 
BRANCH   2   3
ATOM      3  C   UNL A   1      34.315  21.628  25.305  1.00  0.00     0.021 C 
BRANCH   3   4
ATOM      4  C   UNL A   1      33.253  21.914  24.237  1.00  0.00     0.116 C 
BRANCH   4   5
ATOM      5  N   UNL A   1      33.763  22.763  23.174  1.00  0.00    -0.356 N 
ATOM      6  C   UNL A   1      33.528  24.074  22.878  1.00  0.00     0.223 C 
ATOM      7  O   UNL A   1      34.085  24.511  21.865  1.00  0.00    -0.275 OA
ATOM      8  H   UNL A   1      34.388  22.314  22.560  1.00  0.00     0.163 HD
BRANCH   6   9
ATOM      9  C   UNL A   1      32.625  24.978  23.768  1.00  0.00     0.088 C 
BRANCH   9  10
ATOM     10  C   UNL A   1      33.582  26.051  24.379  1.00  0.00     0.049 C 
BRANCH  10  11
ATOM     11  C   UNL A   1      33.177  26.951  25.525  1.00  0.00    -0.047 A 
ATOM     12  C   UNL A   1      34.589  30.100  27.194  1.00  0.00     0.044 C 
ATOM     13  C   UNL A   1      33.687  28.949  26.860  1.00  0.00    -0.051 A 
ATOM     14  C   UNL A   1      32.507  28.756  27.581  1.00  0.00     0.003 A 
ATOM     15  C   UNL A   1      33.998  28.060  25.821  1.00  0.00     0.007 A 
ATOM     16  C   UNL A   1      31.711  27.642  27.328  1.00  0.00     0.001 A 
ATOM     17  C   UNL A   1      32.073  26.722  26.339  1.00  0.00     0.004 A 
ENDBRANCH  10  11
ENDBRANCH   9  10
BRANCH   9  18
ATOM     18  C   UNL A   1      31.402  25.483  22.916  1.00  0.00     0.030 C 
ATOM     19  C   UNL A   1      31.612  26.734  22.048  1.00  0.00     0.007 C 
ATOM     20  C   UNL A   1      30.002  25.475  23.588  1.00  0.00     0.118 C 
ATOM     21  C   UNL A   1      31.174  28.040  22.700  1.00  0.00     0.001 C 
ATOM     22  C   UNL A   1      29.492  26.811  24.128  1.00  0.00     0.032 C 
ATOM     23  C   UNL A   1      29.733  27.976  23.184  1.00  0.00     0.003 C 
BRANCH  20  24
ATOM     24  O   UNL A   1      29.899  24.460  24.582  1.00  0.00    -0.393 OA
ATOM     25  H   UNL A   1      29.373  23.722  24.237  1.00  0.00     0.210 HD
ENDBRANCH  20  24
ENDBRANCH   9  18
ENDBRANCH   6   9
ENDBRANCH   4   5
ENDBRANCH   3   4
ENDBRANCH   2   3
ENDBRANCH   1   2
BRANCH   1  26
ATOM     26  C   UNL A   1      36.731  23.195  24.750  1.00  0.00     0.021 C 
BRANCH  26  27
ATOM     27  C   UNL A   1      37.913  22.272  24.997  1.00  0.00     0.116 C 
BRANCH  27  28
ATOM     28  N   UNL A   1      38.310  22.113  26.386  1.00  0.00    -0.352 N 
ATOM     29  C   UNL A   1      39.586  22.557  26.733  1.00  0.00     0.251 C 
ATOM     30  H   UNL A   1      37.707  21.710  27.052  1.00  0.00     0.163 HD
ATOM     31  O   UNL A   1      40.611  21.909  26.629  1.00  0.00    -0.269 OA
BRANCH  29  32
ATOM     32  C   UNL A   1      39.627  24.025  26.925  1.00  0.00     0.039 A 
ATOM     33  C   UNL A   1      40.420  24.852  26.132  1.00  0.00     0.014 A 
ATOM     34  C   UNL A   1      39.039  24.493  28.103  1.00  0.00     0.014 A 
ATOM     35  C   UNL A   1      40.730  26.135  26.592  1.00  0.00     0.010 A 
ATOM     36  C   UNL A   1      39.409  25.726  28.588  1.00  0.00     0.010 A 
ATOM     37  C   UNL A   1      40.282  26.537  27.850  1.00  0.00    -0.014 A 
BRANCH  37  38
ATOM     38  C   UNL A   1      40.687  27.758  28.536  1.00  0.00     0.031 A 
ATOM     39  C   UNL A   1      39.781  28.930  28.560  1.00  0.00     0.074 A 
ATOM     40  C   UNL A   1      41.761  27.715  29.356  1.00  0.00     0.049 A 
ATOM     41  N   UNL A   1      40.087  30.074  29.074  1.00  0.00    -0.248 NA
ATOM     42  C   UNL A   1      38.455  28.922  27.940  1.00  0.00     0.031 C 
ATOM     43  C   UNL A   1      42.031  28.574  30.507  1.00  0.00     0.029 A 
ATOM     44  N   UNL A   1      42.949  27.010  29.165  1.00  0.00    -0.354 N 
ATOM     45  C   UNL A   1      38.925  30.800  29.167  1.00  0.00     0.074 A 
ATOM     46  C   UNL A   1      37.988  30.119  28.314  1.00  0.00     0.031 C 
ATOM     47  C   UNL A   1      43.343  28.538  30.781  1.00  0.00     0.029 A 
ATOM     48  C   UNL A   1      43.982  27.807  29.702  1.00  0.00     0.049 A 
ATOM     49  H   UNL A   1      43.048  26.127  28.738  1.00  0.00     0.167 HD
ATOM     50  C   UNL A   1      38.842  31.794  30.094  1.00  0.00     0.037 A 
ATOM     51  C   UNL A   1      44.959  28.329  28.898  1.00  0.00     0.037 A 
ATOM     52  C   UNL A   1      40.168  32.176  30.577  1.00  0.00     0.049 A 
ATOM     53  C   UNL A   1      45.014  29.840  28.880  1.00  0.00     0.074 A 
ATOM     54  C   UNL A   1      40.836  32.019  31.777  1.00  0.00     0.029 A 
ATOM     55  N   UNL A   1      41.113  32.629  29.657  1.00  0.00    -0.354 N 
ATOM     56  N   UNL A   1      44.066  30.616  29.330  1.00  0.00    -0.248 NA
ATOM     57  C   UNL A   1      46.139  30.599  28.338  1.00  0.00     0.031 C 
ATOM     58  C   UNL A   1      42.220  32.246  31.533  1.00  0.00     0.029 A 
ATOM     59  C   UNL A   1      42.380  32.602  30.203  1.00  0.00     0.049 A 
ATOM     60  H   UNL A   1      40.905  32.927  28.742  1.00  0.00     0.167 HD
ATOM     61  C   UNL A   1      44.393  31.926  29.101  1.00  0.00     0.074 A 
ATOM     62  C   UNL A   1      45.720  31.865  28.514  1.00  0.00     0.031 C 
ATOM     63  C   UNL A   1      43.539  32.953  29.391  1.00  0.00     0.037 A 
BRANCH  50  64
ATOM     64  C   UNL A   1      37.544  32.277  30.720  1.00  0.00     0.058 A 
ATOM     65  C   UNL A   1      36.767  33.267  30.080  1.00  0.00     0.135 A 
ATOM     66  C   UNL A   1      37.092  31.923  32.013  1.00  0.00     0.135 A 
ATOM     67  F   UNL A   1      37.094  33.718  28.860  1.00  0.00    -0.206 F 
ATOM     68  C   UNL A   1      35.644  33.859  30.677  1.00  0.00     0.059 A 
ATOM     69  C   UNL A   1      35.947  32.459  32.604  1.00  0.00     0.059 A 
ATOM     70  F   UNL A   1      37.778  31.096  32.811  1.00  0.00    -0.206 F 
ATOM     71  C   UNL A   1      35.243  33.451  31.943  1.00  0.00     0.060 A 
BRANCH  71  72
ATOM     72  S   UNL A   1      33.827  34.229  32.742  1.00  0.00     0.124 S 
ATOM     73  O   UNL A   1      33.101  33.072  33.256  1.00  0.00    -0.237 OA
ATOM     74  O   UNL A   1      34.455  35.085  33.743  1.00  0.00    -0.237 OA
ATOM     75  O   UNL A   1      33.170  34.940  31.647  1.00  0.00    -0.744 OA
ENDBRANCH  71  72
ENDBRANCH  50  64
BRANCH  51  76
ATOM     76  C   UNL A   1      45.300  27.433  27.757  1.00  0.00     0.058 A 
ATOM     77  C   UNL A   1      46.200  26.382  28.017  1.00  0.00     0.135 A 
ATOM     78  C   UNL A   1      44.418  27.282  26.677  1.00  0.00     0.135 A 
ATOM     79  F   UNL A   1      47.088  26.493  29.020  1.00  0.00    -0.206 F 
ATOM     80  C   UNL A   1      46.083  25.151  27.382  1.00  0.00     0.059 A 
ATOM     81  C   UNL A   1      44.296  26.059  26.014  1.00  0.00     0.059 A 
ATOM     82  F   UNL A   1      43.552  28.260  26.369  1.00  0.00    -0.206 F 
ATOM     83  C   UNL A   1      45.065  24.978  26.447  1.00  0.00     0.060 A 
BRANCH  83  84
ATOM     84  S   UNL A   1      44.642  23.285  25.963  1.00  0.00     0.124 S 
ATOM     85  O   UNL A   1      43.678  22.904  26.988  1.00  0.00    -0.237 OA
ATOM     86  O   UNL A   1      44.094  23.485  24.619  1.00  0.00    -0.237 OA
ATOM     87  O   UNL A   1      45.924  22.590  26.012  1.00  0.00    -0.744 OA
ENDBRANCH  83  84
ENDBRANCH  51  76
BRANCH  63  88
ATOM     88  C   UNL A   1      43.754  34.394  28.990  1.00  0.00     0.058 A 
ATOM     89  C   UNL A   1      44.092  35.419  29.891  1.00  0.00     0.135 A 
ATOM     90  C   UNL A   1      43.746  34.762  27.624  1.00  0.00     0.135 A 
ATOM     91  F   UNL A   1      44.254  35.168  31.199  1.00  0.00    -0.206 F 
ATOM     92  C   UNL A   1      44.318  36.735  29.481  1.00  0.00     0.059 A 
ATOM     93  C   UNL A   1      44.020  36.057  27.187  1.00  0.00     0.059 A 
ATOM     94  F   UNL A   1      43.473  33.866  26.663  1.00  0.00    -0.206 F 
ATOM     95  C   UNL A   1      44.273  37.047  28.127  1.00  0.00     0.060 A 
BRANCH  95  96
ATOM     96  S   UNL A   1      44.597  38.734  27.579  1.00  0.00     0.124 S 
ATOM     97  O   UNL A   1      43.268  39.160  27.151  1.00  0.00    -0.237 OA
ATOM     98  O   UNL A   1      45.106  39.380  28.786  1.00  0.00    -0.237 OA
ATOM     99  O   UNL A   1      45.577  38.553  26.513  1.00  0.00    -0.744 OA
ENDBRANCH  95  96
ENDBRANCH  63  88
ENDBRANCH  37  38
ENDBRANCH  29  32
ENDBRANCH  27  28
ENDBRANCH  26  27
ENDBRANCH   1  26
TORSDOF 20
ENDMDL
MODEL 3
REMARK VINA RESULT:     -12.6      4.080     10.172
REMARK SMILES Cc1cccc(C[C@H](C(=O)NCCCCCCNC(=O)c2ccc(-c3c4nc(c(-c5c(F)cc(S(=O)(=O)[O-])cc5F)c5ccc([nH]5)c(-c5c(F)cc(S(=O)(=O)[O-])cc5F)c5nc(c(-c6c(F)cc(S(=O)(=O)[O-])cc6F)c6ccc3[nH]6)C=C5)C=C4)cc2)[C@@H]2CCCC[C@@H]2O)c1
REMARK SMILES IDX 15 1 14 2 13 3 12 4 11 5 9 6 10 7 8 9 7 10 6 11 1 12 2 13
REMARK SMILES IDX 3 14 94 15 4 16 5 17 87 18 88 19 92 20 89 21 91 22 90 23
REMARK SMILES IDX 93 24 16 26 17 27 18 28 19 29 20 31 21 32 22 33 86 34 23 35
REMARK SMILES IDX 85 36 24 37 25 38 26 39 79 40 27 41 84 42 78 43 80 44 28 45
REMARK SMILES IDX 83 46 77 47 76 48 29 50 63 51 42 52 62 53 43 54 46 55 61 56
REMARK SMILES IDX 81 57 44 58 45 59 60 61 82 62 47 63 30 64 31 65 40 66 32 67
REMARK SMILES IDX 33 68 39 69 41 70 34 71 35 72 36 73 37 74 38 75 64 76 65 77
REMARK SMILES IDX 74 78 66 79 67 80 73 81 75 82 68 83 69 84 70 85 71 86 72 87
REMARK SMILES IDX 48 88 49 89 58 90 50 91 51 92 57 93 59 94 52 95 53 96 54 97
REMARK SMILES IDX 55 98 56 99
REMARK H PARENT 11 8 93 25 18 30 80 49 46 60
REMARK Flexibility Score: inf
ROOT
ATOM      1  C   UNL A   1      35.419  23.178  25.429  1.00  0.00     0.002 C 
ENDROOT
BRANCH   1   2
ATOM      2  C   UNL A   1      35.018  21.975  26.301  1.00  0.00     0.002 C 
BRANCH   2   3
ATOM      3  C   UNL A   1      34.588  20.695  25.571  1.00  0.00     0.021 C 
BRANCH   3   4
ATOM      4  C   UNL A   1      33.089  20.572  25.277  1.00  0.00     0.116 C 
BRANCH   4   5
ATOM      5  N   UNL A   1      32.791  20.771  23.869  1.00  0.00    -0.356 N 
ATOM      6  C   UNL A   1      32.496  21.900  23.162  1.00  0.00     0.223 C 
ATOM      7  O   UNL A   1      32.242  21.739  21.963  1.00  0.00    -0.275 OA
ATOM      8  H   UNL A   1      32.806  19.947  23.330  1.00  0.00     0.163 HD
BRANCH   6   9
ATOM      9  C   UNL A   1      32.492  23.313  23.816  1.00  0.00     0.088 C 
BRANCH   9  10
ATOM     10  C   UNL A   1      33.190  24.253  22.782  1.00  0.00     0.049 C 
BRANCH  10  11
ATOM     11  C   UNL A   1      33.432  25.723  23.045  1.00  0.00    -0.047 A 
ATOM     12  C   UNL A   1      34.030  27.913  26.134  1.00  0.00     0.044 C 
ATOM     13  C   UNL A   1      33.867  27.478  24.708  1.00  0.00    -0.051 A 
ATOM     14  C   UNL A   1      33.968  28.414  23.677  1.00  0.00     0.003 A 
ATOM     15  C   UNL A   1      33.627  26.136  24.380  1.00  0.00     0.007 A 
ATOM     16  C   UNL A   1      33.736  28.028  22.359  1.00  0.00     0.001 A 
ATOM     17  C   UNL A   1      33.422  26.700  22.056  1.00  0.00     0.004 A 
ENDBRANCH  10  11
ENDBRANCH   9  10
BRANCH   9  18
ATOM     18  C   UNL A   1      31.025  23.671  24.262  1.00  0.00     0.030 C 
ATOM     19  C   UNL A   1      30.159  24.468  23.273  1.00  0.00     0.007 C 
ATOM     20  C   UNL A   1      30.810  24.141  25.725  1.00  0.00     0.118 C 
ATOM     21  C   UNL A   1      30.160  25.974  23.499  1.00  0.00     0.001 C 
ATOM     22  C   UNL A   1      30.674  25.647  25.950  1.00  0.00     0.032 C 
ATOM     23  C   UNL A   1      29.783  26.332  24.930  1.00  0.00     0.003 C 
BRANCH  20  24
ATOM     24  O   UNL A   1      31.785  23.588  26.606  1.00  0.00    -0.393 OA
ATOM     25  H   UNL A   1      32.521  23.228  26.088  1.00  0.00     0.210 HD
ENDBRANCH  20  24
ENDBRANCH   9  18
ENDBRANCH   6   9
ENDBRANCH   4   5
ENDBRANCH   3   4
ENDBRANCH   2   3
ENDBRANCH   1   2
BRANCH   1  26
ATOM     26  C   UNL A   1      36.914  23.489  25.324  1.00  0.00     0.021 C 
BRANCH  26  27
ATOM     27  C   UNL A   1      37.825  22.273  25.356  1.00  0.00     0.116 C 
BRANCH  27  28
ATOM     28  N   UNL A   1      38.622  22.113  26.561  1.00  0.00    -0.352 N 
ATOM     29  C   UNL A   1      39.886  22.706  26.567  1.00  0.00     0.251 C 
ATOM     30  H   UNL A   1      38.288  21.610  27.338  1.00  0.00     0.163 HD
ATOM     31  O   UNL A   1      40.903  22.200  26.130  1.00  0.00    -0.269 OA
BRANCH  29  32
ATOM     32  C   UNL A   1      39.814  24.158  26.848  1.00  0.00     0.039 A 
ATOM     33  C   UNL A   1      40.391  25.103  26.003  1.00  0.00     0.014 A 
ATOM     34  C   UNL A   1      39.371  24.500  28.128  1.00  0.00     0.014 A 
ATOM     35  C   UNL A   1      40.643  26.387  26.496  1.00  0.00     0.010 A 
ATOM     36  C   UNL A   1      39.691  25.739  28.634  1.00  0.00     0.010 A 
ATOM     37  C   UNL A   1      40.357  26.674  27.830  1.00  0.00    -0.014 A 
BRANCH  37  38
ATOM     38  C   UNL A   1      40.743  27.895  28.529  1.00  0.00     0.031 A 
ATOM     39  C   UNL A   1      39.819  29.053  28.564  1.00  0.00     0.074 A 
ATOM     40  C   UNL A   1      41.817  27.861  29.349  1.00  0.00     0.049 A 
ATOM     41  N   UNL A   1      40.107  30.196  29.089  1.00  0.00    -0.248 NA
ATOM     42  C   UNL A   1      38.493  29.030  27.943  1.00  0.00     0.031 C 
ATOM     43  C   UNL A   1      42.073  28.712  30.508  1.00  0.00     0.029 A 
ATOM     44  N   UNL A   1      43.016  27.175  29.151  1.00  0.00    -0.354 N 
ATOM     45  C   UNL A   1      38.934  30.903  29.189  1.00  0.00     0.074 A 
ATOM     46  C   UNL A   1      38.008  30.216  28.328  1.00  0.00     0.031 C 
ATOM     47  C   UNL A   1      43.386  28.693  30.783  1.00  0.00     0.029 A 
ATOM     48  C   UNL A   1      44.036  27.982  29.697  1.00  0.00     0.049 A 
ATOM     49  H   UNL A   1      43.129  26.298  28.716  1.00  0.00     0.167 HD
ATOM     50  C   UNL A   1      38.835  31.886  30.125  1.00  0.00     0.037 A 
ATOM     51  C   UNL A   1      45.005  28.528  28.899  1.00  0.00     0.037 A 
ATOM     52  C   UNL A   1      40.155  32.284  30.612  1.00  0.00     0.049 A 
ATOM     53  C   UNL A   1      45.037  30.040  28.896  1.00  0.00     0.074 A 
ATOM     54  C   UNL A   1      40.825  32.125  31.811  1.00  0.00     0.029 A 
ATOM     55  N   UNL A   1      41.094  32.760  29.698  1.00  0.00    -0.354 N 
ATOM     56  N   UNL A   1      44.077  30.796  29.352  1.00  0.00    -0.248 NA
ATOM     57  C   UNL A   1      46.151  30.821  28.362  1.00  0.00     0.031 C 
ATOM     58  C   UNL A   1      42.205  32.376  31.570  1.00  0.00     0.029 A 
ATOM     59  C   UNL A   1      42.361  32.747  30.244  1.00  0.00     0.049 A 
ATOM     60  H   UNL A   1      40.881  33.064  28.785  1.00  0.00     0.167 HD
ATOM     61  C   UNL A   1      44.384  32.114  29.136  1.00  0.00     0.074 A 
ATOM     62  C   UNL A   1      45.712  32.078  28.550  1.00  0.00     0.031 C 
ATOM     63  C   UNL A   1      43.515  33.124  29.436  1.00  0.00     0.037 A 
BRANCH  50  64
ATOM     64  C   UNL A   1      37.530  32.343  30.755  1.00  0.00     0.058 A 
ATOM     65  C   UNL A   1      36.711  33.287  30.098  1.00  0.00     0.135 A 
ATOM     66  C   UNL A   1      37.107  32.012  32.064  1.00  0.00     0.135 A 
ATOM     67  F   UNL A   1      37.007  33.714  28.861  1.00  0.00    -0.206 F 
ATOM     68  C   UNL A   1      35.577  33.858  30.693  1.00  0.00     0.059 A 
ATOM     69  C   UNL A   1      35.952  32.526  32.655  1.00  0.00     0.059 A 
ATOM     70  F   UNL A   1      37.831  31.232  32.875  1.00  0.00    -0.206 F 
ATOM     71  C   UNL A   1      35.206  33.474  31.976  1.00  0.00     0.060 A 
BRANCH  71  72
ATOM     72  S   UNL A   1      33.775  34.227  32.772  1.00  0.00     0.124 S 
ATOM     73  O   UNL A   1      34.403  35.035  33.813  1.00  0.00    -0.237 OA
ATOM     74  O   UNL A   1      33.153  34.966  31.679  1.00  0.00    -0.237 OA
ATOM     75  O   UNL A   1      33.012  33.077  33.253  1.00  0.00    -0.744 OA
ENDBRANCH  71  72
ENDBRANCH  50  64
BRANCH  51  76
ATOM     76  C   UNL A   1      45.360  27.649  27.749  1.00  0.00     0.058 A 
ATOM     77  C   UNL A   1      44.836  28.000  26.490  1.00  0.00     0.135 A 
ATOM     78  C   UNL A   1      46.530  26.876  27.773  1.00  0.00     0.135 A 
ATOM     79  F   UNL A   1      43.698  28.711  26.414  1.00  0.00    -0.206 F 
ATOM     80  C   UNL A   1      45.553  27.788  25.319  1.00  0.00     0.059 A 
ATOM     81  C   UNL A   1      47.258  26.637  26.606  1.00  0.00     0.059 A 
ATOM     82  F   UNL A   1      47.064  26.493  28.943  1.00  0.00    -0.206 F 
ATOM     83  C   UNL A   1      46.806  27.186  25.404  1.00  0.00     0.060 A 
BRANCH  83  84
ATOM     84  S   UNL A   1      47.904  27.314  23.971  1.00  0.00     0.124 S 
ATOM     85  O   UNL A   1      47.157  28.203  23.089  1.00  0.00    -0.237 OA
ATOM     86  O   UNL A   1      49.114  27.885  24.569  1.00  0.00    -0.237 OA
ATOM     87  O   UNL A   1      48.030  25.933  23.517  1.00  0.00    -0.744 OA
ENDBRANCH  83  84
ENDBRANCH  51  76
BRANCH  63  88
ATOM     88  C   UNL A   1      43.708  34.572  29.049  1.00  0.00     0.058 A 
ATOM     89  C   UNL A   1      43.622  35.051  27.730  1.00  0.00     0.135 A 
ATOM     90  C   UNL A   1      43.866  35.562  30.048  1.00  0.00     0.135 A 
ATOM     91  F   UNL A   1      43.349  34.227  26.708  1.00  0.00    -0.206 F 
ATOM     92  C   UNL A   1      43.772  36.403  27.412  1.00  0.00     0.059 A 
ATOM     93  C   UNL A   1      43.965  36.921  29.758  1.00  0.00     0.059 A 
ATOM     94  F   UNL A   1      43.926  35.235  31.348  1.00  0.00    -0.206 F 
ATOM     95  C   UNL A   1      43.950  37.331  28.432  1.00  0.00     0.060 A 
BRANCH  95  96
ATOM     96  S   UNL A   1      44.110  39.084  28.039  1.00  0.00     0.124 S 
ATOM     97  O   UNL A   1      45.144  39.499  28.982  1.00  0.00    -0.237 OA
ATOM     98  O   UNL A   1      44.509  39.070  26.634  1.00  0.00    -0.237 OA
ATOM     99  O   UNL A   1      42.771  39.604  28.298  1.00  0.00    -0.744 OA
ENDBRANCH  95  96
ENDBRANCH  63  88
ENDBRANCH  37  38
ENDBRANCH  29  32
ENDBRANCH  27  28
ENDBRANCH  26  27
ENDBRANCH   1  26
TORSDOF 20
ENDMDL
