MODEL 1
REMARK VINA RESULT:     -11.9      0.000      0.000
REMARK SMILES CC1(C)S[C@H](c2ccc([N+](=O)[O-])cc2)[NH2+][C@@H]1C(=O)NCCCCCCNC(=O)c1ccc(-c2c3nc(c(-c4c(F)cc(S(=O)(=O)[O-])cc4F)c4ccc([nH]4)c(-c4c(F)cc(S(=O)(=O)[O-])cc4F)c4nc(c(-c5c(F)cc(S(=O)(=O)[O-])cc5F)c5ccc2[nH]5)C=C4)C=C3)cc1
REMARK SMILES IDX 23 1 22 2 21 3 20 4 19 5 17 6 18 7 16 9 1 10 2 11 3 12 4 13
REMARK SMILES IDX 5 14 15 15 6 18 7 19 14 20 8 21 13 22 9 23 10 24 11 25 12 26
REMARK SMILES IDX 24 27 25 28 26 29 27 30 28 32 29 33 30 34 94 35 31 36 93 37
REMARK SMILES IDX 32 38 33 39 34 40 87 41 35 42 92 43 86 44 88 45 36 46 91 47
REMARK SMILES IDX 85 48 84 49 37 51 71 52 50 53 70 54 51 55 54 56 69 57 89 58
REMARK SMILES IDX 52 59 53 60 68 62 90 63 55 64 38 65 39 66 48 67 40 68 41 69
REMARK SMILES IDX 47 70 49 71 42 72 43 73 44 74 45 75 46 76 72 77 73 78 82 79
REMARK SMILES IDX 74 80 75 81 81 82 83 83 76 84 77 85 78 86 79 87 80 88 56 89
REMARK SMILES IDX 57 90 66 91 58 92 59 93 65 94 67 95 60 96 61 97 62 98 63 99
REMARK SMILES IDX 64 100
REMARK H PARENT 19 8 15 16 15 17 26 31 88 50 54 61
REMARK Flexibility Score: inf
ROOT
ATOM      1  C   UNL A   1      35.153  31.825  27.631  1.00  0.00     0.002 C 
ENDROOT
BRANCH   1   2
ATOM      2  C   UNL A   1      33.649  31.544  27.626  1.00  0.00     0.002 C 
BRANCH   2   3
ATOM      3  C   UNL A   1      33.193  30.102  27.350  1.00  0.00     0.021 C 
BRANCH   3   4
ATOM      4  C   UNL A   1      34.127  29.203  26.532  1.00  0.00     0.116 C 
BRANCH   4   5
ATOM      5  N   UNL A   1      34.052  29.434  25.100  1.00  0.00    -0.351 N 
ATOM      6  C   UNL A   1      33.278  28.808  24.154  1.00  0.00     0.279 C 
ATOM      7  O   UNL A   1      33.263  29.325  23.038  1.00  0.00    -0.268 OA
ATOM      8  H   UNL A   1      34.644  30.143  24.756  1.00  0.00     0.163 HD
BRANCH   6   9
ATOM      9  C   UNL A   1      32.553  27.481  24.502  1.00  0.00     0.289 C 
ATOM     10  C   UNL A   1      32.412  24.983  24.074  1.00  0.00     0.030 C 
ATOM     11  C   UNL A   1      32.496  26.376  23.413  1.00  0.00     0.077 C 
ATOM     12  C   UNL A   1      33.631  26.337  22.386  1.00  0.00     0.030 C 
ATOM     13  S   UNL A   1      30.921  26.685  22.547  1.00  0.00    -0.081 SA
ATOM     14  C   UNL A   1      30.214  27.699  23.867  1.00  0.00     0.274 C 
ATOM     15  N   UNL A   1      31.162  27.733  25.000  1.00  0.00    -0.320 N 
ATOM     16  H   UNL A   1      30.908  27.012  25.675  1.00  0.00     0.348 HD
ATOM     17  H   UNL A   1      31.123  28.649  25.445  1.00  0.00     0.348 HD
BRANCH  14  18
ATOM     18  C   UNL A   1      29.716  29.055  23.378  1.00  0.00     0.021 A 
ATOM     19  C   UNL A   1      29.911  30.234  24.108  1.00  0.00     0.018 A 
ATOM     20  C   UNL A   1      28.992  29.162  22.173  1.00  0.00     0.018 A 
ATOM     21  C   UNL A   1      29.436  31.471  23.675  1.00  0.00     0.086 A 
ATOM     22  C   UNL A   1      28.501  30.398  21.724  1.00  0.00     0.086 A 
ATOM     23  C   UNL A   1      28.731  31.551  22.481  1.00  0.00     0.269 A 
BRANCH  23  24
ATOM     24  N   UNL A   1      28.239  32.857  22.030  1.00  0.00     0.062 N 
ATOM     25  O   UNL A   1      28.404  33.828  22.784  1.00  0.00    -0.258 OA
ATOM     26  O   UNL A   1      27.698  32.916  20.916  1.00  0.00    -0.258 OA
ENDBRANCH  23  24
ENDBRANCH  14  18
ENDBRANCH   6   9
ENDBRANCH   4   5
ENDBRANCH   3   4
ENDBRANCH   2   3
ENDBRANCH   1   2
BRANCH   1  27
ATOM     27  C   UNL A   1      35.612  33.109  28.324  1.00  0.00     0.021 C 
BRANCH  27  28
ATOM     28  C   UNL A   1      36.507  32.912  29.541  1.00  0.00     0.116 C 
BRANCH  28  29
ATOM     29  N   UNL A   1      36.015  31.897  30.456  1.00  0.00    -0.352 N 
ATOM     30  C   UNL A   1      36.548  30.669  30.759  1.00  0.00     0.251 C 
ATOM     31  H   UNL A   1      35.179  32.120  30.925  1.00  0.00     0.163 HD
ATOM     32  O   UNL A   1      35.911  29.901  31.484  1.00  0.00    -0.269 OA
BRANCH  30  33
ATOM     33  C   UNL A   1      37.860  30.245  30.215  1.00  0.00     0.039 A 
ATOM     34  C   UNL A   1      38.909  30.006  31.110  1.00  0.00     0.014 A 
ATOM     35  C   UNL A   1      38.088  30.125  28.841  1.00  0.00     0.014 A 
ATOM     36  C   UNL A   1      40.166  29.626  30.631  1.00  0.00     0.010 A 
ATOM     37  C   UNL A   1      39.319  29.668  28.369  1.00  0.00     0.010 A 
ATOM     38  C   UNL A   1      40.378  29.438  29.256  1.00  0.00    -0.014 A 
BRANCH  38  39
ATOM     39  C   UNL A   1      41.716  29.043  28.739  1.00  0.00     0.031 A 
ATOM     40  C   UNL A   1      42.823  30.061  28.642  1.00  0.00     0.074 A 
ATOM     41  C   UNL A   1      41.927  27.775  28.337  1.00  0.00     0.049 A 
ATOM     42  N   UNL A   1      44.053  29.909  28.222  1.00  0.00    -0.248 NA
ATOM     43  C   UNL A   1      42.498  31.440  29.043  1.00  0.00     0.031 C 
ATOM     44  C   UNL A   1      40.920  26.711  28.329  1.00  0.00     0.029 A 
ATOM     45  N   UNL A   1      43.058  27.162  27.857  1.00  0.00    -0.354 N 
ATOM     46  C   UNL A   1      44.643  31.166  28.301  1.00  0.00     0.074 A 
ATOM     47  C   UNL A   1      43.618  32.083  28.746  1.00  0.00     0.031 C 
ATOM     48  C   UNL A   1      41.486  25.572  27.902  1.00  0.00     0.029 A 
ATOM     49  C   UNL A   1      42.886  25.828  27.575  1.00  0.00     0.049 A 
ATOM     50  H   UNL A   1      43.913  27.634  27.728  1.00  0.00     0.167 HD
ATOM     51  C   UNL A   1      45.927  31.519  28.055  1.00  0.00     0.037 A 
ATOM     52  C   UNL A   1      43.759  24.912  27.109  1.00  0.00     0.037 A 
ATOM     53  C   UNL A   1      46.949  30.594  27.636  1.00  0.00     0.049 A 
ATOM     54  C   UNL A   1      45.183  25.325  26.856  1.00  0.00     0.074 A 
ATOM     55  C   UNL A   1      48.294  30.837  27.415  1.00  0.00     0.029 A 
ATOM     56  N   UNL A   1      46.740  29.247  27.375  1.00  0.00    -0.354 N 
ATOM     57  N   UNL A   1      45.741  26.505  27.003  1.00  0.00    -0.248 NA
ATOM     58  C   UNL A   1      46.103  24.280  26.388  1.00  0.00     0.031 C 
ATOM     59  C   UNL A   1      48.887  29.648  26.975  1.00  0.00     0.029 A 
ATOM     60  C   UNL A   1      47.925  28.651  26.974  1.00  0.00     0.049 A 
ATOM     61  H   UNL A   1      45.875  28.783  27.462  1.00  0.00     0.167 HD
ATOM     62  C   UNL A   1      47.079  26.337  26.668  1.00  0.00     0.074 A 
ATOM     63  C   UNL A   1      47.252  24.939  26.333  1.00  0.00     0.031 C 
ATOM     64  C   UNL A   1      48.077  27.257  26.638  1.00  0.00     0.037 A 
BRANCH  51  65
ATOM     65  C   UNL A   1      46.302  32.967  28.237  1.00  0.00     0.058 A 
ATOM     66  C   UNL A   1      46.771  33.460  29.466  1.00  0.00     0.135 A 
ATOM     67  C   UNL A   1      46.218  33.869  27.164  1.00  0.00     0.135 A 
ATOM     68  F   UNL A   1      46.858  32.649  30.532  1.00  0.00    -0.206 F 
ATOM     69  C   UNL A   1      47.111  34.799  29.633  1.00  0.00     0.059 A 
ATOM     70  C   UNL A   1      46.583  35.206  27.300  1.00  0.00     0.059 A 
ATOM     71  F   UNL A   1      45.776  33.455  25.965  1.00  0.00    -0.206 F 
ATOM     72  C   UNL A   1      47.014  35.665  28.543  1.00  0.00     0.060 A 
BRANCH  72  73
ATOM     73  S   UNL A   1      47.462  37.398  28.776  1.00  0.00     0.124 S 
ATOM     74  O   UNL A   1      47.430  37.895  27.404  1.00  0.00    -0.237 OA
ATOM     75  O   UNL A   1      46.397  37.880  29.650  1.00  0.00    -0.237 OA
ATOM     76  O   UNL A   1      48.785  37.328  29.387  1.00  0.00    -0.744 OA
ENDBRANCH  72  73
ENDBRANCH  51  65
BRANCH  52  77
ATOM     77  C   UNL A   1      43.316  23.510  26.882  1.00  0.00     0.058 A 
ATOM     78  C   UNL A   1      43.133  23.008  25.585  1.00  0.00     0.135 A 
ATOM     79  C   UNL A   1      43.077  22.640  27.957  1.00  0.00     0.135 A 
ATOM     80  F   UNL A   1      43.343  23.802  24.523  1.00  0.00    -0.206 F 
ATOM     81  C   UNL A   1      42.707  21.703  25.359  1.00  0.00     0.059 A 
ATOM     82  C   UNL A   1      42.679  21.321  27.756  1.00  0.00     0.059 A 
ATOM     83  F   UNL A   1      43.256  23.063  29.218  1.00  0.00    -0.206 F 
ATOM     84  C   UNL A   1      42.486  20.865  26.454  1.00  0.00     0.060 A 
BRANCH  84  85
ATOM     85  S   UNL A   1      41.975  19.160  26.151  1.00  0.00     0.124 S 
ATOM     86  O   UNL A   1      42.278  18.530  27.431  1.00  0.00    -0.237 OA
ATOM     87  O   UNL A   1      40.559  19.316  25.835  1.00  0.00    -0.237 OA
ATOM     88  O   UNL A   1      42.818  18.752  25.031  1.00  0.00    -0.744 OA
ENDBRANCH  84  85
ENDBRANCH  52  77
BRANCH  64  89
ATOM     89  C   UNL A   1      49.447  26.770  26.251  1.00  0.00     0.058 A 
ATOM     90  C   UNL A   1      49.934  26.897  24.940  1.00  0.00     0.135 A 
ATOM     91  C   UNL A   1      50.291  26.183  27.207  1.00  0.00     0.135 A 
ATOM     92  F   UNL A   1      49.168  27.448  23.985  1.00  0.00    -0.206 F 
ATOM     93  C   UNL A   1      51.189  26.418  24.581  1.00  0.00     0.059 A 
ATOM     94  C   UNL A   1      51.564  25.728  26.878  1.00  0.00     0.059 A 
ATOM     95  F   UNL A   1      49.883  26.051  28.480  1.00  0.00    -0.206 F 
ATOM     96  C   UNL A   1      51.996  25.831  25.557  1.00  0.00     0.060 A 
BRANCH  96  97
ATOM     97  S   UNL A   1      53.622  25.213  25.078  1.00  0.00     0.124 S 
ATOM     98  O   UNL A   1      53.466  23.779  25.294  1.00  0.00    -0.237 OA
ATOM     99  O   UNL A   1      53.722  25.638  23.685  1.00  0.00    -0.237 OA
ATOM    100  O   UNL A   1      54.529  25.892  26.000  1.00  0.00    -0.744 OA
ENDBRANCH  96  97
ENDBRANCH  64  89
ENDBRANCH  38  39
ENDBRANCH  30  33
ENDBRANCH  28  29
ENDBRANCH  27  28
ENDBRANCH   1  27
TORSDOF 18
ENDMDL
MODEL 2
REMARK VINA RESULT:     -11.7      4.297      7.867
REMARK SMILES CC1(C)S[C@H](c2ccc([N+](=O)[O-])cc2)[NH2+][C@@H]1C(=O)NCCCCCCNC(=O)c1ccc(-c2c3nc(c(-c4c(F)cc(S(=O)(=O)[O-])cc4F)c4ccc([nH]4)c(-c4c(F)cc(S(=O)(=O)[O-])cc4F)c4nc(c(-c5c(F)cc(S(=O)(=O)[O-])cc5F)c5ccc2[nH]5)C=C4)C=C3)cc1
REMARK SMILES IDX 23 1 22 2 21 3 20 4 19 5 17 6 18 7 16 9 1 10 2 11 3 12 4 13
REMARK SMILES IDX 5 14 15 15 6 18 7 19 14 20 8 21 13 22 9 23 10 24 11 25 12 26
REMARK SMILES IDX 24 27 25 28 26 29 27 30 28 32 29 33 30 34 94 35 31 36 93 37
REMARK SMILES IDX 32 38 33 39 34 40 87 41 35 42 92 43 86 44 88 45 36 46 91 47
REMARK SMILES IDX 85 48 84 49 37 51 71 52 50 53 70 54 51 55 54 56 69 57 89 58
REMARK SMILES IDX 52 59 53 60 68 62 90 63 55 64 38 65 39 66 48 67 40 68 41 69
REMARK SMILES IDX 47 70 49 71 42 72 43 73 44 74 45 75 46 76 72 77 73 78 82 79
REMARK SMILES IDX 74 80 75 81 81 82 83 83 76 84 77 85 78 86 79 87 80 88 56 89
REMARK SMILES IDX 57 90 66 91 58 92 59 93 65 94 67 95 60 96 61 97 62 98 63 99
REMARK SMILES IDX 64 100
REMARK H PARENT 19 8 15 16 15 17 26 31 88 50 54 61
REMARK Flexibility Score: inf
ROOT
ATOM      1  C   UNL A   1      36.230  32.821  30.335  1.00  0.00     0.002 C 
ENDROOT
BRANCH   1   2
ATOM      2  C   UNL A   1      37.351  33.078  29.327  1.00  0.00     0.002 C 
BRANCH   2   3
ATOM      3  C   UNL A   1      38.418  34.122  29.698  1.00  0.00     0.021 C 
BRANCH   3   4
ATOM      4  C   UNL A   1      38.332  34.768  31.085  1.00  0.00     0.116 C 
BRANCH   4   5
ATOM      5  N   UNL A   1      39.437  34.417  31.961  1.00  0.00    -0.351 N 
ATOM      6  C   UNL A   1      39.442  33.639  33.092  1.00  0.00     0.279 C 
ATOM      7  O   UNL A   1      40.549  33.341  33.540  1.00  0.00    -0.268 OA
ATOM      8  H   UNL A   1      40.312  34.793  31.705  1.00  0.00     0.163 HD
BRANCH   6   9
ATOM      9  C   UNL A   1      38.102  33.257  33.774  1.00  0.00     0.289 C 
ATOM     10  C   UNL A   1      36.526  33.695  35.715  1.00  0.00     0.030 C 
ATOM     11  C   UNL A   1      37.993  33.430  35.313  1.00  0.00     0.077 C 
ATOM     12  C   UNL A   1      38.860  34.511  35.965  1.00  0.00     0.030 C 
ATOM     13  S   UNL A   1      38.474  31.801  35.978  1.00  0.00    -0.081 SA
ATOM     14  C   UNL A   1      38.215  30.914  34.424  1.00  0.00     0.274 C 
ATOM     15  N   UNL A   1      37.686  31.861  33.420  1.00  0.00    -0.320 N 
ATOM     16  H   UNL A   1      36.668  31.805  33.404  1.00  0.00     0.348 HD
ATOM     17  H   UNL A   1      38.058  31.621  32.501  1.00  0.00     0.348 HD
BRANCH  14  18
ATOM     18  C   UNL A   1      39.428  30.098  33.992  1.00  0.00     0.021 A 
ATOM     19  C   UNL A   1      39.351  29.102  33.010  1.00  0.00     0.018 A 
ATOM     20  C   UNL A   1      40.680  30.292  34.608  1.00  0.00     0.018 A 
ATOM     21  C   UNL A   1      40.453  28.337  32.631  1.00  0.00     0.086 A 
ATOM     22  C   UNL A   1      41.800  29.528  34.244  1.00  0.00     0.086 A 
ATOM     23  C   UNL A   1      41.679  28.552  33.249  1.00  0.00     0.269 A 
BRANCH  23  24
ATOM     24  N   UNL A   1      42.834  27.747  32.840  1.00  0.00     0.062 N 
ATOM     25  O   UNL A   1      42.902  27.397  31.652  1.00  0.00    -0.258 OA
ATOM     26  O   UNL A   1      43.680  27.473  33.704  1.00  0.00    -0.258 OA
ENDBRANCH  23  24
ENDBRANCH  14  18
ENDBRANCH   6   9
ENDBRANCH   4   5
ENDBRANCH   3   4
ENDBRANCH   2   3
ENDBRANCH   1   2
BRANCH   1  27
ATOM     27  C   UNL A   1      34.798  32.864  29.798  1.00  0.00     0.021 C 
BRANCH  27  28
ATOM     28  C   UNL A   1      34.645  32.545  28.316  1.00  0.00     0.116 C 
BRANCH  28  29
ATOM     29  N   UNL A   1      33.940  31.299  28.068  1.00  0.00    -0.352 N 
ATOM     30  C   UNL A   1      34.436  30.023  27.981  1.00  0.00     0.251 C 
ATOM     31  H   UNL A   1      32.967  31.382  27.945  1.00  0.00     0.163 HD
ATOM     32  O   UNL A   1      33.679  29.106  27.649  1.00  0.00    -0.269 OA
BRANCH  30  33
ATOM     33  C   UNL A   1      35.863  29.732  28.255  1.00  0.00     0.039 A 
ATOM     34  C   UNL A   1      36.784  29.862  27.210  1.00  0.00     0.014 A 
ATOM     35  C   UNL A   1      36.301  29.289  29.507  1.00  0.00     0.014 A 
ATOM     36  C   UNL A   1      38.135  29.574  27.428  1.00  0.00     0.010 A 
ATOM     37  C   UNL A   1      37.660  29.081  29.744  1.00  0.00     0.010 A 
ATOM     38  C   UNL A   1      38.588  29.196  28.701  1.00  0.00    -0.014 A 
BRANCH  38  39
ATOM     39  C   UNL A   1      40.023  28.880  28.937  1.00  0.00     0.031 A 
ATOM     40  C   UNL A   1      40.938  29.912  29.544  1.00  0.00     0.074 A 
ATOM     41  C   UNL A   1      40.506  27.673  28.584  1.00  0.00     0.049 A 
ATOM     42  N   UNL A   1      42.212  29.823  29.829  1.00  0.00    -0.248 NA
ATOM     43  C   UNL A   1      40.351  31.228  29.846  1.00  0.00     0.031 C 
ATOM     44  C   UNL A   1      39.734  26.610  27.936  1.00  0.00     0.029 A 
ATOM     45  N   UNL A   1      41.761  27.134  28.719  1.00  0.00    -0.354 N 
ATOM     46  C   UNL A   1      42.579  31.066  30.334  1.00  0.00     0.074 A 
ATOM     47  C   UNL A   1      41.409  31.913  30.256  1.00  0.00     0.031 C 
ATOM     48  C   UNL A   1      40.522  25.537  27.764  1.00  0.00     0.029 A 
ATOM     49  C   UNL A   1      41.861  25.843  28.257  1.00  0.00     0.049 A 
ATOM     50  H   UNL A   1      42.519  27.626  29.112  1.00  0.00     0.167 HD
ATOM     51  C   UNL A   1      43.771  31.458  30.844  1.00  0.00     0.037 A 
ATOM     52  C   UNL A   1      42.912  25.000  28.237  1.00  0.00     0.037 A 
ATOM     53  C   UNL A   1      44.924  30.602  30.942  1.00  0.00     0.049 A 
ATOM     54  C   UNL A   1      44.222  25.453  28.822  1.00  0.00     0.074 A 
ATOM     55  C   UNL A   1      46.162  30.882  31.494  1.00  0.00     0.029 A 
ATOM     56  N   UNL A   1      44.982  29.295  30.476  1.00  0.00    -0.354 N 
ATOM     57  N   UNL A   1      44.531  26.611  29.359  1.00  0.00    -0.248 NA
ATOM     58  C   UNL A   1      45.324  24.482  28.812  1.00  0.00     0.031 C 
ATOM     59  C   UNL A   1      46.983  29.761  31.320  1.00  0.00     0.029 A 
ATOM     60  C   UNL A   1      46.240  28.764  30.709  1.00  0.00     0.049 A 
ATOM     61  H   UNL A   1      44.238  28.816  30.044  1.00  0.00     0.167 HD
ATOM     62  C   UNL A   1      45.854  26.498  29.771  1.00  0.00     0.074 A 
ATOM     63  C   UNL A   1      46.279  25.152  29.442  1.00  0.00     0.031 C 
ATOM     64  C   UNL A   1      46.648  27.423  30.367  1.00  0.00     0.037 A 
BRANCH  51  65
ATOM     65  C   UNL A   1      43.887  32.877  31.341  1.00  0.00     0.058 A 
ATOM     66  C   UNL A   1      43.776  33.193  32.705  1.00  0.00     0.135 A 
ATOM     67  C   UNL A   1      44.139  33.930  30.446  1.00  0.00     0.135 A 
ATOM     68  F   UNL A   1      43.520  32.230  33.604  1.00  0.00    -0.206 F 
ATOM     69  C   UNL A   1      43.879  34.504  33.160  1.00  0.00     0.059 A 
ATOM     70  C   UNL A   1      44.277  35.244  30.884  1.00  0.00     0.059 A 
ATOM     71  F   UNL A   1      44.254  33.688  29.131  1.00  0.00    -0.206 F 
ATOM     72  C   UNL A   1      44.129  35.524  32.241  1.00  0.00     0.060 A 
BRANCH  72  73
ATOM     73  S   UNL A   1      44.262  37.218  32.850  1.00  0.00     0.124 S 
ATOM     74  O   UNL A   1      44.293  37.975  31.601  1.00  0.00    -0.237 OA
ATOM     75  O   UNL A   1      43.047  37.360  33.646  1.00  0.00    -0.237 OA
ATOM     76  O   UNL A   1      45.507  37.211  33.609  1.00  0.00    -0.744 OA
ENDBRANCH  72  73
ENDBRANCH  51  65
BRANCH  52  77
ATOM     77  C   UNL A   1      42.759  23.632  27.671  1.00  0.00     0.058 A 
ATOM     78  C   UNL A   1      42.467  22.535  28.495  1.00  0.00     0.135 A 
ATOM     79  C   UNL A   1      42.891  23.396  26.294  1.00  0.00     0.135 A 
ATOM     80  F   UNL A   1      42.337  22.708  29.820  1.00  0.00    -0.206 F 
ATOM     81  C   UNL A   1      42.334  21.250  27.981  1.00  0.00     0.059 A 
ATOM     82  C   UNL A   1      42.732  22.124  25.751  1.00  0.00     0.059 A 
ATOM     83  F   UNL A   1      43.151  24.414  25.458  1.00  0.00    -0.206 F 
ATOM     84  C   UNL A   1      42.465  21.055  26.605  1.00  0.00     0.060 A 
BRANCH  84  85
ATOM     85  S   UNL A   1      42.247  19.390  25.940  1.00  0.00     0.124 S 
ATOM     86  O   UNL A   1      40.805  19.343  25.731  1.00  0.00    -0.237 OA
ATOM     87  O   UNL A   1      43.066  19.433  24.733  1.00  0.00    -0.237 OA
ATOM     88  O   UNL A   1      42.759  18.534  27.005  1.00  0.00    -0.744 OA
ENDBRANCH  84  85
ENDBRANCH  52  77
BRANCH  64  89
ATOM     89  C   UNL A   1      48.048  26.999  30.721  1.00  0.00     0.058 A 
ATOM     90  C   UNL A   1      48.353  26.421  31.964  1.00  0.00     0.135 A 
ATOM     91  C   UNL A   1      49.095  27.157  29.799  1.00  0.00     0.135 A 
ATOM     92  F   UNL A   1      47.391  26.250  32.884  1.00  0.00    -0.206 F 
ATOM     93  C   UNL A   1      49.654  26.058  32.297  1.00  0.00     0.059 A 
ATOM     94  C   UNL A   1      50.397  26.770  30.098  1.00  0.00     0.059 A 
ATOM     95  F   UNL A   1      48.857  27.689  28.589  1.00  0.00    -0.206 F 
ATOM     96  C   UNL A   1      50.670  26.240  31.358  1.00  0.00     0.060 A 
BRANCH  96  97
ATOM     97  S   UNL A   1      52.354  25.766  31.803  1.00  0.00     0.124 S 
ATOM     98  O   UNL A   1      52.618  26.649  32.934  1.00  0.00    -0.237 OA
ATOM     99  O   UNL A   1      52.207  24.350  32.123  1.00  0.00    -0.237 OA
ATOM    100  O   UNL A   1      53.119  26.051  30.592  1.00  0.00    -0.744 OA
ENDBRANCH  96  97
ENDBRANCH  64  89
ENDBRANCH  38  39
ENDBRANCH  30  33
ENDBRANCH  28  29
ENDBRANCH  27  28
ENDBRANCH   1  27
TORSDOF 18
ENDMDL
MODEL 3
REMARK VINA RESULT:     -11.6      4.131     11.016
REMARK SMILES CC1(C)S[C@H](c2ccc([N+](=O)[O-])cc2)[NH2+][C@@H]1C(=O)NCCCCCCNC(=O)c1ccc(-c2c3nc(c(-c4c(F)cc(S(=O)(=O)[O-])cc4F)c4ccc([nH]4)c(-c4c(F)cc(S(=O)(=O)[O-])cc4F)c4nc(c(-c5c(F)cc(S(=O)(=O)[O-])cc5F)c5ccc2[nH]5)C=C4)C=C3)cc1
REMARK SMILES IDX 23 1 22 2 21 3 20 4 19 5 17 6 18 7 16 9 1 10 2 11 3 12 4 13
REMARK SMILES IDX 5 14 15 15 6 18 7 19 14 20 8 21 13 22 9 23 10 24 11 25 12 26
REMARK SMILES IDX 24 27 25 28 26 29 27 30 28 32 29 33 30 34 94 35 31 36 93 37
REMARK SMILES IDX 32 38 33 39 34 40 87 41 35 42 92 43 86 44 88 45 36 46 91 47
REMARK SMILES IDX 85 48 84 49 37 51 71 52 50 53 70 54 51 55 54 56 69 57 89 58
REMARK SMILES IDX 52 59 53 60 68 62 90 63 55 64 38 65 39 66 48 67 40 68 41 69
REMARK SMILES IDX 47 70 49 71 42 72 43 73 44 74 45 75 46 76 72 77 73 78 82 79
REMARK SMILES IDX 74 80 75 81 81 82 83 83 76 84 77 85 78 86 79 87 80 88 56 89
REMARK SMILES IDX 57 90 66 91 58 92 59 93 65 94 67 95 60 96 61 97 62 98 63 99
REMARK SMILES IDX 64 100
REMARK H PARENT 19 8 15 16 15 17 26 31 88 50 54 61
REMARK Flexibility Score: inf
ROOT
ATOM      1  C   UNL A   1      36.179  33.007  30.279  1.00  0.00     0.002 C 
ENDROOT
BRANCH   1   2
ATOM      2  C   UNL A   1      37.385  33.017  29.338  1.00  0.00     0.002 C 
BRANCH   2   3
ATOM      3  C   UNL A   1      38.469  34.080  29.578  1.00  0.00     0.021 C 
BRANCH   3   4
ATOM      4  C   UNL A   1      38.456  34.821  30.919  1.00  0.00     0.116 C 
BRANCH   4   5
ATOM      5  N   UNL A   1      39.522  34.417  31.820  1.00  0.00    -0.351 N 
ATOM      6  C   UNL A   1      39.468  33.607  32.927  1.00  0.00     0.279 C 
ATOM      7  O   UNL A   1      40.551  33.267  33.402  1.00  0.00    -0.268 OA
ATOM      8  H   UNL A   1      40.413  34.776  31.604  1.00  0.00     0.163 HD
BRANCH   6   9
ATOM      9  C   UNL A   1      38.096  33.242  33.553  1.00  0.00     0.289 C 
ATOM     10  C   UNL A   1      36.432  33.726  35.407  1.00  0.00     0.030 C 
ATOM     11  C   UNL A   1      37.915  33.450  35.081  1.00  0.00     0.077 C 
ATOM     12  C   UNL A   1      38.751  34.546  35.748  1.00  0.00     0.030 C 
ATOM     13  S   UNL A   1      38.361  31.837  35.807  1.00  0.00    -0.081 SA
ATOM     14  C   UNL A   1      38.175  30.915  34.262  1.00  0.00     0.274 C 
ATOM     15  N   UNL A   1      37.696  31.838  33.212  1.00  0.00    -0.320 N 
ATOM     16  H   UNL A   1      36.680  31.782  33.150  1.00  0.00     0.348 HD
ATOM     17  H   UNL A   1      38.111  31.576  32.318  1.00  0.00     0.348 HD
BRANCH  14  18
ATOM     18  C   UNL A   1      39.406  30.087  33.907  1.00  0.00     0.021 A 
ATOM     19  C   UNL A   1      40.661  30.325  34.481  1.00  0.00     0.018 A 
ATOM     20  C   UNL A   1      39.329  29.066  32.939  1.00  0.00     0.018 A 
ATOM     21  C   UNL A   1      41.793  29.587  34.140  1.00  0.00     0.086 A 
ATOM     22  C   UNL A   1      40.459  28.315  32.578  1.00  0.00     0.086 A 
ATOM     23  C   UNL A   1      41.690  28.580  33.187  1.00  0.00     0.269 A 
BRANCH  23  24
ATOM     24  N   UNL A   1      42.884  27.804  32.838  1.00  0.00     0.062 N 
ATOM     25  O   UNL A   1      43.679  27.528  33.749  1.00  0.00    -0.258 OA
ATOM     26  O   UNL A   1      43.022  27.462  31.655  1.00  0.00    -0.258 OA
ENDBRANCH  23  24
ENDBRANCH  14  18
ENDBRANCH   6   9
ENDBRANCH   4   5
ENDBRANCH   3   4
ENDBRANCH   2   3
ENDBRANCH   1   2
BRANCH   1  27
ATOM     27  C   UNL A   1      34.796  32.970  29.626  1.00  0.00     0.021 C 
BRANCH  27  28
ATOM     28  C   UNL A   1      34.767  32.478  28.183  1.00  0.00     0.116 C 
BRANCH  28  29
ATOM     29  N   UNL A   1      34.060  31.219  28.021  1.00  0.00    -0.352 N 
ATOM     30  C   UNL A   1      34.562  29.943  27.965  1.00  0.00     0.251 C 
ATOM     31  H   UNL A   1      33.082  31.291  27.941  1.00  0.00     0.163 HD
ATOM     32  O   UNL A   1      33.797  29.009  27.708  1.00  0.00    -0.269 OA
BRANCH  30  33
ATOM     33  C   UNL A   1      36.002  29.673  28.184  1.00  0.00     0.039 A 
ATOM     34  C   UNL A   1      36.421  29.274  29.458  1.00  0.00     0.014 A 
ATOM     35  C   UNL A   1      36.951  29.850  27.173  1.00  0.00     0.014 A 
ATOM     36  C   UNL A   1      37.775  29.032  29.707  1.00  0.00     0.010 A 
ATOM     37  C   UNL A   1      38.290  29.530  27.400  1.00  0.00     0.010 A 
ATOM     38  C   UNL A   1      38.721  29.143  28.676  1.00  0.00    -0.014 A 
BRANCH  38  39
ATOM     39  C   UNL A   1      40.164  28.896  28.936  1.00  0.00     0.031 A 
ATOM     40  C   UNL A   1      40.783  27.567  28.584  1.00  0.00     0.074 A 
ATOM     41  C   UNL A   1      40.912  29.859  29.510  1.00  0.00     0.049 A 
ATOM     42  N   UNL A   1      42.019  27.165  28.731  1.00  0.00    -0.248 NA
ATOM     43  C   UNL A   1      39.888  26.545  28.018  1.00  0.00     0.031 C 
ATOM     44  C   UNL A   1      40.417  31.166  29.947  1.00  0.00     0.029 A 
ATOM     45  N   UNL A   1      42.249  29.890  29.822  1.00  0.00    -0.354 N 
ATOM     46  C   UNL A   1      42.049  25.848  28.284  1.00  0.00     0.074 A 
ATOM     47  C   UNL A   1      40.694  25.497  27.923  1.00  0.00     0.031 C 
ATOM     48  C   UNL A   1      41.441  31.882  30.439  1.00  0.00     0.029 A 
ATOM     49  C   UNL A   1      42.658  31.077  30.382  1.00  0.00     0.049 A 
ATOM     50  H   UNL A   1      42.858  29.133  29.661  1.00  0.00     0.167 HD
ATOM     51  C   UNL A   1      43.112  25.018  28.158  1.00  0.00     0.037 A 
ATOM     52  C   UNL A   1      43.877  31.474  30.797  1.00  0.00     0.037 A 
ATOM     53  C   UNL A   1      44.463  25.383  28.496  1.00  0.00     0.049 A 
ATOM     54  C   UNL A   1      45.043  30.539  30.633  1.00  0.00     0.074 A 
ATOM     55  C   UNL A   1      45.620  24.637  28.352  1.00  0.00     0.029 A 
ATOM     56  N   UNL A   1      44.840  26.601  29.046  1.00  0.00    -0.354 N 
ATOM     57  N   UNL A   1      45.065  29.321  30.144  1.00  0.00    -0.248 NA
ATOM     58  C   UNL A   1      46.357  31.037  31.065  1.00  0.00     0.031 C 
ATOM     59  C   UNL A   1      46.689  25.386  28.859  1.00  0.00     0.029 A 
ATOM     60  C   UNL A   1      46.207  26.619  29.268  1.00  0.00     0.049 A 
ATOM     61  H   UNL A   1      44.225  27.344  29.248  1.00  0.00     0.167 HD
ATOM     62  C   UNL A   1      46.394  28.917  30.188  1.00  0.00     0.074 A 
ATOM     63  C   UNL A   1      47.149  30.028  30.730  1.00  0.00     0.031 C 
ATOM     64  C   UNL A   1      46.942  27.732  29.815  1.00  0.00     0.037 A 
BRANCH  51  65
ATOM     65  C   UNL A   1      42.856  23.631  27.627  1.00  0.00     0.058 A 
ATOM     66  C   UNL A   1      42.817  23.363  26.248  1.00  0.00     0.135 A 
ATOM     67  C   UNL A   1      42.674  22.550  28.505  1.00  0.00     0.135 A 
ATOM     68  F   UNL A   1      42.968  24.359  25.361  1.00  0.00    -0.206 F 
ATOM     69  C   UNL A   1      42.575  22.082  25.760  1.00  0.00     0.059 A 
ATOM     70  C   UNL A   1      42.463  21.255  28.039  1.00  0.00     0.059 A 
ATOM     71  F   UNL A   1      42.701  22.745  29.833  1.00  0.00    -0.206 F 
ATOM     72  C   UNL A   1      42.400  21.034  26.664  1.00  0.00     0.060 A 
BRANCH  72  73
ATOM     73  S   UNL A   1      42.090  19.379  26.014  1.00  0.00     0.124 S 
ATOM     74  O   UNL A   1      42.928  19.374  24.818  1.00  0.00    -0.237 OA
ATOM     75  O   UNL A   1      42.542  18.524  27.107  1.00  0.00    -0.237 OA
ATOM     76  O   UNL A   1      40.651  19.372  25.771  1.00  0.00    -0.744 OA
ENDBRANCH  72  73
ENDBRANCH  51  65
BRANCH  52  77
ATOM     77  C   UNL A   1      44.059  32.833  31.379  1.00  0.00     0.058 A 
ATOM     78  C   UNL A   1      44.277  33.949  30.558  1.00  0.00     0.135 A 
ATOM     79  C   UNL A   1      44.009  33.043  32.765  1.00  0.00     0.135 A 
ATOM     80  F   UNL A   1      44.339  33.800  29.225  1.00  0.00    -0.206 F 
ATOM     81  C   UNL A   1      44.461  35.221  31.088  1.00  0.00     0.059 A 
ATOM     82  C   UNL A   1      44.161  34.311  33.319  1.00  0.00     0.059 A 
ATOM     83  F   UNL A   1      43.784  32.012  33.595  1.00  0.00    -0.206 F 
ATOM     84  C   UNL A   1      44.399  35.393  32.473  1.00  0.00     0.060 A 
BRANCH  84  85
ATOM     85  S   UNL A   1      44.596  37.055  33.151  1.00  0.00     0.124 S 
ATOM     86  O   UNL A   1      45.049  37.798  31.981  1.00  0.00    -0.237 OA
ATOM     87  O   UNL A   1      43.246  37.357  33.615  1.00  0.00    -0.237 OA
ATOM     88  O   UNL A   1      45.587  36.870  34.206  1.00  0.00    -0.744 OA
ENDBRANCH  84  85
ENDBRANCH  52  77
BRANCH  64  89
ATOM     89  C   UNL A   1      48.433  27.591  29.961  1.00  0.00     0.058 A 
ATOM     90  C   UNL A   1      49.014  27.035  31.112  1.00  0.00     0.135 A 
ATOM     91  C   UNL A   1      49.292  28.003  28.930  1.00  0.00     0.135 A 
ATOM     92  F   UNL A   1      48.239  26.627  32.130  1.00  0.00    -0.206 F 
ATOM     93  C   UNL A   1      50.394  26.934  31.254  1.00  0.00     0.059 A 
ATOM     94  C   UNL A   1      50.674  27.880  29.036  1.00  0.00     0.059 A 
ATOM     95  F   UNL A   1      48.791  28.527  27.799  1.00  0.00    -0.206 F 
ATOM     96  C   UNL A   1      51.216  27.363  30.212  1.00  0.00     0.060 A 
BRANCH  96  97
ATOM     97  S   UNL A   1      53.005  27.228  30.409  1.00  0.00     0.124 S 
ATOM     98  O   UNL A   1      53.358  26.355  29.295  1.00  0.00    -0.237 OA
ATOM     99  O   UNL A   1      53.439  28.616  30.289  1.00  0.00    -0.237 OA
ATOM    100  O   UNL A   1      53.158  26.644  31.738  1.00  0.00    -0.744 OA
ENDBRANCH  96  97
ENDBRANCH  64  89
ENDBRANCH  38  39
ENDBRANCH  30  33
ENDBRANCH  28  29
ENDBRANCH  27  28
ENDBRANCH   1  27
TORSDOF 18
ENDMDL
