MODEL 1
REMARK VINA RESULT:     -11.5      0.000      0.000
REMARK SMILES O=C(NCCCCCCNC(=O)c1cccc(Nc2ccc([N+](=O)[O-])cc2)c1)c1ccc(-c2c3nc(c(-c4c(F)cc(S(=O)(=O)[O-])cc4F)c4ccc([nH]4)c(-c4c(F)cc(S(=O)(=O)[O-])cc4F)c4nc(c(-c5c(F)cc(S(=O)(=O)[O-])cc5F)c5ccc2[nH]5)C=C4)C=C3)cc1
REMARK SMILES IDX 6 1 5 2 4 3 3 4 1 5 2 6 29 8 30 9 94 10 31 11 93 12 32 13
REMARK SMILES IDX 33 14 34 15 87 16 35 17 92 18 86 19 88 20 36 21 91 22 85 23
REMARK SMILES IDX 84 24 37 26 71 27 50 28 70 29 51 30 54 31 69 32 89 33 52 34
REMARK SMILES IDX 53 35 68 37 90 38 55 39 38 40 39 41 48 42 40 43 41 44 47 45
REMARK SMILES IDX 49 46 42 47 43 48 44 49 45 50 46 51 72 52 73 53 82 54 74 55
REMARK SMILES IDX 75 56 81 57 83 58 76 59 77 60 78 61 79 62 80 63 56 64 57 65
REMARK SMILES IDX 66 66 58 67 59 68 65 69 67 70 60 71 61 72 62 73 63 74 64 75
REMARK SMILES IDX 7 76 8 77 9 78 10 79 11 80 12 82 13 83 14 84 28 85 15 86
REMARK SMILES IDX 17 87 16 88 18 89 19 91 20 92 27 93 21 94 26 95 22 96 23 97
REMARK SMILES IDX 24 98 25 99
REMARK H PARENT 3 7 88 25 54 36 10 81 18 90
REMARK Flexibility Score: inf
ROOT
ATOM      1  C   UNL A   1      32.318  27.531  27.094  1.00  0.00     0.002 C 
ENDROOT
BRANCH   1   2
ATOM      2  C   UNL A   1      33.470  27.386  26.101  1.00  0.00     0.021 C 
BRANCH   2   3
ATOM      3  C   UNL A   1      34.513  28.495  26.154  1.00  0.00     0.116 C 
BRANCH   3   4
ATOM      4  N   UNL A   1      34.082  29.631  26.949  1.00  0.00    -0.352 N 
ATOM      5  O   UNL A   1      34.178  31.143  28.620  1.00  0.00    -0.269 OA
ATOM      6  C   UNL A   1      34.758  30.298  27.942  1.00  0.00     0.251 C 
ATOM      7  H   UNL A   1      33.180  29.970  26.749  1.00  0.00     0.163 HD
BRANCH   6   8
ATOM      8  C   UNL A   1      36.179  29.980  28.205  1.00  0.00     0.039 A 
ATOM      9  C   UNL A   1      37.157  30.219  27.236  1.00  0.00     0.014 A 
ATOM     10  C   UNL A   1      36.538  29.443  29.445  1.00  0.00     0.014 A 
ATOM     11  C   UNL A   1      38.466  29.806  27.456  1.00  0.00     0.010 A 
ATOM     12  C   UNL A   1      37.871  29.101  29.695  1.00  0.00     0.010 A 
ATOM     13  C   UNL A   1      38.842  29.257  28.694  1.00  0.00    -0.014 A 
BRANCH  13  14
ATOM     14  C   UNL A   1      40.269  28.929  28.941  1.00  0.00     0.031 A 
ATOM     15  C   UNL A   1      40.837  27.587  28.574  1.00  0.00     0.074 A 
ATOM     16  C   UNL A   1      41.059  29.872  29.492  1.00  0.00     0.049 A 
ATOM     17  N   UNL A   1      42.061  27.146  28.714  1.00  0.00    -0.248 NA
ATOM     18  C   UNL A   1      39.913  26.608  27.977  1.00  0.00     0.031 C 
ATOM     19  C   UNL A   1      40.611  31.205  29.906  1.00  0.00     0.029 A 
ATOM     20  N   UNL A   1      42.397  29.866  29.788  1.00  0.00    -0.354 N 
ATOM     21  C   UNL A   1      42.056  25.840  28.241  1.00  0.00     0.074 A 
ATOM     22  C   UNL A   1      40.699  25.548  27.829  1.00  0.00     0.031 C 
ATOM     23  C   UNL A   1      41.662  31.900  30.364  1.00  0.00     0.029 A 
ATOM     24  C   UNL A   1      42.843  31.046  30.333  1.00  0.00     0.049 A 
ATOM     25  H   UNL A   1      42.981  29.091  29.626  1.00  0.00     0.167 HD
ATOM     26  C   UNL A   1      43.091  24.968  28.153  1.00  0.00     0.037 A 
ATOM     27  C   UNL A   1      44.064  31.400  30.775  1.00  0.00     0.037 A 
ATOM     28  C   UNL A   1      44.441  25.272  28.557  1.00  0.00     0.049 A 
ATOM     29  C   UNL A   1      45.188  30.411  30.680  1.00  0.00     0.074 A 
ATOM     30  C   UNL A   1      45.566  24.468  28.476  1.00  0.00     0.029 A 
ATOM     31  N   UNL A   1      44.851  26.471  29.121  1.00  0.00    -0.354 N 
ATOM     32  N   UNL A   1      45.170  29.190  30.200  1.00  0.00    -0.248 NA
ATOM     33  C   UNL A   1      46.497  30.842  31.189  1.00  0.00     0.031 C 
ATOM     34  C   UNL A   1      46.645  25.166  29.029  1.00  0.00     0.029 A 
ATOM     35  C   UNL A   1      46.205  26.422  29.412  1.00  0.00     0.049 A 
ATOM     36  H   UNL A   1      44.265  27.245  29.291  1.00  0.00     0.167 HD
ATOM     37  C   UNL A   1      46.468  28.711  30.335  1.00  0.00     0.074 A 
ATOM     38  C   UNL A   1      47.247  29.781  30.926  1.00  0.00     0.031 C 
ATOM     39  C   UNL A   1      46.967  27.495  30.001  1.00  0.00     0.037 A 
BRANCH  26  40
ATOM     40  C   UNL A   1      42.806  23.593  27.614  1.00  0.00     0.058 A 
ATOM     41  C   UNL A   1      42.882  23.308  26.241  1.00  0.00     0.135 A 
ATOM     42  C   UNL A   1      42.500  22.533  28.484  1.00  0.00     0.135 A 
ATOM     43  F   UNL A   1      43.157  24.285  25.362  1.00  0.00    -0.206 F 
ATOM     44  C   UNL A   1      42.641  22.028  25.748  1.00  0.00     0.059 A 
ATOM     45  C   UNL A   1      42.279  21.240  28.016  1.00  0.00     0.059 A 
ATOM     46  F   UNL A   1      42.417  22.749  29.807  1.00  0.00    -0.206 F 
ATOM     47  C   UNL A   1      42.338  21.001  26.643  1.00  0.00     0.060 A 
BRANCH  47  48
ATOM     48  S   UNL A   1      42.027  19.348  25.988  1.00  0.00     0.124 S 
ATOM     49  O   UNL A   1      42.470  18.508  27.097  1.00  0.00    -0.237 OA
ATOM     50  O   UNL A   1      40.589  19.371  25.747  1.00  0.00    -0.237 OA
ATOM     51  O   UNL A   1      42.860  19.295  24.789  1.00  0.00    -0.744 OA
ENDBRANCH  47  48
ENDBRANCH  26  40
BRANCH  27  52
ATOM     52  C   UNL A   1      44.273  32.755  31.349  1.00  0.00     0.058 A 
ATOM     53  C   UNL A   1      44.537  33.856  30.524  1.00  0.00     0.135 A 
ATOM     54  C   UNL A   1      44.172  32.978  32.732  1.00  0.00     0.135 A 
ATOM     55  F   UNL A   1      44.645  33.691  29.197  1.00  0.00    -0.206 F 
ATOM     56  C   UNL A   1      44.703  35.134  31.049  1.00  0.00     0.059 A 
ATOM     57  C   UNL A   1      44.308  34.250  33.277  1.00  0.00     0.059 A 
ATOM     58  F   UNL A   1      43.901  31.958  33.560  1.00  0.00    -0.206 F 
ATOM     59  C   UNL A   1      44.582  35.321  32.428  1.00  0.00     0.060 A 
BRANCH  59  60
ATOM     60  S   UNL A   1      44.739  36.991  33.094  1.00  0.00     0.124 S 
ATOM     61  O   UNL A   1      45.906  36.854  33.956  1.00  0.00    -0.237 OA
ATOM     62  O   UNL A   1      44.926  37.789  31.886  1.00  0.00    -0.237 OA
ATOM     63  O   UNL A   1      43.466  37.198  33.779  1.00  0.00    -0.744 OA
ENDBRANCH  59  60
ENDBRANCH  27  52
BRANCH  39  64
ATOM     64  C   UNL A   1      48.430  27.267  30.248  1.00  0.00     0.058 A 
ATOM     65  C   UNL A   1      48.901  26.764  31.470  1.00  0.00     0.135 A 
ATOM     66  C   UNL A   1      49.370  27.520  29.235  1.00  0.00     0.135 A 
ATOM     67  F   UNL A   1      48.044  26.514  32.473  1.00  0.00    -0.206 F 
ATOM     68  C   UNL A   1      50.256  26.540  31.690  1.00  0.00     0.059 A 
ATOM     69  C   UNL A   1      50.727  27.280  29.424  1.00  0.00     0.059 A 
ATOM     70  F   UNL A   1      48.970  27.994  28.045  1.00  0.00    -0.206 F 
ATOM     71  C   UNL A   1      51.162  26.802  30.659  1.00  0.00     0.060 A 
BRANCH  71  72
ATOM     72  S   UNL A   1      52.915  26.482  30.944  1.00  0.00     0.124 S 
ATOM     73  O   UNL A   1      53.412  26.330  29.580  1.00  0.00    -0.237 OA
ATOM     74  O   UNL A   1      53.345  27.688  31.645  1.00  0.00    -0.237 OA
ATOM     75  O   UNL A   1      52.910  25.265  31.751  1.00  0.00    -0.744 OA
ENDBRANCH  71  72
ENDBRANCH  39  64
ENDBRANCH  13  14
ENDBRANCH   6   8
ENDBRANCH   3   4
ENDBRANCH   2   3
ENDBRANCH   1   2
BRANCH   1  76
ATOM     76  C   UNL A   1      30.912  27.464  26.491  1.00  0.00     0.002 C 
BRANCH  76  77
ATOM     77  C   UNL A   1      30.827  26.915  25.063  1.00  0.00     0.021 C 
BRANCH  77  78
ATOM     78  C   UNL A   1      29.926  25.695  24.886  1.00  0.00     0.116 C 
BRANCH  78  79
ATOM     79  N   UNL A   1      29.711  24.993  26.140  1.00  0.00    -0.352 N 
ATOM     80  C   UNL A   1      30.302  23.848  26.604  1.00  0.00     0.251 C 
ATOM     81  H   UNL A   1      29.044  25.398  26.741  1.00  0.00     0.163 HD
ATOM     82  O   UNL A   1      29.869  23.288  27.607  1.00  0.00    -0.269 OA
BRANCH  80  83
ATOM     83  C   UNL A   1      31.464  23.279  25.895  1.00  0.00     0.041 A 
ATOM     84  C   UNL A   1      32.676  23.969  25.937  1.00  0.00     0.014 A 
ATOM     85  C   UNL A   1      31.342  22.099  25.148  1.00  0.00     0.039 A 
ATOM     86  C   UNL A   1      33.778  23.453  25.266  1.00  0.00     0.003 A 
ATOM     87  C   UNL A   1      32.442  21.570  24.465  1.00  0.00     0.039 A 
ATOM     88  C   UNL A   1      33.661  22.259  24.545  1.00  0.00     0.026 A 
BRANCH  87  89
ATOM     89  N   UNL A   1      32.287  20.368  23.750  1.00  0.00    -0.356 N 
ATOM     90  H   UNL A   1      31.893  20.468  22.853  1.00  0.00     0.167 HD
BRANCH  89  91
ATOM     91  C   UNL A   1      32.606  19.048  24.111  1.00  0.00     0.039 A 
ATOM     92  C   UNL A   1      33.138  18.191  23.139  1.00  0.00     0.033 A 
ATOM     93  C   UNL A   1      32.506  18.591  25.432  1.00  0.00     0.033 A 
ATOM     94  C   UNL A   1      33.602  16.917  23.480  1.00  0.00     0.088 A 
ATOM     95  C   UNL A   1      32.955  17.315  25.787  1.00  0.00     0.088 A 
ATOM     96  C   UNL A   1      33.521  16.490  24.810  1.00  0.00     0.269 A 
BRANCH  96  97
ATOM     97  N   UNL A   1      34.073  15.184  25.189  1.00  0.00     0.062 N 
ATOM     98  O   UNL A   1      33.275  14.255  25.383  1.00  0.00    -0.258 OA
ATOM     99  O   UNL A   1      35.306  15.077  25.265  1.00  0.00    -0.258 OA
ENDBRANCH  96  97
ENDBRANCH  89  91
ENDBRANCH  87  89
ENDBRANCH  80  83
ENDBRANCH  78  79
ENDBRANCH  77  78
ENDBRANCH  76  77
ENDBRANCH   1  76
TORSDOF 19
ENDMDL
MODEL 2
REMARK VINA RESULT:     -11.4      2.872      3.663
REMARK SMILES O=C(NCCCCCCNC(=O)c1cccc(Nc2ccc([N+](=O)[O-])cc2)c1)c1ccc(-c2c3nc(c(-c4c(F)cc(S(=O)(=O)[O-])cc4F)c4ccc([nH]4)c(-c4c(F)cc(S(=O)(=O)[O-])cc4F)c4nc(c(-c5c(F)cc(S(=O)(=O)[O-])cc5F)c5ccc2[nH]5)C=C4)C=C3)cc1
REMARK SMILES IDX 6 1 5 2 4 3 3 4 1 5 2 6 29 8 30 9 94 10 31 11 93 12 32 13
REMARK SMILES IDX 33 14 34 15 87 16 35 17 92 18 86 19 88 20 36 21 91 22 85 23
REMARK SMILES IDX 84 24 37 26 71 27 50 28 70 29 51 30 54 31 69 32 89 33 52 34
REMARK SMILES IDX 53 35 68 37 90 38 55 39 38 40 39 41 48 42 40 43 41 44 47 45
REMARK SMILES IDX 49 46 42 47 43 48 44 49 45 50 46 51 72 52 73 53 82 54 74 55
REMARK SMILES IDX 75 56 81 57 83 58 76 59 77 60 78 61 79 62 80 63 56 64 57 65
REMARK SMILES IDX 66 66 58 67 59 68 65 69 67 70 60 71 61 72 62 73 63 74 64 75
REMARK SMILES IDX 7 76 8 77 9 78 10 79 11 80 12 82 13 83 14 84 28 85 15 86
REMARK SMILES IDX 17 87 16 88 18 89 19 91 20 92 27 93 21 94 26 95 22 96 23 97
REMARK SMILES IDX 24 98 25 99
REMARK H PARENT 3 7 88 25 54 36 10 81 18 90
REMARK Flexibility Score: inf
ROOT
ATOM      1  C   UNL A   1      32.314  27.814  27.145  1.00  0.00     0.002 C 
ENDROOT
BRANCH   1   2
ATOM      2  C   UNL A   1      33.583  27.435  26.383  1.00  0.00     0.021 C 
BRANCH   2   3
ATOM      3  C   UNL A   1      34.482  28.604  26.002  1.00  0.00     0.116 C 
BRANCH   3   4
ATOM      4  N   UNL A   1      33.946  29.885  26.427  1.00  0.00    -0.352 N 
ATOM      5  O   UNL A   1      33.705  31.687  27.762  1.00  0.00    -0.269 OA
ATOM      6  C   UNL A   1      34.377  30.711  27.438  1.00  0.00     0.251 C 
ATOM      7  H   UNL A   1      33.164  30.206  25.922  1.00  0.00     0.163 HD
BRANCH   6   8
ATOM      8  C   UNL A   1      35.639  30.407  28.147  1.00  0.00     0.039 A 
ATOM      9  C   UNL A   1      36.859  30.904  27.680  1.00  0.00     0.014 A 
ATOM     10  C   UNL A   1      35.600  29.620  29.302  1.00  0.00     0.014 A 
ATOM     11  C   UNL A   1      38.045  30.513  28.290  1.00  0.00     0.010 A 
ATOM     12  C   UNL A   1      36.789  29.293  29.961  1.00  0.00     0.010 A 
ATOM     13  C   UNL A   1      38.023  29.716  29.447  1.00  0.00    -0.014 A 
BRANCH  13  14
ATOM     14  C   UNL A   1      39.298  29.407  30.143  1.00  0.00     0.031 A 
ATOM     15  C   UNL A   1      40.225  28.337  29.635  1.00  0.00     0.074 A 
ATOM     16  C   UNL A   1      39.622  30.121  31.238  1.00  0.00     0.049 A 
ATOM     17  N   UNL A   1      41.378  27.952  30.119  1.00  0.00    -0.248 NA
ATOM     18  C   UNL A   1      39.804  27.600  28.433  1.00  0.00     0.031 C 
ATOM     19  C   UNL A   1      38.789  31.171  31.832  1.00  0.00     0.029 A 
ATOM     20  N   UNL A   1      40.733  30.086  32.041  1.00  0.00    -0.354 N 
ATOM     21  C   UNL A   1      41.815  26.920  29.298  1.00  0.00     0.074 A 
ATOM     22  C   UNL A   1      40.791  26.722  28.293  1.00  0.00     0.031 C 
ATOM     23  C   UNL A   1      39.435  31.707  32.878  1.00  0.00     0.029 A 
ATOM     24  C   UNL A   1      40.697  31.001  33.066  1.00  0.00     0.049 A 
ATOM     25  H   UNL A   1      41.483  29.465  31.897  1.00  0.00     0.167 HD
ATOM     26  C   UNL A   1      42.967  26.210  29.372  1.00  0.00     0.037 A 
ATOM     27  C   UNL A   1      41.574  31.237  34.060  1.00  0.00     0.037 A 
ATOM     28  C   UNL A   1      43.986  26.422  30.370  1.00  0.00     0.049 A 
ATOM     29  C   UNL A   1      42.834  30.426  34.128  1.00  0.00     0.074 A 
ATOM     30  C   UNL A   1      45.203  25.778  30.508  1.00  0.00     0.029 A 
ATOM     31  N   UNL A   1      43.906  27.346  31.403  1.00  0.00    -0.354 N 
ATOM     32  N   UNL A   1      43.244  29.476  33.321  1.00  0.00    -0.248 NA
ATOM     33  C   UNL A   1      43.750  30.714  35.239  1.00  0.00     0.031 C 
ATOM     34  C   UNL A   1      45.840  26.282  31.648  1.00  0.00     0.029 A 
ATOM     35  C   UNL A   1      45.041  27.274  32.193  1.00  0.00     0.049 A 
ATOM     36  H   UNL A   1      43.152  27.962  31.552  1.00  0.00     0.167 HD
ATOM     37  C   UNL A   1      44.473  29.061  33.819  1.00  0.00     0.074 A 
ATOM     38  C   UNL A   1      44.747  29.876  34.986  1.00  0.00     0.031 C 
ATOM     39  C   UNL A   1      45.299  28.092  33.353  1.00  0.00     0.037 A 
BRANCH  26  40
ATOM     40  C   UNL A   1      43.188  25.123  28.355  1.00  0.00     0.058 A 
ATOM     41  C   UNL A   1      42.942  23.773  28.654  1.00  0.00     0.135 A 
ATOM     42  C   UNL A   1      43.604  25.437  27.051  1.00  0.00     0.135 A 
ATOM     43  F   UNL A   1      42.556  23.413  29.888  1.00  0.00    -0.206 F 
ATOM     44  C   UNL A   1      43.124  22.772  27.703  1.00  0.00     0.059 A 
ATOM     45  C   UNL A   1      43.770  24.456  26.077  1.00  0.00     0.059 A 
ATOM     46  F   UNL A   1      43.851  26.713  26.710  1.00  0.00    -0.206 F 
ATOM     47  C   UNL A   1      43.540  23.123  26.418  1.00  0.00     0.060 A 
BRANCH  47  48
ATOM     48  S   UNL A   1      43.772  21.813  25.198  1.00  0.00     0.124 S 
ATOM     49  O   UNL A   1      43.710  22.566  23.948  1.00  0.00    -0.237 OA
ATOM     50  O   UNL A   1      45.085  21.284  25.552  1.00  0.00    -0.237 OA
ATOM     51  O   UNL A   1      42.649  20.914  25.445  1.00  0.00    -0.744 OA
ENDBRANCH  47  48
ENDBRANCH  26  40
BRANCH  27  52
ATOM     52  C   UNL A   1      41.275  32.287  35.068  1.00  0.00     0.058 A 
ATOM     53  C   UNL A   1      41.824  33.572  34.956  1.00  0.00     0.135 A 
ATOM     54  C   UNL A   1      40.403  32.036  36.139  1.00  0.00     0.135 A 
ATOM     55  F   UNL A   1      42.665  33.858  33.952  1.00  0.00    -0.206 F 
ATOM     56  C   UNL A   1      41.526  34.572  35.878  1.00  0.00     0.059 A 
ATOM     57  C   UNL A   1      40.070  33.027  37.056  1.00  0.00     0.059 A 
ATOM     58  F   UNL A   1      39.837  30.827  36.276  1.00  0.00    -0.206 F 
ATOM     59  C   UNL A   1      40.644  34.289  36.922  1.00  0.00     0.060 A 
BRANCH  59  60
ATOM     60  S   UNL A   1      40.216  35.609  38.078  1.00  0.00     0.124 S 
ATOM     61  O   UNL A   1      39.796  36.669  37.169  1.00  0.00    -0.237 OA
ATOM     62  O   UNL A   1      39.158  34.992  38.873  1.00  0.00    -0.237 OA
ATOM     63  O   UNL A   1      41.468  35.845  38.792  1.00  0.00    -0.744 OA
ENDBRANCH  59  60
ENDBRANCH  27  52
BRANCH  39  64
ATOM     64  C   UNL A   1      46.587  27.877  34.094  1.00  0.00     0.058 A 
ATOM     65  C   UNL A   1      47.751  28.590  33.767  1.00  0.00     0.135 A 
ATOM     66  C   UNL A   1      46.647  26.975  35.169  1.00  0.00     0.135 A 
ATOM     67  F   UNL A   1      47.747  29.457  32.743  1.00  0.00    -0.206 F 
ATOM     68  C   UNL A   1      48.939  28.398  34.465  1.00  0.00     0.059 A 
ATOM     69  C   UNL A   1      47.818  26.787  35.896  1.00  0.00     0.059 A 
ATOM     70  F   UNL A   1      45.559  26.276  35.526  1.00  0.00    -0.206 F 
ATOM     71  C   UNL A   1      48.961  27.493  35.529  1.00  0.00     0.060 A 
BRANCH  71  72
ATOM     72  S   UNL A   1      50.501  27.273  36.447  1.00  0.00     0.124 S 
ATOM     73  O   UNL A   1      50.709  28.610  36.996  1.00  0.00    -0.237 OA
ATOM     74  O   UNL A   1      50.145  26.240  37.415  1.00  0.00    -0.237 OA
ATOM     75  O   UNL A   1      51.451  26.860  35.419  1.00  0.00    -0.744 OA
ENDBRANCH  71  72
ENDBRANCH  39  64
ENDBRANCH  13  14
ENDBRANCH   6   8
ENDBRANCH   3   4
ENDBRANCH   2   3
ENDBRANCH   1   2
BRANCH   1  76
ATOM     76  C   UNL A   1      30.999  27.595  26.391  1.00  0.00     0.002 C 
BRANCH  76  77
ATOM     77  C   UNL A   1      31.119  26.895  25.034  1.00  0.00     0.021 C 
BRANCH  77  78
ATOM     78  C   UNL A   1      30.158  25.729  24.813  1.00  0.00     0.116 C 
BRANCH  78  79
ATOM     79  N   UNL A   1      29.827  25.056  26.058  1.00  0.00    -0.352 N 
ATOM     80  C   UNL A   1      30.338  23.895  26.576  1.00  0.00     0.251 C 
ATOM     81  H   UNL A   1      29.137  25.496  26.606  1.00  0.00     0.163 HD
ATOM     82  O   UNL A   1      29.815  23.368  27.553  1.00  0.00    -0.269 OA
BRANCH  80  83
ATOM     83  C   UNL A   1      31.523  23.270  25.957  1.00  0.00     0.041 A 
ATOM     84  C   UNL A   1      32.764  23.884  26.120  1.00  0.00     0.014 A 
ATOM     85  C   UNL A   1      31.397  22.114  25.174  1.00  0.00     0.039 A 
ATOM     86  C   UNL A   1      33.889  23.315  25.534  1.00  0.00     0.003 A 
ATOM     87  C   UNL A   1      32.519  21.532  24.576  1.00  0.00     0.039 A 
ATOM     88  C   UNL A   1      33.765  22.144  24.777  1.00  0.00     0.026 A 
BRANCH  87  89
ATOM     89  N   UNL A   1      32.357  20.354  23.823  1.00  0.00    -0.356 N 
ATOM     90  H   UNL A   1      31.994  20.490  22.917  1.00  0.00     0.167 HD
BRANCH  89  91
ATOM     91  C   UNL A   1      32.632  19.017  24.154  1.00  0.00     0.039 A 
ATOM     92  C   UNL A   1      33.210  18.185  23.186  1.00  0.00     0.033 A 
ATOM     93  C   UNL A   1      32.444  18.516  25.449  1.00  0.00     0.033 A 
ATOM     94  C   UNL A   1      33.631  16.891  23.508  1.00  0.00     0.088 A 
ATOM     95  C   UNL A   1      32.850  17.220  25.785  1.00  0.00     0.088 A 
ATOM     96  C   UNL A   1      33.462  16.420  24.815  1.00  0.00     0.269 A 
BRANCH  96  97
ATOM     97  N   UNL A   1      33.969  15.091  25.179  1.00  0.00     0.062 N 
ATOM     98  O   UNL A   1      35.196  14.917  25.158  1.00  0.00    -0.258 OA
ATOM     99  O   UNL A   1      33.143  14.229  25.514  1.00  0.00    -0.258 OA
ENDBRANCH  96  97
ENDBRANCH  89  91
ENDBRANCH  87  89
ENDBRANCH  80  83
ENDBRANCH  78  79
ENDBRANCH  77  78
ENDBRANCH  76  77
ENDBRANCH   1  76
TORSDOF 19
ENDMDL
MODEL 3
REMARK VINA RESULT:     -11.1      3.620      8.680
REMARK SMILES O=C(NCCCCCCNC(=O)c1cccc(Nc2ccc([N+](=O)[O-])cc2)c1)c1ccc(-c2c3nc(c(-c4c(F)cc(S(=O)(=O)[O-])cc4F)c4ccc([nH]4)c(-c4c(F)cc(S(=O)(=O)[O-])cc4F)c4nc(c(-c5c(F)cc(S(=O)(=O)[O-])cc5F)c5ccc2[nH]5)C=C4)C=C3)cc1
REMARK SMILES IDX 6 1 5 2 4 3 3 4 1 5 2 6 29 8 30 9 94 10 31 11 93 12 32 13
REMARK SMILES IDX 33 14 34 15 87 16 35 17 92 18 86 19 88 20 36 21 91 22 85 23
REMARK SMILES IDX 84 24 37 26 71 27 50 28 70 29 51 30 54 31 69 32 89 33 52 34
REMARK SMILES IDX 53 35 68 37 90 38 55 39 38 40 39 41 48 42 40 43 41 44 47 45
REMARK SMILES IDX 49 46 42 47 43 48 44 49 45 50 46 51 72 52 73 53 82 54 74 55
REMARK SMILES IDX 75 56 81 57 83 58 76 59 77 60 78 61 79 62 80 63 56 64 57 65
REMARK SMILES IDX 66 66 58 67 59 68 65 69 67 70 60 71 61 72 62 73 63 74 64 75
REMARK SMILES IDX 7 76 8 77 9 78 10 79 11 80 12 82 13 83 14 84 28 85 15 86
REMARK SMILES IDX 17 87 16 88 18 89 19 91 20 92 27 93 21 94 26 95 22 96 23 97
REMARK SMILES IDX 24 98 25 99
REMARK H PARENT 3 7 88 25 54 36 10 81 18 90
REMARK Flexibility Score: inf
ROOT
ATOM      1  C   UNL A   1      32.520  28.251  24.252  1.00  0.00     0.002 C 
ENDROOT
BRANCH   1   2
ATOM      2  C   UNL A   1      33.721  27.530  24.862  1.00  0.00     0.021 C 
BRANCH   2   3
ATOM      3  C   UNL A   1      34.205  28.090  26.194  1.00  0.00     0.116 C 
BRANCH   3   4
ATOM      4  N   UNL A   1      33.797  29.469  26.402  1.00  0.00    -0.352 N 
ATOM      5  O   UNL A   1      33.780  31.494  27.393  1.00  0.00    -0.269 OA
ATOM      6  C   UNL A   1      34.353  30.421  27.222  1.00  0.00     0.251 C 
ATOM      7  H   UNL A   1      33.012  29.761  25.884  1.00  0.00     0.163 HD
BRANCH   6   8
ATOM      8  C   UNL A   1      35.630  30.140  27.914  1.00  0.00     0.039 A 
ATOM      9  C   UNL A   1      36.853  30.390  27.287  1.00  0.00     0.014 A 
ATOM     10  C   UNL A   1      35.602  29.626  29.214  1.00  0.00     0.014 A 
ATOM     11  C   UNL A   1      38.039  30.011  27.906  1.00  0.00     0.010 A 
ATOM     12  C   UNL A   1      36.800  29.319  29.867  1.00  0.00     0.010 A 
ATOM     13  C   UNL A   1      38.028  29.486  29.209  1.00  0.00    -0.014 A 
BRANCH  13  14
ATOM     14  C   UNL A   1      39.315  29.195  29.888  1.00  0.00     0.031 A 
ATOM     15  C   UNL A   1      39.725  29.930  31.134  1.00  0.00     0.074 A 
ATOM     16  C   UNL A   1      40.113  28.239  29.372  1.00  0.00     0.049 A 
ATOM     17  N   UNL A   1      40.809  29.788  31.853  1.00  0.00    -0.248 NA
ATOM     18  C   UNL A   1      38.803  30.960  31.639  1.00  0.00     0.031 C 
ATOM     19  C   UNL A   1      39.826  27.474  28.155  1.00  0.00     0.029 A 
ATOM     20  N   UNL A   1      41.313  27.738  29.802  1.00  0.00    -0.354 N 
ATOM     21  C   UNL A   1      40.712  30.717  32.882  1.00  0.00     0.074 A 
ATOM     22  C   UNL A   1      39.471  31.435  32.683  1.00  0.00     0.031 C 
ATOM     23  C   UNL A   1      40.801  26.575  27.960  1.00  0.00     0.029 A 
ATOM     24  C   UNL A   1      41.809  26.738  29.000  1.00  0.00     0.049 A 
ATOM     25  H   UNL A   1      41.775  28.062  30.608  1.00  0.00     0.167 HD
ATOM     26  C   UNL A   1      41.577  30.942  33.901  1.00  0.00     0.037 A 
ATOM     27  C   UNL A   1      42.957  26.040  29.080  1.00  0.00     0.037 A 
ATOM     28  C   UNL A   1      42.806  30.214  34.096  1.00  0.00     0.049 A 
ATOM     29  C   UNL A   1      43.904  26.320  30.210  1.00  0.00     0.074 A 
ATOM     30  C   UNL A   1      43.732  30.346  35.117  1.00  0.00     0.029 A 
ATOM     31  N   UNL A   1      43.284  29.221  33.253  1.00  0.00    -0.354 N 
ATOM     32  N   UNL A   1      43.779  27.181  31.192  1.00  0.00    -0.248 NA
ATOM     33  C   UNL A   1      45.147  25.540  30.243  1.00  0.00     0.031 C 
ATOM     34  C   UNL A   1      44.789  29.463  34.868  1.00  0.00     0.029 A 
ATOM     35  C   UNL A   1      44.500  28.747  33.717  1.00  0.00     0.049 A 
ATOM     36  H   UNL A   1      42.826  28.901  32.441  1.00  0.00     0.167 HD
ATOM     37  C   UNL A   1      44.921  27.036  31.969  1.00  0.00     0.074 A 
ATOM     38  C   UNL A   1      45.717  25.994  31.351  1.00  0.00     0.031 C 
ATOM     39  C   UNL A   1      45.280  27.708  33.091  1.00  0.00     0.037 A 
BRANCH  26  40
ATOM     40  C   UNL A   1      41.237  32.033  34.881  1.00  0.00     0.058 A 
ATOM     41  C   UNL A   1      41.662  33.357  34.688  1.00  0.00     0.135 A 
ATOM     42  C   UNL A   1      40.435  31.761  36.003  1.00  0.00     0.135 A 
ATOM     43  F   UNL A   1      42.442  33.671  33.641  1.00  0.00    -0.206 F 
ATOM     44  C   UNL A   1      41.325  34.368  35.585  1.00  0.00     0.059 A 
ATOM     45  C   UNL A   1      40.066  32.760  36.900  1.00  0.00     0.059 A 
ATOM     46  F   UNL A   1      40.000  30.512  36.234  1.00  0.00    -0.206 F 
ATOM     47  C   UNL A   1      40.529  34.059  36.689  1.00  0.00     0.060 A 
BRANCH  47  48
ATOM     48  S   UNL A   1      40.102  35.381  37.841  1.00  0.00     0.124 S 
ATOM     49  O   UNL A   1      41.285  35.413  38.697  1.00  0.00    -0.237 OA
ATOM     50  O   UNL A   1      39.932  36.527  36.955  1.00  0.00    -0.237 OA
ATOM     51  O   UNL A   1      38.880  34.897  38.478  1.00  0.00    -0.744 OA
ENDBRANCH  47  48
ENDBRANCH  26  40
BRANCH  27  52
ATOM     52  C   UNL A   1      43.264  25.013  28.050  1.00  0.00     0.058 A 
ATOM     53  C   UNL A   1      43.910  25.358  26.855  1.00  0.00     0.135 A 
ATOM     54  C   UNL A   1      42.952  23.660  28.262  1.00  0.00     0.135 A 
ATOM     55  F   UNL A   1      44.225  26.638  26.608  1.00  0.00    -0.206 F 
ATOM     56  C   UNL A   1      44.229  24.398  25.899  1.00  0.00     0.059 A 
ATOM     57  C   UNL A   1      43.285  22.681  27.333  1.00  0.00     0.059 A 
ATOM     58  F   UNL A   1      42.351  23.279  29.400  1.00  0.00    -0.206 F 
ATOM     59  C   UNL A   1      43.915  23.061  26.150  1.00  0.00     0.060 A 
BRANCH  59  60
ATOM     60  S   UNL A   1      44.387  21.816  24.931  1.00  0.00     0.124 S 
ATOM     61  O   UNL A   1      44.145  22.524  23.680  1.00  0.00    -0.237 OA
ATOM     62  O   UNL A   1      45.787  21.571  25.267  1.00  0.00    -0.237 OA
ATOM     63  O   UNL A   1      43.480  20.708  25.218  1.00  0.00    -0.744 OA
ENDBRANCH  59  60
ENDBRANCH  27  52
BRANCH  39  64
ATOM     64  C   UNL A   1      46.579  27.318  33.735  1.00  0.00     0.058 A 
ATOM     65  C   UNL A   1      46.647  26.295  34.693  1.00  0.00     0.135 A 
ATOM     66  C   UNL A   1      47.776  27.950  33.361  1.00  0.00     0.135 A 
ATOM     67  F   UNL A   1      45.530  25.666  35.090  1.00  0.00    -0.206 F 
ATOM     68  C   UNL A   1      47.855  25.927  35.277  1.00  0.00     0.059 A 
ATOM     69  C   UNL A   1      48.998  27.581  33.914  1.00  0.00     0.059 A 
ATOM     70  F   UNL A   1      47.765  28.929  32.443  1.00  0.00    -0.206 F 
ATOM     71  C   UNL A   1      49.025  26.577  34.880  1.00  0.00     0.060 A 
BRANCH  71  72
ATOM     72  S   UNL A   1      50.591  26.072  35.623  1.00  0.00     0.124 S 
ATOM     73  O   UNL A   1      50.185  25.779  36.994  1.00  0.00    -0.237 OA
ATOM     74  O   UNL A   1      50.966  24.917  34.812  1.00  0.00    -0.237 OA
ATOM     75  O   UNL A   1      51.440  27.248  35.457  1.00  0.00    -0.744 OA
ENDBRANCH  71  72
ENDBRANCH  39  64
ENDBRANCH  13  14
ENDBRANCH   6   8
ENDBRANCH   3   4
ENDBRANCH   2   3
ENDBRANCH   1   2
BRANCH   1  76
ATOM     76  C   UNL A   1      31.360  27.351  23.817  1.00  0.00     0.002 C 
BRANCH  76  77
ATOM     77  C   UNL A   1      31.371  26.915  22.348  1.00  0.00     0.021 C 
BRANCH  77  78
ATOM     78  C   UNL A   1      32.684  26.308  21.858  1.00  0.00     0.116 C 
BRANCH  78  79
ATOM     79  N   UNL A   1      32.526  24.916  21.471  1.00  0.00    -0.352 N 
ATOM     80  C   UNL A   1      32.955  23.785  22.112  1.00  0.00     0.251 C 
ATOM     81  H   UNL A   1      32.043  24.765  20.626  1.00  0.00     0.163 HD
ATOM     82  O   UNL A   1      32.899  22.694  21.553  1.00  0.00    -0.269 OA
BRANCH  80  83
ATOM     83  C   UNL A   1      33.492  23.874  23.484  1.00  0.00     0.041 A 
ATOM     84  C   UNL A   1      32.595  23.962  24.549  1.00  0.00     0.014 A 
ATOM     85  C   UNL A   1      34.874  23.926  23.711  1.00  0.00     0.039 A 
ATOM     86  C   UNL A   1      33.084  24.058  25.846  1.00  0.00     0.003 A 
ATOM     87  C   UNL A   1      35.381  24.026  25.011  1.00  0.00     0.039 A 
ATOM     88  C   UNL A   1      34.465  24.080  26.073  1.00  0.00     0.026 A 
BRANCH  87  89
ATOM     89  N   UNL A   1      36.775  24.046  25.201  1.00  0.00    -0.356 N 
ATOM     90  H   UNL A   1      37.208  24.907  24.997  1.00  0.00     0.167 HD
BRANCH  89  91
ATOM     91  C   UNL A   1      37.648  23.035  25.635  1.00  0.00     0.039 A 
ATOM     92  C   UNL A   1      37.448  21.725  25.178  1.00  0.00     0.033 A 
ATOM     93  C   UNL A   1      38.771  23.308  26.427  1.00  0.00     0.033 A 
ATOM     94  C   UNL A   1      38.369  20.714  25.467  1.00  0.00     0.088 A 
ATOM     95  C   UNL A   1      39.696  22.305  26.735  1.00  0.00     0.088 A 
ATOM     96  C   UNL A   1      39.500  21.014  26.234  1.00  0.00     0.269 A 
BRANCH  96  97
ATOM     97  N   UNL A   1      40.509  19.976  26.479  1.00  0.00     0.062 N 
ATOM     98  O   UNL A   1      41.153  20.036  27.537  1.00  0.00    -0.258 OA
ATOM     99  O   UNL A   1      40.638  19.084  25.629  1.00  0.00    -0.258 OA
ENDBRANCH  96  97
ENDBRANCH  89  91
ENDBRANCH  87  89
ENDBRANCH  80  83
ENDBRANCH  78  79
ENDBRANCH  77  78
ENDBRANCH  76  77
ENDBRANCH   1  76
TORSDOF 19
ENDMDL
