MODEL 1
REMARK VINA RESULT:     -11.5      0.000      0.000
REMARK SMILES C[C@@H](C(=O)NCCCCCCNC(=O)c1ccc(-c2c3nc(c(-c4c(F)cc(S(=O)(=O)[O-])cc4F)c4ccc([nH]4)c(-c4c(F)cc(S(=O)(=O)[O-])cc4F)c4nc(c(-c5c(F)cc(S(=O)(=O)[O-])cc5F)c5ccc2[nH]5)C=C4)C=C3)cc1)c1ccc(C[C@@H]2CCC[C@@H]2O)cc1
REMARK SMILES IDX 8 1 7 2 6 3 5 4 3 5 4 6 2 8 1 9 81 10 82 11 93 12 83 13
REMARK SMILES IDX 92 14 84 15 85 16 86 17 87 18 90 19 88 20 89 21 91 22 9 24
REMARK SMILES IDX 10 25 11 26 12 27 13 28 14 30 15 31 16 32 80 33 17 34 79 35
REMARK SMILES IDX 18 36 19 37 20 38 73 39 21 40 78 41 72 42 74 43 22 44 77 45
REMARK SMILES IDX 71 46 70 47 23 49 57 50 36 51 56 52 37 53 40 54 55 55 75 56
REMARK SMILES IDX 38 57 39 58 54 60 76 61 41 62 24 63 25 64 34 65 26 66 27 67
REMARK SMILES IDX 33 68 35 69 28 70 29 71 30 72 31 73 32 74 58 75 59 76 68 77
REMARK SMILES IDX 60 78 61 79 67 80 69 81 62 82 63 83 64 84 65 85 66 86 42 87
REMARK SMILES IDX 43 88 52 89 44 90 45 91 51 92 53 93 46 94 47 95 48 96 49 97
REMARK SMILES IDX 50 98
REMARK H PARENT 5 7 91 23 12 29 74 48 40 59
REMARK Flexibility Score: inf
ROOT
ATOM      1  C   UNL A   1      33.457  28.266  27.113  1.00  0.00     0.002 C 
ENDROOT
BRANCH   1   2
ATOM      2  C   UNL A   1      32.860  27.166  26.224  1.00  0.00     0.021 C 
BRANCH   2   3
ATOM      3  C   UNL A   1      33.890  26.181  25.666  1.00  0.00     0.116 C 
BRANCH   3   4
ATOM      4  N   UNL A   1      33.552  24.827  26.043  1.00  0.00    -0.356 N 
ATOM      5  C   UNL A   1      32.919  23.840  25.349  1.00  0.00     0.227 C 
ATOM      6  O   UNL A   1      32.690  22.810  25.985  1.00  0.00    -0.274 OA
ATOM      7  H   UNL A   1      33.824  24.575  26.955  1.00  0.00     0.163 HD
BRANCH   5   8
ATOM      8  C   UNL A   1      32.590  24.029  23.852  1.00  0.00     0.105 C 
ATOM      9  C   UNL A   1      33.816  24.271  22.971  1.00  0.00     0.023 C 
BRANCH   8  10
ATOM     10  C   UNL A   1      31.597  25.153  23.568  1.00  0.00    -0.036 A 
ATOM     11  C   UNL A   1      31.845  26.130  22.594  1.00  0.00     0.005 A 
ATOM     12  C   UNL A   1      30.368  25.184  24.241  1.00  0.00     0.005 A 
ATOM     13  C   UNL A   1      30.935  27.162  22.365  1.00  0.00     0.004 A 
ATOM     14  C   UNL A   1      29.453  26.212  24.004  1.00  0.00     0.004 A 
ATOM     15  C   UNL A   1      29.748  27.237  23.096  1.00  0.00    -0.048 A 
BRANCH  15  16
ATOM     16  C   UNL A   1      28.824  28.416  22.942  1.00  0.00     0.041 C 
BRANCH  16  17
ATOM     17  C   UNL A   1      29.464  29.783  22.603  1.00  0.00     0.022 C 
ATOM     18  C   UNL A   1      29.829  30.653  23.812  1.00  0.00     0.007 C 
ATOM     19  C   UNL A   1      28.645  30.750  21.739  1.00  0.00     0.117 C 
ATOM     20  C   UNL A   1      28.713  31.692  23.962  1.00  0.00     0.003 C 
ATOM     21  C   UNL A   1      27.823  31.561  22.731  1.00  0.00     0.032 C 
BRANCH  19  22
ATOM     22  O   UNL A   1      27.842  30.116  20.766  1.00  0.00    -0.393 OA
ATOM     23  H   UNL A   1      27.716  30.713  20.012  1.00  0.00     0.210 HD
ENDBRANCH  19  22
ENDBRANCH  16  17
ENDBRANCH  15  16
ENDBRANCH   8  10
ENDBRANCH   5   8
ENDBRANCH   3   4
ENDBRANCH   2   3
ENDBRANCH   1   2
BRANCH   1  24
ATOM     24  C   UNL A   1      33.179  29.698  26.647  1.00  0.00     0.002 C 
BRANCH  24  25
ATOM     25  C   UNL A   1      34.048  30.768  27.311  1.00  0.00     0.021 C 
BRANCH  25  26
ATOM     26  C   UNL A   1      35.215  30.218  28.124  1.00  0.00     0.116 C 
BRANCH  26  27
ATOM     27  N   UNL A   1      35.312  30.850  29.431  1.00  0.00    -0.352 N 
ATOM     28  C   UNL A   1      36.343  30.807  30.336  1.00  0.00     0.251 C 
ATOM     29  H   UNL A   1      34.531  31.381  29.704  1.00  0.00     0.163 HD
ATOM     30  O   UNL A   1      36.172  31.223  31.481  1.00  0.00    -0.269 OA
BRANCH  28  31
ATOM     31  C   UNL A   1      37.649  30.242  29.938  1.00  0.00     0.039 A 
ATOM     32  C   UNL A   1      37.998  30.229  28.586  1.00  0.00     0.014 A 
ATOM     33  C   UNL A   1      38.531  29.731  30.896  1.00  0.00     0.014 A 
ATOM     34  C   UNL A   1      39.258  29.764  28.202  1.00  0.00     0.010 A 
ATOM     35  C   UNL A   1      39.812  29.338  30.519  1.00  0.00     0.010 A 
ATOM     36  C   UNL A   1      40.189  29.350  29.168  1.00  0.00    -0.014 A 
BRANCH  36  37
ATOM     37  C   UNL A   1      41.568  28.949  28.782  1.00  0.00     0.031 A 
ATOM     38  C   UNL A   1      42.668  29.975  28.718  1.00  0.00     0.074 A 
ATOM     39  C   UNL A   1      41.812  27.670  28.430  1.00  0.00     0.049 A 
ATOM     40  N   UNL A   1      43.914  29.824  28.347  1.00  0.00    -0.248 NA
ATOM     41  C   UNL A   1      42.320  31.354  29.099  1.00  0.00     0.031 C 
ATOM     42  C   UNL A   1      40.816  26.596  28.402  1.00  0.00     0.029 A 
ATOM     43  N   UNL A   1      42.968  27.056  28.018  1.00  0.00    -0.354 N 
ATOM     44  C   UNL A   1      44.493  31.084  28.439  1.00  0.00     0.074 A 
ATOM     45  C   UNL A   1      43.453  31.998  28.854  1.00  0.00     0.031 C 
ATOM     46  C   UNL A   1      41.408  25.454  28.017  1.00  0.00     0.029 A 
ATOM     47  C   UNL A   1      42.813  25.720  27.726  1.00  0.00     0.049 A 
ATOM     48  H   UNL A   1      43.830  27.527  27.939  1.00  0.00     0.167 HD
ATOM     49  C   UNL A   1      45.782  31.440  28.218  1.00  0.00     0.037 A 
ATOM     50  C   UNL A   1      43.697  24.814  27.263  1.00  0.00     0.037 A 
ATOM     51  C   UNL A   1      46.818  30.517  27.830  1.00  0.00     0.049 A 
ATOM     52  C   UNL A   1      45.120  25.242  27.017  1.00  0.00     0.074 A 
ATOM     53  C   UNL A   1      48.166  30.771  27.647  1.00  0.00     0.029 A 
ATOM     54  N   UNL A   1      46.625  29.171  27.562  1.00  0.00    -0.354 N 
ATOM     55  N   UNL A   1      45.666  26.423  27.184  1.00  0.00    -0.248 NA
ATOM     56  C   UNL A   1      46.048  24.215  26.525  1.00  0.00     0.031 C 
ATOM     57  C   UNL A   1      48.778  29.591  27.213  1.00  0.00     0.029 A 
ATOM     58  C   UNL A   1      47.824  28.587  27.187  1.00  0.00     0.049 A 
ATOM     59  H   UNL A   1      45.764  28.699  27.629  1.00  0.00     0.167 HD
ATOM     60  C   UNL A   1      47.008  26.272  26.848  1.00  0.00     0.074 A 
ATOM     61  C   UNL A   1      47.193  24.882  26.485  1.00  0.00     0.031 C 
ATOM     62  C   UNL A   1      47.997  27.199  26.840  1.00  0.00     0.037 A 
BRANCH  49  63
ATOM     63  C   UNL A   1      46.158  32.887  28.391  1.00  0.00     0.058 A 
ATOM     64  C   UNL A   1      46.739  33.361  29.579  1.00  0.00     0.135 A 
ATOM     65  C   UNL A   1      46.016  33.791  27.326  1.00  0.00     0.135 A 
ATOM     66  F   UNL A   1      46.883  32.544  30.634  1.00  0.00    -0.206 F 
ATOM     67  C   UNL A   1      47.157  34.681  29.708  1.00  0.00     0.059 A 
ATOM     68  C   UNL A   1      46.453  35.110  27.423  1.00  0.00     0.059 A 
ATOM     69  F   UNL A   1      45.464  33.392  26.170  1.00  0.00    -0.206 F 
ATOM     70  C   UNL A   1      47.017  35.546  28.620  1.00  0.00     0.060 A 
BRANCH  70  71
ATOM     71  S   UNL A   1      47.609  37.243  28.791  1.00  0.00     0.124 S 
ATOM     72  O   UNL A   1      48.174  37.221  30.137  1.00  0.00    -0.237 OA
ATOM     73  O   UNL A   1      48.573  37.347  27.700  1.00  0.00    -0.237 OA
ATOM     74  O   UNL A   1      46.399  38.044  28.633  1.00  0.00    -0.744 OA
ENDBRANCH  70  71
ENDBRANCH  49  63
BRANCH  50  75
ATOM     75  C   UNL A   1      43.270  23.412  26.999  1.00  0.00     0.058 A 
ATOM     76  C   UNL A   1      43.083  22.500  28.048  1.00  0.00     0.135 A 
ATOM     77  C   UNL A   1      43.064  22.950  25.690  1.00  0.00     0.135 A 
ATOM     78  F   UNL A   1      43.271  22.891  29.318  1.00  0.00    -0.206 F 
ATOM     79  C   UNL A   1      42.743  21.172  27.810  1.00  0.00     0.059 A 
ATOM     80  C   UNL A   1      42.692  21.635  25.427  1.00  0.00     0.059 A 
ATOM     81  F   UNL A   1      43.209  23.785  24.649  1.00  0.00    -0.206 F 
ATOM     82  C   UNL A   1      42.553  20.748  26.494  1.00  0.00     0.060 A 
BRANCH  82  83
ATOM     83  S   UNL A   1      42.103  19.026  26.194  1.00  0.00     0.124 S 
ATOM     84  O   UNL A   1      42.393  18.418  27.487  1.00  0.00    -0.237 OA
ATOM     85  O   UNL A   1      40.691  19.136  25.841  1.00  0.00    -0.237 OA
ATOM     86  O   UNL A   1      42.986  18.634  25.099  1.00  0.00    -0.744 OA
ENDBRANCH  82  83
ENDBRANCH  50  75
BRANCH  62  87
ATOM     87  C   UNL A   1      49.379  26.737  26.466  1.00  0.00     0.058 A 
ATOM     88  C   UNL A   1      50.238  26.138  27.401  1.00  0.00     0.135 A 
ATOM     89  C   UNL A   1      49.830  26.851  25.141  1.00  0.00     0.135 A 
ATOM     90  F   UNL A   1      49.860  26.010  28.682  1.00  0.00    -0.206 F 
ATOM     91  C   UNL A   1      51.506  25.692  27.041  1.00  0.00     0.059 A 
ATOM     92  C   UNL A   1      51.081  26.382  24.751  1.00  0.00     0.059 A 
ATOM     93  F   UNL A   1      49.045  27.406  24.203  1.00  0.00    -0.206 F 
ATOM     94  C   UNL A   1      51.918  25.816  25.712  1.00  0.00     0.060 A 
BRANCH  94  95
ATOM     95  S   UNL A   1      53.552  25.205  25.253  1.00  0.00     0.124 S 
ATOM     96  O   UNL A   1      54.393  25.814  26.278  1.00  0.00    -0.237 OA
ATOM     97  O   UNL A   1      53.382  23.759  25.350  1.00  0.00    -0.237 OA
ATOM     98  O   UNL A   1      53.741  25.718  23.900  1.00  0.00    -0.744 OA
ENDBRANCH  94  95
ENDBRANCH  62  87
ENDBRANCH  36  37
ENDBRANCH  28  31
ENDBRANCH  26  27
ENDBRANCH  25  26
ENDBRANCH  24  25
ENDBRANCH   1  24
TORSDOF 20
ENDMDL
MODEL 2
REMARK VINA RESULT:     -11.4      6.761     11.995
REMARK SMILES C[C@@H](C(=O)NCCCCCCNC(=O)c1ccc(-c2c3nc(c(-c4c(F)cc(S(=O)(=O)[O-])cc4F)c4ccc([nH]4)c(-c4c(F)cc(S(=O)(=O)[O-])cc4F)c4nc(c(-c5c(F)cc(S(=O)(=O)[O-])cc5F)c5ccc2[nH]5)C=C4)C=C3)cc1)c1ccc(C[C@@H]2CCC[C@@H]2O)cc1
REMARK SMILES IDX 8 1 7 2 6 3 5 4 3 5 4 6 2 8 1 9 81 10 82 11 93 12 83 13
REMARK SMILES IDX 92 14 84 15 85 16 86 17 87 18 90 19 88 20 89 21 91 22 9 24
REMARK SMILES IDX 10 25 11 26 12 27 13 28 14 30 15 31 16 32 80 33 17 34 79 35
REMARK SMILES IDX 18 36 19 37 20 38 73 39 21 40 78 41 72 42 74 43 22 44 77 45
REMARK SMILES IDX 71 46 70 47 23 49 57 50 36 51 56 52 37 53 40 54 55 55 75 56
REMARK SMILES IDX 38 57 39 58 54 60 76 61 41 62 24 63 25 64 34 65 26 66 27 67
REMARK SMILES IDX 33 68 35 69 28 70 29 71 30 72 31 73 32 74 58 75 59 76 68 77
REMARK SMILES IDX 60 78 61 79 67 80 69 81 62 82 63 83 64 84 65 85 66 86 42 87
REMARK SMILES IDX 43 88 52 89 44 90 45 91 51 92 53 93 46 94 47 95 48 96 49 97
REMARK SMILES IDX 50 98
REMARK H PARENT 5 7 91 23 12 29 74 48 40 59
REMARK Flexibility Score: inf
ROOT
ATOM      1  C   UNL A   1      36.258  23.369  26.002  1.00  0.00     0.002 C 
ENDROOT
BRANCH   1   2
ATOM      2  C   UNL A   1      35.355  24.040  24.957  1.00  0.00     0.021 C 
BRANCH   2   3
ATOM      3  C   UNL A   1      34.510  25.192  25.504  1.00  0.00     0.116 C 
BRANCH   3   4
ATOM      4  N   UNL A   1      33.898  25.930  24.421  1.00  0.00    -0.356 N 
ATOM      5  C   UNL A   1      32.659  25.832  23.864  1.00  0.00     0.227 C 
ATOM      6  O   UNL A   1      32.465  26.546  22.878  1.00  0.00    -0.274 OA
ATOM      7  H   UNL A   1      34.474  26.618  24.017  1.00  0.00     0.163 HD
BRANCH   5   8
ATOM      8  C   UNL A   1      31.587  24.922  24.503  1.00  0.00     0.105 C 
ATOM      9  C   UNL A   1      31.375  25.164  25.998  1.00  0.00     0.023 C 
BRANCH   8  10
ATOM     10  C   UNL A   1      31.846  23.429  24.315  1.00  0.00    -0.036 A 
ATOM     11  C   UNL A   1      32.151  22.883  23.060  1.00  0.00     0.005 A 
ATOM     12  C   UNL A   1      31.851  22.577  25.428  1.00  0.00     0.005 A 
ATOM     13  C   UNL A   1      32.361  21.514  22.905  1.00  0.00     0.004 A 
ATOM     14  C   UNL A   1      32.071  21.207  25.273  1.00  0.00     0.004 A 
ATOM     15  C   UNL A   1      32.284  20.655  24.003  1.00  0.00    -0.048 A 
BRANCH  15  16
ATOM     16  C   UNL A   1      32.384  19.164  23.821  1.00  0.00     0.041 C 
BRANCH  16  17
ATOM     17  C   UNL A   1      33.628  18.455  24.409  1.00  0.00     0.022 C 
ATOM     18  C   UNL A   1      34.299  17.435  23.481  1.00  0.00     0.007 C 
ATOM     19  C   UNL A   1      33.437  17.649  25.698  1.00  0.00     0.117 C 
ATOM     20  C   UNL A   1      33.824  16.050  23.931  1.00  0.00     0.003 C 
ATOM     21  C   UNL A   1      33.058  16.250  25.234  1.00  0.00     0.032 C 
BRANCH  19  22
ATOM     22  O   UNL A   1      32.485  18.197  26.586  1.00  0.00    -0.393 OA
ATOM     23  H   UNL A   1      32.898  18.903  27.107  1.00  0.00     0.210 HD
ENDBRANCH  19  22
ENDBRANCH  16  17
ENDBRANCH  15  16
ENDBRANCH   8  10
ENDBRANCH   5   8
ENDBRANCH   3   4
ENDBRANCH   2   3
ENDBRANCH   1   2
BRANCH   1  24
ATOM     24  C   UNL A   1      37.678  23.935  26.091  1.00  0.00     0.002 C 
BRANCH  24  25
ATOM     25  C   UNL A   1      38.762  22.901  26.401  1.00  0.00     0.021 C 
BRANCH  25  26
ATOM     26  C   UNL A   1      40.052  23.488  26.963  1.00  0.00     0.116 C 
BRANCH  26  27
ATOM     27  N   UNL A   1      40.776  24.264  25.967  1.00  0.00    -0.352 N 
ATOM     28  C   UNL A   1      41.172  25.577  26.015  1.00  0.00     0.251 C 
ATOM     29  H   UNL A   1      41.015  23.780  25.144  1.00  0.00     0.163 HD
ATOM     30  O   UNL A   1      41.587  26.130  24.998  1.00  0.00    -0.269 OA
BRANCH  28  31
ATOM     31  C   UNL A   1      41.078  26.327  27.285  1.00  0.00     0.039 A 
ATOM     32  C   UNL A   1      42.062  27.271  27.588  1.00  0.00     0.014 A 
ATOM     33  C   UNL A   1      40.019  26.106  28.172  1.00  0.00     0.014 A 
ATOM     34  C   UNL A   1      41.948  28.038  28.750  1.00  0.00     0.010 A 
ATOM     35  C   UNL A   1      39.869  26.921  29.290  1.00  0.00     0.010 A 
ATOM     36  C   UNL A   1      40.832  27.897  29.590  1.00  0.00    -0.014 A 
BRANCH  36  37
ATOM     37  C   UNL A   1      40.648  28.777  30.775  1.00  0.00     0.031 A 
ATOM     38  C   UNL A   1      39.590  29.849  30.768  1.00  0.00     0.074 A 
ATOM     39  C   UNL A   1      41.476  28.648  31.831  1.00  0.00     0.049 A 
ATOM     40  N   UNL A   1      39.321  30.745  31.682  1.00  0.00    -0.248 NA
ATOM     41  C   UNL A   1      38.737  29.940  29.571  1.00  0.00     0.031 C 
ATOM     42  C   UNL A   1      42.571  27.681  31.934  1.00  0.00     0.029 A 
ATOM     43  N   UNL A   1      41.535  29.337  33.017  1.00  0.00    -0.354 N 
ATOM     44  C   UNL A   1      38.281  31.511  31.169  1.00  0.00     0.074 A 
ATOM     45  C   UNL A   1      37.998  31.006  29.845  1.00  0.00     0.031 C 
ATOM     46  C   UNL A   1      43.177  27.824  33.123  1.00  0.00     0.029 A 
ATOM     47  C   UNL A   1      42.547  28.920  33.851  1.00  0.00     0.049 A 
ATOM     48  H   UNL A   1      40.910  30.062  33.250  1.00  0.00     0.167 HD
ATOM     49  C   UNL A   1      37.609  32.529  31.759  1.00  0.00     0.037 A 
ATOM     50  C   UNL A   1      42.933  29.377  35.059  1.00  0.00     0.037 A 
ATOM     51  C   UNL A   1      37.880  33.009  33.091  1.00  0.00     0.049 A 
ATOM     52  C   UNL A   1      42.174  30.517  35.685  1.00  0.00     0.074 A 
ATOM     53  C   UNL A   1      37.211  33.990  33.801  1.00  0.00     0.029 A 
ATOM     54  N   UNL A   1      38.901  32.549  33.910  1.00  0.00    -0.354 N 
ATOM     55  N   UNL A   1      41.142  31.177  35.216  1.00  0.00    -0.248 NA
ATOM     56  C   UNL A   1      42.626  30.970  37.008  1.00  0.00     0.031 C 
ATOM     57  C   UNL A   1      37.862  34.164  35.026  1.00  0.00     0.029 A 
ATOM     58  C   UNL A   1      38.897  33.248  35.106  1.00  0.00     0.049 A 
ATOM     59  H   UNL A   1      39.534  31.833  33.676  1.00  0.00     0.167 HD
ATOM     60  C   UNL A   1      40.804  32.102  36.199  1.00  0.00     0.074 A 
ATOM     61  C   UNL A   1      41.729  31.903  37.295  1.00  0.00     0.031 C 
ATOM     62  C   UNL A   1      39.817  33.031  36.195  1.00  0.00     0.037 A 
BRANCH  49  63
ATOM     63  C   UNL A   1      36.509  33.199  30.982  1.00  0.00     0.058 A 
ATOM     64  C   UNL A   1      35.156  33.007  31.304  1.00  0.00     0.135 A 
ATOM     65  C   UNL A   1      36.815  34.111  29.959  1.00  0.00     0.135 A 
ATOM     66  F   UNL A   1      34.806  32.134  32.262  1.00  0.00    -0.206 F 
ATOM     67  C   UNL A   1      34.145  33.688  30.634  1.00  0.00     0.059 A 
ATOM     68  C   UNL A   1      35.821  34.825  29.294  1.00  0.00     0.059 A 
ATOM     69  F   UNL A   1      38.091  34.331  29.608  1.00  0.00    -0.206 F 
ATOM     70  C   UNL A   1      34.488  34.602  29.636  1.00  0.00     0.060 A 
BRANCH  70  71
ATOM     71  S   UNL A   1      33.165  35.511  28.810  1.00  0.00     0.124 S 
ATOM     72  O   UNL A   1      33.924  36.450  27.990  1.00  0.00    -0.237 OA
ATOM     73  O   UNL A   1      32.468  34.454  28.084  1.00  0.00    -0.237 OA
ATOM     74  O   UNL A   1      32.419  36.106  29.914  1.00  0.00    -0.744 OA
ENDBRANCH  70  71
ENDBRANCH  49  63
BRANCH  50  75
ATOM     75  C   UNL A   1      44.095  28.763  35.759  1.00  0.00     0.058 A 
ATOM     76  C   UNL A   1      43.925  27.684  36.639  1.00  0.00     0.135 A 
ATOM     77  C   UNL A   1      45.396  29.260  35.582  1.00  0.00     0.135 A 
ATOM     78  F   UNL A   1      42.701  27.174  36.846  1.00  0.00    -0.206 F 
ATOM     79  C   UNL A   1      44.994  27.141  37.345  1.00  0.00     0.059 A 
ATOM     80  C   UNL A   1      46.486  28.714  36.252  1.00  0.00     0.059 A 
ATOM     81  F   UNL A   1      45.619  30.279  34.738  1.00  0.00    -0.206 F 
ATOM     82  C   UNL A   1      46.272  27.667  37.147  1.00  0.00     0.060 A 
BRANCH  82  83
ATOM     83  S   UNL A   1      47.655  26.951  38.060  1.00  0.00     0.124 S 
ATOM     84  O   UNL A   1      48.783  27.694  37.513  1.00  0.00    -0.237 OA
ATOM     85  O   UNL A   1      47.299  27.254  39.443  1.00  0.00    -0.237 OA
ATOM     86  O   UNL A   1      47.597  25.536  37.701  1.00  0.00    -0.744 OA
ENDBRANCH  82  83
ENDBRANCH  50  75
BRANCH  62  87
ATOM     87  C   UNL A   1      39.656  33.879  37.427  1.00  0.00     0.058 A 
ATOM     88  C   UNL A   1      38.816  33.498  38.484  1.00  0.00     0.135 A 
ATOM     89  C   UNL A   1      40.393  35.066  37.572  1.00  0.00     0.135 A 
ATOM     90  F   UNL A   1      38.083  32.376  38.395  1.00  0.00    -0.206 F 
ATOM     91  C   UNL A   1      38.690  34.277  39.630  1.00  0.00     0.059 A 
ATOM     92  C   UNL A   1      40.309  35.844  38.723  1.00  0.00     0.059 A 
ATOM     93  F   UNL A   1      41.222  35.472  36.596  1.00  0.00    -0.206 F 
ATOM     94  C   UNL A   1      39.445  35.447  39.742  1.00  0.00     0.060 A 
BRANCH  94  95
ATOM     95  S   UNL A   1      39.296  36.430  41.248  1.00  0.00     0.124 S 
ATOM     96  O   UNL A   1      38.323  35.655  42.010  1.00  0.00    -0.237 OA
ATOM     97  O   UNL A   1      40.661  36.417  41.764  1.00  0.00    -0.237 OA
ATOM     98  O   UNL A   1      38.828  37.725  40.765  1.00  0.00    -0.744 OA
ENDBRANCH  94  95
ENDBRANCH  62  87
ENDBRANCH  36  37
ENDBRANCH  28  31
ENDBRANCH  26  27
ENDBRANCH  25  26
ENDBRANCH  24  25
ENDBRANCH   1  24
TORSDOF 20
ENDMDL
MODEL 3
REMARK VINA RESULT:     -11.4      6.456     11.730
REMARK SMILES C[C@@H](C(=O)NCCCCCCNC(=O)c1ccc(-c2c3nc(c(-c4c(F)cc(S(=O)(=O)[O-])cc4F)c4ccc([nH]4)c(-c4c(F)cc(S(=O)(=O)[O-])cc4F)c4nc(c(-c5c(F)cc(S(=O)(=O)[O-])cc5F)c5ccc2[nH]5)C=C4)C=C3)cc1)c1ccc(C[C@@H]2CCC[C@@H]2O)cc1
REMARK SMILES IDX 8 1 7 2 6 3 5 4 3 5 4 6 2 8 1 9 81 10 82 11 93 12 83 13
REMARK SMILES IDX 92 14 84 15 85 16 86 17 87 18 90 19 88 20 89 21 91 22 9 24
REMARK SMILES IDX 10 25 11 26 12 27 13 28 14 30 15 31 16 32 80 33 17 34 79 35
REMARK SMILES IDX 18 36 19 37 20 38 73 39 21 40 78 41 72 42 74 43 22 44 77 45
REMARK SMILES IDX 71 46 70 47 23 49 57 50 36 51 56 52 37 53 40 54 55 55 75 56
REMARK SMILES IDX 38 57 39 58 54 60 76 61 41 62 24 63 25 64 34 65 26 66 27 67
REMARK SMILES IDX 33 68 35 69 28 70 29 71 30 72 31 73 32 74 58 75 59 76 68 77
REMARK SMILES IDX 60 78 61 79 67 80 69 81 62 82 63 83 64 84 65 85 66 86 42 87
REMARK SMILES IDX 43 88 52 89 44 90 45 91 51 92 53 93 46 94 47 95 48 96 49 97
REMARK SMILES IDX 50 98
REMARK H PARENT 5 7 91 23 12 29 74 48 40 59
REMARK Flexibility Score: inf
ROOT
ATOM      1  C   UNL A   1      39.662  21.679  26.495  1.00  0.00     0.002 C 
ENDROOT
BRANCH   1   2
ATOM      2  C   UNL A   1      39.160  23.125  26.375  1.00  0.00     0.021 C 
BRANCH   2   3
ATOM      3  C   UNL A   1      37.660  23.249  26.099  1.00  0.00     0.116 C 
BRANCH   3   4
ATOM      4  N   UNL A   1      37.407  23.273  24.675  1.00  0.00    -0.356 N 
ATOM      5  C   UNL A   1      36.272  23.015  23.968  1.00  0.00     0.227 C 
ATOM      6  O   UNL A   1      36.400  23.027  22.742  1.00  0.00    -0.274 OA
ATOM      7  H   UNL A   1      38.186  23.516  24.125  1.00  0.00     0.163 HD
BRANCH   5   8
ATOM      8  C   UNL A   1      34.931  22.793  24.700  1.00  0.00     0.105 C 
ATOM      9  C   UNL A   1      34.165  21.555  24.234  1.00  0.00     0.023 C 
BRANCH   8  10
ATOM     10  C   UNL A   1      33.972  23.979  24.619  1.00  0.00    -0.036 A 
ATOM     11  C   UNL A   1      34.074  25.073  25.490  1.00  0.00     0.005 A 
ATOM     12  C   UNL A   1      33.002  24.024  23.609  1.00  0.00     0.005 A 
ATOM     13  C   UNL A   1      33.176  26.136  25.415  1.00  0.00     0.004 A 
ATOM     14  C   UNL A   1      32.108  25.093  23.529  1.00  0.00     0.004 A 
ATOM     15  C   UNL A   1      32.158  26.138  24.459  1.00  0.00    -0.048 A 
BRANCH  15  16
ATOM     16  C   UNL A   1      31.109  27.220  24.456  1.00  0.00     0.041 C 
BRANCH  16  17
ATOM     17  C   UNL A   1      31.485  28.575  23.812  1.00  0.00     0.022 C 
ATOM     18  C   UNL A   1      31.028  29.817  24.587  1.00  0.00     0.007 C 
ATOM     19  C   UNL A   1      30.956  28.856  22.401  1.00  0.00     0.117 C 
ATOM     20  C   UNL A   1      29.757  30.324  23.897  1.00  0.00     0.003 C 
ATOM     21  C   UNL A   1      29.601  29.515  22.614  1.00  0.00     0.032 C 
BRANCH  19  22
ATOM     22  O   UNL A   1      30.874  27.713  21.576  1.00  0.00    -0.393 OA
ATOM     23  H   UNL A   1      30.213  27.102  21.936  1.00  0.00     0.210 HD
ENDBRANCH  19  22
ENDBRANCH  16  17
ENDBRANCH  15  16
ENDBRANCH   8  10
ENDBRANCH   5   8
ENDBRANCH   3   4
ENDBRANCH   2   3
ENDBRANCH   1   2
BRANCH   1  24
ATOM     24  C   UNL A   1      41.183  21.524  26.573  1.00  0.00     0.002 C 
BRANCH  24  25
ATOM     25  C   UNL A   1      41.839  22.226  27.764  1.00  0.00     0.021 C 
BRANCH  25  26
ATOM     26  C   UNL A   1      43.013  23.127  27.398  1.00  0.00     0.116 C 
BRANCH  26  27
ATOM     27  N   UNL A   1      42.737  23.923  26.211  1.00  0.00    -0.352 N 
ATOM     28  C   UNL A   1      42.190  25.178  26.120  1.00  0.00     0.251 C 
ATOM     29  H   UNL A   1      42.976  23.502  25.354  1.00  0.00     0.163 HD
ATOM     30  O   UNL A   1      41.832  25.614  25.028  1.00  0.00    -0.269 OA
BRANCH  28  31
ATOM     31  C   UNL A   1      42.015  25.994  27.340  1.00  0.00     0.039 A 
ATOM     32  C   UNL A   1      42.973  26.960  27.652  1.00  0.00     0.014 A 
ATOM     33  C   UNL A   1      40.905  25.811  28.171  1.00  0.00     0.014 A 
ATOM     34  C   UNL A   1      42.784  27.787  28.763  1.00  0.00     0.010 A 
ATOM     35  C   UNL A   1      40.682  26.683  29.233  1.00  0.00     0.010 A 
ATOM     36  C   UNL A   1      41.619  27.681  29.540  1.00  0.00    -0.014 A 
BRANCH  36  37
ATOM     37  C   UNL A   1      41.358  28.621  30.662  1.00  0.00     0.031 A 
ATOM     38  C   UNL A   1      42.150  28.520  31.938  1.00  0.00     0.074 A 
ATOM     39  C   UNL A   1      40.365  29.526  30.550  1.00  0.00     0.049 A 
ATOM     40  N   UNL A   1      42.026  29.212  33.042  1.00  0.00    -0.248 NA
ATOM     41  C   UNL A   1      43.205  27.495  31.992  1.00  0.00     0.031 C 
ATOM     42  C   UNL A   1      39.494  29.687  29.383  1.00  0.00     0.029 A 
ATOM     43  N   UNL A   1      39.910  30.476  31.430  1.00  0.00    -0.354 N 
ATOM     44  C   UNL A   1      42.973  28.702  33.920  1.00  0.00     0.074 A 
ATOM     45  C   UNL A   1      43.634  27.610  33.241  1.00  0.00     0.031 C 
ATOM     46  C   UNL A   1      38.628  30.687  29.611  1.00  0.00     0.029 A 
ATOM     47  C   UNL A   1      38.848  31.210  30.955  1.00  0.00     0.049 A 
ATOM     48  H   UNL A   1      40.308  30.619  32.321  1.00  0.00     0.167 HD
ATOM     49  C   UNL A   1      43.278  29.120  35.172  1.00  0.00     0.037 A 
ATOM     50  C   UNL A   1      38.124  32.185  31.539  1.00  0.00     0.037 A 
ATOM     51  C   UNL A   1      42.632  30.227  35.832  1.00  0.00     0.049 A 
ATOM     52  C   UNL A   1      38.480  32.623  32.935  1.00  0.00     0.074 A 
ATOM     53  C   UNL A   1      42.917  30.769  37.073  1.00  0.00     0.029 A 
ATOM     54  N   UNL A   1      41.574  30.956  35.311  1.00  0.00    -0.354 N 
ATOM     55  N   UNL A   1      39.432  32.179  33.721  1.00  0.00    -0.248 NA
ATOM     56  C   UNL A   1      37.669  33.698  33.523  1.00  0.00     0.031 C 
ATOM     57  C   UNL A   1      41.994  31.788  37.327  1.00  0.00     0.029 A 
ATOM     58  C   UNL A   1      41.176  31.924  36.218  1.00  0.00     0.049 A 
ATOM     59  H   UNL A   1      41.167  30.809  34.426  1.00  0.00     0.167 HD
ATOM     60  C   UNL A   1      39.352  32.941  34.882  1.00  0.00     0.074 A 
ATOM     61  C   UNL A   1      38.272  33.886  34.689  1.00  0.00     0.031 C 
ATOM     62  C   UNL A   1      40.105  32.866  36.007  1.00  0.00     0.037 A 
BRANCH  49  63
ATOM     63  C   UNL A   1      44.360  28.391  35.921  1.00  0.00     0.058 A 
ATOM     64  C   UNL A   1      44.072  27.305  36.763  1.00  0.00     0.135 A 
ATOM     65  C   UNL A   1      45.710  28.729  35.729  1.00  0.00     0.135 A 
ATOM     66  F   UNL A   1      42.798  26.950  36.996  1.00  0.00    -0.206 F 
ATOM     67  C   UNL A   1      45.081  26.584  37.393  1.00  0.00     0.059 A 
ATOM     68  C   UNL A   1      46.738  28.004  36.326  1.00  0.00     0.059 A 
ATOM     69  F   UNL A   1      46.042  29.760  34.937  1.00  0.00    -0.206 F 
ATOM     70  C   UNL A   1      46.412  26.937  37.161  1.00  0.00     0.060 A 
BRANCH  70  71
ATOM     71  S   UNL A   1      47.710  25.960  37.950  1.00  0.00     0.124 S 
ATOM     72  O   UNL A   1      48.632  25.749  36.838  1.00  0.00    -0.237 OA
ATOM     73  O   UNL A   1      48.179  26.858  39.001  1.00  0.00    -0.237 OA
ATOM     74  O   UNL A   1      47.006  24.769  38.414  1.00  0.00    -0.744 OA
ENDBRANCH  70  71
ENDBRANCH  49  63
BRANCH  50  75
ATOM     75  C   UNL A   1      36.988  32.818  30.812  1.00  0.00     0.058 A 
ATOM     76  C   UNL A   1      35.690  32.292  30.896  1.00  0.00     0.135 A 
ATOM     77  C   UNL A   1      37.183  33.946  30.000  1.00  0.00     0.135 A 
ATOM     78  F   UNL A   1      35.451  31.213  31.656  1.00  0.00    -0.206 F 
ATOM     79  C   UNL A   1      34.633  32.838  30.174  1.00  0.00     0.059 A 
ATOM     80  C   UNL A   1      36.136  34.529  29.293  1.00  0.00     0.059 A 
ATOM     81  F   UNL A   1      38.401  34.501  29.898  1.00  0.00    -0.206 F 
ATOM     82  C   UNL A   1      34.867  33.956  29.371  1.00  0.00     0.060 A 
BRANCH  82  83
ATOM     83  S   UNL A   1      33.489  34.664  28.446  1.00  0.00     0.124 S 
ATOM     84  O   UNL A   1      32.938  33.483  27.791  1.00  0.00    -0.237 OA
ATOM     85  O   UNL A   1      32.673  35.245  29.509  1.00  0.00    -0.237 OA
ATOM     86  O   UNL A   1      34.138  35.631  27.565  1.00  0.00    -0.744 OA
ENDBRANCH  82  83
ENDBRANCH  50  75
BRANCH  62  87
ATOM     87  C   UNL A   1      39.818  33.857  37.103  1.00  0.00     0.058 A 
ATOM     88  C   UNL A   1      39.036  33.520  38.219  1.00  0.00     0.135 A 
ATOM     89  C   UNL A   1      40.377  35.145  37.059  1.00  0.00     0.135 A 
ATOM     90  F   UNL A   1      38.472  32.306  38.308  1.00  0.00    -0.206 F 
ATOM     91  C   UNL A   1      38.795  34.435  39.239  1.00  0.00     0.059 A 
ATOM     92  C   UNL A   1      40.177  36.064  38.084  1.00  0.00     0.059 A 
ATOM     93  F   UNL A   1      41.143  35.515  36.020  1.00  0.00    -0.206 F 
ATOM     94  C   UNL A   1      39.373  35.704  39.164  1.00  0.00     0.060 A 
BRANCH  94  95
ATOM     95  S   UNL A   1      39.078  36.869  40.511  1.00  0.00     0.124 S 
ATOM     96  O   UNL A   1      40.438  37.156  40.954  1.00  0.00    -0.237 OA
ATOM     97  O   UNL A   1      38.388  37.961  39.833  1.00  0.00    -0.237 OA
ATOM     98  O   UNL A   1      38.261  36.105  41.449  1.00  0.00    -0.744 OA
ENDBRANCH  94  95
ENDBRANCH  62  87
ENDBRANCH  36  37
ENDBRANCH  28  31
ENDBRANCH  26  27
ENDBRANCH  25  26
ENDBRANCH  24  25
ENDBRANCH   1  24
TORSDOF 20
ENDMDL
