MODEL 1
REMARK VINA RESULT:     -11.5      0.000      0.000
REMARK SMILES CCc1cc(C(=O)N[C@@H]2C=C[C@H](C(=O)NCCCCCCNC(=O)c3ccc(-c4c5nc(c(-c6c(F)cc(S(=O)(=O)[O-])cc6F)c6ccc([nH]6)c(-c6c(F)cc(S(=O)(=O)[O-])cc6F)c6nc(c(-c7c(F)cc(S(=O)(=O)[O-])cc7F)c7ccc4[nH]7)C=C6)C=C5)cc3)C2)n(C)n1
REMARK SMILES IDX 18 1 17 2 16 3 15 4 13 5 14 6 12 8 9 9 10 10 91 11 11 12
REMARK SMILES IDX 8 13 6 14 7 15 5 17 3 18 4 19 94 20 92 21 93 22 2 23 1 24
REMARK SMILES IDX 19 25 20 26 21 27 22 28 23 29 24 31 25 32 26 33 90 34 27 35
REMARK SMILES IDX 89 36 28 37 29 38 30 39 83 40 31 41 88 42 82 43 84 44 32 45
REMARK SMILES IDX 87 46 81 47 80 48 33 50 67 51 46 52 66 53 47 54 50 55 65 56
REMARK SMILES IDX 85 57 48 58 49 59 64 61 86 62 51 63 34 64 35 65 44 66 36 67
REMARK SMILES IDX 37 68 43 69 45 70 38 71 39 72 40 73 41 74 42 75 68 76 69 77
REMARK SMILES IDX 78 78 70 79 71 80 77 81 79 82 72 83 73 84 74 85 75 86 76 87
REMARK SMILES IDX 52 88 53 89 62 90 54 91 55 92 61 93 63 94 56 95 57 96 58 97
REMARK SMILES IDX 59 98 60 99
REMARK H PARENT 15 7 8 16 22 30 84 49 50 60
REMARK Flexibility Score: inf
ROOT
ATOM      1  C   UNL A   1      40.012  22.679  27.283  1.00  0.00     0.002 C 
ENDROOT
BRANCH   1   2
ATOM      2  C   UNL A   1      38.808  23.094  26.441  1.00  0.00     0.021 C 
BRANCH   2   3
ATOM      3  C   UNL A   1      38.049  21.944  25.772  1.00  0.00     0.116 C 
BRANCH   3   4
ATOM      4  N   UNL A   1      37.714  22.265  24.394  1.00  0.00    -0.356 N 
ATOM      5  C   UNL A   1      36.540  22.728  23.862  1.00  0.00     0.227 C 
ATOM      6  O   UNL A   1      36.500  22.927  22.646  1.00  0.00    -0.274 OA
ATOM      7  H   UNL A   1      38.442  22.129  23.744  1.00  0.00     0.163 HD
BRANCH   5   8
ATOM      8  C   UNL A   1      35.372  23.081  24.797  1.00  0.00     0.103 C 
ATOM      9  C   UNL A   1      33.364  24.274  23.943  1.00  0.00     0.106 C 
ATOM     10  C   UNL A   1      34.257  25.162  24.754  1.00  0.00    -0.006 C 
ATOM     11  C   UNL A   1      33.981  22.901  24.177  1.00  0.00     0.047 C 
ATOM     12  C   UNL A   1      35.346  24.525  25.200  1.00  0.00    -0.016 C 
BRANCH   9  13
ATOM     13  N   UNL A   1      33.383  24.774  22.586  1.00  0.00    -0.344 N 
ATOM     14  C   UNL A   1      33.022  25.911  21.921  1.00  0.00     0.270 C 
ATOM     15  O   UNL A   1      33.390  25.925  20.740  1.00  0.00    -0.268 OA
ATOM     16  H   UNL A   1      33.761  24.108  21.968  1.00  0.00     0.164 HD
BRANCH  14  17
ATOM     17  C   UNL A   1      32.193  26.980  22.434  1.00  0.00     0.126 A 
ATOM     18  C   UNL A   1      30.333  28.178  22.870  1.00  0.00     0.063 A 
ATOM     19  C   UNL A   1      30.809  27.000  22.269  1.00  0.00     0.059 A 
ATOM     20  N   UNL A   1      31.346  28.871  23.394  1.00  0.00    -0.178 NA
ATOM     21  N   UNL A   1      32.457  28.186  23.032  1.00  0.00    -0.263 N 
ATOM     22  C   UNL A   1      33.712  28.860  23.253  1.00  0.00     0.174 C 
BRANCH  18  23
ATOM     23  C   UNL A   1      28.935  28.705  22.956  1.00  0.00     0.055 C 
ATOM     24  C   UNL A   1      28.783  30.171  22.577  1.00  0.00     0.011 C 
ENDBRANCH  18  23
ENDBRANCH  14  17
ENDBRANCH   9  13
ENDBRANCH   5   8
ENDBRANCH   3   4
ENDBRANCH   2   3
ENDBRANCH   1   2
BRANCH   1  25
ATOM     25  C   UNL A   1      40.897  21.599  26.662  1.00  0.00     0.002 C 
BRANCH  25  26
ATOM     26  C   UNL A   1      42.388  21.937  26.537  1.00  0.00     0.021 C 
BRANCH  26  27
ATOM     27  C   UNL A   1      42.800  23.353  26.942  1.00  0.00     0.116 C 
BRANCH  27  28
ATOM     28  N   UNL A   1      42.701  24.303  25.845  1.00  0.00    -0.352 N 
ATOM     29  C   UNL A   1      42.333  25.620  25.845  1.00  0.00     0.251 C 
ATOM     30  H   UNL A   1      42.935  23.938  24.961  1.00  0.00     0.163 HD
ATOM     31  O   UNL A   1      42.205  26.211  24.769  1.00  0.00    -0.269 OA
BRANCH  29  32
ATOM     32  C   UNL A   1      42.067  26.338  27.108  1.00  0.00     0.039 A 
ATOM     33  C   UNL A   1      42.969  27.326  27.510  1.00  0.00     0.014 A 
ATOM     34  C   UNL A   1      40.971  26.020  27.917  1.00  0.00     0.014 A 
ATOM     35  C   UNL A   1      42.745  28.034  28.692  1.00  0.00     0.010 A 
ATOM     36  C   UNL A   1      40.724  26.759  29.078  1.00  0.00     0.010 A 
ATOM     37  C   UNL A   1      41.606  27.777  29.473  1.00  0.00    -0.014 A 
BRANCH  37  38
ATOM     38  C   UNL A   1      41.318  28.622  30.662  1.00  0.00     0.031 A 
ATOM     39  C   UNL A   1      42.135  28.506  31.919  1.00  0.00     0.074 A 
ATOM     40  C   UNL A   1      40.295  29.499  30.604  1.00  0.00     0.049 A 
ATOM     41  N   UNL A   1      42.057  29.211  33.019  1.00  0.00    -0.248 NA
ATOM     42  C   UNL A   1      43.161  27.453  31.954  1.00  0.00     0.031 C 
ATOM     43  C   UNL A   1      39.392  29.662  29.462  1.00  0.00     0.029 A 
ATOM     44  N   UNL A   1      39.845  30.420  31.516  1.00  0.00    -0.354 N 
ATOM     45  C   UNL A   1      43.022  28.694  33.876  1.00  0.00     0.074 A 
ATOM     46  C   UNL A   1      43.638  27.579  33.185  1.00  0.00     0.031 C 
ATOM     47  C   UNL A   1      38.519  30.645  29.728  1.00  0.00     0.029 A 
ATOM     48  C   UNL A   1      38.780  31.165  31.067  1.00  0.00     0.049 A 
ATOM     49  H   UNL A   1      40.246  30.536  32.407  1.00  0.00     0.167 HD
ATOM     50  C   UNL A   1      43.374  29.120  35.114  1.00  0.00     0.037 A 
ATOM     51  C   UNL A   1      38.092  32.159  31.661  1.00  0.00     0.037 A 
ATOM     52  C   UNL A   1      42.756  30.232  35.793  1.00  0.00     0.049 A 
ATOM     53  C   UNL A   1      38.507  32.619  33.031  1.00  0.00     0.074 A 
ATOM     54  C   UNL A   1      43.083  30.780  37.023  1.00  0.00     0.029 A 
ATOM     55  N   UNL A   1      41.681  30.964  35.308  1.00  0.00    -0.354 N 
ATOM     56  N   UNL A   1      39.480  32.173  33.791  1.00  0.00    -0.248 NA
ATOM     57  C   UNL A   1      37.740  33.724  33.620  1.00  0.00     0.031 C 
ATOM     58  C   UNL A   1      42.173  31.806  37.303  1.00  0.00     0.029 A 
ATOM     59  C   UNL A   1      41.312  31.936  36.226  1.00  0.00     0.049 A 
ATOM     60  H   UNL A   1      41.242  30.813  34.439  1.00  0.00     0.167 HD
ATOM     61  C   UNL A   1      39.451  32.954  34.940  1.00  0.00     0.074 A 
ATOM     62  C   UNL A   1      38.383  33.917  34.763  1.00  0.00     0.031 C 
ATOM     63  C   UNL A   1      40.236  32.879  36.045  1.00  0.00     0.037 A 
BRANCH  50  64
ATOM     64  C   UNL A   1      44.481  28.382  35.821  1.00  0.00     0.058 A 
ATOM     65  C   UNL A   1      44.217  27.295  36.670  1.00  0.00     0.135 A 
ATOM     66  C   UNL A   1      45.825  28.733  35.610  1.00  0.00     0.135 A 
ATOM     67  F   UNL A   1      42.950  26.922  36.917  1.00  0.00    -0.206 F 
ATOM     68  C   UNL A   1      45.242  26.600  37.305  1.00  0.00     0.059 A 
ATOM     69  C   UNL A   1      46.867  28.034  36.213  1.00  0.00     0.059 A 
ATOM     70  F   UNL A   1      46.138  29.762  34.806  1.00  0.00    -0.206 F 
ATOM     71  C   UNL A   1      46.564  26.976  37.070  1.00  0.00     0.060 A 
BRANCH  71  72
ATOM     72  S   UNL A   1      47.882  26.058  37.896  1.00  0.00     0.124 S 
ATOM     73  O   UNL A   1      47.822  24.775  37.203  1.00  0.00    -0.237 OA
ATOM     74  O   UNL A   1      49.057  26.876  37.611  1.00  0.00    -0.237 OA
ATOM     75  O   UNL A   1      47.460  26.037  39.292  1.00  0.00    -0.744 OA
ENDBRANCH  71  72
ENDBRANCH  50  64
BRANCH  51  76
ATOM     76  C   UNL A   1      36.956  32.803  30.949  1.00  0.00     0.058 A 
ATOM     77  C   UNL A   1      37.175  33.778  29.966  1.00  0.00     0.135 A 
ATOM     78  C   UNL A   1      35.628  32.440  31.226  1.00  0.00     0.135 A 
ATOM     79  F   UNL A   1      38.426  34.163  29.670  1.00  0.00    -0.206 F 
ATOM     80  C   UNL A   1      36.120  34.386  29.294  1.00  0.00     0.059 A 
ATOM     81  C   UNL A   1      34.557  33.014  30.547  1.00  0.00     0.059 A 
ATOM     82  F   UNL A   1      35.365  31.498  32.145  1.00  0.00    -0.206 F 
ATOM     83  C   UNL A   1      34.813  33.994  29.589  1.00  0.00     0.060 A 
BRANCH  83  84
ATOM     84  S   UNL A   1      33.451  34.750  28.675  1.00  0.00     0.124 S 
ATOM     85  O   UNL A   1      32.505  35.039  29.745  1.00  0.00    -0.237 OA
ATOM     86  O   UNL A   1      34.099  35.906  28.062  1.00  0.00    -0.237 OA
ATOM     87  O   UNL A   1      33.051  33.700  27.742  1.00  0.00    -0.744 OA
ENDBRANCH  83  84
ENDBRANCH  51  76
BRANCH  63  88
ATOM     88  C   UNL A   1      39.969  33.875  37.142  1.00  0.00     0.058 A 
ATOM     89  C   UNL A   1      40.583  35.138  37.156  1.00  0.00     0.135 A 
ATOM     90  C   UNL A   1      39.083  33.567  38.187  1.00  0.00     0.135 A 
ATOM     91  F   UNL A   1      41.443  35.483  36.185  1.00  0.00    -0.206 F 
ATOM     92  C   UNL A   1      40.360  36.043  38.189  1.00  0.00     0.059 A 
ATOM     93  C   UNL A   1      38.822  34.469  39.214  1.00  0.00     0.059 A 
ATOM     94  F   UNL A   1      38.459  32.378  38.218  1.00  0.00    -0.206 F 
ATOM     95  C   UNL A   1      39.480  35.698  39.216  1.00  0.00     0.060 A 
BRANCH  95  96
ATOM     96  S   UNL A   1      39.202  36.880  40.552  1.00  0.00     0.124 S 
ATOM     97  O   UNL A   1      38.393  36.093  41.477  1.00  0.00    -0.237 OA
ATOM     98  O   UNL A   1      40.561  37.178  40.994  1.00  0.00    -0.237 OA
ATOM     99  O   UNL A   1      38.509  37.982  39.891  1.00  0.00    -0.744 OA
ENDBRANCH  95  96
ENDBRANCH  63  88
ENDBRANCH  37  38
ENDBRANCH  29  32
ENDBRANCH  27  28
ENDBRANCH  26  27
ENDBRANCH  25  26
ENDBRANCH   1  25
TORSDOF 19
ENDMDL
MODEL 2
REMARK VINA RESULT:     -11.3      6.272     12.033
REMARK SMILES CCc1cc(C(=O)N[C@@H]2C=C[C@H](C(=O)NCCCCCCNC(=O)c3ccc(-c4c5nc(c(-c6c(F)cc(S(=O)(=O)[O-])cc6F)c6ccc([nH]6)c(-c6c(F)cc(S(=O)(=O)[O-])cc6F)c6nc(c(-c7c(F)cc(S(=O)(=O)[O-])cc7F)c7ccc4[nH]7)C=C6)C=C5)cc3)C2)n(C)n1
REMARK SMILES IDX 18 1 17 2 16 3 15 4 13 5 14 6 12 8 9 9 10 10 91 11 11 12
REMARK SMILES IDX 8 13 6 14 7 15 5 17 3 18 4 19 94 20 92 21 93 22 2 23 1 24
REMARK SMILES IDX 19 25 20 26 21 27 22 28 23 29 24 31 25 32 26 33 90 34 27 35
REMARK SMILES IDX 89 36 28 37 29 38 30 39 83 40 31 41 88 42 82 43 84 44 32 45
REMARK SMILES IDX 87 46 81 47 80 48 33 50 67 51 46 52 66 53 47 54 50 55 65 56
REMARK SMILES IDX 85 57 48 58 49 59 64 61 86 62 51 63 34 64 35 65 44 66 36 67
REMARK SMILES IDX 37 68 43 69 45 70 38 71 39 72 40 73 41 74 42 75 68 76 69 77
REMARK SMILES IDX 78 78 70 79 71 80 77 81 79 82 72 83 73 84 74 85 75 86 76 87
REMARK SMILES IDX 52 88 53 89 62 90 54 91 55 92 61 93 63 94 56 95 57 96 58 97
REMARK SMILES IDX 59 98 60 99
REMARK H PARENT 15 7 8 16 22 30 84 49 50 60
REMARK Flexibility Score: inf
ROOT
ATOM      1  C   UNL A   1      34.709  31.556  27.642  1.00  0.00     0.002 C 
ENDROOT
BRANCH   1   2
ATOM      2  C   UNL A   1      33.238  31.193  27.455  1.00  0.00     0.021 C 
BRANCH   2   3
ATOM      3  C   UNL A   1      32.977  29.804  26.863  1.00  0.00     0.116 C 
BRANCH   3   4
ATOM      4  N   UNL A   1      33.538  29.687  25.527  1.00  0.00    -0.356 N 
ATOM      5  C   UNL A   1      32.981  29.180  24.384  1.00  0.00     0.227 C 
ATOM      6  O   UNL A   1      33.667  29.189  23.359  1.00  0.00    -0.274 OA
ATOM      7  H   UNL A   1      34.459  30.024  25.430  1.00  0.00     0.163 HD
BRANCH   5   8
ATOM      8  C   UNL A   1      31.512  28.729  24.392  1.00  0.00     0.103 C 
ATOM      9  C   UNL A   1      30.704  26.969  22.831  1.00  0.00     0.106 C 
ATOM     10  C   UNL A   1      30.261  28.340  22.426  1.00  0.00    -0.006 C 
ATOM     11  C   UNL A   1      31.306  27.220  24.208  1.00  0.00     0.047 C 
ATOM     12  C   UNL A   1      30.709  29.290  23.256  1.00  0.00    -0.016 C 
BRANCH   9  13
ATOM     13  N   UNL A   1      31.604  26.490  21.804  1.00  0.00    -0.344 N 
ATOM     14  C   UNL A   1      32.546  25.513  21.660  1.00  0.00     0.270 C 
ATOM     15  O   UNL A   1      32.955  25.395  20.498  1.00  0.00    -0.268 OA
ATOM     16  H   UNL A   1      31.511  27.017  20.978  1.00  0.00     0.164 HD
BRANCH  14  17
ATOM     17  C   UNL A   1      33.146  24.734  22.720  1.00  0.00     0.126 A 
ATOM     18  C   UNL A   1      34.633  24.125  24.303  1.00  0.00     0.063 A 
ATOM     19  C   UNL A   1      34.337  25.107  23.342  1.00  0.00     0.059 A 
ATOM     20  N   UNL A   1      33.690  23.180  24.304  1.00  0.00    -0.178 NA
ATOM     21  N   UNL A   1      32.867  23.513  23.281  1.00  0.00    -0.263 N 
ATOM     22  C   UNL A   1      31.902  22.513  22.898  1.00  0.00     0.174 C 
BRANCH  18  23
ATOM     23  C   UNL A   1      35.805  24.020  25.228  1.00  0.00     0.055 C 
ATOM     24  C   UNL A   1      36.988  23.242  24.671  1.00  0.00     0.011 C 
ENDBRANCH  18  23
ENDBRANCH  14  17
ENDBRANCH   9  13
ENDBRANCH   5   8
ENDBRANCH   3   4
ENDBRANCH   2   3
ENDBRANCH   1   2
BRANCH   1  25
ATOM     25  C   UNL A   1      34.964  32.901  28.320  1.00  0.00     0.002 C 
BRANCH  25  26
ATOM     26  C   UNL A   1      36.435  33.297  28.503  1.00  0.00     0.021 C 
BRANCH  26  27
ATOM     27  C   UNL A   1      37.015  33.122  29.907  1.00  0.00     0.116 C 
BRANCH  27  28
ATOM     28  N   UNL A   1      36.358  32.064  30.659  1.00  0.00    -0.352 N 
ATOM     29  C   UNL A   1      36.735  30.767  30.877  1.00  0.00     0.251 C 
ATOM     30  H   UNL A   1      35.504  32.322  31.075  1.00  0.00     0.163 HD
ATOM     31  O   UNL A   1      35.959  30.002  31.454  1.00  0.00    -0.269 OA
BRANCH  29  32
ATOM     32  C   UNL A   1      38.046  30.267  30.414  1.00  0.00     0.039 A 
ATOM     33  C   UNL A   1      38.240  30.095  29.041  1.00  0.00     0.014 A 
ATOM     34  C   UNL A   1      39.062  29.926  31.313  1.00  0.00     0.014 A 
ATOM     35  C   UNL A   1      39.468  29.635  28.564  1.00  0.00     0.010 A 
ATOM     36  C   UNL A   1      40.307  29.507  30.832  1.00  0.00     0.010 A 
ATOM     37  C   UNL A   1      40.523  29.364  29.452  1.00  0.00    -0.014 A 
BRANCH  37  38
ATOM     38  C   UNL A   1      41.861  28.992  28.921  1.00  0.00     0.031 A 
ATOM     39  C   UNL A   1      42.975  29.998  28.835  1.00  0.00     0.074 A 
ATOM     40  C   UNL A   1      42.064  27.727  28.500  1.00  0.00     0.049 A 
ATOM     41  N   UNL A   1      44.216  29.822  28.457  1.00  0.00    -0.248 NA
ATOM     42  C   UNL A   1      42.652  31.385  29.203  1.00  0.00     0.031 C 
ATOM     43  C   UNL A   1      41.044  26.675  28.478  1.00  0.00     0.029 A 
ATOM     44  N   UNL A   1      43.190  27.106  28.021  1.00  0.00    -0.354 N 
ATOM     45  C   UNL A   1      44.825  31.068  28.545  1.00  0.00     0.074 A 
ATOM     46  C   UNL A   1      43.800  32.004  28.963  1.00  0.00     0.031 C 
ATOM     47  C   UNL A   1      41.599  25.534  28.041  1.00  0.00     0.029 A 
ATOM     48  C   UNL A   1      43.003  25.776  27.726  1.00  0.00     0.049 A 
ATOM     49  H   UNL A   1      44.050  27.570  27.898  1.00  0.00     0.167 HD
ATOM     50  C   UNL A   1      46.120  31.397  28.318  1.00  0.00     0.037 A 
ATOM     51  C   UNL A   1      43.865  24.852  27.260  1.00  0.00     0.037 A 
ATOM     52  C   UNL A   1      47.134  30.459  27.905  1.00  0.00     0.049 A 
ATOM     53  C   UNL A   1      45.298  25.240  27.023  1.00  0.00     0.074 A 
ATOM     54  C   UNL A   1      48.487  30.682  27.709  1.00  0.00     0.029 A 
ATOM     55  N   UNL A   1      46.909  29.120  27.617  1.00  0.00    -0.354 N 
ATOM     56  N   UNL A   1      45.875  26.407  27.195  1.00  0.00    -0.248 NA
ATOM     57  C   UNL A   1      46.200  24.187  26.542  1.00  0.00     0.031 C 
ATOM     58  C   UNL A   1      49.067  29.494  27.251  1.00  0.00     0.029 A 
ATOM     59  C   UNL A   1      48.089  28.513  27.214  1.00  0.00     0.049 A 
ATOM     60  H   UNL A   1      46.037  28.667  27.686  1.00  0.00     0.167 HD
ATOM     61  C   UNL A   1      47.211  26.221  26.858  1.00  0.00     0.074 A 
ATOM     62  C   UNL A   1      47.360  24.826  26.499  1.00  0.00     0.031 C 
ATOM     63  C   UNL A   1      48.222  27.126  26.844  1.00  0.00     0.037 A 
BRANCH  50  64
ATOM     64  C   UNL A   1      46.521  32.837  28.511  1.00  0.00     0.058 A 
ATOM     65  C   UNL A   1      46.452  33.768  27.463  1.00  0.00     0.135 A 
ATOM     66  C   UNL A   1      46.933  33.304  29.771  1.00  0.00     0.135 A 
ATOM     67  F   UNL A   1      46.075  33.376  26.234  1.00  0.00    -0.206 F 
ATOM     68  C   UNL A   1      46.802  35.102  27.647  1.00  0.00     0.059 A 
ATOM     69  C   UNL A   1      47.261  34.640  29.985  1.00  0.00     0.059 A 
ATOM     70  F   UNL A   1      47.016  32.459  30.811  1.00  0.00    -0.206 F 
ATOM     71  C   UNL A   1      47.205  35.530  28.913  1.00  0.00     0.060 A 
BRANCH  71  72
ATOM     72  S   UNL A   1      47.647  37.266  29.137  1.00  0.00     0.124 S 
ATOM     73  O   UNL A   1      47.419  37.800  27.798  1.00  0.00    -0.237 OA
ATOM     74  O   UNL A   1      46.700  37.698  30.161  1.00  0.00    -0.237 OA
ATOM     75  O   UNL A   1      49.042  37.211  29.561  1.00  0.00    -0.744 OA
ENDBRANCH  71  72
ENDBRANCH  50  64
BRANCH  51  76
ATOM     76  C   UNL A   1      43.398  23.462  27.012  1.00  0.00     0.058 A 
ATOM     77  C   UNL A   1      43.195  22.986  25.709  1.00  0.00     0.135 A 
ATOM     78  C   UNL A   1      43.162  22.576  28.075  1.00  0.00     0.135 A 
ATOM     79  F   UNL A   1      43.400  23.796  24.660  1.00  0.00    -0.206 F 
ATOM     80  C   UNL A   1      42.759  21.688  25.466  1.00  0.00     0.059 A 
ATOM     81  C   UNL A   1      42.753  21.264  27.857  1.00  0.00     0.059 A 
ATOM     82  F   UNL A   1      43.359  22.976  29.342  1.00  0.00    -0.206 F 
ATOM     83  C   UNL A   1      42.544  20.832  26.548  1.00  0.00     0.060 A 
BRANCH  83  84
ATOM     84  S   UNL A   1      42.029  19.132  26.222  1.00  0.00     0.124 S 
ATOM     85  O   UNL A   1      42.964  18.738  25.176  1.00  0.00    -0.237 OA
ATOM     86  O   UNL A   1      42.220  18.500  27.525  1.00  0.00    -0.237 OA
ATOM     87  O   UNL A   1      40.637  19.277  25.805  1.00  0.00    -0.744 OA
ENDBRANCH  83  84
ENDBRANCH  51  76
BRANCH  63  88
ATOM     88  C   UNL A   1      49.582  26.626  26.433  1.00  0.00     0.058 A 
ATOM     89  C   UNL A   1      50.032  26.721  25.106  1.00  0.00     0.135 A 
ATOM     90  C   UNL A   1      50.449  26.053  27.378  1.00  0.00     0.135 A 
ATOM     91  F   UNL A   1      49.242  27.255  24.161  1.00  0.00    -0.206 F 
ATOM     92  C   UNL A   1      51.275  26.228  24.723  1.00  0.00     0.059 A 
ATOM     93  C   UNL A   1      51.709  25.582  27.022  1.00  0.00     0.059 A 
ATOM     94  F   UNL A   1      50.075  25.948  28.663  1.00  0.00    -0.206 F 
ATOM     95  C   UNL A   1      52.105  25.656  25.688  1.00  0.00     0.060 A 
BRANCH  95  96
ATOM     96  S   UNL A   1      53.715  25.017  25.177  1.00  0.00     0.124 S 
ATOM     97  O   UNL A   1      53.445  23.587  25.077  1.00  0.00    -0.237 OA
ATOM     98  O   UNL A   1      53.939  25.710  23.912  1.00  0.00    -0.237 OA
ATOM     99  O   UNL A   1      54.599  25.415  26.268  1.00  0.00    -0.744 OA
ENDBRANCH  95  96
ENDBRANCH  63  88
ENDBRANCH  37  38
ENDBRANCH  29  32
ENDBRANCH  27  28
ENDBRANCH  26  27
ENDBRANCH  25  26
ENDBRANCH   1  25
TORSDOF 19
ENDMDL
MODEL 3
REMARK VINA RESULT:     -11.1      5.120     12.261
REMARK SMILES CCc1cc(C(=O)N[C@@H]2C=C[C@H](C(=O)NCCCCCCNC(=O)c3ccc(-c4c5nc(c(-c6c(F)cc(S(=O)(=O)[O-])cc6F)c6ccc([nH]6)c(-c6c(F)cc(S(=O)(=O)[O-])cc6F)c6nc(c(-c7c(F)cc(S(=O)(=O)[O-])cc7F)c7ccc4[nH]7)C=C6)C=C5)cc3)C2)n(C)n1
REMARK SMILES IDX 18 1 17 2 16 3 15 4 13 5 14 6 12 8 9 9 10 10 91 11 11 12
REMARK SMILES IDX 8 13 6 14 7 15 5 17 3 18 4 19 94 20 92 21 93 22 2 23 1 24
REMARK SMILES IDX 19 25 20 26 21 27 22 28 23 29 24 31 25 32 26 33 90 34 27 35
REMARK SMILES IDX 89 36 28 37 29 38 30 39 83 40 31 41 88 42 82 43 84 44 32 45
REMARK SMILES IDX 87 46 81 47 80 48 33 50 67 51 46 52 66 53 47 54 50 55 65 56
REMARK SMILES IDX 85 57 48 58 49 59 64 61 86 62 51 63 34 64 35 65 44 66 36 67
REMARK SMILES IDX 37 68 43 69 45 70 38 71 39 72 40 73 41 74 42 75 68 76 69 77
REMARK SMILES IDX 78 78 70 79 71 80 77 81 79 82 72 83 73 84 74 85 75 86 76 87
REMARK SMILES IDX 52 88 53 89 62 90 54 91 55 92 61 93 63 94 56 95 57 96 58 97
REMARK SMILES IDX 59 98 60 99
REMARK H PARENT 15 7 8 16 22 30 84 49 50 60
REMARK Flexibility Score: inf
ROOT
ATOM      1  C   UNL A   1      36.580  33.995  31.999  1.00  0.00     0.002 C 
ENDROOT
BRANCH   1   2
ATOM      2  C   UNL A   1      36.986  32.637  32.566  1.00  0.00     0.021 C 
BRANCH   2   3
ATOM      3  C   UNL A   1      38.404  32.565  33.140  1.00  0.00     0.116 C 
BRANCH   3   4
ATOM      4  N   UNL A   1      38.453  31.714  34.319  1.00  0.00    -0.356 N 
ATOM      5  C   UNL A   1      39.189  30.584  34.553  1.00  0.00     0.227 C 
ATOM      6  O   UNL A   1      39.055  30.029  35.646  1.00  0.00    -0.274 OA
ATOM      7  H   UNL A   1      37.867  31.993  35.059  1.00  0.00     0.163 HD
BRANCH   5   8
ATOM      8  C   UNL A   1      40.218  30.119  33.510  1.00  0.00     0.103 C 
ATOM      9  C   UNL A   1      41.241  27.856  33.640  1.00  0.00     0.106 C 
ATOM     10  C   UNL A   1      42.186  28.937  34.065  1.00  0.00    -0.006 C 
ATOM     11  C   UNL A   1      40.072  28.655  33.077  1.00  0.00     0.047 C 
ATOM     12  C   UNL A   1      41.631  30.154  34.011  1.00  0.00    -0.016 C 
BRANCH   9  13
ATOM     13  N   UNL A   1      40.972  27.042  34.806  1.00  0.00    -0.344 N 
ATOM     14  C   UNL A   1      41.582  26.039  35.502  1.00  0.00     0.270 C 
ATOM     15  O   UNL A   1      41.008  25.759  36.562  1.00  0.00    -0.268 OA
ATOM     16  H   UNL A   1      40.106  27.277  35.210  1.00  0.00     0.164 HD
BRANCH  14  17
ATOM     17  C   UNL A   1      42.713  25.252  35.062  1.00  0.00     0.126 A 
ATOM     18  C   UNL A   1      43.952  23.429  34.583  1.00  0.00     0.063 A 
ATOM     19  C   UNL A   1      42.696  23.858  35.048  1.00  0.00     0.059 A 
ATOM     20  N   UNL A   1      44.728  24.481  34.311  1.00  0.00    -0.178 NA
ATOM     21  N   UNL A   1      44.002  25.555  34.701  1.00  0.00    -0.263 N 
ATOM     22  C   UNL A   1      44.712  26.808  34.754  1.00  0.00     0.174 C 
BRANCH  18  23
ATOM     23  C   UNL A   1      44.475  22.039  34.402  1.00  0.00     0.055 C 
ATOM     24  C   UNL A   1      45.612  21.659  35.339  1.00  0.00     0.011 C 
ENDBRANCH  18  23
ENDBRANCH  14  17
ENDBRANCH   9  13
ENDBRANCH   5   8
ENDBRANCH   3   4
ENDBRANCH   2   3
ENDBRANCH   1   2
BRANCH   1  25
ATOM     25  C   UNL A   1      35.227  34.024  31.288  1.00  0.00     0.002 C 
BRANCH  25  26
ATOM     26  C   UNL A   1      34.802  32.726  30.590  1.00  0.00     0.021 C 
BRANCH  26  27
ATOM     27  C   UNL A   1      34.945  32.697  29.068  1.00  0.00     0.116 C 
BRANCH  27  28
ATOM     28  N   UNL A   1      34.229  31.587  28.457  1.00  0.00    -0.352 N 
ATOM     29  C   UNL A   1      34.674  30.354  28.066  1.00  0.00     0.251 C 
ATOM     30  H   UNL A   1      33.272  31.751  28.299  1.00  0.00     0.163 HD
ATOM     31  O   UNL A   1      33.909  29.603  27.456  1.00  0.00    -0.269 OA
BRANCH  29  32
ATOM     32  C   UNL A   1      36.058  29.920  28.344  1.00  0.00     0.039 A 
ATOM     33  C   UNL A   1      36.982  29.947  27.296  1.00  0.00     0.014 A 
ATOM     34  C   UNL A   1      36.442  29.449  29.604  1.00  0.00     0.014 A 
ATOM     35  C   UNL A   1      38.302  29.554  27.522  1.00  0.00     0.010 A 
ATOM     36  C   UNL A   1      37.775  29.098  29.840  1.00  0.00     0.010 A 
ATOM     37  C   UNL A   1      38.719  29.154  28.803  1.00  0.00    -0.014 A 
BRANCH  37  38
ATOM     38  C   UNL A   1      40.154  28.857  29.055  1.00  0.00     0.031 A 
ATOM     39  C   UNL A   1      40.753  27.528  28.687  1.00  0.00     0.074 A 
ATOM     40  C   UNL A   1      40.920  29.803  29.636  1.00  0.00     0.049 A 
ATOM     41  N   UNL A   1      41.998  27.133  28.780  1.00  0.00    -0.248 NA
ATOM     42  C   UNL A   1      39.838  26.504  28.163  1.00  0.00     0.031 C 
ATOM     43  C   UNL A   1      40.440  31.110  30.093  1.00  0.00     0.029 A 
ATOM     44  N   UNL A   1      42.259  29.819  29.935  1.00  0.00    -0.354 N 
ATOM     45  C   UNL A   1      42.019  25.820  28.325  1.00  0.00     0.074 A 
ATOM     46  C   UNL A   1      40.650  25.468  28.004  1.00  0.00     0.031 C 
ATOM     47  C   UNL A   1      41.473  31.811  30.583  1.00  0.00     0.029 A 
ATOM     48  C   UNL A   1      42.683  30.998  30.502  1.00  0.00     0.049 A 
ATOM     49  H   UNL A   1      42.859  29.058  29.761  1.00  0.00     0.167 HD
ATOM     50  C   UNL A   1      43.081  24.993  28.170  1.00  0.00     0.037 A 
ATOM     51  C   UNL A   1      43.907  31.386  30.906  1.00  0.00     0.037 A 
ATOM     52  C   UNL A   1      44.441  25.352  28.490  1.00  0.00     0.049 A 
ATOM     53  C   UNL A   1      45.071  30.454  30.716  1.00  0.00     0.074 A 
ATOM     54  C   UNL A   1      45.594  24.606  28.311  1.00  0.00     0.029 A 
ATOM     55  N   UNL A   1      44.833  26.555  29.061  1.00  0.00    -0.354 N 
ATOM     56  N   UNL A   1      45.084  29.246  30.203  1.00  0.00    -0.248 NA
ATOM     57  C   UNL A   1      46.387  30.939  31.149  1.00  0.00     0.031 C 
ATOM     58  C   UNL A   1      46.674  25.335  28.823  1.00  0.00     0.029 A 
ATOM     59  C   UNL A   1      46.204  26.559  29.271  1.00  0.00     0.049 A 
ATOM     60  H   UNL A   1      44.226  27.296  29.287  1.00  0.00     0.167 HD
ATOM     61  C   UNL A   1      46.412  28.834  30.236  1.00  0.00     0.074 A 
ATOM     62  C   UNL A   1      47.174  29.931  30.795  1.00  0.00     0.031 C 
ATOM     63  C   UNL A   1      46.950  27.652  29.843  1.00  0.00     0.037 A 
BRANCH  50  64
ATOM     64  C   UNL A   1      42.821  23.611  27.629  1.00  0.00     0.058 A 
ATOM     65  C   UNL A   1      42.901  23.329  26.256  1.00  0.00     0.135 A 
ATOM     66  C   UNL A   1      42.536  22.543  28.498  1.00  0.00     0.135 A 
ATOM     67  F   UNL A   1      43.160  24.312  25.378  1.00  0.00    -0.206 F 
ATOM     68  C   UNL A   1      42.682  22.047  25.760  1.00  0.00     0.059 A 
ATOM     69  C   UNL A   1      42.341  21.248  28.026  1.00  0.00     0.059 A 
ATOM     70  F   UNL A   1      42.450  22.752  29.821  1.00  0.00    -0.206 F 
ATOM     71  C   UNL A   1      42.404  21.012  26.653  1.00  0.00     0.060 A 
BRANCH  71  72
ATOM     72  S   UNL A   1      42.131  19.354  25.993  1.00  0.00     0.124 S 
ATOM     73  O   UNL A   1      42.895  19.405  24.751  1.00  0.00    -0.237 OA
ATOM     74  O   UNL A   1      42.686  18.506  27.043  1.00  0.00    -0.237 OA
ATOM     75  O   UNL A   1      40.682  19.284  25.836  1.00  0.00    -0.744 OA
ENDBRANCH  71  72
ENDBRANCH  50  64
BRANCH  51  76
ATOM     76  C   UNL A   1      44.097  32.734  31.506  1.00  0.00     0.058 A 
ATOM     77  C   UNL A   1      44.133  33.886  30.706  1.00  0.00     0.135 A 
ATOM     78  C   UNL A   1      44.228  32.898  32.894  1.00  0.00     0.135 A 
ATOM     79  F   UNL A   1      44.018  33.781  29.374  1.00  0.00    -0.206 F 
ATOM     80  C   UNL A   1      44.309  35.151  31.257  1.00  0.00     0.059 A 
ATOM     81  C   UNL A   1      44.377  34.155  33.471  1.00  0.00     0.059 A 
ATOM     82  F   UNL A   1      44.182  31.829  33.706  1.00  0.00    -0.206 F 
ATOM     83  C   UNL A   1      44.427  35.276  32.643  1.00  0.00     0.060 A 
BRANCH  83  84
ATOM     84  S   UNL A   1      44.603  36.926  33.355  1.00  0.00     0.124 S 
ATOM     85  O   UNL A   1      43.256  37.460  33.193  1.00  0.00    -0.237 OA
ATOM     86  O   UNL A   1      45.014  36.627  34.723  1.00  0.00    -0.237 OA
ATOM     87  O   UNL A   1      45.632  37.542  32.522  1.00  0.00    -0.744 OA
ENDBRANCH  83  84
ENDBRANCH  51  76
BRANCH  63  88
ATOM     88  C   UNL A   1      48.440  27.494  29.998  1.00  0.00     0.058 A 
ATOM     89  C   UNL A   1      49.334  27.926  29.004  1.00  0.00     0.135 A 
ATOM     90  C   UNL A   1      48.980  26.915  31.157  1.00  0.00     0.135 A 
ATOM     91  F   UNL A   1      48.871  28.482  27.874  1.00  0.00    -0.206 F 
ATOM     92  C   UNL A   1      50.707  27.748  29.136  1.00  0.00     0.059 A 
ATOM     93  C   UNL A   1      50.352  26.756  31.323  1.00  0.00     0.059 A 
ATOM     94  F   UNL A   1      48.173  26.495  32.144  1.00  0.00    -0.206 F 
ATOM     95  C   UNL A   1      51.208  27.158  30.298  1.00  0.00     0.060 A 
BRANCH  95  96
ATOM     96  S   UNL A   1      52.991  26.931  30.455  1.00  0.00     0.124 S 
ATOM     97  O   UNL A   1      53.356  26.517  29.105  1.00  0.00    -0.237 OA
ATOM     98  O   UNL A   1      53.442  28.261  30.854  1.00  0.00    -0.237 OA
ATOM     99  O   UNL A   1      53.113  25.901  31.483  1.00  0.00    -0.744 OA
ENDBRANCH  95  96
ENDBRANCH  63  88
ENDBRANCH  37  38
ENDBRANCH  29  32
ENDBRANCH  27  28
ENDBRANCH  26  27
ENDBRANCH  25  26
ENDBRANCH   1  25
TORSDOF 19
ENDMDL
