MODEL 1
REMARK VINA RESULT:     -11.7      0.000      0.000
REMARK SMILES Cc1cc(C)c2c(O[C@@H](C)C(=O)NCCCCCCNC(=O)c3ccc(-c4c5nc(c(-c6c(F)cc(S(=O)(=O)[O-])cc6F)c6ccc([nH]6)c(-c6c(F)cc(S(=O)(=O)[O-])cc6F)c6nc(c(-c7c(F)cc(S(=O)(=O)[O-])cc7F)c7ccc4[nH]7)C=C6)C=C5)cc3)nsc2n1
REMARK SMILES IDX 17 1 16 2 15 3 14 4 13 5 11 6 12 7 9 9 10 10 8 11 7 12 1 13
REMARK SMILES IDX 2 14 3 15 92 16 4 17 91 18 5 19 6 20 90 21 89 22 18 23 19 24
REMARK SMILES IDX 20 25 21 26 22 28 23 29 24 30 88 31 25 32 87 33 26 34 27 35
REMARK SMILES IDX 28 36 81 37 29 38 86 39 80 40 82 41 30 42 85 43 79 44 78 45
REMARK SMILES IDX 31 47 65 48 44 49 64 50 45 51 48 52 63 53 83 54 46 55 47 56
REMARK SMILES IDX 62 58 84 59 49 60 32 61 33 62 42 63 34 64 35 65 41 66 43 67
REMARK SMILES IDX 36 68 37 69 38 70 39 71 40 72 66 73 67 74 76 75 68 76 69 77
REMARK SMILES IDX 75 78 77 79 70 80 71 81 72 82 73 83 74 84 50 85 51 86 60 87
REMARK SMILES IDX 52 88 53 89 59 90 61 91 54 92 55 93 56 94 57 95 58 96
REMARK H PARENT 13 8 20 27 82 46 48 57
REMARK Flexibility Score: inf
ROOT
ATOM      1  C   UNL A   1      41.043  21.377  27.562  1.00  0.00     0.002 C 
ENDROOT
BRANCH   1   2
ATOM      2  C   UNL A   1      40.243  22.045  26.423  1.00  0.00     0.002 C 
BRANCH   2   3
ATOM      3  C   UNL A   1      38.856  21.487  26.093  1.00  0.00     0.021 C 
BRANCH   3   4
ATOM      4  C   UNL A   1      37.823  22.511  25.654  1.00  0.00     0.116 C 
BRANCH   4   5
ATOM      5  N   UNL A   1      37.451  22.552  24.262  1.00  0.00    -0.353 N 
ATOM      6  C   UNL A   1      36.179  22.669  23.761  1.00  0.00     0.260 C 
ATOM      7  O   UNL A   1      36.067  23.266  22.681  1.00  0.00    -0.271 OA
ATOM      8  H   UNL A   1      38.183  22.490  23.605  1.00  0.00     0.163 HD
BRANCH   6   9
ATOM      9  C   UNL A   1      34.902  22.022  24.436  1.00  0.00     0.260 C 
ATOM     10  C   UNL A   1      35.146  20.690  25.162  1.00  0.00     0.064 C 
BRANCH   9  11
ATOM     11  O   UNL A   1      33.563  22.163  24.074  1.00  0.00    -0.463 OA
BRANCH  11  12
ATOM     12  C   UNL A   1      32.646  22.935  24.702  1.00  0.00     0.235 A 
ATOM     13  C   UNL A   1      31.657  27.845  27.366  1.00  0.00     0.067 C 
ATOM     14  C   UNL A   1      31.863  26.660  26.469  1.00  0.00     0.039 A 
ATOM     15  C   UNL A   1      32.682  26.771  25.359  1.00  0.00     0.027 A 
ATOM     16  N   UNL A   1      31.271  25.517  26.824  1.00  0.00    -0.240 NA
ATOM     17  C   UNL A   1      33.039  25.638  24.592  1.00  0.00    -0.034 A 
ATOM     18  C   UNL A   1      31.591  24.449  26.070  1.00  0.00     0.147 A 
ATOM     19  C   UNL A   1      33.979  25.940  23.454  1.00  0.00     0.045 C 
ATOM     20  C   UNL A   1      32.482  24.373  24.984  1.00  0.00     0.078 A 
ATOM     21  S   UNL A   1      30.926  22.930  26.428  1.00  0.00    -0.012 S 
ATOM     22  N   UNL A   1      31.812  22.105  25.328  1.00  0.00    -0.153 NA
ENDBRANCH  11  12
ENDBRANCH   9  11
ENDBRANCH   6   9
ENDBRANCH   4   5
ENDBRANCH   3   4
ENDBRANCH   2   3
ENDBRANCH   1   2
BRANCH   1  23
ATOM     23  C   UNL A   1      41.811  20.090  27.244  1.00  0.00     0.021 C 
BRANCH  23  24
ATOM     24  C   UNL A   1      41.968  19.782  25.766  1.00  0.00     0.116 C 
BRANCH  24  25
ATOM     25  N   UNL A   1      43.343  19.493  25.358  1.00  0.00    -0.352 N 
ATOM     26  C   UNL A   1      44.351  20.394  25.033  1.00  0.00     0.251 C 
ATOM     27  H   UNL A   1      43.586  18.540  25.306  1.00  0.00     0.163 HD
ATOM     28  O   UNL A   1      45.330  20.024  24.409  1.00  0.00    -0.269 OA
BRANCH  26  29
ATOM     29  C   UNL A   1      44.211  21.811  25.451  1.00  0.00     0.039 A 
ATOM     30  C   UNL A   1      43.474  22.737  24.709  1.00  0.00     0.014 A 
ATOM     31  C   UNL A   1      44.836  22.209  26.626  1.00  0.00     0.014 A 
ATOM     32  C   UNL A   1      43.326  24.033  25.210  1.00  0.00     0.010 A 
ATOM     33  C   UNL A   1      44.503  23.390  27.225  1.00  0.00     0.010 A 
ATOM     34  C   UNL A   1      43.832  24.345  26.484  1.00  0.00    -0.014 A 
BRANCH  34  35
ATOM     35  C   UNL A   1      43.600  25.639  27.116  1.00  0.00     0.031 A 
ATOM     36  C   UNL A   1      44.640  26.643  26.795  1.00  0.00     0.074 A 
ATOM     37  C   UNL A   1      42.451  25.968  27.751  1.00  0.00     0.049 A 
ATOM     38  N   UNL A   1      45.607  27.032  27.555  1.00  0.00    -0.248 NA
ATOM     39  C   UNL A   1      44.745  27.126  25.408  1.00  0.00     0.031 C 
ATOM     40  C   UNL A   1      41.216  25.176  27.858  1.00  0.00     0.029 A 
ATOM     41  N   UNL A   1      42.106  27.132  28.373  1.00  0.00    -0.354 N 
ATOM     42  C   UNL A   1      46.260  28.028  26.840  1.00  0.00     0.074 A 
ATOM     43  C   UNL A   1      45.858  27.863  25.469  1.00  0.00     0.031 C 
ATOM     44  C   UNL A   1      40.203  25.957  28.296  1.00  0.00     0.029 A 
ATOM     45  C   UNL A   1      40.754  27.238  28.691  1.00  0.00     0.049 A 
ATOM     46  H   UNL A   1      42.759  27.840  28.579  1.00  0.00     0.167 HD
ATOM     47  C   UNL A   1      46.808  29.092  27.491  1.00  0.00     0.037 A 
ATOM     48  C   UNL A   1      40.131  28.293  29.272  1.00  0.00     0.037 A 
ATOM     49  C   UNL A   1      46.829  28.854  28.913  1.00  0.00     0.049 A 
ATOM     50  C   UNL A   1      41.175  29.037  30.017  1.00  0.00     0.074 A 
ATOM     51  C   UNL A   1      47.552  28.069  29.784  1.00  0.00     0.029 A 
ATOM     52  N   UNL A   1      45.670  29.219  29.553  1.00  0.00    -0.354 N 
ATOM     53  N   UNL A   1      41.819  28.540  31.039  1.00  0.00    -0.248 NA
ATOM     54  C   UNL A   1      41.777  30.219  29.415  1.00  0.00     0.031 C 
ATOM     55  C   UNL A   1      46.697  27.819  30.897  1.00  0.00     0.029 A 
ATOM     56  C   UNL A   1      45.491  28.491  30.701  1.00  0.00     0.049 A 
ATOM     57  H   UNL A   1      45.051  29.911  29.231  1.00  0.00     0.167 HD
ATOM     58  C   UNL A   1      43.088  29.070  30.933  1.00  0.00     0.074 A 
ATOM     59  C   UNL A   1      42.956  30.216  30.043  1.00  0.00     0.031 C 
ATOM     60  C   UNL A   1      44.184  28.351  31.309  1.00  0.00     0.037 A 
BRANCH  47  61
ATOM     61  C   UNL A   1      46.879  30.506  26.949  1.00  0.00     0.058 A 
ATOM     62  C   UNL A   1      48.102  31.206  27.029  1.00  0.00     0.135 A 
ATOM     63  C   UNL A   1      45.751  31.294  26.626  1.00  0.00     0.135 A 
ATOM     64  F   UNL A   1      49.239  30.564  27.342  1.00  0.00    -0.206 F 
ATOM     65  C   UNL A   1      48.186  32.591  26.860  1.00  0.00     0.059 A 
ATOM     66  C   UNL A   1      45.822  32.664  26.400  1.00  0.00     0.059 A 
ATOM     67  F   UNL A   1      44.510  30.798  26.613  1.00  0.00    -0.206 F 
ATOM     68  C   UNL A   1      47.037  33.310  26.553  1.00  0.00     0.060 A 
BRANCH  68  69
ATOM     69  S   UNL A   1      47.127  35.103  26.403  1.00  0.00     0.124 S 
ATOM     70  O   UNL A   1      48.135  35.431  27.403  1.00  0.00    -0.237 OA
ATOM     71  O   UNL A   1      47.527  35.268  25.009  1.00  0.00    -0.237 OA
ATOM     72  O   UNL A   1      45.766  35.535  26.711  1.00  0.00    -0.744 OA
ENDBRANCH  68  69
ENDBRANCH  47  61
BRANCH  48  73
ATOM     73  C   UNL A   1      38.763  28.833  29.063  1.00  0.00     0.058 A 
ATOM     74  C   UNL A   1      37.889  29.022  30.150  1.00  0.00     0.135 A 
ATOM     75  C   UNL A   1      38.404  29.472  27.860  1.00  0.00     0.135 A 
ATOM     76  F   UNL A   1      38.149  28.446  31.335  1.00  0.00    -0.206 F 
ATOM     77  C   UNL A   1      36.778  29.868  30.079  1.00  0.00     0.059 A 
ATOM     78  C   UNL A   1      37.296  30.316  27.763  1.00  0.00     0.059 A 
ATOM     79  F   UNL A   1      39.178  29.371  26.770  1.00  0.00    -0.206 F 
ATOM     80  C   UNL A   1      36.509  30.539  28.888  1.00  0.00     0.060 A 
BRANCH  80  81
ATOM     81  S   UNL A   1      35.208  31.797  28.863  1.00  0.00     0.124 S 
ATOM     82  O   UNL A   1      35.835  32.866  28.094  1.00  0.00    -0.237 OA
ATOM     83  O   UNL A   1      34.115  31.093  28.201  1.00  0.00    -0.237 OA
ATOM     84  O   UNL A   1      34.991  32.089  30.278  1.00  0.00    -0.744 OA
ENDBRANCH  80  81
ENDBRANCH  48  73
BRANCH  60  85
ATOM     85  C   UNL A   1      43.990  27.242  32.303  1.00  0.00     0.058 A 
ATOM     86  C   UNL A   1      44.054  25.871  32.005  1.00  0.00     0.135 A 
ATOM     87  C   UNL A   1      43.852  27.602  33.653  1.00  0.00     0.135 A 
ATOM     88  F   UNL A   1      44.247  25.447  30.750  1.00  0.00    -0.206 F 
ATOM     89  C   UNL A   1      43.980  24.900  33.007  1.00  0.00     0.059 A 
ATOM     90  C   UNL A   1      43.804  26.654  34.669  1.00  0.00     0.059 A 
ATOM     91  F   UNL A   1      43.823  28.898  34.002  1.00  0.00    -0.206 F 
ATOM     92  C   UNL A   1      43.867  25.303  34.338  1.00  0.00     0.060 A 
BRANCH  92  93
ATOM     93  S   UNL A   1      43.879  24.053  35.642  1.00  0.00     0.124 S 
ATOM     94  O   UNL A   1      42.641  23.325  35.384  1.00  0.00    -0.237 OA
ATOM     95  O   UNL A   1      45.113  23.322  35.366  1.00  0.00    -0.237 OA
ATOM     96  O   UNL A   1      43.894  24.841  36.872  1.00  0.00    -0.744 OA
ENDBRANCH  92  93
ENDBRANCH  60  85
ENDBRANCH  34  35
ENDBRANCH  26  29
ENDBRANCH  24  25
ENDBRANCH  23  24
ENDBRANCH   1  23
TORSDOF 18
ENDMDL
MODEL 2
REMARK VINA RESULT:     -11.5      2.634      3.483
REMARK SMILES Cc1cc(C)c2c(O[C@@H](C)C(=O)NCCCCCCNC(=O)c3ccc(-c4c5nc(c(-c6c(F)cc(S(=O)(=O)[O-])cc6F)c6ccc([nH]6)c(-c6c(F)cc(S(=O)(=O)[O-])cc6F)c6nc(c(-c7c(F)cc(S(=O)(=O)[O-])cc7F)c7ccc4[nH]7)C=C6)C=C5)cc3)nsc2n1
REMARK SMILES IDX 17 1 16 2 15 3 14 4 13 5 11 6 12 7 9 9 10 10 8 11 7 12 1 13
REMARK SMILES IDX 2 14 3 15 92 16 4 17 91 18 5 19 6 20 90 21 89 22 18 23 19 24
REMARK SMILES IDX 20 25 21 26 22 28 23 29 24 30 88 31 25 32 87 33 26 34 27 35
REMARK SMILES IDX 28 36 81 37 29 38 86 39 80 40 82 41 30 42 85 43 79 44 78 45
REMARK SMILES IDX 31 47 65 48 44 49 64 50 45 51 48 52 63 53 83 54 46 55 47 56
REMARK SMILES IDX 62 58 84 59 49 60 32 61 33 62 42 63 34 64 35 65 41 66 43 67
REMARK SMILES IDX 36 68 37 69 38 70 39 71 40 72 66 73 67 74 76 75 68 76 69 77
REMARK SMILES IDX 75 78 77 79 70 80 71 81 72 82 73 83 74 84 50 85 51 86 60 87
REMARK SMILES IDX 52 88 53 89 59 90 61 91 54 92 55 93 56 94 57 95 58 96
REMARK H PARENT 13 8 20 27 82 46 48 57
REMARK Flexibility Score: inf
ROOT
ATOM      1  C   UNL A   1      38.086  23.750  26.198  1.00  0.00     0.002 C 
ENDROOT
BRANCH   1   2
ATOM      2  C   UNL A   1      36.921  23.694  25.187  1.00  0.00     0.002 C 
BRANCH   2   3
ATOM      3  C   UNL A   1      35.504  23.953  25.706  1.00  0.00     0.021 C 
BRANCH   3   4
ATOM      4  C   UNL A   1      34.933  22.882  26.621  1.00  0.00     0.116 C 
BRANCH   4   5
ATOM      5  N   UNL A   1      35.268  21.506  26.354  1.00  0.00    -0.353 N 
ATOM      6  C   UNL A   1      34.822  20.748  25.299  1.00  0.00     0.260 C 
ATOM      7  O   UNL A   1      35.598  19.878  24.882  1.00  0.00    -0.271 OA
ATOM      8  H   UNL A   1      35.877  21.065  26.990  1.00  0.00     0.163 HD
BRANCH   6   9
ATOM      9  C   UNL A   1      33.374  20.875  24.673  1.00  0.00     0.260 C 
ATOM     10  C   UNL A   1      32.798  19.581  24.079  1.00  0.00     0.064 C 
BRANCH   9  11
ATOM     11  O   UNL A   1      32.763  22.001  24.122  1.00  0.00    -0.463 OA
BRANCH  11  12
ATOM     12  C   UNL A   1      31.970  22.878  24.779  1.00  0.00     0.235 A 
ATOM     13  C   UNL A   1      31.593  28.018  27.150  1.00  0.00     0.067 C 
ATOM     14  C   UNL A   1      31.625  26.762  26.329  1.00  0.00     0.039 A 
ATOM     15  C   UNL A   1      32.328  26.738  25.137  1.00  0.00     0.027 A 
ATOM     16  N   UNL A   1      31.000  25.693  26.827  1.00  0.00    -0.240 NA
ATOM     17  C   UNL A   1      32.526  25.531  24.426  1.00  0.00    -0.034 A 
ATOM     18  C   UNL A   1      31.168  24.556  26.128  1.00  0.00     0.147 A 
ATOM     19  C   UNL A   1      33.359  25.685  23.180  1.00  0.00     0.045 C 
ATOM     20  C   UNL A   1      31.931  24.341  24.967  1.00  0.00     0.078 A 
ATOM     21  S   UNL A   1      30.446  23.117  26.665  1.00  0.00    -0.012 S 
ATOM     22  N   UNL A   1      31.154  22.156  25.547  1.00  0.00    -0.153 NA
ENDBRANCH  11  12
ENDBRANCH   9  11
ENDBRANCH   6   9
ENDBRANCH   4   5
ENDBRANCH   3   4
ENDBRANCH   2   3
ENDBRANCH   1   2
BRANCH   1  23
ATOM     23  C   UNL A   1      38.908  22.475  26.423  1.00  0.00     0.021 C 
BRANCH  23  24
ATOM     24  C   UNL A   1      40.156  22.655  27.266  1.00  0.00     0.116 C 
BRANCH  24  25
ATOM     25  N   UNL A   1      41.407  22.477  26.528  1.00  0.00    -0.352 N 
ATOM     26  C   UNL A   1      42.243  23.456  26.003  1.00  0.00     0.251 C 
ATOM     27  H   UNL A   1      41.693  21.546  26.384  1.00  0.00     0.163 HD
ATOM     28  O   UNL A   1      43.064  23.172  25.148  1.00  0.00    -0.269 OA
BRANCH  26  29
ATOM     29  C   UNL A   1      42.114  24.851  26.494  1.00  0.00     0.039 A 
ATOM     30  C   UNL A   1      41.256  25.776  25.893  1.00  0.00     0.014 A 
ATOM     31  C   UNL A   1      42.875  25.228  27.593  1.00  0.00     0.014 A 
ATOM     32  C   UNL A   1      41.134  27.046  26.463  1.00  0.00     0.010 A 
ATOM     33  C   UNL A   1      42.586  26.372  28.278  1.00  0.00     0.010 A 
ATOM     34  C   UNL A   1      41.793  27.329  27.672  1.00  0.00    -0.014 A 
BRANCH  34  35
ATOM     35  C   UNL A   1      41.604  28.589  28.382  1.00  0.00     0.031 A 
ATOM     36  C   UNL A   1      42.696  29.562  28.148  1.00  0.00     0.074 A 
ATOM     37  C   UNL A   1      40.457  28.930  29.014  1.00  0.00     0.049 A 
ATOM     38  N   UNL A   1      43.661  29.857  28.952  1.00  0.00    -0.248 NA
ATOM     39  C   UNL A   1      42.855  30.128  26.799  1.00  0.00     0.031 C 
ATOM     40  C   UNL A   1      39.185  28.190  29.044  1.00  0.00     0.029 A 
ATOM     41  N   UNL A   1      40.150  30.066  29.703  1.00  0.00    -0.354 N 
ATOM     42  C   UNL A   1      44.375  30.865  28.316  1.00  0.00     0.074 A 
ATOM     43  C   UNL A   1      43.998  30.807  26.930  1.00  0.00     0.031 C 
ATOM     44  C   UNL A   1      38.199  28.988  29.511  1.00  0.00     0.029 A 
ATOM     45  C   UNL A   1      38.797  30.214  29.999  1.00  0.00     0.049 A 
ATOM     46  H   UNL A   1      40.829  30.728  29.968  1.00  0.00     0.167 HD
ATOM     47  C   UNL A   1      44.955  31.859  29.047  1.00  0.00     0.037 A 
ATOM     48  C   UNL A   1      38.209  31.257  30.636  1.00  0.00     0.037 A 
ATOM     49  C   UNL A   1      44.932  31.529  30.451  1.00  0.00     0.049 A 
ATOM     50  C   UNL A   1      39.267  31.902  31.448  1.00  0.00     0.074 A 
ATOM     51  C   UNL A   1      45.599  30.657  31.282  1.00  0.00     0.029 A 
ATOM     52  N   UNL A   1      43.776  31.905  31.089  1.00  0.00    -0.354 N 
ATOM     53  N   UNL A   1      39.865  31.311  32.449  1.00  0.00    -0.248 NA
ATOM     54  C   UNL A   1      39.936  33.092  30.937  1.00  0.00     0.031 C 
ATOM     55  C   UNL A   1      44.707  30.376  32.360  1.00  0.00     0.029 A 
ATOM     56  C   UNL A   1      43.538  31.114  32.183  1.00  0.00     0.049 A 
ATOM     57  H   UNL A   1      43.197  32.645  30.800  1.00  0.00     0.167 HD
ATOM     58  C   UNL A   1      41.159  31.788  32.404  1.00  0.00     0.074 A 
ATOM     59  C   UNL A   1      41.099  32.993  31.588  1.00  0.00     0.031 C 
ATOM     60  C   UNL A   1      42.212  30.996  32.754  1.00  0.00     0.037 A 
BRANCH  47  61
ATOM     61  C   UNL A   1      45.102  33.299  28.600  1.00  0.00     0.058 A 
ATOM     62  C   UNL A   1      46.392  33.871  28.555  1.00  0.00     0.135 A 
ATOM     63  C   UNL A   1      44.031  34.215  28.495  1.00  0.00     0.135 A 
ATOM     64  F   UNL A   1      47.486  33.100  28.659  1.00  0.00    -0.206 F 
ATOM     65  C   UNL A   1      46.599  35.250  28.472  1.00  0.00     0.059 A 
ATOM     66  C   UNL A   1      44.216  35.586  28.356  1.00  0.00     0.059 A 
ATOM     67  F   UNL A   1      42.753  33.842  28.621  1.00  0.00    -0.206 F 
ATOM     68  C   UNL A   1      45.501  36.099  28.381  1.00  0.00     0.060 A 
BRANCH  68  69
ATOM     69  S   UNL A   1      45.759  37.881  28.344  1.00  0.00     0.124 S 
ATOM     70  O   UNL A   1      44.510  38.371  28.916  1.00  0.00    -0.237 OA
ATOM     71  O   UNL A   1      46.948  38.030  29.177  1.00  0.00    -0.237 OA
ATOM     72  O   UNL A   1      45.958  38.163  26.925  1.00  0.00    -0.744 OA
ENDBRANCH  68  69
ENDBRANCH  47  61
BRANCH  48  73
ATOM     73  C   UNL A   1      36.872  31.873  30.435  1.00  0.00     0.058 A 
ATOM     74  C   UNL A   1      35.930  31.908  31.480  1.00  0.00     0.135 A 
ATOM     75  C   UNL A   1      36.612  32.716  29.336  1.00  0.00     0.135 A 
ATOM     76  F   UNL A   1      36.095  31.133  32.564  1.00  0.00    -0.206 F 
ATOM     77  C   UNL A   1      34.847  32.792  31.482  1.00  0.00     0.059 A 
ATOM     78  C   UNL A   1      35.533  33.603  29.313  1.00  0.00     0.059 A 
ATOM     79  F   UNL A   1      37.456  32.771  28.296  1.00  0.00    -0.206 F 
ATOM     80  C   UNL A   1      34.677  33.662  30.407  1.00  0.00     0.060 A 
BRANCH  80  81
ATOM     81  S   UNL A   1      33.411  34.951  30.512  1.00  0.00     0.124 S 
ATOM     82  O   UNL A   1      34.197  36.164  30.314  1.00  0.00    -0.237 OA
ATOM     83  O   UNL A   1      32.514  34.589  29.421  1.00  0.00    -0.237 OA
ATOM     84  O   UNL A   1      32.860  34.777  31.854  1.00  0.00    -0.744 OA
ENDBRANCH  80  81
ENDBRANCH  48  73
BRANCH  60  85
ATOM     85  C   UNL A   1      41.945  29.836  33.670  1.00  0.00     0.058 A 
ATOM     86  C   UNL A   1      41.735  28.512  33.253  1.00  0.00     0.135 A 
ATOM     87  C   UNL A   1      42.030  30.070  35.050  1.00  0.00     0.135 A 
ATOM     88  F   UNL A   1      41.704  28.194  31.952  1.00  0.00    -0.206 F 
ATOM     89  C   UNL A   1      41.610  27.466  34.171  1.00  0.00     0.059 A 
ATOM     90  C   UNL A   1      41.936  29.043  35.982  1.00  0.00     0.059 A 
ATOM     91  F   UNL A   1      42.268  31.311  35.507  1.00  0.00    -0.206 F 
ATOM     92  C   UNL A   1      41.724  27.741  35.535  1.00  0.00     0.060 A 
BRANCH  92  93
ATOM     93  S   UNL A   1      41.670  26.376  36.717  1.00  0.00     0.124 S 
ATOM     94  O   UNL A   1      41.685  25.209  35.842  1.00  0.00    -0.237 OA
ATOM     95  O   UNL A   1      42.881  26.593  37.505  1.00  0.00    -0.237 OA
ATOM     96  O   UNL A   1      40.421  26.599  37.440  1.00  0.00    -0.744 OA
ENDBRANCH  92  93
ENDBRANCH  60  85
ENDBRANCH  34  35
ENDBRANCH  26  29
ENDBRANCH  24  25
ENDBRANCH  23  24
ENDBRANCH   1  23
TORSDOF 18
ENDMDL
MODEL 3
REMARK VINA RESULT:     -11.5      2.662      3.987
REMARK SMILES Cc1cc(C)c2c(O[C@@H](C)C(=O)NCCCCCCNC(=O)c3ccc(-c4c5nc(c(-c6c(F)cc(S(=O)(=O)[O-])cc6F)c6ccc([nH]6)c(-c6c(F)cc(S(=O)(=O)[O-])cc6F)c6nc(c(-c7c(F)cc(S(=O)(=O)[O-])cc7F)c7ccc4[nH]7)C=C6)C=C5)cc3)nsc2n1
REMARK SMILES IDX 17 1 16 2 15 3 14 4 13 5 11 6 12 7 9 9 10 10 8 11 7 12 1 13
REMARK SMILES IDX 2 14 3 15 92 16 4 17 91 18 5 19 6 20 90 21 89 22 18 23 19 24
REMARK SMILES IDX 20 25 21 26 22 28 23 29 24 30 88 31 25 32 87 33 26 34 27 35
REMARK SMILES IDX 28 36 81 37 29 38 86 39 80 40 82 41 30 42 85 43 79 44 78 45
REMARK SMILES IDX 31 47 65 48 44 49 64 50 45 51 48 52 63 53 83 54 46 55 47 56
REMARK SMILES IDX 62 58 84 59 49 60 32 61 33 62 42 63 34 64 35 65 41 66 43 67
REMARK SMILES IDX 36 68 37 69 38 70 39 71 40 72 66 73 67 74 76 75 68 76 69 77
REMARK SMILES IDX 75 78 77 79 70 80 71 81 72 82 73 83 74 84 50 85 51 86 60 87
REMARK SMILES IDX 52 88 53 89 59 90 61 91 54 92 55 93 56 94 57 95 58 96
REMARK H PARENT 13 8 20 27 82 46 48 57
REMARK Flexibility Score: inf
ROOT
ATOM      1  C   UNL A   1      37.488  23.650  25.355  1.00  0.00     0.002 C 
ENDROOT
BRANCH   1   2
ATOM      2  C   UNL A   1      36.066  23.725  24.760  1.00  0.00     0.002 C 
BRANCH   2   3
ATOM      3  C   UNL A   1      34.934  24.227  25.662  1.00  0.00     0.021 C 
BRANCH   3   4
ATOM      4  C   UNL A   1      34.327  25.564  25.271  1.00  0.00     0.116 C 
BRANCH   4   5
ATOM      5  N   UNL A   1      34.112  25.834  23.872  1.00  0.00    -0.353 N 
ATOM      6  C   UNL A   1      33.050  26.511  23.326  1.00  0.00     0.260 C 
ATOM      7  O   UNL A   1      33.282  27.155  22.293  1.00  0.00    -0.271 OA
ATOM      8  H   UNL A   1      34.795  25.501  23.246  1.00  0.00     0.163 HD
BRANCH   6   9
ATOM      9  C   UNL A   1      31.573  26.436  23.889  1.00  0.00     0.260 C 
ATOM     10  C   UNL A   1      31.153  27.606  24.793  1.00  0.00     0.064 C 
BRANCH   9  11
ATOM     11  O   UNL A   1      30.792  25.307  24.127  1.00  0.00    -0.463 OA
BRANCH  11  12
ATOM     12  C   UNL A   1      31.183  24.190  24.784  1.00  0.00     0.235 A 
ATOM     13  C   UNL A   1      32.511  18.693  24.345  1.00  0.00     0.067 C 
ATOM     14  C   UNL A   1      32.383  20.186  24.421  1.00  0.00     0.039 A 
ATOM     15  C   UNL A   1      32.872  20.971  23.393  1.00  0.00     0.027 A 
ATOM     16  N   UNL A   1      31.744  20.688  25.480  1.00  0.00    -0.240 NA
ATOM     17  C   UNL A   1      32.617  22.362  23.344  1.00  0.00    -0.034 A 
ATOM     18  C   UNL A   1      31.532  22.017  25.442  1.00  0.00     0.147 A 
ATOM     19  C   UNL A   1      33.181  23.047  22.127  1.00  0.00     0.045 C 
ATOM     20  C   UNL A   1      31.868  22.934  24.429  1.00  0.00     0.078 A 
ATOM     21  S   UNL A   1      30.710  22.781  26.714  1.00  0.00    -0.012 S 
ATOM     22  N   UNL A   1      30.634  24.249  25.997  1.00  0.00    -0.153 NA
ENDBRANCH  11  12
ENDBRANCH   9  11
ENDBRANCH   6   9
ENDBRANCH   4   5
ENDBRANCH   3   4
ENDBRANCH   2   3
ENDBRANCH   1   2
BRANCH   1  23
ATOM     23  C   UNL A   1      38.146  22.271  25.477  1.00  0.00     0.021 C 
BRANCH  23  24
ATOM     24  C   UNL A   1      39.257  22.176  26.506  1.00  0.00     0.116 C 
BRANCH  24  25
ATOM     25  N   UNL A   1      40.600  22.103  25.930  1.00  0.00    -0.352 N 
ATOM     26  C   UNL A   1      41.554  23.111  25.841  1.00  0.00     0.251 C 
ATOM     27  H   UNL A   1      40.863  21.230  25.558  1.00  0.00     0.163 HD
ATOM     28  O   UNL A   1      42.487  23.009  25.063  1.00  0.00    -0.269 OA
BRANCH  26  29
ATOM     29  C   UNL A   1      41.413  24.313  26.700  1.00  0.00     0.039 A 
ATOM     30  C   UNL A   1      41.984  24.391  27.973  1.00  0.00     0.014 A 
ATOM     31  C   UNL A   1      40.690  25.390  26.201  1.00  0.00     0.014 A 
ATOM     32  C   UNL A   1      41.871  25.586  28.687  1.00  0.00     0.010 A 
ATOM     33  C   UNL A   1      40.778  26.617  26.791  1.00  0.00     0.010 A 
ATOM     34  C   UNL A   1      41.278  26.705  28.076  1.00  0.00    -0.014 A 
BRANCH  34  35
ATOM     35  C   UNL A   1      41.244  28.013  28.720  1.00  0.00     0.031 A 
ATOM     36  C   UNL A   1      42.383  28.881  28.342  1.00  0.00     0.074 A 
ATOM     37  C   UNL A   1      40.182  28.479  29.417  1.00  0.00     0.049 A 
ATOM     38  N   UNL A   1      43.431  29.142  29.048  1.00  0.00    -0.248 NA
ATOM     39  C   UNL A   1      42.471  29.357  26.952  1.00  0.00     0.031 C 
ATOM     40  C   UNL A   1      38.865  27.846  29.592  1.00  0.00     0.029 A 
ATOM     41  N   UNL A   1      40.019  29.672  30.056  1.00  0.00    -0.354 N 
ATOM     42  C   UNL A   1      44.163  30.054  28.298  1.00  0.00     0.074 A 
ATOM     43  C   UNL A   1      43.669  29.949  26.951  1.00  0.00     0.031 C 
ATOM     44  C   UNL A   1      37.983  28.744  30.084  1.00  0.00     0.029 A 
ATOM     45  C   UNL A   1      38.710  29.944  30.448  1.00  0.00     0.049 A 
ATOM     46  H   UNL A   1      40.766  30.292  30.227  1.00  0.00     0.167 HD
ATOM     47  C   UNL A   1      44.874  31.037  28.918  1.00  0.00     0.037 A 
ATOM     48  C   UNL A   1      38.256  31.064  31.063  1.00  0.00     0.037 A 
ATOM     49  C   UNL A   1      44.943  30.788  30.337  1.00  0.00     0.049 A 
ATOM     50  C   UNL A   1      39.424  31.667  31.749  1.00  0.00     0.074 A 
ATOM     51  C   UNL A   1      45.608  29.913  31.166  1.00  0.00     0.029 A 
ATOM     52  N   UNL A   1      43.875  31.290  31.040  1.00  0.00    -0.354 N 
ATOM     53  N   UNL A   1      40.056  31.087  32.735  1.00  0.00    -0.248 NA
ATOM     54  C   UNL A   1      40.136  32.769  31.115  1.00  0.00     0.031 C 
ATOM     55  C   UNL A   1      44.790  29.765  32.325  1.00  0.00     0.029 A 
ATOM     56  C   UNL A   1      43.669  30.582  32.195  1.00  0.00     0.049 A 
ATOM     57  H   UNL A   1      43.331  32.057  30.751  1.00  0.00     0.167 HD
ATOM     58  C   UNL A   1      41.374  31.455  32.559  1.00  0.00     0.074 A 
ATOM     59  C   UNL A   1      41.337  32.615  31.677  1.00  0.00     0.031 C 
ATOM     60  C   UNL A   1      42.390  30.602  32.874  1.00  0.00     0.037 A 
BRANCH  47  61
ATOM     61  C   UNL A   1      45.091  32.434  28.373  1.00  0.00     0.058 A 
ATOM     62  C   UNL A   1      46.407  32.857  28.085  1.00  0.00     0.135 A 
ATOM     63  C   UNL A   1      44.118  33.458  28.394  1.00  0.00     0.135 A 
ATOM     64  F   UNL A   1      47.418  31.973  28.051  1.00  0.00    -0.206 F 
ATOM     65  C   UNL A   1      46.738  34.200  27.892  1.00  0.00     0.059 A 
ATOM     66  C   UNL A   1      44.418  34.794  28.150  1.00  0.00     0.059 A 
ATOM     67  F   UNL A   1      42.849  33.235  28.749  1.00  0.00    -0.206 F 
ATOM     68  C   UNL A   1      45.735  35.162  27.935  1.00  0.00     0.060 A 
BRANCH  68  69
ATOM     69  S   UNL A   1      46.165  36.901  27.757  1.00  0.00     0.124 S 
ATOM     70  O   UNL A   1      45.069  37.550  28.468  1.00  0.00    -0.237 OA
ATOM     71  O   UNL A   1      47.472  36.956  28.405  1.00  0.00    -0.237 OA
ATOM     72  O   UNL A   1      46.184  37.097  26.310  1.00  0.00    -0.744 OA
ENDBRANCH  68  69
ENDBRANCH  47  61
BRANCH  48  73
ATOM     73  C   UNL A   1      36.958  31.773  30.929  1.00  0.00     0.058 A 
ATOM     74  C   UNL A   1      35.980  31.682  31.938  1.00  0.00     0.135 A 
ATOM     75  C   UNL A   1      36.777  32.798  29.980  1.00  0.00     0.135 A 
ATOM     76  F   UNL A   1      36.070  30.732  32.883  1.00  0.00    -0.206 F 
ATOM     77  C   UNL A   1      34.940  32.609  32.057  1.00  0.00     0.059 A 
ATOM     78  C   UNL A   1      35.742  33.731  30.074  1.00  0.00     0.059 A 
ATOM     79  F   UNL A   1      37.661  32.981  28.988  1.00  0.00    -0.206 F 
ATOM     80  C   UNL A   1      34.849  33.652  31.138  1.00  0.00     0.060 A 
BRANCH  80  81
ATOM     81  S   UNL A   1      33.641  34.969  31.421  1.00  0.00     0.124 S 
ATOM     82  O   UNL A   1      34.501  36.119  31.680  1.00  0.00    -0.237 OA
ATOM     83  O   UNL A   1      32.911  34.992  30.158  1.00  0.00    -0.237 OA
ATOM     84  O   UNL A   1      32.878  34.489  32.570  1.00  0.00    -0.744 OA
ENDBRANCH  80  81
ENDBRANCH  48  73
BRANCH  60  85
ATOM     85  C   UNL A   1      42.113  29.519  33.878  1.00  0.00     0.058 A 
ATOM     86  C   UNL A   1      41.727  28.207  33.562  1.00  0.00     0.135 A 
ATOM     87  C   UNL A   1      42.376  29.807  35.226  1.00  0.00     0.135 A 
ATOM     88  F   UNL A   1      41.519  27.836  32.292  1.00  0.00    -0.206 F 
ATOM     89  C   UNL A   1      41.602  27.224  34.546  1.00  0.00     0.059 A 
ATOM     90  C   UNL A   1      42.285  28.838  36.219  1.00  0.00     0.059 A 
ATOM     91  F   UNL A   1      42.785  31.035  35.583  1.00  0.00    -0.206 F 
ATOM     92  C   UNL A   1      41.896  27.547  35.872  1.00  0.00     0.060 A 
BRANCH  92  93
ATOM     93  S   UNL A   1      41.839  26.251  37.129  1.00  0.00     0.124 S 
ATOM     94  O   UNL A   1      40.524  26.457  37.726  1.00  0.00    -0.237 OA
ATOM     95  O   UNL A   1      41.992  25.035  36.335  1.00  0.00    -0.237 OA
ATOM     96  O   UNL A   1      42.973  26.564  37.995  1.00  0.00    -0.744 OA
ENDBRANCH  92  93
ENDBRANCH  60  85
ENDBRANCH  34  35
ENDBRANCH  26  29
ENDBRANCH  24  25
ENDBRANCH  23  24
ENDBRANCH   1  23
TORSDOF 18
ENDMDL
