MODEL 1
REMARK VINA RESULT:     -11.9      0.000      0.000
REMARK SMILES Cc1cc(C)n(-c2nc(C)c(C)c(Oc3cccc(C(=O)NCCCCCCNC(=O)c4ccc(-c5c6nc(c(-c7c(F)cc(S(=O)(=O)[O-])cc7F)c7ccc([nH]7)c(-c7c(F)cc(S(=O)(=O)[O-])cc7F)c7nc(c(-c8c(F)cc(S(=O)(=O)[O-])cc8F)c8ccc5[nH]8)C=C7)C=C6)cc4)c3)n2)n1
REMARK SMILES IDX 25 1 24 2 23 3 22 4 20 5 21 6 19 8 15 9 16 10 98 11 17 12
REMARK SMILES IDX 18 13 14 14 13 15 7 16 8 17 99 18 9 19 10 20 11 21 12 22
REMARK SMILES IDX 6 23 1 24 2 25 3 26 100 27 4 28 5 29 26 30 27 31 28 32 29 33
REMARK SMILES IDX 30 34 31 36 32 37 33 38 97 39 34 40 96 41 35 42 36 43 37 44
REMARK SMILES IDX 90 45 38 46 95 47 89 48 91 49 39 50 94 51 88 52 87 53 40 55
REMARK SMILES IDX 74 56 53 57 73 58 54 59 57 60 72 61 92 62 55 63 56 64 71 66
REMARK SMILES IDX 93 67 58 68 41 69 42 70 51 71 43 72 44 73 50 74 52 75 45 76
REMARK SMILES IDX 46 77 47 78 48 79 49 80 75 81 76 82 85 83 77 84 78 85 84 86
REMARK SMILES IDX 86 87 79 88 80 89 81 90 82 91 83 92 59 93 60 94 69 95 61 96
REMARK SMILES IDX 62 97 68 98 70 99 63 100 64 101 65 102 66 103 67 104
REMARK H PARENT 22 7 29 35 91 54 57 65
REMARK Flexibility Score: inf
ROOT
ATOM      1  C   UNL A   1      41.154  22.057  27.033  1.00  0.00     0.002 C 
ENDROOT
BRANCH   1   2
ATOM      2  C   UNL A   1      39.620  21.969  27.009  1.00  0.00     0.021 C 
BRANCH   2   3
ATOM      3  C   UNL A   1      39.039  22.173  25.609  1.00  0.00     0.116 C 
BRANCH   3   4
ATOM      4  N   UNL A   1      38.045  21.155  25.339  1.00  0.00    -0.352 N 
ATOM      5  C   UNL A   1      36.699  21.177  25.097  1.00  0.00     0.251 C 
ATOM      6  O   UNL A   1      36.155  20.078  24.959  1.00  0.00    -0.269 OA
ATOM      7  H   UNL A   1      38.422  20.246  25.326  1.00  0.00     0.163 HD
BRANCH   5   8
ATOM      8  C   UNL A   1      35.880  22.415  24.921  1.00  0.00     0.043 A 
ATOM      9  C   UNL A   1      33.922  23.680  24.251  1.00  0.00     0.130 A 
ATOM     10  C   UNL A   1      34.406  24.812  24.902  1.00  0.00     0.047 A 
ATOM     11  C   UNL A   1      34.703  22.522  24.178  1.00  0.00     0.061 A 
ATOM     12  C   UNL A   1      35.634  24.763  25.551  1.00  0.00     0.005 A 
ATOM     13  C   UNL A   1      36.350  23.564  25.584  1.00  0.00     0.014 A 
BRANCH   9  14
ATOM     14  O   UNL A   1      32.713  23.808  23.611  1.00  0.00    -0.439 OA
BRANCH  14  15
ATOM     15  C   UNL A   1      31.746  24.665  24.144  1.00  0.00     0.227 A 
ATOM     16  C   UNL A   1      30.578  26.632  24.151  1.00  0.00     0.254 A 
ATOM     17  N   UNL A   1      29.871  26.257  25.240  1.00  0.00    -0.216 NA
ATOM     18  N   UNL A   1      31.495  25.852  23.546  1.00  0.00    -0.175 NA
ATOM     19  C   UNL A   1      30.062  25.017  25.733  1.00  0.00     0.050 A 
ATOM     20  C   UNL A   1      29.057  24.595  26.767  1.00  0.00     0.067 C 
ATOM     21  C   UNL A   1      31.051  24.179  25.245  1.00  0.00     0.033 A 
ATOM     22  C   UNL A   1      31.328  22.834  25.844  1.00  0.00     0.052 C 
BRANCH  16  23
ATOM     23  N   UNL A   1      30.291  27.946  23.628  1.00  0.00    -0.203 N 
ATOM     24  C   UNL A   1      28.273  30.032  21.559  1.00  0.00     0.069 C 
ATOM     25  C   UNL A   1      29.241  29.452  22.521  1.00  0.00     0.060 A 
ATOM     26  C   UNL A   1      29.976  30.141  23.504  1.00  0.00     0.049 A 
ATOM     27  N   UNL A   1      29.520  28.142  22.515  1.00  0.00    -0.170 NA
ATOM     28  C   UNL A   1      30.669  29.167  24.188  1.00  0.00     0.045 A 
ATOM     29  C   UNL A   1      31.668  29.303  25.277  1.00  0.00     0.067 C 
ENDBRANCH  16  23
ENDBRANCH  14  15
ENDBRANCH   9  14
ENDBRANCH   5   8
ENDBRANCH   3   4
ENDBRANCH   2   3
ENDBRANCH   1   2
BRANCH   1  30
ATOM     30  C   UNL A   1      41.849  21.031  27.945  1.00  0.00     0.002 C 
BRANCH  30  31
ATOM     31  C   UNL A   1      42.330  19.750  27.248  1.00  0.00     0.021 C 
BRANCH  31  32
ATOM     32  C   UNL A   1      42.297  19.866  25.734  1.00  0.00     0.116 C 
BRANCH  32  33
ATOM     33  N   UNL A   1      43.613  19.614  25.153  1.00  0.00    -0.352 N 
ATOM     34  C   UNL A   1      44.551  20.536  24.751  1.00  0.00     0.251 C 
ATOM     35  H   UNL A   1      43.860  18.668  25.036  1.00  0.00     0.163 HD
ATOM     36  O   UNL A   1      45.452  20.220  23.976  1.00  0.00    -0.269 OA
BRANCH  34  37
ATOM     37  C   UNL A   1      44.453  21.905  25.273  1.00  0.00     0.039 A 
ATOM     38  C   UNL A   1      43.673  22.870  24.632  1.00  0.00     0.014 A 
ATOM     39  C   UNL A   1      45.144  22.203  26.449  1.00  0.00     0.014 A 
ATOM     40  C   UNL A   1      43.540  24.122  25.224  1.00  0.00     0.010 A 
ATOM     41  C   UNL A   1      44.899  23.384  27.099  1.00  0.00     0.010 A 
ATOM     42  C   UNL A   1      44.145  24.366  26.466  1.00  0.00    -0.014 A 
BRANCH  42  43
ATOM     43  C   UNL A   1      43.916  25.619  27.172  1.00  0.00     0.031 A 
ATOM     44  C   UNL A   1      44.903  26.694  26.871  1.00  0.00     0.074 A 
ATOM     45  C   UNL A   1      42.785  25.859  27.869  1.00  0.00     0.049 A 
ATOM     46  N   UNL A   1      45.774  27.213  27.670  1.00  0.00    -0.248 NA
ATOM     47  C   UNL A   1      45.041  27.147  25.476  1.00  0.00     0.031 C 
ATOM     48  C   UNL A   1      41.592  25.013  28.009  1.00  0.00     0.029 A 
ATOM     49  N   UNL A   1      42.421  26.986  28.534  1.00  0.00    -0.354 N 
ATOM     50  C   UNL A   1      46.421  28.213  26.947  1.00  0.00     0.074 A 
ATOM     51  C   UNL A   1      46.060  28.005  25.569  1.00  0.00     0.031 C 
ATOM     52  C   UNL A   1      40.568  25.747  28.498  1.00  0.00     0.029 A 
ATOM     53  C   UNL A   1      41.074  27.055  28.870  1.00  0.00     0.049 A 
ATOM     54  H   UNL A   1      43.062  27.698  28.759  1.00  0.00     0.167 HD
ATOM     55  C   UNL A   1      47.026  29.262  27.572  1.00  0.00     0.037 A 
ATOM     56  C   UNL A   1      40.425  28.127  29.392  1.00  0.00     0.037 A 
ATOM     57  C   UNL A   1      47.202  28.996  28.979  1.00  0.00     0.049 A 
ATOM     58  C   UNL A   1      41.469  28.990  30.010  1.00  0.00     0.074 A 
ATOM     59  C   UNL A   1      47.879  28.033  29.702  1.00  0.00     0.029 A 
ATOM     60  N   UNL A   1      46.296  29.549  29.853  1.00  0.00    -0.354 N 
ATOM     61  N   UNL A   1      42.183  28.629  31.042  1.00  0.00    -0.248 NA
ATOM     62  C   UNL A   1      42.054  30.035  29.183  1.00  0.00     0.031 C 
ATOM     63  C   UNL A   1      47.012  27.714  30.788  1.00  0.00     0.029 A 
ATOM     64  C   UNL A   1      45.899  28.553  30.710  1.00  0.00     0.049 A 
ATOM     65  H   UNL A   1      45.989  30.484  29.863  1.00  0.00     0.167 HD
ATOM     66  C   UNL A   1      43.467  29.078  30.764  1.00  0.00     0.074 A 
ATOM     67  C   UNL A   1      43.310  29.999  29.639  1.00  0.00     0.031 C 
ATOM     68  C   UNL A   1      44.569  28.450  31.273  1.00  0.00     0.037 A 
BRANCH  55  69
ATOM     69  C   UNL A   1      47.145  30.657  27.005  1.00  0.00     0.058 A 
ATOM     70  C   UNL A   1      48.399  31.304  27.014  1.00  0.00     0.135 A 
ATOM     71  C   UNL A   1      46.037  31.484  26.717  1.00  0.00     0.135 A 
ATOM     72  F   UNL A   1      49.522  30.616  27.276  1.00  0.00    -0.206 F 
ATOM     73  C   UNL A   1      48.532  32.681  26.832  1.00  0.00     0.059 A 
ATOM     74  C   UNL A   1      46.153  32.849  26.481  1.00  0.00     0.059 A 
ATOM     75  F   UNL A   1      44.778  31.029  26.749  1.00  0.00    -0.206 F 
ATOM     76  C   UNL A   1      47.399  33.448  26.583  1.00  0.00     0.060 A 
BRANCH  76  77
ATOM     77  S   UNL A   1      47.550  35.237  26.461  1.00  0.00     0.124 S 
ATOM     78  O   UNL A   1      48.830  35.375  25.775  1.00  0.00    -0.237 OA
ATOM     79  O   UNL A   1      46.365  35.588  25.686  1.00  0.00    -0.237 OA
ATOM     80  O   UNL A   1      47.532  35.671  27.856  1.00  0.00    -0.744 OA
ENDBRANCH  76  77
ENDBRANCH  55  69
BRANCH  56  81
ATOM     81  C   UNL A   1      39.058  28.618  29.060  1.00  0.00     0.058 A 
ATOM     82  C   UNL A   1      38.060  28.715  30.048  1.00  0.00     0.135 A 
ATOM     83  C   UNL A   1      38.785  29.272  27.842  1.00  0.00     0.135 A 
ATOM     84  F   UNL A   1      38.240  28.135  31.246  1.00  0.00    -0.206 F 
ATOM     85  C   UNL A   1      36.893  29.466  29.862  1.00  0.00     0.059 A 
ATOM     86  C   UNL A   1      37.625  30.019  27.630  1.00  0.00     0.059 A 
ATOM     87  F   UNL A   1      39.684  29.286  26.847  1.00  0.00    -0.206 F 
ATOM     88  C   UNL A   1      36.697  30.138  28.656  1.00  0.00     0.060 A 
BRANCH  88  89
ATOM     89  S   UNL A   1      35.291  31.263  28.481  1.00  0.00     0.124 S 
ATOM     90  O   UNL A   1      34.984  31.586  29.870  1.00  0.00    -0.237 OA
ATOM     91  O   UNL A   1      35.860  32.344  27.684  1.00  0.00    -0.237 OA
ATOM     92  O   UNL A   1      34.290  30.450  27.794  1.00  0.00    -0.744 OA
ENDBRANCH  88  89
ENDBRANCH  56  81
BRANCH  68  93
ATOM     93  C   UNL A   1      44.375  27.407  32.346  1.00  0.00     0.058 A 
ATOM     94  C   UNL A   1      44.169  27.692  33.709  1.00  0.00     0.135 A 
ATOM     95  C   UNL A   1      44.209  26.072  31.946  1.00  0.00     0.135 A 
ATOM     96  F   UNL A   1      44.206  28.951  34.162  1.00  0.00    -0.206 F 
ATOM     97  C   UNL A   1      43.845  26.696  34.633  1.00  0.00     0.059 A 
ATOM     98  C   UNL A   1      43.858  25.067  32.844  1.00  0.00     0.059 A 
ATOM     99  F   UNL A   1      44.330  25.741  30.650  1.00  0.00    -0.206 F 
ATOM    100  C   UNL A   1      43.687  25.384  34.189  1.00  0.00     0.060 A 
BRANCH 100 101
ATOM    101  S   UNL A   1      43.192  24.109  35.369  1.00  0.00     0.124 S 
ATOM    102  O   UNL A   1      43.882  22.930  34.855  1.00  0.00    -0.237 OA
ATOM    103  O   UNL A   1      43.694  24.636  36.634  1.00  0.00    -0.237 OA
ATOM    104  O   UNL A   1      41.736  24.079  35.250  1.00  0.00    -0.744 OA
ENDBRANCH 100 101
ENDBRANCH  68  93
ENDBRANCH  42  43
ENDBRANCH  34  37
ENDBRANCH  32  33
ENDBRANCH  31  32
ENDBRANCH  30  31
ENDBRANCH   1  30
TORSDOF 19
ENDMDL
MODEL 2
REMARK VINA RESULT:     -11.5      4.856      9.644
REMARK SMILES Cc1cc(C)n(-c2nc(C)c(C)c(Oc3cccc(C(=O)NCCCCCCNC(=O)c4ccc(-c5c6nc(c(-c7c(F)cc(S(=O)(=O)[O-])cc7F)c7ccc([nH]7)c(-c7c(F)cc(S(=O)(=O)[O-])cc7F)c7nc(c(-c8c(F)cc(S(=O)(=O)[O-])cc8F)c8ccc5[nH]8)C=C7)C=C6)cc4)c3)n2)n1
REMARK SMILES IDX 25 1 24 2 23 3 22 4 20 5 21 6 19 8 15 9 16 10 98 11 17 12
REMARK SMILES IDX 18 13 14 14 13 15 7 16 8 17 99 18 9 19 10 20 11 21 12 22
REMARK SMILES IDX 6 23 1 24 2 25 3 26 100 27 4 28 5 29 26 30 27 31 28 32 29 33
REMARK SMILES IDX 30 34 31 36 32 37 33 38 97 39 34 40 96 41 35 42 36 43 37 44
REMARK SMILES IDX 90 45 38 46 95 47 89 48 91 49 39 50 94 51 88 52 87 53 40 55
REMARK SMILES IDX 74 56 53 57 73 58 54 59 57 60 72 61 92 62 55 63 56 64 71 66
REMARK SMILES IDX 93 67 58 68 41 69 42 70 51 71 43 72 44 73 50 74 52 75 45 76
REMARK SMILES IDX 46 77 47 78 48 79 49 80 75 81 76 82 85 83 77 84 78 85 84 86
REMARK SMILES IDX 86 87 79 88 80 89 81 90 82 91 83 92 59 93 60 94 69 95 61 96
REMARK SMILES IDX 62 97 68 98 70 99 63 100 64 101 65 102 66 103 67 104
REMARK H PARENT 22 7 29 35 91 54 57 65
REMARK Flexibility Score: inf
ROOT
ATOM      1  C   UNL A   1      44.118  25.508  25.443  1.00  0.00     0.002 C 
ENDROOT
BRANCH   1   2
ATOM      2  C   UNL A   1      44.545  26.036  26.821  1.00  0.00     0.021 C 
BRANCH   2   3
ATOM      3  C   UNL A   1      45.825  26.872  26.764  1.00  0.00     0.116 C 
BRANCH   3   4
ATOM      4  N   UNL A   1      46.230  27.052  25.386  1.00  0.00    -0.352 N 
ATOM      5  C   UNL A   1      47.435  27.217  24.760  1.00  0.00     0.251 C 
ATOM      6  O   UNL A   1      47.391  27.400  23.540  1.00  0.00    -0.269 OA
ATOM      7  H   UNL A   1      45.470  27.055  24.760  1.00  0.00     0.163 HD
BRANCH   5   8
ATOM      8  C   UNL A   1      48.768  27.119  25.428  1.00  0.00     0.043 A 
ATOM      9  C   UNL A   1      50.323  27.339  27.276  1.00  0.00     0.130 A 
ATOM     10  C   UNL A   1      51.292  26.628  26.571  1.00  0.00     0.047 A 
ATOM     11  C   UNL A   1      49.108  27.666  26.667  1.00  0.00     0.061 A 
ATOM     12  C   UNL A   1      51.016  26.173  25.287  1.00  0.00     0.005 A 
ATOM     13  C   UNL A   1      49.754  26.393  24.734  1.00  0.00     0.014 A 
BRANCH   9  14
ATOM     14  O   UNL A   1      50.673  27.778  28.530  1.00  0.00    -0.439 OA
BRANCH  14  15
ATOM     15  C   UNL A   1      50.320  27.012  29.645  1.00  0.00     0.227 A 
ATOM     16  C   UNL A   1      48.771  26.155  31.094  1.00  0.00     0.254 A 
ATOM     17  N   UNL A   1      49.728  25.525  31.810  1.00  0.00    -0.216 NA
ATOM     18  N   UNL A   1      49.017  26.875  29.982  1.00  0.00    -0.175 NA
ATOM     19  C   UNL A   1      51.001  25.584  31.371  1.00  0.00     0.050 A 
ATOM     20  C   UNL A   1      51.946  24.648  32.069  1.00  0.00     0.067 C 
ATOM     21  C   UNL A   1      51.370  26.378  30.299  1.00  0.00     0.033 A 
ATOM     22  C   UNL A   1      52.795  26.518  29.859  1.00  0.00     0.052 C 
BRANCH  16  23
ATOM     23  N   UNL A   1      47.418  26.008  31.574  1.00  0.00    -0.203 N 
ATOM     24  C   UNL A   1      44.187  24.551  31.195  1.00  0.00     0.069 C 
ATOM     25  C   UNL A   1      45.410  25.261  31.643  1.00  0.00     0.060 A 
ATOM     26  C   UNL A   1      45.683  25.747  32.935  1.00  0.00     0.049 A 
ATOM     27  N   UNL A   1      46.407  25.523  30.789  1.00  0.00    -0.170 NA
ATOM     28  C   UNL A   1      46.962  26.252  32.870  1.00  0.00     0.045 A 
ATOM     29  C   UNL A   1      47.753  26.968  33.903  1.00  0.00     0.067 C 
ENDBRANCH  16  23
ENDBRANCH  14  15
ENDBRANCH   9  14
ENDBRANCH   5   8
ENDBRANCH   3   4
ENDBRANCH   2   3
ENDBRANCH   1   2
BRANCH   1  30
ATOM     30  C   UNL A   1      44.482  24.039  25.169  1.00  0.00     0.002 C 
BRANCH  30  31
ATOM     31  C   UNL A   1      43.318  23.144  24.722  1.00  0.00     0.021 C 
BRANCH  31  32
ATOM     32  C   UNL A   1      42.858  22.200  25.820  1.00  0.00     0.116 C 
BRANCH  32  33
ATOM     33  N   UNL A   1      41.421  21.950  25.738  1.00  0.00    -0.352 N 
ATOM     34  C   UNL A   1      40.408  22.620  26.382  1.00  0.00     0.251 C 
ATOM     35  H   UNL A   1      41.144  21.211  25.148  1.00  0.00     0.163 HD
ATOM     36  O   UNL A   1      39.295  22.111  26.506  1.00  0.00    -0.269 OA
BRANCH  34  37
ATOM     37  C   UNL A   1      40.685  23.960  26.916  1.00  0.00     0.039 A 
ATOM     38  C   UNL A   1      40.101  25.097  26.353  1.00  0.00     0.014 A 
ATOM     39  C   UNL A   1      41.528  24.057  28.022  1.00  0.00     0.014 A 
ATOM     40  C   UNL A   1      40.321  26.330  26.958  1.00  0.00     0.010 A 
ATOM     41  C   UNL A   1      41.629  25.246  28.697  1.00  0.00     0.010 A 
ATOM     42  C   UNL A   1      41.076  26.394  28.140  1.00  0.00    -0.014 A 
BRANCH  42  43
ATOM     43  C   UNL A   1      41.215  27.647  28.868  1.00  0.00     0.031 A 
ATOM     44  C   UNL A   1      42.257  28.567  28.333  1.00  0.00     0.074 A 
ATOM     45  C   UNL A   1      40.328  28.037  29.810  1.00  0.00     0.049 A 
ATOM     46  N   UNL A   1      43.360  28.926  28.900  1.00  0.00    -0.248 NA
ATOM     47  C   UNL A   1      42.133  29.033  26.941  1.00  0.00     0.031 C 
ATOM     48  C   UNL A   1      39.086  27.379  30.234  1.00  0.00     0.029 A 
ATOM     49  N   UNL A   1      40.308  29.188  30.531  1.00  0.00    -0.354 N 
ATOM     50  C   UNL A   1      43.967  29.835  28.036  1.00  0.00     0.074 A 
ATOM     51  C   UNL A   1      43.265  29.723  26.784  1.00  0.00     0.031 C 
ATOM     52  C   UNL A   1      38.330  28.246  30.944  1.00  0.00     0.029 A 
ATOM     53  C   UNL A   1      39.104  29.451  31.174  1.00  0.00     0.049 A 
ATOM     54  H   UNL A   1      41.086  29.788  30.593  1.00  0.00     0.167 HD
ATOM     55  C   UNL A   1      44.855  30.763  28.492  1.00  0.00     0.037 A 
ATOM     56  C   UNL A   1      38.769  30.595  31.824  1.00  0.00     0.037 A 
ATOM     57  C   UNL A   1      45.311  30.435  29.820  1.00  0.00     0.049 A 
ATOM     58  C   UNL A   1      40.048  31.273  32.171  1.00  0.00     0.074 A 
ATOM     59  C   UNL A   1      45.983  29.361  30.372  1.00  0.00     0.029 A 
ATOM     60  N   UNL A   1      44.731  31.095  30.877  1.00  0.00    -0.354 N 
ATOM     61  N   UNL A   1      40.920  30.779  33.009  1.00  0.00    -0.248 NA
ATOM     62  C   UNL A   1      40.578  32.238  31.219  1.00  0.00     0.031 C 
ATOM     63  C   UNL A   1      45.355  29.148  31.635  1.00  0.00     0.029 A 
ATOM     64  C   UNL A   1      44.398  30.148  31.813  1.00  0.00     0.049 A 
ATOM     65  H   UNL A   1      44.584  32.066  30.950  1.00  0.00     0.167 HD
ATOM     66  C   UNL A   1      42.156  31.035  32.433  1.00  0.00     0.074 A 
ATOM     67  C   UNL A   1      41.884  32.000  31.368  1.00  0.00     0.031 C 
ATOM     68  C   UNL A   1      43.237  30.233  32.674  1.00  0.00     0.037 A 
BRANCH  55  69
ATOM     69  C   UNL A   1      45.052  32.139  27.900  1.00  0.00     0.058 A 
ATOM     70  C   UNL A   1      46.309  32.489  27.363  1.00  0.00     0.135 A 
ATOM     71  C   UNL A   1      44.153  33.211  28.092  1.00  0.00     0.135 A 
ATOM     72  F   UNL A   1      47.242  31.550  27.138  1.00  0.00    -0.206 F 
ATOM     73  C   UNL A   1      46.674  33.812  27.114  1.00  0.00     0.059 A 
ATOM     74  C   UNL A   1      44.478  34.532  27.801  1.00  0.00     0.059 A 
ATOM     75  F   UNL A   1      42.954  33.046  28.663  1.00  0.00    -0.206 F 
ATOM     76  C   UNL A   1      45.755  34.829  27.353  1.00  0.00     0.060 A 
BRANCH  76  77
ATOM     77  S   UNL A   1      46.259  36.544  27.143  1.00  0.00     0.124 S 
ATOM     78  O   UNL A   1      46.886  36.504  25.827  1.00  0.00    -0.237 OA
ATOM     79  O   UNL A   1      44.981  37.245  27.224  1.00  0.00    -0.237 OA
ATOM     80  O   UNL A   1      47.164  36.769  28.268  1.00  0.00    -0.744 OA
ENDBRANCH  76  77
ENDBRANCH  55  69
BRANCH  56  81
ATOM     81  C   UNL A   1      37.454  31.297  31.819  1.00  0.00     0.058 A 
ATOM     82  C   UNL A   1      36.803  31.632  33.021  1.00  0.00     0.135 A 
ATOM     83  C   UNL A   1      36.950  31.909  30.653  1.00  0.00     0.135 A 
ATOM     84  F   UNL A   1      37.225  31.108  34.183  1.00  0.00    -0.206 F 
ATOM     85  C   UNL A   1      35.759  32.563  33.072  1.00  0.00     0.059 A 
ATOM     86  C   UNL A   1      35.905  32.834  30.679  1.00  0.00     0.059 A 
ATOM     87  F   UNL A   1      37.522  31.700  29.458  1.00  0.00    -0.206 F 
ATOM     88  C   UNL A   1      35.334  33.180  31.897  1.00  0.00     0.060 A 
BRANCH  88  89
ATOM     89  S   UNL A   1      34.123  34.522  31.981  1.00  0.00     0.124 S 
ATOM     90  O   UNL A   1      34.944  35.646  32.415  1.00  0.00    -0.237 OA
ATOM     91  O   UNL A   1      33.634  34.580  30.608  1.00  0.00    -0.237 OA
ATOM     92  O   UNL A   1      33.153  34.042  32.963  1.00  0.00    -0.744 OA
ENDBRANCH  88  89
ENDBRANCH  56  81
BRANCH  68  93
ATOM     93  C   UNL A   1      43.141  29.202  33.773  1.00  0.00     0.058 A 
ATOM     94  C   UNL A   1      43.339  29.472  35.140  1.00  0.00     0.135 A 
ATOM     95  C   UNL A   1      42.648  27.930  33.443  1.00  0.00     0.135 A 
ATOM     96  F   UNL A   1      43.709  30.690  35.555  1.00  0.00    -0.206 F 
ATOM     97  C   UNL A   1      43.090  28.515  36.127  1.00  0.00     0.059 A 
ATOM     98  C   UNL A   1      42.365  26.971  34.410  1.00  0.00     0.059 A 
ATOM     99  F   UNL A   1      42.377  27.628  32.162  1.00  0.00    -0.206 F 
ATOM    100  C   UNL A   1      42.597  27.266  35.751  1.00  0.00     0.060 A 
BRANCH 100 101
ATOM    101  S   UNL A   1      42.201  26.055  37.032  1.00  0.00     0.124 S 
ATOM    102  O   UNL A   1      42.616  24.802  36.409  1.00  0.00    -0.237 OA
ATOM    103  O   UNL A   1      43.018  26.504  38.156  1.00  0.00    -0.237 OA
ATOM    104  O   UNL A   1      40.761  26.212  37.217  1.00  0.00    -0.744 OA
ENDBRANCH 100 101
ENDBRANCH  68  93
ENDBRANCH  42  43
ENDBRANCH  34  37
ENDBRANCH  32  33
ENDBRANCH  31  32
ENDBRANCH  30  31
ENDBRANCH   1  30
TORSDOF 19
ENDMDL
MODEL 3
REMARK VINA RESULT:     -11.4      2.892      9.593
REMARK SMILES Cc1cc(C)n(-c2nc(C)c(C)c(Oc3cccc(C(=O)NCCCCCCNC(=O)c4ccc(-c5c6nc(c(-c7c(F)cc(S(=O)(=O)[O-])cc7F)c7ccc([nH]7)c(-c7c(F)cc(S(=O)(=O)[O-])cc7F)c7nc(c(-c8c(F)cc(S(=O)(=O)[O-])cc8F)c8ccc5[nH]8)C=C7)C=C6)cc4)c3)n2)n1
REMARK SMILES IDX 25 1 24 2 23 3 22 4 20 5 21 6 19 8 15 9 16 10 98 11 17 12
REMARK SMILES IDX 18 13 14 14 13 15 7 16 8 17 99 18 9 19 10 20 11 21 12 22
REMARK SMILES IDX 6 23 1 24 2 25 3 26 100 27 4 28 5 29 26 30 27 31 28 32 29 33
REMARK SMILES IDX 30 34 31 36 32 37 33 38 97 39 34 40 96 41 35 42 36 43 37 44
REMARK SMILES IDX 90 45 38 46 95 47 89 48 91 49 39 50 94 51 88 52 87 53 40 55
REMARK SMILES IDX 74 56 53 57 73 58 54 59 57 60 72 61 92 62 55 63 56 64 71 66
REMARK SMILES IDX 93 67 58 68 41 69 42 70 51 71 43 72 44 73 50 74 52 75 45 76
REMARK SMILES IDX 46 77 47 78 48 79 49 80 75 81 76 82 85 83 77 84 78 85 84 86
REMARK SMILES IDX 86 87 79 88 80 89 81 90 82 91 83 92 59 93 60 94 69 95 61 96
REMARK SMILES IDX 62 97 68 98 70 99 63 100 64 101 65 102 66 103 67 104
REMARK H PARENT 22 7 29 35 91 54 57 65
REMARK Flexibility Score: inf
ROOT
ATOM      1  C   UNL A   1      33.864  29.525  27.635  1.00  0.00     0.002 C 
ENDROOT
BRANCH   1   2
ATOM      2  C   UNL A   1      33.393  28.411  26.687  1.00  0.00     0.021 C 
BRANCH   2   3
ATOM      3  C   UNL A   1      34.424  28.079  25.607  1.00  0.00     0.116 C 
BRANCH   3   4
ATOM      4  N   UNL A   1      34.063  28.736  24.368  1.00  0.00    -0.352 N 
ATOM      5  C   UNL A   1      33.411  28.340  23.234  1.00  0.00     0.251 C 
ATOM      6  O   UNL A   1      33.330  29.180  22.333  1.00  0.00    -0.269 OA
ATOM      7  H   UNL A   1      34.350  29.677  24.336  1.00  0.00     0.163 HD
BRANCH   5   8
ATOM      8  C   UNL A   1      32.743  27.016  23.047  1.00  0.00     0.043 A 
ATOM      9  C   UNL A   1      32.671  24.629  22.620  1.00  0.00     0.130 A 
ATOM     10  C   UNL A   1      31.325  24.586  22.975  1.00  0.00     0.047 A 
ATOM     11  C   UNL A   1      33.345  25.854  22.562  1.00  0.00     0.061 A 
ATOM     12  C   UNL A   1      30.672  25.755  23.351  1.00  0.00     0.005 A 
ATOM     13  C   UNL A   1      31.385  26.953  23.414  1.00  0.00     0.014 A 
BRANCH   9  14
ATOM     14  O   UNL A   1      33.244  23.441  22.237  1.00  0.00    -0.439 OA
BRANCH  14  15
ATOM     15  C   UNL A   1      33.888  22.653  23.196  1.00  0.00     0.227 A 
ATOM     16  C   UNL A   1      35.635  22.218  24.606  1.00  0.00     0.254 A 
ATOM     17  N   UNL A   1      35.061  21.071  25.033  1.00  0.00    -0.216 NA
ATOM     18  N   UNL A   1      35.066  23.059  23.721  1.00  0.00    -0.175 NA
ATOM     19  C   UNL A   1      33.829  20.764  24.578  1.00  0.00     0.050 A 
ATOM     20  C   UNL A   1      33.165  19.624  25.297  1.00  0.00     0.067 C 
ATOM     21  C   UNL A   1      33.205  21.509  23.593  1.00  0.00     0.033 A 
ATOM     22  C   UNL A   1      31.875  21.125  23.020  1.00  0.00     0.052 C 
BRANCH  16  23
ATOM     23  N   UNL A   1      36.926  22.530  25.171  1.00  0.00    -0.203 N 
ATOM     24  C   UNL A   1      38.962  24.729  27.099  1.00  0.00     0.069 C 
ATOM     25  C   UNL A   1      38.380  23.615  26.312  1.00  0.00     0.060 A 
ATOM     26  C   UNL A   1      38.890  22.310  26.183  1.00  0.00     0.049 A 
ATOM     27  N   UNL A   1      37.256  23.784  25.605  1.00  0.00    -0.170 NA
ATOM     28  C   UNL A   1      37.964  21.632  25.422  1.00  0.00     0.045 A 
ATOM     29  C   UNL A   1      38.005  20.245  24.894  1.00  0.00     0.067 C 
ENDBRANCH  16  23
ENDBRANCH  14  15
ENDBRANCH   9  14
ENDBRANCH   5   8
ENDBRANCH   3   4
ENDBRANCH   2   3
ENDBRANCH   1   2
BRANCH   1  30
ATOM     30  C   UNL A   1      33.326  30.928  27.306  1.00  0.00     0.002 C 
BRANCH  30  31
ATOM     31  C   UNL A   1      34.138  32.097  27.881  1.00  0.00     0.021 C 
BRANCH  31  32
ATOM     32  C   UNL A   1      35.138  31.647  28.931  1.00  0.00     0.116 C 
BRANCH  32  33
ATOM     33  N   UNL A   1      34.837  32.230  30.236  1.00  0.00    -0.352 N 
ATOM     34  C   UNL A   1      35.418  31.937  31.448  1.00  0.00     0.251 C 
ATOM     35  H   UNL A   1      34.132  32.918  30.250  1.00  0.00     0.163 HD
ATOM     36  O   UNL A   1      34.856  32.230  32.502  1.00  0.00    -0.269 OA
BRANCH  34  37
ATOM     37  C   UNL A   1      36.726  31.269  31.453  1.00  0.00     0.039 A 
ATOM     38  C   UNL A   1      36.837  29.893  31.245  1.00  0.00     0.014 A 
ATOM     39  C   UNL A   1      37.858  32.062  31.642  1.00  0.00     0.014 A 
ATOM     40  C   UNL A   1      38.106  29.329  31.163  1.00  0.00     0.010 A 
ATOM     41  C   UNL A   1      39.103  31.532  31.422  1.00  0.00     0.010 A 
ATOM     42  C   UNL A   1      39.235  30.160  31.238  1.00  0.00    -0.014 A 
BRANCH  42  43
ATOM     43  C   UNL A   1      40.571  29.620  31.025  1.00  0.00     0.031 A 
ATOM     44  C   UNL A   1      41.333  29.331  32.272  1.00  0.00     0.074 A 
ATOM     45  C   UNL A   1      40.999  29.211  29.811  1.00  0.00     0.049 A 
ATOM     46  N   UNL A   1      42.400  29.919  32.700  1.00  0.00    -0.248 NA
ATOM     47  C   UNL A   1      40.764  28.372  33.234  1.00  0.00     0.031 C 
ATOM     48  C   UNL A   1      40.259  29.153  28.544  1.00  0.00     0.029 A 
ATOM     49  N   UNL A   1      42.191  28.653  29.476  1.00  0.00    -0.354 N 
ATOM     50  C   UNL A   1      42.766  29.261  33.872  1.00  0.00     0.074 A 
ATOM     51  C   UNL A   1      41.636  28.450  34.243  1.00  0.00     0.031 C 
ATOM     52  C   UNL A   1      40.927  28.381  27.660  1.00  0.00     0.029 A 
ATOM     53  C   UNL A   1      42.217  28.037  28.230  1.00  0.00     0.049 A 
ATOM     54  H   UNL A   1      42.976  28.682  30.070  1.00  0.00     0.167 HD
ATOM     55  C   UNL A   1      44.053  29.273  34.320  1.00  0.00     0.037 A 
ATOM     56  C   UNL A   1      43.222  27.279  27.724  1.00  0.00     0.037 A 
ATOM     57  C   UNL A   1      44.823  30.295  33.656  1.00  0.00     0.049 A 
ATOM     58  C   UNL A   1      44.450  27.648  28.480  1.00  0.00     0.074 A 
ATOM     59  C   UNL A   1      44.728  31.670  33.565  1.00  0.00     0.029 A 
ATOM     60  N   UNL A   1      45.638  29.909  32.617  1.00  0.00    -0.354 N 
ATOM     61  N   UNL A   1      45.002  28.831  28.421  1.00  0.00    -0.248 NA
ATOM     62  C   UNL A   1      44.768  26.871  29.669  1.00  0.00     0.031 C 
ATOM     63  C   UNL A   1      45.056  31.971  32.210  1.00  0.00     0.029 A 
ATOM     64  C   UNL A   1      45.410  30.777  31.578  1.00  0.00     0.049 A 
ATOM     65  H   UNL A   1      46.268  29.153  32.618  1.00  0.00     0.167 HD
ATOM     66  C   UNL A   1      45.380  29.115  29.726  1.00  0.00     0.074 A 
ATOM     67  C   UNL A   1      45.275  27.841  30.436  1.00  0.00     0.031 C 
ATOM     68  C   UNL A   1      45.464  30.401  30.181  1.00  0.00     0.037 A 
BRANCH  55  69
ATOM     69  C   UNL A   1      44.713  28.154  35.091  1.00  0.00     0.058 A 
ATOM     70  C   UNL A   1      44.787  26.867  34.516  1.00  0.00     0.135 A 
ATOM     71  C   UNL A   1      45.016  28.222  36.469  1.00  0.00     0.135 A 
ATOM     72  F   UNL A   1      44.520  26.683  33.213  1.00  0.00    -0.206 F 
ATOM     73  C   UNL A   1      45.062  25.726  35.270  1.00  0.00     0.059 A 
ATOM     74  C   UNL A   1      45.343  27.104  37.228  1.00  0.00     0.059 A 
ATOM     75  F   UNL A   1      44.913  29.359  37.167  1.00  0.00    -0.206 F 
ATOM     76  C   UNL A   1      45.321  25.854  36.631  1.00  0.00     0.060 A 
BRANCH  76  77
ATOM     77  S   UNL A   1      45.563  24.375  37.629  1.00  0.00     0.124 S 
ATOM     78  O   UNL A   1      47.000  24.419  37.871  1.00  0.00    -0.237 OA
ATOM     79  O   UNL A   1      44.709  24.648  38.781  1.00  0.00    -0.237 OA
ATOM     80  O   UNL A   1      45.101  23.301  36.754  1.00  0.00    -0.744 OA
ENDBRANCH  76  77
ENDBRANCH  55  69
BRANCH  56  81
ATOM     81  C   UNL A   1      43.108  26.026  26.925  1.00  0.00     0.058 A 
ATOM     82  C   UNL A   1      43.714  25.912  25.660  1.00  0.00     0.135 A 
ATOM     83  C   UNL A   1      42.653  24.822  27.502  1.00  0.00     0.135 A 
ATOM     84  F   UNL A   1      44.190  27.004  25.041  1.00  0.00    -0.206 F 
ATOM     85  C   UNL A   1      43.914  24.675  25.034  1.00  0.00     0.059 A 
ATOM     86  C   UNL A   1      42.834  23.579  26.893  1.00  0.00     0.059 A 
ATOM     87  F   UNL A   1      42.103  24.804  28.724  1.00  0.00    -0.206 F 
ATOM     88  C   UNL A   1      43.493  23.510  25.673  1.00  0.00     0.060 A 
BRANCH  88  89
ATOM     89  S   UNL A   1      43.920  21.901  24.963  1.00  0.00     0.124 S 
ATOM     90  O   UNL A   1      45.170  21.589  25.647  1.00  0.00    -0.237 OA
ATOM     91  O   UNL A   1      42.768  21.087  25.334  1.00  0.00    -0.237 OA
ATOM     92  O   UNL A   1      44.044  22.182  23.534  1.00  0.00    -0.744 OA
ENDBRANCH  88  89
ENDBRANCH  56  81
BRANCH  68  93
ATOM     93  C   UNL A   1      45.381  31.529  29.181  1.00  0.00     0.058 A 
ATOM     94  C   UNL A   1      46.451  31.962  28.376  1.00  0.00     0.135 A 
ATOM     95  C   UNL A   1      44.116  32.068  28.898  1.00  0.00     0.135 A 
ATOM     96  F   UNL A   1      47.672  31.427  28.507  1.00  0.00    -0.206 F 
ATOM     97  C   UNL A   1      46.280  32.907  27.362  1.00  0.00     0.059 A 
ATOM     98  C   UNL A   1      43.916  32.989  27.873  1.00  0.00     0.059 A 
ATOM     99  F   UNL A   1      43.041  31.652  29.586  1.00  0.00    -0.206 F 
ATOM    100  C   UNL A   1      45.004  33.412  27.114  1.00  0.00     0.060 A 
BRANCH 100 101
ATOM    101  S   UNL A   1      44.767  34.576  25.752  1.00  0.00     0.124 S 
ATOM    102  O   UNL A   1      46.067  34.541  25.089  1.00  0.00    -0.237 OA
ATOM    103  O   UNL A   1      43.662  33.976  25.011  1.00  0.00    -0.237 OA
ATOM    104  O   UNL A   1      44.445  35.831  26.428  1.00  0.00    -0.744 OA
ENDBRANCH 100 101
ENDBRANCH  68  93
ENDBRANCH  42  43
ENDBRANCH  34  37
ENDBRANCH  32  33
ENDBRANCH  31  32
ENDBRANCH  30  31
ENDBRANCH   1  30
TORSDOF 19
ENDMDL
