MODEL 1
REMARK VINA RESULT:     -11.9      0.000      0.000
REMARK SMILES O=C(C[C@@H](C(=O)NCCCCCCNC(=O)c1ccc(-c2c3nc(c(-c4c(F)cc(S(=O)(=O)[O-])cc4F)c4ccc([nH]4)c(-c4c(F)cc(S(=O)(=O)[O-])cc4F)c4nc(c(-c5c(F)cc(S(=O)(=O)[O-])cc5F)c5ccc2[nH]5)C=C4)C=C3)cc1)c1ccccc1)Nc1cc(C(F)(F)F)ccc1-n1cncn1
REMARK SMILES IDX 10 1 9 2 8 3 7 4 5 5 6 6 4 8 3 9 2 10 1 11 89 12 90 14 91 15
REMARK SMILES IDX 99 16 92 17 98 18 97 19 100 20 101 21 104 22 102 23 103 24
REMARK SMILES IDX 93 25 94 26 95 27 96 28 83 29 84 30 88 31 85 32 87 33 86 34
REMARK SMILES IDX 11 35 12 36 13 37 14 38 15 39 16 41 17 42 18 43 82 44 19 45
REMARK SMILES IDX 81 46 20 47 21 48 22 49 75 50 23 51 80 52 74 53 76 54 24 55
REMARK SMILES IDX 79 56 73 57 72 58 25 60 59 61 38 62 58 63 39 64 42 65 57 66
REMARK SMILES IDX 77 67 40 68 41 69 56 71 78 72 43 73 26 74 27 75 36 76 28 77
REMARK SMILES IDX 29 78 35 79 37 80 30 81 31 82 32 83 33 84 34 85 60 86 61 87
REMARK SMILES IDX 70 88 62 89 63 90 69 91 71 92 64 93 65 94 66 95 67 96 68 97
REMARK SMILES IDX 44 98 45 99 54 100 46 101 47 102 53 103 55 104 48 105 49 106
REMARK SMILES IDX 50 107 51 108 52 109
REMARK H PARENT 7 7 89 13 14 40 76 59 42 70
REMARK Flexibility Score: inf
ROOT
ATOM      1  C   UNL A   1      38.368  23.966  26.423  1.00  0.00     0.002 C 
ENDROOT
BRANCH   1   2
ATOM      2  C   UNL A   1      37.057  23.685  25.677  1.00  0.00     0.021 C 
BRANCH   2   3
ATOM      3  C   UNL A   1      35.718  23.446  26.381  1.00  0.00     0.116 C 
BRANCH   3   4
ATOM      4  N   UNL A   1      35.442  21.999  26.400  1.00  0.00    -0.356 N 
ATOM      5  C   UNL A   1      34.170  21.476  26.328  1.00  0.00     0.228 C 
ATOM      6  O   UNL A   1      33.680  20.972  27.341  1.00  0.00    -0.274 OA
ATOM      7  H   UNL A   1      36.202  21.376  26.468  1.00  0.00     0.163 HD
BRANCH   5   8
ATOM      8  C   UNL A   1      33.455  21.435  24.965  1.00  0.00     0.118 C 
BRANCH   8   9
ATOM      9  C   UNL A   1      32.026  21.989  25.140  1.00  0.00     0.118 C 
BRANCH   9  10
ATOM     10  C   UNL A   1      31.789  23.392  24.599  1.00  0.00     0.225 C 
ATOM     11  O   UNL A   1      30.768  23.699  23.996  1.00  0.00    -0.275 OA
ATOM     12  N   UNL A   1      32.849  24.248  24.857  1.00  0.00    -0.324 N 
ATOM     13  H   UNL A   1      33.685  23.834  25.172  1.00  0.00     0.170 HD
BRANCH  12  14
ATOM     14  C   UNL A   1      32.850  25.656  24.714  1.00  0.00     0.067 A 
ATOM     15  C   UNL A   1      32.503  26.377  25.857  1.00  0.00     0.041 A 
ATOM     16  C   UNL A   1      33.043  26.365  23.519  1.00  0.00     0.090 A 
ATOM     17  C   UNL A   1      32.332  27.766  25.856  1.00  0.00     0.058 A 
ATOM     18  C   UNL A   1      32.894  27.769  23.493  1.00  0.00     0.031 A 
ATOM     19  C   UNL A   1      32.508  28.457  24.655  1.00  0.00     0.015 A 
BRANCH  16  20
ATOM     20  N   UNL A   1      33.112  25.688  22.289  1.00  0.00    -0.219 N 
ATOM     21  C   UNL A   1      32.706  26.172  21.068  1.00  0.00     0.226 A 
ATOM     22  N   UNL A   1      33.711  24.491  22.118  1.00  0.00    -0.155 NA
ATOM     23  N   UNL A   1      32.820  25.244  20.149  1.00  0.00    -0.223 NA
ATOM     24  C   UNL A   1      33.395  24.220  20.848  1.00  0.00     0.246 A 
ENDBRANCH  16  20
BRANCH  17  25
ATOM     25  C   UNL A   1      31.900  28.412  27.151  1.00  0.00     0.416 C 
ATOM     26  F   UNL A   1      32.930  28.455  28.044  1.00  0.00    -0.166 F 
ATOM     27  F   UNL A   1      31.529  29.712  26.992  1.00  0.00    -0.166 F 
ATOM     28  F   UNL A   1      30.874  27.787  27.776  1.00  0.00    -0.166 F 
ENDBRANCH  17  25
ENDBRANCH  12  14
ENDBRANCH   9  10
ENDBRANCH   8   9
BRANCH   8  29
ATOM     29  C   UNL A   1      33.475  19.958  24.480  1.00  0.00    -0.035 A 
ATOM     30  C   UNL A   1      34.529  19.064  24.747  1.00  0.00     0.004 A 
ATOM     31  C   UNL A   1      32.431  19.491  23.657  1.00  0.00     0.004 A 
ATOM     32  C   UNL A   1      34.557  17.780  24.183  1.00  0.00     0.000 A 
ATOM     33  C   UNL A   1      32.468  18.213  23.083  1.00  0.00     0.000 A 
ATOM     34  C   UNL A   1      33.535  17.360  23.341  1.00  0.00     0.000 A 
ENDBRANCH   8  29
ENDBRANCH   5   8
ENDBRANCH   3   4
ENDBRANCH   2   3
ENDBRANCH   1   2
BRANCH   1  35
ATOM     35  C   UNL A   1      39.491  22.938  26.606  1.00  0.00     0.002 C 
BRANCH  35  36
ATOM     36  C   UNL A   1      39.607  21.625  25.810  1.00  0.00     0.021 C 
BRANCH  36  37
ATOM     37  C   UNL A   1      39.655  20.203  26.428  1.00  0.00     0.116 C 
BRANCH  37  38
ATOM     38  N   UNL A   1      40.662  19.263  25.977  1.00  0.00    -0.352 N 
ATOM     39  C   UNL A   1      42.045  19.389  25.994  1.00  0.00     0.251 C 
ATOM     40  H   UNL A   1      40.318  18.418  25.607  1.00  0.00     0.163 HD
ATOM     41  O   UNL A   1      42.747  18.438  25.688  1.00  0.00    -0.269 OA
BRANCH  39  42
ATOM     42  C   UNL A   1      42.699  20.679  26.354  1.00  0.00     0.039 A 
ATOM     43  C   UNL A   1      43.394  21.375  25.359  1.00  0.00     0.014 A 
ATOM     44  C   UNL A   1      42.691  21.181  27.656  1.00  0.00     0.014 A 
ATOM     45  C   UNL A   1      43.987  22.613  25.647  1.00  0.00     0.010 A 
ATOM     46  C   UNL A   1      43.263  22.430  27.941  1.00  0.00     0.010 A 
ATOM     47  C   UNL A   1      43.887  23.177  26.931  1.00  0.00    -0.014 A 
BRANCH  47  48
ATOM     48  C   UNL A   1      44.326  24.584  27.173  1.00  0.00     0.031 A 
ATOM     49  C   UNL A   1      45.765  25.004  27.042  1.00  0.00     0.074 A 
ATOM     50  C   UNL A   1      43.400  25.488  27.557  1.00  0.00     0.049 A 
ATOM     51  N   UNL A   1      46.296  26.192  27.194  1.00  0.00    -0.248 NA
ATOM     52  C   UNL A   1      46.738  23.953  26.714  1.00  0.00     0.031 C 
ATOM     53  C   UNL A   1      41.982  25.190  27.782  1.00  0.00     0.029 A 
ATOM     54  N   UNL A   1      43.499  26.831  27.827  1.00  0.00    -0.354 N 
ATOM     55  C   UNL A   1      47.660  26.038  26.972  1.00  0.00     0.074 A 
ATOM     56  C   UNL A   1      47.881  24.626  26.728  1.00  0.00     0.031 C 
ATOM     57  C   UNL A   1      41.342  26.318  28.125  1.00  0.00     0.029 A 
ATOM     58  C   UNL A   1      42.303  27.415  28.181  1.00  0.00     0.049 A 
ATOM     59  H   UNL A   1      44.347  27.330  27.772  1.00  0.00     0.167 HD
ATOM     60  C   UNL A   1      48.632  26.985  26.956  1.00  0.00     0.037 A 
ATOM     61  C   UNL A   1      42.008  28.688  28.515  1.00  0.00     0.037 A 
ATOM     62  C   UNL A   1      48.399  28.387  27.208  1.00  0.00     0.049 A 
ATOM     63  C   UNL A   1      43.103  29.720  28.491  1.00  0.00     0.074 A 
ATOM     64  C   UNL A   1      49.308  29.432  27.174  1.00  0.00     0.029 A 
ATOM     65  N   UNL A   1      47.173  28.941  27.553  1.00  0.00    -0.354 N 
ATOM     66  N   UNL A   1      44.373  29.566  28.202  1.00  0.00    -0.248 NA
ATOM     67  C   UNL A   1      42.725  31.099  28.827  1.00  0.00     0.031 C 
ATOM     68  C   UNL A   1      48.643  30.606  27.546  1.00  0.00     0.029 A 
ATOM     69  C   UNL A   1      47.306  30.307  27.755  1.00  0.00     0.049 A 
ATOM     70  H   UNL A   1      46.332  28.437  27.641  1.00  0.00     0.167 HD
ATOM     71  C   UNL A   1      44.942  30.830  28.300  1.00  0.00     0.074 A 
ATOM     72  C   UNL A   1      43.873  31.741  28.656  1.00  0.00     0.031 C 
ATOM     73  C   UNL A   1      46.232  31.203  28.109  1.00  0.00     0.037 A 
BRANCH  60  74
ATOM     74  C   UNL A   1      50.041  26.541  26.652  1.00  0.00     0.058 A 
ATOM     75  C   UNL A   1      50.948  26.218  27.675  1.00  0.00     0.135 A 
ATOM     76  C   UNL A   1      50.483  26.395  25.325  1.00  0.00     0.135 A 
ATOM     77  F   UNL A   1      50.586  26.340  28.962  1.00  0.00    -0.206 F 
ATOM     78  C   UNL A   1      52.249  25.807  27.398  1.00  0.00     0.059 A 
ATOM     79  C   UNL A   1      51.770  25.957  25.023  1.00  0.00     0.059 A 
ATOM     80  F   UNL A   1      49.659  26.679  24.304  1.00  0.00    -0.206 F 
ATOM     81  C   UNL A   1      52.653  25.683  26.067  1.00  0.00     0.060 A 
BRANCH  81  82
ATOM     82  S   UNL A   1      54.348  25.161  25.726  1.00  0.00     0.124 S 
ATOM     83  O   UNL A   1      54.865  26.313  24.995  1.00  0.00    -0.237 OA
ATOM     84  O   UNL A   1      54.890  24.966  27.068  1.00  0.00    -0.237 OA
ATOM     85  O   UNL A   1      54.179  23.944  24.939  1.00  0.00    -0.744 OA
ENDBRANCH  81  82
ENDBRANCH  60  74
BRANCH  61  86
ATOM     86  C   UNL A   1      40.611  29.054  28.877  1.00  0.00     0.058 A 
ATOM     87  C   UNL A   1      40.204  29.139  30.217  1.00  0.00     0.135 A 
ATOM     88  C   UNL A   1      39.659  29.353  27.889  1.00  0.00     0.135 A 
ATOM     89  F   UNL A   1      41.071  28.855  31.201  1.00  0.00    -0.206 F 
ATOM     90  C   UNL A   1      38.903  29.494  30.565  1.00  0.00     0.059 A 
ATOM     91  C   UNL A   1      38.361  29.739  28.211  1.00  0.00     0.059 A 
ATOM     92  F   UNL A   1      40.000  29.304  26.591  1.00  0.00    -0.206 F 
ATOM     93  C   UNL A   1      37.990  29.798  29.554  1.00  0.00     0.060 A 
BRANCH  93  94
ATOM     94  S   UNL A   1      36.323  30.315  30.017  1.00  0.00     0.124 S 
ATOM     95  O   UNL A   1      36.154  29.650  31.304  1.00  0.00    -0.237 OA
ATOM     96  O   UNL A   1      36.455  31.769  30.061  1.00  0.00    -0.237 OA
ATOM     97  O   UNL A   1      35.497  29.802  28.929  1.00  0.00    -0.744 OA
ENDBRANCH  93  94
ENDBRANCH  61  86
BRANCH  73  98
ATOM     98  C   UNL A   1      46.558  32.665  28.257  1.00  0.00     0.058 A 
ATOM     99  C   UNL A   1      47.063  33.195  29.455  1.00  0.00     0.135 A 
ATOM    100  C   UNL A   1      46.409  33.540  27.168  1.00  0.00     0.135 A 
ATOM    101  F   UNL A   1      47.218  32.406  30.530  1.00  0.00    -0.206 F 
ATOM    102  C   UNL A   1      47.386  34.543  29.576  1.00  0.00     0.059 A 
ATOM    103  C   UNL A   1      46.755  34.885  27.257  1.00  0.00     0.059 A 
ATOM    104  F   UNL A   1      45.939  33.086  25.995  1.00  0.00    -0.206 F 
ATOM    105  C   UNL A   1      47.231  35.380  28.469  1.00  0.00     0.060 A 
BRANCH 105 106
ATOM    106  S   UNL A   1      47.688  37.119  28.630  1.00  0.00     0.124 S 
ATOM    107  O   UNL A   1      46.516  37.670  29.304  1.00  0.00    -0.237 OA
ATOM    108  O   UNL A   1      48.906  37.049  29.432  1.00  0.00    -0.237 OA
ATOM    109  O   UNL A   1      47.877  37.550  27.248  1.00  0.00    -0.744 OA
ENDBRANCH 105 106
ENDBRANCH  73  98
ENDBRANCH  47  48
ENDBRANCH  39  42
ENDBRANCH  37  38
ENDBRANCH  36  37
ENDBRANCH  35  36
ENDBRANCH   1  35
TORSDOF 22
ENDMDL
MODEL 2
REMARK VINA RESULT:     -11.8      0.499      7.820
REMARK SMILES O=C(C[C@@H](C(=O)NCCCCCCNC(=O)c1ccc(-c2c3nc(c(-c4c(F)cc(S(=O)(=O)[O-])cc4F)c4ccc([nH]4)c(-c4c(F)cc(S(=O)(=O)[O-])cc4F)c4nc(c(-c5c(F)cc(S(=O)(=O)[O-])cc5F)c5ccc2[nH]5)C=C4)C=C3)cc1)c1ccccc1)Nc1cc(C(F)(F)F)ccc1-n1cncn1
REMARK SMILES IDX 10 1 9 2 8 3 7 4 5 5 6 6 4 8 3 9 2 10 1 11 89 12 90 14 91 15
REMARK SMILES IDX 99 16 92 17 98 18 97 19 100 20 101 21 104 22 102 23 103 24
REMARK SMILES IDX 93 25 94 26 95 27 96 28 83 29 84 30 88 31 85 32 87 33 86 34
REMARK SMILES IDX 11 35 12 36 13 37 14 38 15 39 16 41 17 42 18 43 82 44 19 45
REMARK SMILES IDX 81 46 20 47 21 48 22 49 75 50 23 51 80 52 74 53 76 54 24 55
REMARK SMILES IDX 79 56 73 57 72 58 25 60 59 61 38 62 58 63 39 64 42 65 57 66
REMARK SMILES IDX 77 67 40 68 41 69 56 71 78 72 43 73 26 74 27 75 36 76 28 77
REMARK SMILES IDX 29 78 35 79 37 80 30 81 31 82 32 83 33 84 34 85 60 86 61 87
REMARK SMILES IDX 70 88 62 89 63 90 69 91 71 92 64 93 65 94 66 95 67 96 68 97
REMARK SMILES IDX 44 98 45 99 54 100 46 101 47 102 53 103 55 104 48 105 49 106
REMARK SMILES IDX 50 107 51 108 52 109
REMARK H PARENT 7 7 89 13 14 40 76 59 42 70
REMARK Flexibility Score: inf
ROOT
ATOM      1  C   UNL A   1      38.237  23.948  26.451  1.00  0.00     0.002 C 
ENDROOT
BRANCH   1   2
ATOM      2  C   UNL A   1      36.890  23.684  25.766  1.00  0.00     0.021 C 
BRANCH   2   3
ATOM      3  C   UNL A   1      35.606  23.344  26.529  1.00  0.00     0.116 C 
BRANCH   3   4
ATOM      4  N   UNL A   1      35.367  21.893  26.437  1.00  0.00    -0.356 N 
ATOM      5  C   UNL A   1      34.113  21.346  26.286  1.00  0.00     0.228 C 
ATOM      6  O   UNL A   1      33.605  20.760  27.244  1.00  0.00    -0.274 OA
ATOM      7  H   UNL A   1      36.141  21.286  26.485  1.00  0.00     0.163 HD
BRANCH   5   8
ATOM      8  C   UNL A   1      33.442  21.385  24.901  1.00  0.00     0.118 C 
BRANCH   8   9
ATOM      9  C   UNL A   1      31.991  21.882  25.069  1.00  0.00     0.118 C 
BRANCH   9  10
ATOM     10  C   UNL A   1      31.709  23.289  24.560  1.00  0.00     0.225 C 
ATOM     11  O   UNL A   1      30.634  23.603  24.061  1.00  0.00    -0.275 OA
ATOM     12  N   UNL A   1      32.794  24.138  24.714  1.00  0.00    -0.324 N 
ATOM     13  H   UNL A   1      33.655  23.719  24.942  1.00  0.00     0.170 HD
BRANCH  12  14
ATOM     14  C   UNL A   1      32.789  25.547  24.576  1.00  0.00     0.067 A 
ATOM     15  C   UNL A   1      32.419  26.261  25.717  1.00  0.00     0.041 A 
ATOM     16  C   UNL A   1      32.996  26.262  23.388  1.00  0.00     0.090 A 
ATOM     17  C   UNL A   1      32.239  27.649  25.718  1.00  0.00     0.058 A 
ATOM     18  C   UNL A   1      32.838  27.665  23.365  1.00  0.00     0.031 A 
ATOM     19  C   UNL A   1      32.430  28.346  24.523  1.00  0.00     0.015 A 
BRANCH  16  20
ATOM     20  N   UNL A   1      33.088  25.590  22.156  1.00  0.00    -0.219 N 
ATOM     21  C   UNL A   1      32.790  26.110  20.919  1.00  0.00     0.226 A 
ATOM     22  N   UNL A   1      33.609  24.354  22.007  1.00  0.00    -0.155 NA
ATOM     23  N   UNL A   1      32.891  25.183  19.998  1.00  0.00    -0.223 NA
ATOM     24  C   UNL A   1      33.350  24.115  20.717  1.00  0.00     0.246 A 
ENDBRANCH  16  20
BRANCH  17  25
ATOM     25  C   UNL A   1      31.783  28.288  27.009  1.00  0.00     0.416 C 
ATOM     26  F   UNL A   1      31.452  29.597  26.817  1.00  0.00    -0.166 F 
ATOM     27  F   UNL A   1      30.652  27.717  27.507  1.00  0.00    -0.166 F 
ATOM     28  F   UNL A   1      32.702  28.265  28.002  1.00  0.00    -0.166 F 
ENDBRANCH  17  25
ENDBRANCH  12  14
ENDBRANCH   9  10
ENDBRANCH   8   9
BRANCH   8  29
ATOM     29  C   UNL A   1      33.523  19.951  24.310  1.00  0.00    -0.035 A 
ATOM     30  C   UNL A   1      32.514  19.377  23.514  1.00  0.00     0.004 A 
ATOM     31  C   UNL A   1      34.620  19.131  24.643  1.00  0.00     0.004 A 
ATOM     32  C   UNL A   1      32.579  18.036  23.106  1.00  0.00     0.000 A 
ATOM     33  C   UNL A   1      34.677  17.788  24.247  1.00  0.00     0.000 A 
ATOM     34  C   UNL A   1      33.652  17.238  23.485  1.00  0.00     0.000 A 
ENDBRANCH   8  29
ENDBRANCH   5   8
ENDBRANCH   3   4
ENDBRANCH   2   3
ENDBRANCH   1   2
BRANCH   1  35
ATOM     35  C   UNL A   1      39.389  22.938  26.502  1.00  0.00     0.002 C 
BRANCH  35  36
ATOM     36  C   UNL A   1      39.382  21.573  25.790  1.00  0.00     0.021 C 
BRANCH  36  37
ATOM     37  C   UNL A   1      39.438  20.193  26.496  1.00  0.00     0.116 C 
BRANCH  37  38
ATOM     38  N   UNL A   1      40.431  19.221  26.085  1.00  0.00    -0.352 N 
ATOM     39  C   UNL A   1      41.815  19.334  26.083  1.00  0.00     0.251 C 
ATOM     40  H   UNL A   1      40.076  18.361  25.761  1.00  0.00     0.163 HD
ATOM     41  O   UNL A   1      42.505  18.362  25.819  1.00  0.00    -0.269 OA
BRANCH  39  42
ATOM     42  C   UNL A   1      42.485  20.634  26.369  1.00  0.00     0.039 A 
ATOM     43  C   UNL A   1      43.078  21.328  25.310  1.00  0.00     0.014 A 
ATOM     44  C   UNL A   1      42.591  21.148  27.663  1.00  0.00     0.014 A 
ATOM     45  C   UNL A   1      43.681  22.574  25.532  1.00  0.00     0.010 A 
ATOM     46  C   UNL A   1      43.172  22.406  27.884  1.00  0.00     0.010 A 
ATOM     47  C   UNL A   1      43.693  23.150  26.815  1.00  0.00    -0.014 A 
BRANCH  47  48
ATOM     48  C   UNL A   1      44.136  24.563  27.004  1.00  0.00     0.031 A 
ATOM     49  C   UNL A   1      43.178  25.654  27.397  1.00  0.00     0.074 A 
ATOM     50  C   UNL A   1      45.433  24.864  26.776  1.00  0.00     0.049 A 
ATOM     51  N   UNL A   1      43.418  26.922  27.625  1.00  0.00    -0.248 NA
ATOM     52  C   UNL A   1      41.764  25.279  27.538  1.00  0.00     0.031 C 
ATOM     53  C   UNL A   1      46.448  23.907  26.327  1.00  0.00     0.029 A 
ATOM     54  N   UNL A   1      46.122  26.047  26.884  1.00  0.00    -0.354 N 
ATOM     55  C   UNL A   1      42.192  27.496  27.944  1.00  0.00     0.074 A 
ATOM     56  C   UNL A   1      41.201  26.445  27.827  1.00  0.00     0.031 C 
ATOM     57  C   UNL A   1      47.631  24.532  26.228  1.00  0.00     0.029 A 
ATOM     58  C   UNL A   1      47.459  25.940  26.570  1.00  0.00     0.049 A 
ATOM     59  H   UNL A   1      45.701  26.893  27.162  1.00  0.00     0.167 HD
ATOM     60  C   UNL A   1      41.922  28.773  28.317  1.00  0.00     0.037 A 
ATOM     61  C   UNL A   1      48.439  26.866  26.556  1.00  0.00     0.037 A 
ATOM     62  C   UNL A   1      42.918  29.812  28.422  1.00  0.00     0.049 A 
ATOM     63  C   UNL A   1      48.115  28.276  26.971  1.00  0.00     0.074 A 
ATOM     64  C   UNL A   1      42.754  31.126  28.830  1.00  0.00     0.029 A 
ATOM     65  N   UNL A   1      44.262  29.662  28.105  1.00  0.00    -0.354 N 
ATOM     66  N   UNL A   1      46.963  28.779  27.346  1.00  0.00    -0.248 NA
ATOM     67  C   UNL A   1      49.222  29.240  26.975  1.00  0.00     0.031 C 
ATOM     68  C   UNL A   1      43.986  31.780  28.714  1.00  0.00     0.029 A 
ATOM     69  C   UNL A   1      44.932  30.862  28.289  1.00  0.00     0.049 A 
ATOM     70  H   UNL A   1      44.678  28.825  27.796  1.00  0.00     0.167 HD
ATOM     71  C   UNL A   1      47.211  30.113  27.649  1.00  0.00     0.074 A 
ATOM     72  C   UNL A   1      48.626  30.332  27.434  1.00  0.00     0.031 C 
ATOM     73  C   UNL A   1      46.344  31.068  28.071  1.00  0.00     0.037 A 
BRANCH  60  74
ATOM     74  C   UNL A   1      40.491  29.122  28.643  1.00  0.00     0.058 A 
ATOM     75  C   UNL A   1      39.543  29.360  27.634  1.00  0.00     0.135 A 
ATOM     76  C   UNL A   1      40.048  29.181  29.975  1.00  0.00     0.135 A 
ATOM     77  F   UNL A   1      39.907  29.322  26.343  1.00  0.00    -0.206 F 
ATOM     78  C   UNL A   1      38.222  29.682  27.932  1.00  0.00     0.059 A 
ATOM     79  C   UNL A   1      38.723  29.472  30.297  1.00  0.00     0.059 A 
ATOM     80  F   UNL A   1      40.904  28.953  30.984  1.00  0.00    -0.206 F 
ATOM     81  C   UNL A   1      37.822  29.739  29.269  1.00  0.00     0.060 A 
BRANCH  81  82
ATOM     82  S   UNL A   1      36.107  30.171  29.636  1.00  0.00     0.124 S 
ATOM     83  O   UNL A   1      36.144  31.626  29.527  1.00  0.00    -0.237 OA
ATOM     84  O   UNL A   1      35.377  29.475  28.582  1.00  0.00    -0.237 OA
ATOM     85  O   UNL A   1      35.905  29.649  30.984  1.00  0.00    -0.744 OA
ENDBRANCH  81  82
ENDBRANCH  60  74
BRANCH  61  86
ATOM     86  C   UNL A   1      49.819  26.479  26.155  1.00  0.00     0.058 A 
ATOM     87  C   UNL A   1      50.306  26.747  24.866  1.00  0.00     0.135 A 
ATOM     88  C   UNL A   1      50.691  25.855  27.061  1.00  0.00     0.135 A 
ATOM     89  F   UNL A   1      49.512  27.334  23.958  1.00  0.00    -0.206 F 
ATOM     90  C   UNL A   1      51.600  26.401  24.487  1.00  0.00     0.059 A 
ATOM     91  C   UNL A   1      51.999  25.525  26.716  1.00  0.00     0.059 A 
ATOM     92  F   UNL A   1      50.282  25.590  28.312  1.00  0.00    -0.206 F 
ATOM     93  C   UNL A   1      52.441  25.795  25.422  1.00  0.00     0.060 A 
BRANCH  93  94
ATOM     94  S   UNL A   1      54.137  25.403  24.938  1.00  0.00     0.124 S 
ATOM     95  O   UNL A   1      54.139  23.947  25.022  1.00  0.00    -0.237 OA
ATOM     96  O   UNL A   1      54.209  25.966  23.593  1.00  0.00    -0.237 OA
ATOM     97  O   UNL A   1      54.941  26.094  25.942  1.00  0.00    -0.744 OA
ENDBRANCH  93  94
ENDBRANCH  61  86
BRANCH  73  98
ATOM     98  C   UNL A   1      46.907  32.435  28.353  1.00  0.00     0.058 A 
ATOM     99  C   UNL A   1      47.426  32.778  29.611  1.00  0.00     0.135 A 
ATOM    100  C   UNL A   1      46.971  33.400  27.334  1.00  0.00     0.135 A 
ATOM    101  F   UNL A   1      47.382  31.897  30.622  1.00  0.00    -0.206 F 
ATOM    102  C   UNL A   1      47.967  34.037  29.856  1.00  0.00     0.059 A 
ATOM    103  C   UNL A   1      47.536  34.655  27.548  1.00  0.00     0.059 A 
ATOM    104  F   UNL A   1      46.498  33.124  26.108  1.00  0.00    -0.206 F 
ATOM    105  C   UNL A   1      48.020  34.967  28.817  1.00  0.00     0.060 A 
BRANCH 105 106
ATOM    106  S   UNL A   1      48.757  36.584  29.140  1.00  0.00     0.124 S 
ATOM    107  O   UNL A   1      49.050  37.049  27.788  1.00  0.00    -0.237 OA
ATOM    108  O   UNL A   1      47.680  37.284  29.833  1.00  0.00    -0.237 OA
ATOM    109  O   UNL A   1      49.922  36.268  29.961  1.00  0.00    -0.744 OA
ENDBRANCH 105 106
ENDBRANCH  73  98
ENDBRANCH  47  48
ENDBRANCH  39  42
ENDBRANCH  37  38
ENDBRANCH  36  37
ENDBRANCH  35  36
ENDBRANCH   1  35
TORSDOF 22
ENDMDL
MODEL 3
REMARK VINA RESULT:     -10.8      6.097      8.039
REMARK SMILES O=C(C[C@@H](C(=O)NCCCCCCNC(=O)c1ccc(-c2c3nc(c(-c4c(F)cc(S(=O)(=O)[O-])cc4F)c4ccc([nH]4)c(-c4c(F)cc(S(=O)(=O)[O-])cc4F)c4nc(c(-c5c(F)cc(S(=O)(=O)[O-])cc5F)c5ccc2[nH]5)C=C4)C=C3)cc1)c1ccccc1)Nc1cc(C(F)(F)F)ccc1-n1cncn1
REMARK SMILES IDX 10 1 9 2 8 3 7 4 5 5 6 6 4 8 3 9 2 10 1 11 89 12 90 14 91 15
REMARK SMILES IDX 99 16 92 17 98 18 97 19 100 20 101 21 104 22 102 23 103 24
REMARK SMILES IDX 93 25 94 26 95 27 96 28 83 29 84 30 88 31 85 32 87 33 86 34
REMARK SMILES IDX 11 35 12 36 13 37 14 38 15 39 16 41 17 42 18 43 82 44 19 45
REMARK SMILES IDX 81 46 20 47 21 48 22 49 75 50 23 51 80 52 74 53 76 54 24 55
REMARK SMILES IDX 79 56 73 57 72 58 25 60 59 61 38 62 58 63 39 64 42 65 57 66
REMARK SMILES IDX 77 67 40 68 41 69 56 71 78 72 43 73 26 74 27 75 36 76 28 77
REMARK SMILES IDX 29 78 35 79 37 80 30 81 31 82 32 83 33 84 34 85 60 86 61 87
REMARK SMILES IDX 70 88 62 89 63 90 69 91 71 92 64 93 65 94 66 95 67 96 68 97
REMARK SMILES IDX 44 98 45 99 54 100 46 101 47 102 53 103 55 104 48 105 49 106
REMARK SMILES IDX 50 107 51 108 52 109
REMARK H PARENT 7 7 89 13 14 40 76 59 42 70
REMARK Flexibility Score: inf
ROOT
ATOM      1  C   UNL A   1      39.497  24.080  26.980  1.00  0.00     0.002 C 
ENDROOT
BRANCH   1   2
ATOM      2  C   UNL A   1      38.361  23.495  26.131  1.00  0.00     0.021 C 
BRANCH   2   3
ATOM      3  C   UNL A   1      36.932  24.046  26.136  1.00  0.00     0.116 C 
BRANCH   3   4
ATOM      4  N   UNL A   1      36.000  22.948  26.450  1.00  0.00    -0.356 N 
ATOM      5  C   UNL A   1      34.664  22.979  26.118  1.00  0.00     0.228 C 
ATOM      6  O   UNL A   1      33.836  23.134  27.017  1.00  0.00    -0.274 OA
ATOM      7  H   UNL A   1      36.349  22.156  26.920  1.00  0.00     0.163 HD
BRANCH   5   8
ATOM      8  C   UNL A   1      34.250  22.703  24.661  1.00  0.00     0.118 C 
BRANCH   8   9
ATOM      9  C   UNL A   1      33.082  23.641  24.294  1.00  0.00     0.118 C 
BRANCH   9  10
ATOM     10  C   UNL A   1      33.426  25.121  24.197  1.00  0.00     0.225 C 
ATOM     11  O   UNL A   1      33.920  25.616  23.191  1.00  0.00    -0.275 OA
ATOM     12  N   UNL A   1      33.130  25.813  25.362  1.00  0.00    -0.324 N 
ATOM     13  H   UNL A   1      32.924  25.272  26.158  1.00  0.00     0.170 HD
BRANCH  12  14
ATOM     14  C   UNL A   1      33.096  27.219  25.521  1.00  0.00     0.067 A 
ATOM     15  C   UNL A   1      34.137  27.765  26.273  1.00  0.00     0.041 A 
ATOM     16  C   UNL A   1      32.063  28.073  25.106  1.00  0.00     0.090 A 
ATOM     17  C   UNL A   1      34.186  29.116  26.633  1.00  0.00     0.058 A 
ATOM     18  C   UNL A   1      32.097  29.444  25.440  1.00  0.00     0.031 A 
ATOM     19  C   UNL A   1      33.143  29.951  26.228  1.00  0.00     0.015 A 
BRANCH  16  20
ATOM     20  N   UNL A   1      30.861  27.548  24.600  1.00  0.00    -0.219 N 
ATOM     21  C   UNL A   1      30.162  28.012  23.511  1.00  0.00     0.226 A 
ATOM     22  N   UNL A   1      30.280  26.418  25.055  1.00  0.00    -0.155 NA
ATOM     23  N   UNL A   1      29.035  27.356  23.379  1.00  0.00    -0.223 NA
ATOM     24  C   UNL A   1      29.131  26.422  24.373  1.00  0.00     0.246 A 
ENDBRANCH  16  20
BRANCH  17  25
ATOM     25  C   UNL A   1      35.343  29.562  27.497  1.00  0.00     0.416 C 
ATOM     26  F   UNL A   1      35.065  29.377  28.819  1.00  0.00    -0.166 F 
ATOM     27  F   UNL A   1      36.473  28.835  27.278  1.00  0.00    -0.166 F 
ATOM     28  F   UNL A   1      35.682  30.864  27.353  1.00  0.00    -0.166 F 
ENDBRANCH  17  25
ENDBRANCH  12  14
ENDBRANCH   9  10
ENDBRANCH   8   9
BRANCH   8  29
ATOM     29  C   UNL A   1      33.868  21.199  24.569  1.00  0.00    -0.035 A 
ATOM     30  C   UNL A   1      34.780  20.148  24.786  1.00  0.00     0.004 A 
ATOM     31  C   UNL A   1      32.565  20.844  24.167  1.00  0.00     0.004 A 
ATOM     32  C   UNL A   1      34.417  18.811  24.570  1.00  0.00     0.000 A 
ATOM     33  C   UNL A   1      32.208  19.509  23.937  1.00  0.00     0.000 A 
ATOM     34  C   UNL A   1      33.137  18.492  24.132  1.00  0.00     0.000 A 
ENDBRANCH   8  29
ENDBRANCH   5   8
ENDBRANCH   3   4
ENDBRANCH   2   3
ENDBRANCH   1   2
BRANCH   1  35
ATOM     35  C   UNL A   1      40.906  24.370  26.450  1.00  0.00     0.002 C 
BRANCH  35  36
ATOM     36  C   UNL A   1      41.323  25.679  25.755  1.00  0.00     0.021 C 
BRANCH  36  37
ATOM     37  C   UNL A   1      42.729  25.976  25.171  1.00  0.00     0.116 C 
BRANCH  37  38
ATOM     38  N   UNL A   1      43.892  25.335  25.752  1.00  0.00    -0.352 N 
ATOM     39  C   UNL A   1      44.400  25.449  27.040  1.00  0.00     0.251 C 
ATOM     40  H   UNL A   1      44.393  24.737  25.151  1.00  0.00     0.163 HD
ATOM     41  O   UNL A   1      45.324  24.734  27.396  1.00  0.00    -0.269 OA
BRANCH  39  42
ATOM     42  C   UNL A   1      43.858  26.454  27.998  1.00  0.00     0.039 A 
ATOM     43  C   UNL A   1      42.966  26.023  28.985  1.00  0.00     0.014 A 
ATOM     44  C   UNL A   1      44.163  27.813  27.904  1.00  0.00     0.014 A 
ATOM     45  C   UNL A   1      42.468  26.930  29.931  1.00  0.00     0.010 A 
ATOM     46  C   UNL A   1      43.685  28.718  28.863  1.00  0.00     0.010 A 
ATOM     47  C   UNL A   1      42.859  28.280  29.909  1.00  0.00    -0.014 A 
BRANCH  47  48
ATOM     48  C   UNL A   1      42.502  29.188  31.040  1.00  0.00     0.031 A 
ATOM     49  C   UNL A   1      43.291  29.215  32.321  1.00  0.00     0.074 A 
ATOM     50  C   UNL A   1      41.414  29.976  30.910  1.00  0.00     0.049 A 
ATOM     51  N   UNL A   1      43.121  29.966  33.381  1.00  0.00    -0.248 NA
ATOM     52  C   UNL A   1      44.408  28.266  32.436  1.00  0.00     0.031 C 
ATOM     53  C   UNL A   1      40.528  29.995  29.743  1.00  0.00     0.029 A 
ATOM     54  N   UNL A   1      40.862  30.908  31.756  1.00  0.00    -0.354 N 
ATOM     55  C   UNL A   1      44.108  29.590  34.285  1.00  0.00     0.074 A 
ATOM     56  C   UNL A   1      44.842  28.504  33.666  1.00  0.00     0.031 C 
ATOM     57  C   UNL A   1      39.566  30.911  29.933  1.00  0.00     0.029 A 
ATOM     58  C   UNL A   1      39.739  31.522  31.246  1.00  0.00     0.049 A 
ATOM     59  H   UNL A   1      41.235  31.118  32.643  1.00  0.00     0.167 HD
ATOM     60  C   UNL A   1      44.389  30.113  35.506  1.00  0.00     0.037 A 
ATOM     61  C   UNL A   1      38.936  32.468  31.772  1.00  0.00     0.037 A 
ATOM     62  C   UNL A   1      43.645  31.191  36.113  1.00  0.00     0.049 A 
ATOM     63  C   UNL A   1      39.266  33.032  33.128  1.00  0.00     0.074 A 
ATOM     64  C   UNL A   1      43.873  31.819  37.326  1.00  0.00     0.029 A 
ATOM     65  N   UNL A   1      42.521  31.793  35.562  1.00  0.00    -0.354 N 
ATOM     66  N   UNL A   1      40.252  32.716  33.933  1.00  0.00    -0.248 NA
ATOM     67  C   UNL A   1      38.383  34.086  33.644  1.00  0.00     0.031 C 
ATOM     68  C   UNL A   1      42.861  32.765  37.530  1.00  0.00     0.029 A 
ATOM     69  C   UNL A   1      42.034  32.769  36.418  1.00  0.00     0.049 A 
ATOM     70  H   UNL A   1      42.128  31.561  34.690  1.00  0.00     0.167 HD
ATOM     71  C   UNL A   1      40.122  33.547  35.040  1.00  0.00     0.074 A 
ATOM     72  C   UNL A   1      38.972  34.393  34.792  1.00  0.00     0.031 C 
ATOM     73  C   UNL A   1      40.887  33.606  36.159  1.00  0.00     0.037 A 
BRANCH  60  74
ATOM     74  C   UNL A   1      45.551  29.531  36.270  1.00  0.00     0.058 A 
ATOM     75  C   UNL A   1      45.384  28.455  37.157  1.00  0.00     0.135 A 
ATOM     76  C   UNL A   1      46.855  30.024  36.087  1.00  0.00     0.135 A 
ATOM     77  F   UNL A   1      44.163  27.943  37.376  1.00  0.00    -0.206 F 
ATOM     78  C   UNL A   1      46.456  27.915  37.863  1.00  0.00     0.059 A 
ATOM     79  C   UNL A   1      47.947  29.479  36.761  1.00  0.00     0.059 A 
ATOM     80  F   UNL A   1      47.080  31.045  35.245  1.00  0.00    -0.206 F 
ATOM     81  C   UNL A   1      47.735  28.437  37.661  1.00  0.00     0.060 A 
BRANCH  81  82
ATOM     82  S   UNL A   1      49.110  27.733  38.595  1.00  0.00     0.124 S 
ATOM     83  O   UNL A   1      48.423  27.202  39.768  1.00  0.00    -0.237 OA
ATOM     84  O   UNL A   1      49.641  26.738  37.668  1.00  0.00    -0.237 OA
ATOM     85  O   UNL A   1      49.978  28.880  38.842  1.00  0.00    -0.744 OA
ENDBRANCH  81  82
ENDBRANCH  60  74
BRANCH  61  86
ATOM     86  C   UNL A   1      37.759  32.954  31.001  1.00  0.00     0.058 A 
ATOM     87  C   UNL A   1      37.911  33.819  29.906  1.00  0.00     0.135 A 
ATOM     88  C   UNL A   1      36.457  32.543  31.327  1.00  0.00     0.135 A 
ATOM     89  F   UNL A   1      39.133  34.249  29.556  1.00  0.00    -0.206 F 
ATOM     90  C   UNL A   1      36.817  34.267  29.171  1.00  0.00     0.059 A 
ATOM     91  C   UNL A   1      35.350  32.953  30.590  1.00  0.00     0.059 A 
ATOM     92  F   UNL A   1      36.256  31.703  32.355  1.00  0.00    -0.206 F 
ATOM     93  C   UNL A   1      35.540  33.823  29.518  1.00  0.00     0.060 A 
BRANCH  93  94
ATOM     94  S   UNL A   1      34.133  34.363  28.521  1.00  0.00     0.124 S 
ATOM     95  O   UNL A   1      34.543  35.710  28.139  1.00  0.00    -0.237 OA
ATOM     96  O   UNL A   1      34.119  33.371  27.450  1.00  0.00    -0.237 OA
ATOM     97  O   UNL A   1      33.012  34.286  29.452  1.00  0.00    -0.744 OA
ENDBRANCH  93  94
ENDBRANCH  61  86
BRANCH  73  98
ATOM     98  C   UNL A   1      40.522  34.637  37.193  1.00  0.00     0.058 A 
ATOM     99  C   UNL A   1      41.056  35.935  37.166  1.00  0.00     0.135 A 
ATOM    100  C   UNL A   1      39.586  34.336  38.196  1.00  0.00     0.135 A 
ATOM    101  F   UNL A   1      41.960  36.274  36.234  1.00  0.00    -0.206 F 
ATOM    102  C   UNL A   1      40.694  36.890  38.110  1.00  0.00     0.059 A 
ATOM    103  C   UNL A   1      39.186  35.285  39.133  1.00  0.00     0.059 A 
ATOM    104  F   UNL A   1      39.035  33.113  38.264  1.00  0.00    -0.206 F 
ATOM    105  C   UNL A   1      39.755  36.556  39.088  1.00  0.00     0.060 A 
BRANCH 105 106
ATOM    106  S   UNL A   1      39.269  37.817  40.286  1.00  0.00     0.124 S 
ATOM    107  O   UNL A   1      38.875  37.000  41.430  1.00  0.00    -0.237 OA
ATOM    108  O   UNL A   1      40.500  38.584  40.449  1.00  0.00    -0.237 OA
ATOM    109  O   UNL A   1      38.181  38.522  39.615  1.00  0.00    -0.744 OA
ENDBRANCH 105 106
ENDBRANCH  73  98
ENDBRANCH  47  48
ENDBRANCH  39  42
ENDBRANCH  37  38
ENDBRANCH  36  37
ENDBRANCH  35  36
ENDBRANCH   1  35
TORSDOF 22
ENDMDL
