MODEL 1
REMARK VINA RESULT:     -11.9      0.000      0.000
REMARK SMILES O=C(CSc1nc2ccccc2o1)Nc1ccccc1C(=O)NCCCCCCNC(=O)c1ccc(-c2c3nc(c(-c4c(F)cc(S(=O)(=O)[O-])cc4F)c4ccc([nH]4)c(-c4c(F)cc(S(=O)(=O)[O-])cc4F)c4nc(c(-c5c(F)cc(S(=O)(=O)[O-])cc5F)c5ccc2[nH]5)C=C4)C=C3)cc1
REMARK SMILES IDX 26 1 25 2 24 3 23 4 21 5 22 6 20 8 15 9 16 10 17 11 19 12
REMARK SMILES IDX 18 13 14 14 1 15 2 16 3 18 4 19 5 20 6 21 13 22 7 23 12 24
REMARK SMILES IDX 8 25 11 26 9 27 10 28 27 29 28 30 29 31 30 32 31 33 32 35
REMARK SMILES IDX 33 36 34 37 98 38 35 39 97 40 36 41 37 42 38 43 91 44 39 45
REMARK SMILES IDX 96 46 90 47 92 48 40 49 95 50 89 51 88 52 41 54 75 55 54 56
REMARK SMILES IDX 74 57 55 58 58 59 73 60 93 61 56 62 57 63 72 65 94 66 59 67
REMARK SMILES IDX 42 68 43 69 52 70 44 71 45 72 51 73 53 74 46 75 47 76 48 77
REMARK SMILES IDX 49 78 50 79 76 80 77 81 86 82 78 83 79 84 85 85 87 86 80 87
REMARK SMILES IDX 81 88 82 89 83 90 84 91 60 92 61 93 70 94 62 95 63 96 69 97
REMARK SMILES IDX 71 98 64 99 65 100 66 101 67 102 68 103
REMARK H PARENT 23 7 14 17 30 34 92 53 58 64
REMARK Flexibility Score: inf
ROOT
ATOM      1  C   UNL A   1      37.260  23.232  25.438  1.00  0.00     0.002 C 
ENDROOT
BRANCH   1   2
ATOM      2  C   UNL A   1      35.895  23.318  26.142  1.00  0.00     0.021 C 
BRANCH   2   3
ATOM      3  C   UNL A   1      34.881  24.308  25.575  1.00  0.00     0.116 C 
BRANCH   3   4
ATOM      4  N   UNL A   1      33.529  24.252  26.059  1.00  0.00    -0.352 N 
ATOM      5  C   UNL A   1      32.622  23.207  25.999  1.00  0.00     0.253 C 
ATOM      6  O   UNL A   1      31.653  23.289  26.763  1.00  0.00    -0.269 OA
ATOM      7  H   UNL A   1      33.201  25.072  26.494  1.00  0.00     0.163 HD
BRANCH   5   8
ATOM      8  C   UNL A   1      32.615  22.117  24.956  1.00  0.00     0.063 A 
ATOM      9  C   UNL A   1      32.248  22.136  23.595  1.00  0.00     0.054 A 
ATOM     10  C   UNL A   1      32.122  20.916  22.892  1.00  0.00     0.027 A 
ATOM     11  C   UNL A   1      32.460  19.696  23.470  1.00  0.00     0.002 A 
ATOM     12  C   UNL A   1      32.975  20.859  25.508  1.00  0.00     0.016 A 
ATOM     13  C   UNL A   1      32.913  19.670  24.776  1.00  0.00     0.001 A 
BRANCH   9  14
ATOM     14  N   UNL A   1      31.991  23.256  22.781  1.00  0.00    -0.325 N 
ATOM     15  O   UNL A   1      34.134  23.923  22.234  1.00  0.00    -0.274 OA
ATOM     16  C   UNL A   1      32.925  24.114  22.242  1.00  0.00     0.234 C 
ATOM     17  H   UNL A   1      31.046  23.445  22.577  1.00  0.00     0.169 HD
BRANCH  16  18
ATOM     18  C   UNL A   1      32.301  25.435  21.818  1.00  0.00     0.180 C 
BRANCH  18  19
ATOM     19  S   UNL A   1      33.398  26.856  21.951  1.00  0.00    -0.057 SA
BRANCH  19  20
ATOM     20  C   UNL A   1      32.735  27.444  23.430  1.00  0.00     0.257 A 
ATOM     21  N   UNL A   1      32.288  26.649  24.380  1.00  0.00    -0.204 NA
ATOM     22  O   UNL A   1      32.846  28.759  23.765  1.00  0.00    -0.431 OA
ATOM     23  C   UNL A   1      32.077  27.504  25.426  1.00  0.00     0.110 A 
ATOM     24  C   UNL A   1      32.432  28.789  25.057  1.00  0.00     0.155 A 
ATOM     25  C   UNL A   1      31.617  27.276  26.726  1.00  0.00     0.032 A 
ATOM     26  C   UNL A   1      32.388  29.901  25.882  1.00  0.00     0.049 A 
ATOM     27  C   UNL A   1      31.550  28.376  27.596  1.00  0.00     0.003 A 
ATOM     28  C   UNL A   1      31.933  29.659  27.180  1.00  0.00     0.004 A 
ENDBRANCH  19  20
ENDBRANCH  18  19
ENDBRANCH  16  18
ENDBRANCH   9  14
ENDBRANCH   5   8
ENDBRANCH   3   4
ENDBRANCH   2   3
ENDBRANCH   1   2
BRANCH   1  29
ATOM     29  C   UNL A   1      38.104  21.956  25.610  1.00  0.00     0.002 C 
BRANCH  29  30
ATOM     30  C   UNL A   1      39.408  22.057  26.402  1.00  0.00     0.021 C 
BRANCH  30  31
ATOM     31  C   UNL A   1      39.855  23.428  26.882  1.00  0.00     0.116 C 
BRANCH  31  32
ATOM     32  N   UNL A   1      40.911  24.002  26.075  1.00  0.00    -0.352 N 
ATOM     33  C   UNL A   1      41.578  25.200  26.197  1.00  0.00     0.251 C 
ATOM     34  H   UNL A   1      41.198  23.445  25.316  1.00  0.00     0.163 HD
ATOM     35  O   UNL A   1      42.358  25.532  25.307  1.00  0.00    -0.269 OA
BRANCH  33  36
ATOM     36  C   UNL A   1      41.361  26.107  27.356  1.00  0.00     0.039 A 
ATOM     37  C   UNL A   1      42.191  27.227  27.486  1.00  0.00     0.014 A 
ATOM     38  C   UNL A   1      40.402  25.854  28.340  1.00  0.00     0.014 A 
ATOM     39  C   UNL A   1      42.029  28.108  28.562  1.00  0.00     0.010 A 
ATOM     40  C   UNL A   1      40.185  26.776  29.367  1.00  0.00     0.010 A 
ATOM     41  C   UNL A   1      41.004  27.907  29.501  1.00  0.00    -0.014 A 
BRANCH  41  42
ATOM     42  C   UNL A   1      40.802  28.849  30.637  1.00  0.00     0.031 A 
ATOM     43  C   UNL A   1      41.641  28.729  31.885  1.00  0.00     0.074 A 
ATOM     44  C   UNL A   1      39.836  29.789  30.571  1.00  0.00     0.049 A 
ATOM     45  N   UNL A   1      41.576  29.416  32.997  1.00  0.00    -0.248 NA
ATOM     46  C   UNL A   1      42.672  27.678  31.894  1.00  0.00     0.031 C 
ATOM     47  C   UNL A   1      38.925  29.987  29.441  1.00  0.00     0.029 A 
ATOM     48  N   UNL A   1      39.453  30.750  31.475  1.00  0.00    -0.354 N 
ATOM     49  C   UNL A   1      42.541  28.874  33.839  1.00  0.00     0.074 A 
ATOM     50  C   UNL A   1      43.141  27.764  33.130  1.00  0.00     0.031 C 
ATOM     51  C   UNL A   1      38.107  31.017  29.710  1.00  0.00     0.029 A 
ATOM     52  C   UNL A   1      38.407  31.531  31.042  1.00  0.00     0.049 A 
ATOM     53  H   UNL A   1      39.887  30.868  32.351  1.00  0.00     0.167 HD
ATOM     54  C   UNL A   1      42.912  29.276  35.080  1.00  0.00     0.037 A 
ATOM     55  C   UNL A   1      37.756  32.545  31.651  1.00  0.00     0.037 A 
ATOM     56  C   UNL A   1      42.336  30.401  35.771  1.00  0.00     0.049 A 
ATOM     57  C   UNL A   1      38.189  32.976  33.026  1.00  0.00     0.074 A 
ATOM     58  C   UNL A   1      42.685  30.923  37.004  1.00  0.00     0.029 A 
ATOM     59  N   UNL A   1      41.293  31.178  35.289  1.00  0.00    -0.354 N 
ATOM     60  N   UNL A   1      39.143  32.487  33.782  1.00  0.00    -0.248 NA
ATOM     61  C   UNL A   1      37.462  34.102  33.630  1.00  0.00     0.031 C 
ATOM     62  C   UNL A   1      41.825  31.989  37.287  1.00  0.00     0.029 A 
ATOM     63  C   UNL A   1      40.973  32.164  36.209  1.00  0.00     0.049 A 
ATOM     64  H   UNL A   1      40.847  31.049  34.421  1.00  0.00     0.167 HD
ATOM     65  C   UNL A   1      39.148  33.261  34.938  1.00  0.00     0.074 A 
ATOM     66  C   UNL A   1      38.111  34.259  34.776  1.00  0.00     0.031 C 
ATOM     67  C   UNL A   1      39.941  33.156  36.033  1.00  0.00     0.037 A 
BRANCH  54  68
ATOM     68  C   UNL A   1      43.998  28.496  35.771  1.00  0.00     0.058 A 
ATOM     69  C   UNL A   1      45.354  28.835  35.632  1.00  0.00     0.135 A 
ATOM     70  C   UNL A   1      43.679  27.417  36.613  1.00  0.00     0.135 A 
ATOM     71  F   UNL A   1      45.718  29.849  34.831  1.00  0.00    -0.206 F 
ATOM     72  C   UNL A   1      46.355  28.113  36.273  1.00  0.00     0.059 A 
ATOM     73  C   UNL A   1      44.663  26.699  37.288  1.00  0.00     0.059 A 
ATOM     74  F   UNL A   1      42.399  27.049  36.785  1.00  0.00    -0.206 F 
ATOM     75  C   UNL A   1      46.000  27.045  37.098  1.00  0.00     0.060 A 
BRANCH  75  76
ATOM     76  S   UNL A   1      47.311  26.119  37.924  1.00  0.00     0.124 S 
ATOM     77  O   UNL A   1      48.356  26.125  36.904  1.00  0.00    -0.237 OA
ATOM     78  O   UNL A   1      47.576  26.934  39.104  1.00  0.00    -0.237 OA
ATOM     79  O   UNL A   1      46.698  24.820  38.186  1.00  0.00    -0.744 OA
ENDBRANCH  75  76
ENDBRANCH  54  68
BRANCH  55  80
ATOM     80  C   UNL A   1      36.639  33.236  30.952  1.00  0.00     0.058 A 
ATOM     81  C   UNL A   1      36.888  34.137  29.907  1.00  0.00     0.135 A 
ATOM     82  C   UNL A   1      35.301  33.000  31.306  1.00  0.00     0.135 A 
ATOM     83  F   UNL A   1      38.150  34.402  29.537  1.00  0.00    -0.206 F 
ATOM     84  C   UNL A   1      35.853  34.793  29.246  1.00  0.00     0.059 A 
ATOM     85  C   UNL A   1      34.248  33.625  30.644  1.00  0.00     0.059 A 
ATOM     86  F   UNL A   1      35.008  32.137  32.291  1.00  0.00    -0.206 F 
ATOM     87  C   UNL A   1      34.535  34.528  29.622  1.00  0.00     0.060 A 
BRANCH  87  88
ATOM     88  S   UNL A   1      33.198  35.349  28.727  1.00  0.00     0.124 S 
ATOM     89  O   UNL A   1      33.940  36.250  27.852  1.00  0.00    -0.237 OA
ATOM     90  O   UNL A   1      32.531  34.228  28.073  1.00  0.00    -0.237 OA
ATOM     91  O   UNL A   1      32.429  35.992  29.788  1.00  0.00    -0.744 OA
ENDBRANCH  87  88
ENDBRANCH  55  80
BRANCH  67  92
ATOM     92  C   UNL A   1      39.746  34.163  37.132  1.00  0.00     0.058 A 
ATOM     93  C   UNL A   1      38.940  33.890  38.249  1.00  0.00     0.135 A 
ATOM     94  C   UNL A   1      40.418  35.396  37.094  1.00  0.00     0.135 A 
ATOM     95  F   UNL A   1      38.271  32.729  38.333  1.00  0.00    -0.206 F 
ATOM     96  C   UNL A   1      38.790  34.813  39.279  1.00  0.00     0.059 A 
ATOM     97  C   UNL A   1      40.304  36.322  38.125  1.00  0.00     0.059 A 
ATOM     98  F   UNL A   1      41.209  35.703  36.054  1.00  0.00    -0.206 F 
ATOM     99  C   UNL A   1      39.478  36.026  39.209  1.00  0.00     0.060 A 
BRANCH  99 100
ATOM    100  S   UNL A   1      39.304  37.200  40.571  1.00  0.00     0.124 S 
ATOM    101  O   UNL A   1      38.864  36.329  41.655  1.00  0.00    -0.237 OA
ATOM    102  O   UNL A   1      40.657  37.735  40.696  1.00  0.00    -0.237 OA
ATOM    103  O   UNL A   1      38.307  38.146  40.079  1.00  0.00    -0.744 OA
ENDBRANCH  99 100
ENDBRANCH  67  92
ENDBRANCH  41  42
ENDBRANCH  33  36
ENDBRANCH  31  32
ENDBRANCH  30  31
ENDBRANCH  29  30
ENDBRANCH   1  29
TORSDOF 20
ENDMDL
MODEL 2
REMARK VINA RESULT:     -11.6      5.857      8.106
REMARK SMILES O=C(CSc1nc2ccccc2o1)Nc1ccccc1C(=O)NCCCCCCNC(=O)c1ccc(-c2c3nc(c(-c4c(F)cc(S(=O)(=O)[O-])cc4F)c4ccc([nH]4)c(-c4c(F)cc(S(=O)(=O)[O-])cc4F)c4nc(c(-c5c(F)cc(S(=O)(=O)[O-])cc5F)c5ccc2[nH]5)C=C4)C=C3)cc1
REMARK SMILES IDX 26 1 25 2 24 3 23 4 21 5 22 6 20 8 15 9 16 10 17 11 19 12
REMARK SMILES IDX 18 13 14 14 1 15 2 16 3 18 4 19 5 20 6 21 13 22 7 23 12 24
REMARK SMILES IDX 8 25 11 26 9 27 10 28 27 29 28 30 29 31 30 32 31 33 32 35
REMARK SMILES IDX 33 36 34 37 98 38 35 39 97 40 36 41 37 42 38 43 91 44 39 45
REMARK SMILES IDX 96 46 90 47 92 48 40 49 95 50 89 51 88 52 41 54 75 55 54 56
REMARK SMILES IDX 74 57 55 58 58 59 73 60 93 61 56 62 57 63 72 65 94 66 59 67
REMARK SMILES IDX 42 68 43 69 52 70 44 71 45 72 51 73 53 74 46 75 47 76 48 77
REMARK SMILES IDX 49 78 50 79 76 80 77 81 86 82 78 83 79 84 85 85 87 86 80 87
REMARK SMILES IDX 81 88 82 89 83 90 84 91 60 92 61 93 70 94 62 95 63 96 69 97
REMARK SMILES IDX 71 98 64 99 65 100 66 101 67 102 68 103
REMARK H PARENT 23 7 14 17 30 34 92 53 58 64
REMARK Flexibility Score: inf
ROOT
ATOM      1  C   UNL A   1      37.026  22.023  25.900  1.00  0.00     0.002 C 
ENDROOT
BRANCH   1   2
ATOM      2  C   UNL A   1      36.857  23.446  25.340  1.00  0.00     0.021 C 
BRANCH   2   3
ATOM      3  C   UNL A   1      35.471  23.833  24.829  1.00  0.00     0.116 C 
BRANCH   3   4
ATOM      4  N   UNL A   1      34.350  23.678  25.714  1.00  0.00    -0.352 N 
ATOM      5  C   UNL A   1      33.480  22.609  25.844  1.00  0.00     0.253 C 
ATOM      6  O   UNL A   1      32.811  22.580  26.884  1.00  0.00    -0.269 OA
ATOM      7  H   UNL A   1      34.175  24.440  26.313  1.00  0.00     0.163 HD
BRANCH   5   8
ATOM      8  C   UNL A   1      33.143  21.622  24.754  1.00  0.00     0.063 A 
ATOM      9  C   UNL A   1      32.435  21.779  23.545  1.00  0.00     0.054 A 
ATOM     10  C   UNL A   1      32.064  20.635  22.801  1.00  0.00     0.027 A 
ATOM     11  C   UNL A   1      32.476  19.357  23.167  1.00  0.00     0.002 A 
ATOM     12  C   UNL A   1      33.566  20.307  25.084  1.00  0.00     0.016 A 
ATOM     13  C   UNL A   1      33.252  19.194  24.300  1.00  0.00     0.001 A 
BRANCH   9  14
ATOM     14  N   UNL A   1      32.034  22.978  22.924  1.00  0.00    -0.325 N 
ATOM     15  O   UNL A   1      33.989  23.621  21.873  1.00  0.00    -0.274 OA
ATOM     16  C   UNL A   1      32.839  23.851  22.222  1.00  0.00     0.234 C 
ATOM     17  H   UNL A   1      31.082  23.217  22.998  1.00  0.00     0.169 HD
BRANCH  16  18
ATOM     18  C   UNL A   1      32.200  25.225  22.091  1.00  0.00     0.180 C 
BRANCH  18  19
ATOM     19  S   UNL A   1      33.374  26.582  21.941  1.00  0.00    -0.057 SA
BRANCH  19  20
ATOM     20  C   UNL A   1      33.217  27.122  23.572  1.00  0.00     0.257 A 
ATOM     21  N   UNL A   1      33.857  28.172  24.043  1.00  0.00    -0.204 NA
ATOM     22  O   UNL A   1      32.252  26.607  24.383  1.00  0.00    -0.431 OA
ATOM     23  C   UNL A   1      33.278  28.365  25.267  1.00  0.00     0.110 A 
ATOM     24  C   UNL A   1      32.288  27.419  25.469  1.00  0.00     0.155 A 
ATOM     25  C   UNL A   1      33.507  29.326  26.255  1.00  0.00     0.032 A 
ATOM     26  C   UNL A   1      31.468  27.343  26.582  1.00  0.00     0.049 A 
ATOM     27  C   UNL A   1      32.703  29.283  27.405  1.00  0.00     0.003 A 
ATOM     28  C   UNL A   1      31.702  28.313  27.559  1.00  0.00     0.004 A 
ENDBRANCH  19  20
ENDBRANCH  18  19
ENDBRANCH  16  18
ENDBRANCH   9  14
ENDBRANCH   5   8
ENDBRANCH   3   4
ENDBRANCH   2   3
ENDBRANCH   1   2
BRANCH   1  29
ATOM     29  C   UNL A   1      37.104  20.842  24.916  1.00  0.00     0.002 C 
BRANCH  29  30
ATOM     30  C   UNL A   1      38.376  19.994  24.910  1.00  0.00     0.021 C 
BRANCH  30  31
ATOM     31  C   UNL A   1      39.304  20.077  26.112  1.00  0.00     0.116 C 
BRANCH  31  32
ATOM     32  N   UNL A   1      40.446  19.193  26.016  1.00  0.00    -0.352 N 
ATOM     33  C   UNL A   1      41.794  19.468  26.066  1.00  0.00     0.251 C 
ATOM     34  H   UNL A   1      40.223  18.243  25.894  1.00  0.00     0.163 HD
ATOM     35  O   UNL A   1      42.589  18.560  25.831  1.00  0.00    -0.269 OA
BRANCH  33  36
ATOM     36  C   UNL A   1      42.309  20.830  26.370  1.00  0.00     0.039 A 
ATOM     37  C   UNL A   1      42.576  21.693  25.300  1.00  0.00     0.014 A 
ATOM     38  C   UNL A   1      42.585  21.257  27.671  1.00  0.00     0.014 A 
ATOM     39  C   UNL A   1      43.066  22.983  25.535  1.00  0.00     0.010 A 
ATOM     40  C   UNL A   1      42.995  22.571  27.911  1.00  0.00     0.010 A 
ATOM     41  C   UNL A   1      43.255  23.447  26.847  1.00  0.00    -0.014 A 
BRANCH  41  42
ATOM     42  C   UNL A   1      43.751  24.826  27.114  1.00  0.00     0.031 A 
ATOM     43  C   UNL A   1      45.209  25.162  26.919  1.00  0.00     0.074 A 
ATOM     44  C   UNL A   1      42.905  25.771  27.574  1.00  0.00     0.049 A 
ATOM     45  N   UNL A   1      45.839  26.285  27.152  1.00  0.00    -0.248 NA
ATOM     46  C   UNL A   1      46.078  24.083  26.422  1.00  0.00     0.031 C 
ATOM     47  C   UNL A   1      41.481  25.568  27.848  1.00  0.00     0.029 A 
ATOM     48  N   UNL A   1      43.119  27.088  27.900  1.00  0.00    -0.354 N 
ATOM     49  C   UNL A   1      47.175  26.045  26.846  1.00  0.00     0.074 A 
ATOM     50  C   UNL A   1      47.274  24.653  26.463  1.00  0.00     0.031 C 
ATOM     51  C   UNL A   1      40.946  26.722  28.277  1.00  0.00     0.029 A 
ATOM     52  C   UNL A   1      41.992  27.738  28.346  1.00  0.00     0.049 A 
ATOM     53  H   UNL A   1      43.998  27.525  27.822  1.00  0.00     0.167 HD
ATOM     54  C   UNL A   1      48.220  26.909  26.860  1.00  0.00     0.037 A 
ATOM     55  C   UNL A   1      41.819  29.008  28.768  1.00  0.00     0.037 A 
ATOM     56  C   UNL A   1      48.113  28.302  27.210  1.00  0.00     0.049 A 
ATOM     57  C   UNL A   1      42.993  29.949  28.770  1.00  0.00     0.074 A 
ATOM     58  C   UNL A   1      49.101  29.270  27.196  1.00  0.00     0.029 A 
ATOM     59  N   UNL A   1      46.949  28.925  27.635  1.00  0.00    -0.354 N 
ATOM     60  N   UNL A   1      44.236  29.717  28.421  1.00  0.00    -0.248 NA
ATOM     61  C   UNL A   1      42.740  31.328  29.215  1.00  0.00     0.031 C 
ATOM     62  C   UNL A   1      48.546  30.469  27.654  1.00  0.00     0.029 A 
ATOM     63  C   UNL A   1      47.199  30.261  27.905  1.00  0.00     0.049 A 
ATOM     64  H   UNL A   1      46.074  28.484  27.730  1.00  0.00     0.167 HD
ATOM     65  C   UNL A   1      44.907  30.926  28.580  1.00  0.00     0.074 A 
ATOM     66  C   UNL A   1      43.930  31.888  29.043  1.00  0.00     0.031 C 
ATOM     67  C   UNL A   1      46.215  31.212  28.361  1.00  0.00     0.037 A 
BRANCH  54  68
ATOM     68  C   UNL A   1      49.574  26.373  26.479  1.00  0.00     0.058 A 
ATOM     69  C   UNL A   1      50.022  26.377  25.148  1.00  0.00     0.135 A 
ATOM     70  C   UNL A   1      50.450  25.880  27.460  1.00  0.00     0.135 A 
ATOM     71  F   UNL A   1      49.222  26.824  24.166  1.00  0.00    -0.206 F 
ATOM     72  C   UNL A   1      51.274  25.882  24.798  1.00  0.00     0.059 A 
ATOM     73  C   UNL A   1      51.720  25.407  27.137  1.00  0.00     0.059 A 
ATOM     74  F   UNL A   1      50.076  25.854  28.749  1.00  0.00    -0.206 F 
ATOM     75  C   UNL A   1      52.116  25.397  25.801  1.00  0.00     0.060 A 
BRANCH  75  76
ATOM     76  S   UNL A   1      53.738  24.759  25.331  1.00  0.00     0.124 S 
ATOM     77  O   UNL A   1      54.070  25.617  24.197  1.00  0.00    -0.237 OA
ATOM     78  O   UNL A   1      54.523  24.979  26.542  1.00  0.00    -0.237 OA
ATOM     79  O   UNL A   1      53.473  23.362  25.004  1.00  0.00    -0.744 OA
ENDBRANCH  75  76
ENDBRANCH  54  68
BRANCH  55  80
ATOM     80  C   UNL A   1      40.473  29.468  29.205  1.00  0.00     0.058 A 
ATOM     81  C   UNL A   1      40.173  29.633  30.565  1.00  0.00     0.135 A 
ATOM     82  C   UNL A   1      39.465  29.763  28.274  1.00  0.00     0.135 A 
ATOM     83  F   UNL A   1      41.099  29.356  31.495  1.00  0.00    -0.206 F 
ATOM     84  C   UNL A   1      38.917  30.059  30.990  1.00  0.00     0.059 A 
ATOM     85  C   UNL A   1      38.210  30.215  28.672  1.00  0.00     0.059 A 
ATOM     86  F   UNL A   1      39.705  29.634  26.960  1.00  0.00    -0.206 F 
ATOM     87  C   UNL A   1      37.942  30.350  30.033  1.00  0.00     0.060 A 
BRANCH  87  88
ATOM     88  S   UNL A   1      36.332  30.947  30.592  1.00  0.00     0.124 S 
ATOM     89  O   UNL A   1      36.073  30.073  31.731  1.00  0.00    -0.237 OA
ATOM     90  O   UNL A   1      36.614  32.343  30.910  1.00  0.00    -0.237 OA
ATOM     91  O   UNL A   1      35.475  30.739  29.429  1.00  0.00    -0.744 OA
ENDBRANCH  87  88
ENDBRANCH  55  80
BRANCH  67  92
ATOM     92  C   UNL A   1      46.664  32.629  28.585  1.00  0.00     0.058 A 
ATOM     93  C   UNL A   1      46.610  33.591  27.563  1.00  0.00     0.135 A 
ATOM     94  C   UNL A   1      47.100  33.044  29.853  1.00  0.00     0.135 A 
ATOM     95  F   UNL A   1      46.206  33.246  26.331  1.00  0.00    -0.206 F 
ATOM     96  C   UNL A   1      46.995  34.909  27.786  1.00  0.00     0.059 A 
ATOM     97  C   UNL A   1      47.464  34.363  30.106  1.00  0.00     0.059 A 
ATOM     98  F   UNL A   1      47.160  32.168  30.868  1.00  0.00    -0.206 F 
ATOM     99  C   UNL A   1      47.419  35.286  29.062  1.00  0.00     0.060 A 
BRANCH  99 100
ATOM    100  S   UNL A   1      47.880  37.009  29.348  1.00  0.00     0.124 S 
ATOM    101  O   UNL A   1      46.607  37.587  29.765  1.00  0.00    -0.237 OA
ATOM    102  O   UNL A   1      48.896  36.891  30.389  1.00  0.00    -0.237 OA
ATOM    103  O   UNL A   1      48.375  37.448  28.046  1.00  0.00    -0.744 OA
ENDBRANCH  99 100
ENDBRANCH  67  92
ENDBRANCH  41  42
ENDBRANCH  33  36
ENDBRANCH  31  32
ENDBRANCH  30  31
ENDBRANCH  29  30
ENDBRANCH   1  29
TORSDOF 20
ENDMDL
MODEL 3
REMARK VINA RESULT:     -11.3      1.539      2.559
REMARK SMILES O=C(CSc1nc2ccccc2o1)Nc1ccccc1C(=O)NCCCCCCNC(=O)c1ccc(-c2c3nc(c(-c4c(F)cc(S(=O)(=O)[O-])cc4F)c4ccc([nH]4)c(-c4c(F)cc(S(=O)(=O)[O-])cc4F)c4nc(c(-c5c(F)cc(S(=O)(=O)[O-])cc5F)c5ccc2[nH]5)C=C4)C=C3)cc1
REMARK SMILES IDX 26 1 25 2 24 3 23 4 21 5 22 6 20 8 15 9 16 10 17 11 19 12
REMARK SMILES IDX 18 13 14 14 1 15 2 16 3 18 4 19 5 20 6 21 13 22 7 23 12 24
REMARK SMILES IDX 8 25 11 26 9 27 10 28 27 29 28 30 29 31 30 32 31 33 32 35
REMARK SMILES IDX 33 36 34 37 98 38 35 39 97 40 36 41 37 42 38 43 91 44 39 45
REMARK SMILES IDX 96 46 90 47 92 48 40 49 95 50 89 51 88 52 41 54 75 55 54 56
REMARK SMILES IDX 74 57 55 58 58 59 73 60 93 61 56 62 57 63 72 65 94 66 59 67
REMARK SMILES IDX 42 68 43 69 52 70 44 71 45 72 51 73 53 74 46 75 47 76 48 77
REMARK SMILES IDX 49 78 50 79 76 80 77 81 86 82 78 83 79 84 85 85 87 86 80 87
REMARK SMILES IDX 81 88 82 89 83 90 84 91 60 92 61 93 70 94 62 95 63 96 69 97
REMARK SMILES IDX 71 98 64 99 65 100 66 101 67 102 68 103
REMARK H PARENT 23 7 14 17 30 34 92 53 58 64
REMARK Flexibility Score: inf
ROOT
ATOM      1  C   UNL A   1      37.010  22.719  24.428  1.00  0.00     0.002 C 
ENDROOT
BRANCH   1   2
ATOM      2  C   UNL A   1      35.770  23.504  23.967  1.00  0.00     0.021 C 
BRANCH   2   3
ATOM      3  C   UNL A   1      34.761  22.763  23.092  1.00  0.00     0.116 C 
BRANCH   3   4
ATOM      4  N   UNL A   1      33.694  23.516  22.495  1.00  0.00    -0.352 N 
ATOM      5  C   UNL A   1      32.686  24.241  23.108  1.00  0.00     0.253 C 
ATOM      6  O   UNL A   1      32.093  25.055  22.391  1.00  0.00    -0.269 OA
ATOM      7  H   UNL A   1      33.676  23.516  21.511  1.00  0.00     0.163 HD
BRANCH   5   8
ATOM      8  C   UNL A   1      32.131  23.972  24.486  1.00  0.00     0.063 A 
ATOM      9  C   UNL A   1      32.226  24.706  25.685  1.00  0.00     0.054 A 
ATOM     10  C   UNL A   1      31.800  24.116  26.897  1.00  0.00     0.027 A 
ATOM     11  C   UNL A   1      31.181  22.870  26.930  1.00  0.00     0.002 A 
ATOM     12  C   UNL A   1      31.475  22.715  24.551  1.00  0.00     0.016 A 
ATOM     13  C   UNL A   1      30.994  22.177  25.749  1.00  0.00     0.001 A 
BRANCH   9  14
ATOM     14  N   UNL A   1      32.693  26.023  25.862  1.00  0.00    -0.325 N 
ATOM     15  O   UNL A   1      30.882  27.013  26.900  1.00  0.00    -0.274 OA
ATOM     16  C   UNL A   1      31.977  27.091  26.359  1.00  0.00     0.234 C 
ATOM     17  H   UNL A   1      33.627  26.198  25.603  1.00  0.00     0.169 HD
BRANCH  16  18
ATOM     18  C   UNL A   1      32.618  28.421  25.991  1.00  0.00     0.180 C 
BRANCH  18  19
ATOM     19  S   UNL A   1      33.025  28.594  24.246  1.00  0.00    -0.057 SA
BRANCH  19  20
ATOM     20  C   UNL A   1      31.487  29.213  23.774  1.00  0.00     0.257 A 
ATOM     21  N   UNL A   1      30.751  29.974  24.557  1.00  0.00    -0.204 NA
ATOM     22  O   UNL A   1      31.066  29.115  22.483  1.00  0.00    -0.431 OA
ATOM     23  C   UNL A   1      29.758  30.410  23.724  1.00  0.00     0.110 A 
ATOM     24  C   UNL A   1      29.958  29.898  22.454  1.00  0.00     0.155 A 
ATOM     25  C   UNL A   1      28.669  31.257  23.948  1.00  0.00     0.032 A 
ATOM     26  C   UNL A   1      29.168  30.166  21.348  1.00  0.00     0.049 A 
ATOM     27  C   UNL A   1      27.837  31.552  22.856  1.00  0.00     0.003 A 
ATOM     28  C   UNL A   1      28.088  31.019  21.583  1.00  0.00     0.004 A 
ENDBRANCH  19  20
ENDBRANCH  18  19
ENDBRANCH  16  18
ENDBRANCH   9  14
ENDBRANCH   5   8
ENDBRANCH   3   4
ENDBRANCH   2   3
ENDBRANCH   1   2
BRANCH   1  29
ATOM     29  C   UNL A   1      37.718  23.146  25.727  1.00  0.00     0.002 C 
BRANCH  29  30
ATOM     30  C   UNL A   1      38.933  22.337  26.183  1.00  0.00     0.021 C 
BRANCH  30  31
ATOM     31  C   UNL A   1      40.034  23.057  26.945  1.00  0.00     0.116 C 
BRANCH  31  32
ATOM     32  N   UNL A   1      41.029  23.657  26.082  1.00  0.00    -0.352 N 
ATOM     33  C   UNL A   1      41.648  24.884  26.151  1.00  0.00     0.251 C 
ATOM     34  H   UNL A   1      41.308  23.095  25.323  1.00  0.00     0.163 HD
ATOM     35  O   UNL A   1      42.376  25.228  25.221  1.00  0.00    -0.269 OA
BRANCH  33  36
ATOM     36  C   UNL A   1      41.441  25.807  27.299  1.00  0.00     0.039 A 
ATOM     37  C   UNL A   1      42.359  26.847  27.488  1.00  0.00     0.014 A 
ATOM     38  C   UNL A   1      40.402  25.643  28.218  1.00  0.00     0.014 A 
ATOM     39  C   UNL A   1      42.209  27.739  28.557  1.00  0.00     0.010 A 
ATOM     40  C   UNL A   1      40.204  26.581  29.235  1.00  0.00     0.010 A 
ATOM     41  C   UNL A   1      41.112  27.632  29.427  1.00  0.00    -0.014 A 
BRANCH  41  42
ATOM     42  C   UNL A   1      40.924  28.589  30.553  1.00  0.00     0.031 A 
ATOM     43  C   UNL A   1      41.774  28.481  31.795  1.00  0.00     0.074 A 
ATOM     44  C   UNL A   1      39.961  29.531  30.484  1.00  0.00     0.049 A 
ATOM     45  N   UNL A   1      41.722  29.182  32.898  1.00  0.00    -0.248 NA
ATOM     46  C   UNL A   1      42.802  27.427  31.806  1.00  0.00     0.031 C 
ATOM     47  C   UNL A   1      39.040  29.718  29.361  1.00  0.00     0.029 A 
ATOM     48  N   UNL A   1      39.589  30.505  31.380  1.00  0.00    -0.354 N 
ATOM     49  C   UNL A   1      42.694  28.646  33.738  1.00  0.00     0.074 A 
ATOM     50  C   UNL A   1      43.283  27.527  33.037  1.00  0.00     0.031 C 
ATOM     51  C   UNL A   1      38.228  30.754  29.625  1.00  0.00     0.029 A 
ATOM     52  C   UNL A   1      38.542  31.284  30.948  1.00  0.00     0.049 A 
ATOM     53  H   UNL A   1      40.032  30.632  32.251  1.00  0.00     0.167 HD
ATOM     54  C   UNL A   1      43.077  29.062  34.970  1.00  0.00     0.037 A 
ATOM     55  C   UNL A   1      37.901  32.307  31.551  1.00  0.00     0.037 A 
ATOM     56  C   UNL A   1      42.512  30.198  35.653  1.00  0.00     0.049 A 
ATOM     57  C   UNL A   1      38.348  32.754  32.916  1.00  0.00     0.074 A 
ATOM     58  C   UNL A   1      42.874  30.733  36.876  1.00  0.00     0.029 A 
ATOM     59  N   UNL A   1      41.467  30.973  35.172  1.00  0.00    -0.354 N 
ATOM     60  N   UNL A   1      39.307  32.270  33.669  1.00  0.00    -0.248 NA
ATOM     61  C   UNL A   1      37.630  33.890  33.513  1.00  0.00     0.031 C 
ATOM     62  C   UNL A   1      42.021  31.806  37.154  1.00  0.00     0.029 A 
ATOM     63  C   UNL A   1      41.159  31.971  36.082  1.00  0.00     0.049 A 
ATOM     64  H   UNL A   1      41.012  30.835  34.309  1.00  0.00     0.167 HD
ATOM     65  C   UNL A   1      39.326  33.059  34.815  1.00  0.00     0.074 A 
ATOM     66  C   UNL A   1      38.291  34.058  34.651  1.00  0.00     0.031 C 
ATOM     67  C   UNL A   1      40.129  32.964  35.904  1.00  0.00     0.037 A 
BRANCH  54  68
ATOM     68  C   UNL A   1      44.167  28.287  35.661  1.00  0.00     0.058 A 
ATOM     69  C   UNL A   1      45.524  28.608  35.490  1.00  0.00     0.135 A 
ATOM     70  C   UNL A   1      43.852  27.232  36.533  1.00  0.00     0.135 A 
ATOM     71  F   UNL A   1      45.885  29.599  34.658  1.00  0.00    -0.206 F 
ATOM     72  C   UNL A   1      46.529  27.891  36.130  1.00  0.00     0.059 A 
ATOM     73  C   UNL A   1      44.840  26.519  37.207  1.00  0.00     0.059 A 
ATOM     74  F   UNL A   1      42.572  26.882  36.737  1.00  0.00    -0.206 F 
ATOM     75  C   UNL A   1      46.178  26.846  36.987  1.00  0.00     0.060 A 
BRANCH  75  76
ATOM     76  S   UNL A   1      47.493  25.926  37.811  1.00  0.00     0.124 S 
ATOM     77  O   UNL A   1      48.680  26.465  37.152  1.00  0.00    -0.237 OA
ATOM     78  O   UNL A   1      47.316  26.309  39.208  1.00  0.00    -0.237 OA
ATOM     79  O   UNL A   1      47.182  24.534  37.500  1.00  0.00    -0.744 OA
ENDBRANCH  75  76
ENDBRANCH  54  68
BRANCH  55  80
ATOM     80  C   UNL A   1      36.778  32.993  30.854  1.00  0.00     0.058 A 
ATOM     81  C   UNL A   1      35.444  32.702  31.174  1.00  0.00     0.135 A 
ATOM     82  C   UNL A   1      37.017  33.961  29.865  1.00  0.00     0.135 A 
ATOM     83  F   UNL A   1      35.164  31.779  32.106  1.00  0.00    -0.206 F 
ATOM     84  C   UNL A   1      34.384  33.333  30.528  1.00  0.00     0.059 A 
ATOM     85  C   UNL A   1      35.974  34.624  29.224  1.00  0.00     0.059 A 
ATOM     86  F   UNL A   1      38.276  34.285  29.531  1.00  0.00    -0.206 F 
ATOM     87  C   UNL A   1      34.661  34.295  29.555  1.00  0.00     0.060 A 
BRANCH  87  88
ATOM     88  S   UNL A   1      33.279  35.141  28.757  1.00  0.00     0.124 S 
ATOM     89  O   UNL A   1      32.505  35.590  29.908  1.00  0.00    -0.237 OA
ATOM     90  O   UNL A   1      33.956  36.186  27.996  1.00  0.00    -0.237 OA
ATOM     91  O   UNL A   1      32.663  34.092  27.952  1.00  0.00    -0.744 OA
ENDBRANCH  87  88
ENDBRANCH  55  80
BRANCH  67  92
ATOM     92  C   UNL A   1      39.947  33.986  36.992  1.00  0.00     0.058 A 
ATOM     93  C   UNL A   1      40.472  35.283  36.882  1.00  0.00     0.135 A 
ATOM     94  C   UNL A   1      39.192  33.679  38.135  1.00  0.00     0.135 A 
ATOM     95  F   UNL A   1      41.207  35.626  35.812  1.00  0.00    -0.206 F 
ATOM     96  C   UNL A   1      40.272  36.234  37.878  1.00  0.00     0.059 A 
ATOM     97  C   UNL A   1      38.956  34.622  39.130  1.00  0.00     0.059 A 
ATOM     98  F   UNL A   1      38.658  32.457  38.286  1.00  0.00    -0.206 F 
ATOM     99  C   UNL A   1      39.511  35.895  38.997  1.00  0.00     0.060 A 
BRANCH  99 100
ATOM    100  S   UNL A   1      39.227  37.150  40.265  1.00  0.00     0.124 S 
ATOM    101  O   UNL A   1      38.325  36.450  41.173  1.00  0.00    -0.237 OA
ATOM    102  O   UNL A   1      40.575  37.392  40.771  1.00  0.00    -0.237 OA
ATOM    103  O   UNL A   1      38.636  38.257  39.520  1.00  0.00    -0.744 OA
ENDBRANCH  99 100
ENDBRANCH  67  92
ENDBRANCH  41  42
ENDBRANCH  33  36
ENDBRANCH  31  32
ENDBRANCH  30  31
ENDBRANCH  29  30
ENDBRANCH   1  29
TORSDOF 20
ENDMDL
