MODEL 1
REMARK VINA RESULT:     -12.3      0.000      0.000
REMARK SMILES O=C(NCCCCCCNC(=O)c1ccc(-c2c3nc(c(-c4c(F)cc(S(=O)(=O)[O-])cc4F)c4ccc([nH]4)c(-c4c(F)cc(S(=O)(=O)[O-])cc4F)c4nc(c(-c5c(F)cc(S(=O)(=O)[O-])cc5F)c5ccc2[nH]5)C=C4)C=C3)cc1)C1=Cc2c(Cl)cc(Cl)cc2O[C@@H]1C(F)(F)F
REMARK SMILES IDX 7 1 6 2 5 3 4 4 3 5 1 6 2 7 79 9 80 10 90 11 81 12 89 13
REMARK SMILES IDX 82 14 88 15 83 16 84 17 87 18 85 19 86 20 91 21 92 22 93 23
REMARK SMILES IDX 94 24 8 25 9 26 10 27 11 28 12 30 13 31 14 32 78 33 15 34
REMARK SMILES IDX 77 35 16 36 17 37 18 38 71 39 19 40 76 41 70 42 72 43 20 44
REMARK SMILES IDX 75 45 69 46 68 47 21 49 55 50 34 51 54 52 35 53 38 54 53 55
REMARK SMILES IDX 73 56 36 57 37 58 52 60 74 61 39 62 22 63 23 64 32 65 24 66
REMARK SMILES IDX 25 67 31 68 33 69 26 70 27 71 28 72 29 73 30 74 56 75 57 76
REMARK SMILES IDX 66 77 58 78 59 79 65 80 67 81 60 82 61 83 62 84 63 85 64 86
REMARK SMILES IDX 40 87 41 88 50 89 42 90 43 91 49 92 51 93 44 94 45 95 46 96
REMARK SMILES IDX 47 97 48 98
REMARK H PARENT 3 8 10 29 72 48 38 59
REMARK Flexibility Score: inf
ROOT
ATOM      1  C   UNL A   1      36.101  23.890  24.958  1.00  0.00     0.002 C 
ENDROOT
BRANCH   1   2
ATOM      2  C   UNL A   1      34.924  24.314  25.843  1.00  0.00     0.002 C 
BRANCH   2   3
ATOM      3  C   UNL A   1      34.098  25.509  25.370  1.00  0.00     0.021 C 
BRANCH   3   4
ATOM      4  C   UNL A   1      33.744  25.549  23.888  1.00  0.00     0.116 C 
BRANCH   4   5
ATOM      5  N   UNL A   1      33.925  26.835  23.240  1.00  0.00    -0.352 N 
ATOM      6  O   UNL A   1      33.488  28.975  22.712  1.00  0.00    -0.270 OA
ATOM      7  C   UNL A   1      33.089  27.917  23.200  1.00  0.00     0.251 C 
ATOM      8  H   UNL A   1      34.777  26.946  22.758  1.00  0.00     0.163 HD
BRANCH   7   9
ATOM      9  C   UNL A   1      31.729  27.898  23.817  1.00  0.00     0.067 C 
ATOM     10  C   UNL A   1      31.275  28.916  24.567  1.00  0.00     0.027 C 
ATOM     11  C   UNL A   1      30.739  27.075  23.026  1.00  0.00     0.314 C 
ATOM     12  C   UNL A   1      30.210  29.701  23.882  1.00  0.00     0.036 A 
ATOM     13  O   UNL A   1      29.867  27.921  22.231  1.00  0.00    -0.475 OA
ATOM     14  C   UNL A   1      29.952  31.035  24.247  1.00  0.00     0.053 A 
ATOM     15  C   UNL A   1      29.648  29.194  22.696  1.00  0.00     0.130 A 
ATOM     16  Cl  UNL A   1      30.632  31.733  25.677  1.00  0.00    -0.083 Cl
ATOM     17  C   UNL A   1      29.231  31.871  23.395  1.00  0.00     0.042 A 
ATOM     18  C   UNL A   1      28.915  30.028  21.854  1.00  0.00     0.067 A 
ATOM     19  C   UNL A   1      28.742  31.368  22.192  1.00  0.00     0.046 A 
ATOM     20  Cl  UNL A   1      27.981  32.431  21.075  1.00  0.00    -0.084 Cl
BRANCH  11  21
ATOM     21  C   UNL A   1      29.934  26.115  23.917  1.00  0.00     0.429 C 
ATOM     22  F   UNL A   1      30.533  25.941  25.119  1.00  0.00    -0.167 F 
ATOM     23  F   UNL A   1      28.688  26.587  24.164  1.00  0.00    -0.167 F 
ATOM     24  F   UNL A   1      29.790  24.890  23.358  1.00  0.00    -0.167 F 
ENDBRANCH  11  21
ENDBRANCH   7   9
ENDBRANCH   4   5
ENDBRANCH   3   4
ENDBRANCH   2   3
ENDBRANCH   1   2
BRANCH   1  25
ATOM     25  C   UNL A   1      37.310  23.253  25.652  1.00  0.00     0.021 C 
BRANCH  25  26
ATOM     26  C   UNL A   1      38.225  24.193  26.435  1.00  0.00     0.116 C 
BRANCH  26  27
ATOM     27  N   UNL A   1      39.629  24.029  26.105  1.00  0.00    -0.352 N 
ATOM     28  C   UNL A   1      40.729  24.733  26.532  1.00  0.00     0.251 C 
ATOM     29  H   UNL A   1      39.824  23.299  25.474  1.00  0.00     0.163 HD
ATOM     30  O   UNL A   1      41.822  24.500  26.023  1.00  0.00    -0.269 OA
BRANCH  28  31
ATOM     31  C   UNL A   1      40.615  25.781  27.577  1.00  0.00     0.039 A 
ATOM     32  C   UNL A   1      39.625  25.641  28.555  1.00  0.00     0.014 A 
ATOM     33  C   UNL A   1      41.434  26.914  27.579  1.00  0.00     0.014 A 
ATOM     34  C   UNL A   1      39.490  26.605  29.561  1.00  0.00     0.010 A 
ATOM     35  C   UNL A   1      41.342  27.841  28.621  1.00  0.00     0.010 A 
ATOM     36  C   UNL A   1      40.367  27.700  29.619  1.00  0.00    -0.014 A 
BRANCH  36  37
ATOM     37  C   UNL A   1      40.271  28.702  30.717  1.00  0.00     0.031 A 
ATOM     38  C   UNL A   1      41.156  28.587  31.931  1.00  0.00     0.074 A 
ATOM     39  C   UNL A   1      39.354  29.687  30.644  1.00  0.00     0.049 A 
ATOM     40  N   UNL A   1      41.180  29.330  33.008  1.00  0.00    -0.248 NA
ATOM     41  C   UNL A   1      42.123  27.478  31.949  1.00  0.00     0.031 C 
ATOM     42  C   UNL A   1      38.411  29.885  29.540  1.00  0.00     0.029 A 
ATOM     43  N   UNL A   1      39.055  30.703  31.518  1.00  0.00    -0.354 N 
ATOM     44  C   UNL A   1      42.146  28.770  33.837  1.00  0.00     0.074 A 
ATOM     45  C   UNL A   1      42.657  27.600  33.156  1.00  0.00     0.031 C 
ATOM     46  C   UNL A   1      37.659  30.969  29.791  1.00  0.00     0.029 A 
ATOM     47  C   UNL A   1      38.035  31.521  31.089  1.00  0.00     0.049 A 
ATOM     48  H   UNL A   1      39.527  30.834  32.372  1.00  0.00     0.167 HD
ATOM     49  C   UNL A   1      42.581  29.202  35.046  1.00  0.00     0.037 A 
ATOM     50  C   UNL A   1      37.462  32.591  31.676  1.00  0.00     0.037 A 
ATOM     51  C   UNL A   1      42.096  30.389  35.703  1.00  0.00     0.049 A 
ATOM     52  C   UNL A   1      37.964  33.048  33.020  1.00  0.00     0.074 A 
ATOM     53  C   UNL A   1      42.528  30.949  36.893  1.00  0.00     0.029 A 
ATOM     54  N   UNL A   1      41.071  31.195  35.231  1.00  0.00    -0.354 N 
ATOM     55  N   UNL A   1      38.928  32.546  33.756  1.00  0.00    -0.248 NA
ATOM     56  C   UNL A   1      37.304  34.220  33.613  1.00  0.00     0.031 C 
ATOM     57  C   UNL A   1      41.732  32.068  37.164  1.00  0.00     0.029 A 
ATOM     58  C   UNL A   1      40.838  32.233  36.118  1.00  0.00     0.049 A 
ATOM     59  H   UNL A   1      40.581  31.051  34.389  1.00  0.00     0.167 HD
ATOM     60  C   UNL A   1      39.010  33.359  34.881  1.00  0.00     0.074 A 
ATOM     61  C   UNL A   1      38.006  34.391  34.725  1.00  0.00     0.031 C 
ATOM     62  C   UNL A   1      39.844  33.262  35.946  1.00  0.00     0.037 A 
BRANCH  49  63
ATOM     63  C   UNL A   1      43.636  28.389  35.746  1.00  0.00     0.058 A 
ATOM     64  C   UNL A   1      45.006  28.630  35.554  1.00  0.00     0.135 A 
ATOM     65  C   UNL A   1      43.271  27.391  36.665  1.00  0.00     0.135 A 
ATOM     66  F   UNL A   1      45.411  29.564  34.679  1.00  0.00    -0.206 F 
ATOM     67  C   UNL A   1      45.976  27.896  36.229  1.00  0.00     0.059 A 
ATOM     68  C   UNL A   1      44.224  26.662  37.371  1.00  0.00     0.059 A 
ATOM     69  F   UNL A   1      41.976  27.117  36.887  1.00  0.00    -0.206 F 
ATOM     70  C   UNL A   1      45.575  26.914  37.137  1.00  0.00     0.060 A 
BRANCH  70  71
ATOM     71  S   UNL A   1      46.847  25.981  38.015  1.00  0.00     0.124 S 
ATOM     72  O   UNL A   1      47.327  26.974  38.971  1.00  0.00    -0.237 OA
ATOM     73  O   UNL A   1      46.085  24.873  38.583  1.00  0.00    -0.237 OA
ATOM     74  O   UNL A   1      47.790  25.616  36.963  1.00  0.00    -0.744 OA
ENDBRANCH  70  71
ENDBRANCH  49  63
BRANCH  50  75
ATOM     75  C   UNL A   1      36.362  33.321  30.991  1.00  0.00     0.058 A 
ATOM     76  C   UNL A   1      36.621  34.135  29.879  1.00  0.00     0.135 A 
ATOM     77  C   UNL A   1      35.034  33.225  31.435  1.00  0.00     0.135 A 
ATOM     78  F   UNL A   1      37.876  34.264  29.421  1.00  0.00    -0.206 F 
ATOM     79  C   UNL A   1      35.610  34.850  29.246  1.00  0.00     0.059 A 
ATOM     80  C   UNL A   1      34.000  33.909  30.801  1.00  0.00     0.059 A 
ATOM     81  F   UNL A   1      34.729  32.448  32.485  1.00  0.00    -0.206 F 
ATOM     82  C   UNL A   1      34.301  34.730  29.716  1.00  0.00     0.060 A 
BRANCH  82  83
ATOM     83  S   UNL A   1      32.990  35.637  28.866  1.00  0.00     0.124 S 
ATOM     84  O   UNL A   1      32.370  34.582  28.073  1.00  0.00    -0.237 OA
ATOM     85  O   UNL A   1      32.200  36.150  29.980  1.00  0.00    -0.237 OA
ATOM     86  O   UNL A   1      33.722  36.650  28.109  1.00  0.00    -0.744 OA
ENDBRANCH  82  83
ENDBRANCH  50  75
BRANCH  62  87
ATOM     87  C   UNL A   1      39.737  34.318  37.010  1.00  0.00     0.058 A 
ATOM     88  C   UNL A   1      38.992  34.115  38.182  1.00  0.00     0.135 A 
ATOM     89  C   UNL A   1      40.433  35.531  36.877  1.00  0.00     0.135 A 
ATOM     90  F   UNL A   1      38.302  32.976  38.356  1.00  0.00    -0.206 F 
ATOM     91  C   UNL A   1      38.922  35.087  39.175  1.00  0.00     0.059 A 
ATOM     92  C   UNL A   1      40.400  36.505  37.870  1.00  0.00     0.059 A 
ATOM     93  F   UNL A   1      41.169  35.773  35.781  1.00  0.00    -0.206 F 
ATOM     94  C   UNL A   1      39.631  36.280  39.011  1.00  0.00     0.060 A 
BRANCH  94  95
ATOM     95  S   UNL A   1      39.561  37.517  40.323  1.00  0.00     0.124 S 
ATOM     96  O   UNL A   1      40.975  37.834  40.503  1.00  0.00    -0.237 OA
ATOM     97  O   UNL A   1      38.749  38.568  39.720  1.00  0.00    -0.237 OA
ATOM     98  O   UNL A   1      38.932  36.804  41.431  1.00  0.00    -0.744 OA
ENDBRANCH  94  95
ENDBRANCH  62  87
ENDBRANCH  36  37
ENDBRANCH  28  31
ENDBRANCH  26  27
ENDBRANCH  25  26
ENDBRANCH   1  25
TORSDOF 17
ENDMDL
MODEL 2
REMARK VINA RESULT:     -12.2      1.523      2.362
REMARK SMILES O=C(NCCCCCCNC(=O)c1ccc(-c2c3nc(c(-c4c(F)cc(S(=O)(=O)[O-])cc4F)c4ccc([nH]4)c(-c4c(F)cc(S(=O)(=O)[O-])cc4F)c4nc(c(-c5c(F)cc(S(=O)(=O)[O-])cc5F)c5ccc2[nH]5)C=C4)C=C3)cc1)C1=Cc2c(Cl)cc(Cl)cc2O[C@@H]1C(F)(F)F
REMARK SMILES IDX 7 1 6 2 5 3 4 4 3 5 1 6 2 7 79 9 80 10 90 11 81 12 89 13
REMARK SMILES IDX 82 14 88 15 83 16 84 17 87 18 85 19 86 20 91 21 92 22 93 23
REMARK SMILES IDX 94 24 8 25 9 26 10 27 11 28 12 30 13 31 14 32 78 33 15 34
REMARK SMILES IDX 77 35 16 36 17 37 18 38 71 39 19 40 76 41 70 42 72 43 20 44
REMARK SMILES IDX 75 45 69 46 68 47 21 49 55 50 34 51 54 52 35 53 38 54 53 55
REMARK SMILES IDX 73 56 36 57 37 58 52 60 74 61 39 62 22 63 23 64 32 65 24 66
REMARK SMILES IDX 25 67 31 68 33 69 26 70 27 71 28 72 29 73 30 74 56 75 57 76
REMARK SMILES IDX 66 77 58 78 59 79 65 80 67 81 60 82 61 83 62 84 63 85 64 86
REMARK SMILES IDX 40 87 41 88 50 89 42 90 43 91 49 92 51 93 44 94 45 95 46 96
REMARK SMILES IDX 47 97 48 98
REMARK H PARENT 3 8 10 29 72 48 38 59
REMARK Flexibility Score: inf
ROOT
ATOM      1  C   UNL A   1      38.345  23.837  26.089  1.00  0.00     0.002 C 
ENDROOT
BRANCH   1   2
ATOM      2  C   UNL A   1      36.907  23.395  25.796  1.00  0.00     0.002 C 
BRANCH   2   3
ATOM      3  C   UNL A   1      36.556  23.103  24.338  1.00  0.00     0.021 C 
BRANCH   3   4
ATOM      4  C   UNL A   1      35.198  22.461  24.079  1.00  0.00     0.116 C 
BRANCH   4   5
ATOM      5  N   UNL A   1      34.468  22.989  22.941  1.00  0.00    -0.352 N 
ATOM      6  O   UNL A   1      33.205  24.434  21.773  1.00  0.00    -0.270 OA
ATOM      7  C   UNL A   1      33.618  24.059  22.870  1.00  0.00     0.251 C 
ATOM      8  H   UNL A   1      34.604  22.506  22.094  1.00  0.00     0.163 HD
BRANCH   7   9
ATOM      9  C   UNL A   1      33.242  24.861  24.073  1.00  0.00     0.067 C 
ATOM     10  C   UNL A   1      33.418  26.192  24.123  1.00  0.00     0.027 C 
ATOM     11  C   UNL A   1      32.108  24.244  24.856  1.00  0.00     0.314 C 
ATOM     12  C   UNL A   1      32.132  26.941  24.061  1.00  0.00     0.036 A 
ATOM     13  O   UNL A   1      30.850  24.916  24.580  1.00  0.00    -0.475 OA
ATOM     14  C   UNL A   1      32.097  28.276  23.619  1.00  0.00     0.053 A 
ATOM     15  C   UNL A   1      30.925  26.232  24.193  1.00  0.00     0.130 A 
ATOM     16  Cl  UNL A   1      33.545  29.202  23.408  1.00  0.00    -0.083 Cl
ATOM     17  C   UNL A   1      30.892  28.855  23.221  1.00  0.00     0.042 A 
ATOM     18  C   UNL A   1      29.720  26.818  23.810  1.00  0.00     0.067 A 
ATOM     19  C   UNL A   1      29.717  28.112  23.294  1.00  0.00     0.046 A 
ATOM     20  Cl  UNL A   1      28.257  28.770  22.669  1.00  0.00    -0.084 Cl
BRANCH  11  21
ATOM     21  C   UNL A   1      32.399  24.192  26.365  1.00  0.00     0.429 C 
ATOM     22  F   UNL A   1      31.941  25.301  26.993  1.00  0.00    -0.167 F 
ATOM     23  F   UNL A   1      31.798  23.131  26.955  1.00  0.00    -0.167 F 
ATOM     24  F   UNL A   1      33.723  24.097  26.632  1.00  0.00    -0.167 F 
ENDBRANCH  11  21
ENDBRANCH   7   9
ENDBRANCH   4   5
ENDBRANCH   3   4
ENDBRANCH   2   3
ENDBRANCH   1   2
BRANCH   1  25
ATOM     25  C   UNL A   1      39.321  22.769  26.593  1.00  0.00     0.021 C 
BRANCH  25  26
ATOM     26  C   UNL A   1      40.706  23.252  27.019  1.00  0.00     0.116 C 
BRANCH  26  27
ATOM     27  N   UNL A   1      41.375  24.039  25.999  1.00  0.00    -0.352 N 
ATOM     28  C   UNL A   1      41.707  25.372  25.982  1.00  0.00     0.251 C 
ATOM     29  H   UNL A   1      41.631  23.538  25.191  1.00  0.00     0.163 HD
ATOM     30  O   UNL A   1      42.165  25.860  24.951  1.00  0.00    -0.269 OA
BRANCH  28  31
ATOM     31  C   UNL A   1      41.501  26.233  27.172  1.00  0.00     0.039 A 
ATOM     32  C   UNL A   1      42.384  27.296  27.387  1.00  0.00     0.014 A 
ATOM     33  C   UNL A   1      40.485  25.981  28.099  1.00  0.00     0.014 A 
ATOM     34  C   UNL A   1      42.219  28.135  28.495  1.00  0.00     0.010 A 
ATOM     35  C   UNL A   1      40.281  26.858  29.168  1.00  0.00     0.010 A 
ATOM     36  C   UNL A   1      41.148  27.940  29.381  1.00  0.00    -0.014 A 
BRANCH  36  37
ATOM     37  C   UNL A   1      40.927  28.859  30.532  1.00  0.00     0.031 A 
ATOM     38  C   UNL A   1      41.763  28.731  31.779  1.00  0.00     0.074 A 
ATOM     39  C   UNL A   1      39.940  29.776  30.474  1.00  0.00     0.049 A 
ATOM     40  N   UNL A   1      41.682  29.404  32.899  1.00  0.00    -0.248 NA
ATOM     41  C   UNL A   1      42.810  27.698  31.776  1.00  0.00     0.031 C 
ATOM     42  C   UNL A   1      39.036  29.976  29.339  1.00  0.00     0.029 A 
ATOM     43  N   UNL A   1      39.526  30.710  31.392  1.00  0.00    -0.354 N 
ATOM     44  C   UNL A   1      42.650  28.864  33.738  1.00  0.00     0.074 A 
ATOM     45  C   UNL A   1      43.279  27.780  33.014  1.00  0.00     0.031 C 
ATOM     46  C   UNL A   1      38.193  30.983  29.618  1.00  0.00     0.029 A 
ATOM     47  C   UNL A   1      38.467  31.476  30.965  1.00  0.00     0.049 A 
ATOM     48  H   UNL A   1      39.949  30.820  32.275  1.00  0.00     0.167 HD
ATOM     49  C   UNL A   1      42.996  29.247  34.992  1.00  0.00     0.037 A 
ATOM     50  C   UNL A   1      37.789  32.461  31.587  1.00  0.00     0.037 A 
ATOM     51  C   UNL A   1      42.394  30.350  35.695  1.00  0.00     0.049 A 
ATOM     52  C   UNL A   1      38.194  32.866  32.980  1.00  0.00     0.074 A 
ATOM     53  C   UNL A   1      42.728  30.863  36.936  1.00  0.00     0.029 A 
ATOM     54  N   UNL A   1      41.332  31.108  35.224  1.00  0.00    -0.354 N 
ATOM     55  N   UNL A   1      39.159  32.390  33.730  1.00  0.00    -0.248 NA
ATOM     56  C   UNL A   1      37.420  33.945  33.610  1.00  0.00     0.031 C 
ATOM     57  C   UNL A   1      41.838  31.900  37.236  1.00  0.00     0.029 A 
ATOM     58  C   UNL A   1      40.981  32.067  36.160  1.00  0.00     0.049 A 
ATOM     59  H   UNL A   1      40.892  30.983  34.351  1.00  0.00     0.167 HD
ATOM     60  C   UNL A   1      39.129  33.133  34.905  1.00  0.00     0.074 A 
ATOM     61  C   UNL A   1      38.057  34.096  34.763  1.00  0.00     0.031 C 
ATOM     62  C   UNL A   1      39.919  33.028  36.002  1.00  0.00     0.037 A 
BRANCH  49  63
ATOM     63  C   UNL A   1      44.079  28.470  35.691  1.00  0.00     0.058 A 
ATOM     64  C   UNL A   1      43.787  27.389  36.538  1.00  0.00     0.135 A 
ATOM     65  C   UNL A   1      45.432  28.777  35.466  1.00  0.00     0.135 A 
ATOM     66  F   UNL A   1      42.512  27.061  36.798  1.00  0.00    -0.206 F 
ATOM     67  C   UNL A   1      44.795  26.655  37.155  1.00  0.00     0.059 A 
ATOM     68  C   UNL A   1      46.456  28.039  36.052  1.00  0.00     0.059 A 
ATOM     69  F   UNL A   1      45.769  29.800  34.666  1.00  0.00    -0.206 F 
ATOM     70  C   UNL A   1      46.127  26.987  36.905  1.00  0.00     0.060 A 
BRANCH  70  71
ATOM     71  S   UNL A   1      47.423  26.015  37.702  1.00  0.00     0.124 S 
ATOM     72  O   UNL A   1      47.477  24.840  36.838  1.00  0.00    -0.237 OA
ATOM     73  O   UNL A   1      48.575  26.909  37.628  1.00  0.00    -0.237 OA
ATOM     74  O   UNL A   1      46.898  25.783  39.044  1.00  0.00    -0.744 OA
ENDBRANCH  70  71
ENDBRANCH  49  63
BRANCH  50  75
ATOM     75  C   UNL A   1      36.667  33.150  30.895  1.00  0.00     0.058 A 
ATOM     76  C   UNL A   1      36.914  34.090  29.883  1.00  0.00     0.135 A 
ATOM     77  C   UNL A   1      35.330  32.891  31.232  1.00  0.00     0.135 A 
ATOM     78  F   UNL A   1      38.177  34.377  29.530  1.00  0.00    -0.206 F 
ATOM     79  C   UNL A   1      35.879  34.768  29.247  1.00  0.00     0.059 A 
ATOM     80  C   UNL A   1      34.275  33.536  30.591  1.00  0.00     0.059 A 
ATOM     81  F   UNL A   1      35.037  31.990  32.182  1.00  0.00    -0.206 F 
ATOM     82  C   UNL A   1      34.562  34.483  29.609  1.00  0.00     0.060 A 
BRANCH  82  83
ATOM     83  S   UNL A   1      33.225  35.345  28.755  1.00  0.00     0.124 S 
ATOM     84  O   UNL A   1      33.963  36.331  27.973  1.00  0.00    -0.237 OA
ATOM     85  O   UNL A   1      32.598  34.267  27.998  1.00  0.00    -0.237 OA
ATOM     86  O   UNL A   1      32.420  35.881  29.850  1.00  0.00    -0.744 OA
ENDBRANCH  82  83
ENDBRANCH  50  75
BRANCH  62  87
ATOM     87  C   UNL A   1      39.685  34.003  37.122  1.00  0.00     0.058 A 
ATOM     88  C   UNL A   1      38.924  33.664  38.251  1.00  0.00     0.135 A 
ATOM     89  C   UNL A   1      40.275  35.278  37.088  1.00  0.00     0.135 A 
ATOM     90  F   UNL A   1      38.332  32.461  38.331  1.00  0.00    -0.206 F 
ATOM     91  C   UNL A   1      38.735  34.562  39.296  1.00  0.00     0.059 A 
ATOM     92  C   UNL A   1      40.123  36.181  38.135  1.00  0.00     0.059 A 
ATOM     93  F   UNL A   1      41.021  35.650  36.036  1.00  0.00    -0.206 F 
ATOM     94  C   UNL A   1      39.341  35.819  39.230  1.00  0.00     0.060 A 
BRANCH  94  95
ATOM     95  S   UNL A   1      39.119  36.962  40.610  1.00  0.00     0.124 S 
ATOM     96  O   UNL A   1      38.410  36.125  41.573  1.00  0.00    -0.237 OA
ATOM     97  O   UNL A   1      40.495  37.303  40.959  1.00  0.00    -0.237 OA
ATOM     98  O   UNL A   1      38.338  38.050  40.028  1.00  0.00    -0.744 OA
ENDBRANCH  94  95
ENDBRANCH  62  87
ENDBRANCH  36  37
ENDBRANCH  28  31
ENDBRANCH  26  27
ENDBRANCH  25  26
ENDBRANCH   1  25
TORSDOF 17
ENDMDL
MODEL 3
REMARK VINA RESULT:     -12.1      3.623      9.497
REMARK SMILES O=C(NCCCCCCNC(=O)c1ccc(-c2c3nc(c(-c4c(F)cc(S(=O)(=O)[O-])cc4F)c4ccc([nH]4)c(-c4c(F)cc(S(=O)(=O)[O-])cc4F)c4nc(c(-c5c(F)cc(S(=O)(=O)[O-])cc5F)c5ccc2[nH]5)C=C4)C=C3)cc1)C1=Cc2c(Cl)cc(Cl)cc2O[C@@H]1C(F)(F)F
REMARK SMILES IDX 7 1 6 2 5 3 4 4 3 5 1 6 2 7 79 9 80 10 90 11 81 12 89 13
REMARK SMILES IDX 82 14 88 15 83 16 84 17 87 18 85 19 86 20 91 21 92 22 93 23
REMARK SMILES IDX 94 24 8 25 9 26 10 27 11 28 12 30 13 31 14 32 78 33 15 34
REMARK SMILES IDX 77 35 16 36 17 37 18 38 71 39 19 40 76 41 70 42 72 43 20 44
REMARK SMILES IDX 75 45 69 46 68 47 21 49 55 50 34 51 54 52 35 53 38 54 53 55
REMARK SMILES IDX 73 56 36 57 37 58 52 60 74 61 39 62 22 63 23 64 32 65 24 66
REMARK SMILES IDX 25 67 31 68 33 69 26 70 27 71 28 72 29 73 30 74 56 75 57 76
REMARK SMILES IDX 66 77 58 78 59 79 65 80 67 81 60 82 61 83 62 84 63 85 64 86
REMARK SMILES IDX 40 87 41 88 50 89 42 90 43 91 49 92 51 93 44 94 45 95 46 96
REMARK SMILES IDX 47 97 48 98
REMARK H PARENT 3 8 10 29 72 48 38 59
REMARK Flexibility Score: inf
ROOT
ATOM      1  C   UNL A   1      36.894  23.350  24.499  1.00  0.00     0.002 C 
ENDROOT
BRANCH   1   2
ATOM      2  C   UNL A   1      35.579  24.098  24.254  1.00  0.00     0.002 C 
BRANCH   2   3
ATOM      3  C   UNL A   1      34.955  24.810  25.453  1.00  0.00     0.021 C 
BRANCH   3   4
ATOM      4  C   UNL A   1      33.551  24.370  25.852  1.00  0.00     0.116 C 
BRANCH   4   5
ATOM      5  N   UNL A   1      33.491  23.268  26.796  1.00  0.00    -0.352 N 
ATOM      6  O   UNL A   1      33.630  21.147  27.524  1.00  0.00    -0.270 OA
ATOM      7  C   UNL A   1      33.557  21.920  26.569  1.00  0.00     0.251 C 
ATOM      8  H   UNL A   1      33.387  23.529  27.740  1.00  0.00     0.163 HD
BRANCH   7   9
ATOM      9  C   UNL A   1      33.642  21.347  25.192  1.00  0.00     0.067 C 
ATOM     10  C   UNL A   1      34.653  20.543  24.820  1.00  0.00     0.027 C 
ATOM     11  C   UNL A   1      32.288  21.164  24.549  1.00  0.00     0.314 C 
ATOM     12  C   UNL A   1      34.223  19.126  24.650  1.00  0.00     0.036 A 
ATOM     13  O   UNL A   1      31.860  19.777  24.607  1.00  0.00    -0.475 OA
ATOM     14  C   UNL A   1      35.155  18.076  24.745  1.00  0.00     0.053 A 
ATOM     15  C   UNL A   1      32.849  18.827  24.658  1.00  0.00     0.130 A 
ATOM     16  Cl  UNL A   1      36.860  18.373  24.768  1.00  0.00    -0.083 Cl
ATOM     17  C   UNL A   1      34.720  16.766  24.946  1.00  0.00     0.042 A 
ATOM     18  C   UNL A   1      32.418  17.515  24.843  1.00  0.00     0.067 A 
ATOM     19  C   UNL A   1      33.355  16.500  25.021  1.00  0.00     0.046 A 
ATOM     20  Cl  UNL A   1      32.821  14.913  25.413  1.00  0.00    -0.084 Cl
BRANCH  11  21
ATOM     21  C   UNL A   1      32.246  21.707  23.112  1.00  0.00     0.429 C 
ATOM     22  F   UNL A   1      33.390  22.361  22.799  1.00  0.00    -0.167 F 
ATOM     23  F   UNL A   1      32.103  20.711  22.204  1.00  0.00    -0.167 F 
ATOM     24  F   UNL A   1      31.222  22.571  22.916  1.00  0.00    -0.167 F 
ENDBRANCH  11  21
ENDBRANCH   7   9
ENDBRANCH   4   5
ENDBRANCH   3   4
ENDBRANCH   2   3
ENDBRANCH   1   2
BRANCH   1  25
ATOM     25  C   UNL A   1      37.356  23.196  25.952  1.00  0.00     0.021 C 
BRANCH  25  26
ATOM     26  C   UNL A   1      38.179  24.343  26.536  1.00  0.00     0.116 C 
BRANCH  26  27
ATOM     27  N   UNL A   1      39.538  24.386  26.029  1.00  0.00    -0.352 N 
ATOM     28  C   UNL A   1      40.611  25.147  26.428  1.00  0.00     0.251 C 
ATOM     29  H   UNL A   1      39.721  23.773  25.280  1.00  0.00     0.163 HD
ATOM     30  O   UNL A   1      41.647  25.109  25.770  1.00  0.00    -0.269 OA
BRANCH  28  31
ATOM     31  C   UNL A   1      40.531  26.025  27.621  1.00  0.00     0.039 A 
ATOM     32  C   UNL A   1      41.424  27.097  27.720  1.00  0.00     0.014 A 
ATOM     33  C   UNL A   1      39.626  25.782  28.658  1.00  0.00     0.014 A 
ATOM     34  C   UNL A   1      41.376  27.952  28.826  1.00  0.00     0.010 A 
ATOM     35  C   UNL A   1      39.534  26.675  29.730  1.00  0.00     0.010 A 
ATOM     36  C   UNL A   1      40.410  27.765  29.829  1.00  0.00    -0.014 A 
BRANCH  36  37
ATOM     37  C   UNL A   1      40.311  28.701  30.982  1.00  0.00     0.031 A 
ATOM     38  C   UNL A   1      39.292  29.811  30.976  1.00  0.00     0.074 A 
ATOM     39  C   UNL A   1      41.171  28.584  32.014  1.00  0.00     0.049 A 
ATOM     40  N   UNL A   1      39.091  30.752  31.863  1.00  0.00    -0.248 NA
ATOM     41  C   UNL A   1      38.397  29.887  29.811  1.00  0.00     0.031 C 
ATOM     42  C   UNL A   1      42.230  27.576  32.123  1.00  0.00     0.029 A 
ATOM     43  N   UNL A   1      41.300  29.321  33.165  1.00  0.00    -0.354 N 
ATOM     44  C   UNL A   1      38.065  31.542  31.356  1.00  0.00     0.074 A 
ATOM     45  C   UNL A   1      37.712  30.994  30.064  1.00  0.00     0.031 C 
ATOM     46  C   UNL A   1      42.880  27.743  33.285  1.00  0.00     0.029 A 
ATOM     47  C   UNL A   1      42.315  28.891  33.988  1.00  0.00     0.049 A 
ATOM     48  H   UNL A   1      40.719  30.086  33.382  1.00  0.00     0.167 HD
ATOM     49  C   UNL A   1      37.460  32.615  31.923  1.00  0.00     0.037 A 
ATOM     50  C   UNL A   1      42.747  29.370  35.172  1.00  0.00     0.037 A 
ATOM     51  C   UNL A   1      37.789  33.134  33.226  1.00  0.00     0.049 A 
ATOM     52  C   UNL A   1      42.057  30.563  35.779  1.00  0.00     0.074 A 
ATOM     53  C   UNL A   1      37.182  34.167  33.917  1.00  0.00     0.029 A 
ATOM     54  N   UNL A   1      38.816  32.664  34.031  1.00  0.00    -0.354 N 
ATOM     55  N   UNL A   1      41.042  31.253  35.315  1.00  0.00    -0.248 NA
ATOM     56  C   UNL A   1      42.570  31.042  37.070  1.00  0.00     0.031 C 
ATOM     57  C   UNL A   1      37.871  34.354  35.120  1.00  0.00     0.029 A 
ATOM     58  C   UNL A   1      38.876  33.403  35.201  1.00  0.00     0.049 A 
ATOM     59  H   UNL A   1      39.414  31.914  33.806  1.00  0.00     0.167 HD
ATOM     60  C   UNL A   1      40.774  32.224  36.274  1.00  0.00     0.074 A 
ATOM     61  C   UNL A   1      41.727  32.028  37.346  1.00  0.00     0.031 C 
ATOM     62  C   UNL A   1      39.822  33.190  36.267  1.00  0.00     0.037 A 
BRANCH  49  63
ATOM     63  C   UNL A   1      36.376  33.305  31.141  1.00  0.00     0.058 A 
ATOM     64  C   UNL A   1      35.023  33.208  31.504  1.00  0.00     0.135 A 
ATOM     65  C   UNL A   1      36.701  34.123  30.045  1.00  0.00     0.135 A 
ATOM     66  F   UNL A   1      34.655  32.431  32.535  1.00  0.00    -0.206 F 
ATOM     67  C   UNL A   1      34.029  33.876  30.796  1.00  0.00     0.059 A 
ATOM     68  C   UNL A   1      35.726  34.821  29.339  1.00  0.00     0.059 A 
ATOM     69  F   UNL A   1      37.978  34.252  29.653  1.00  0.00    -0.206 F 
ATOM     70  C   UNL A   1      34.391  34.682  29.714  1.00  0.00     0.060 A 
BRANCH  70  71
ATOM     71  S   UNL A   1      33.090  35.553  28.815  1.00  0.00     0.124 S 
ATOM     72  O   UNL A   1      32.490  34.466  28.048  1.00  0.00    -0.237 OA
ATOM     73  O   UNL A   1      32.271  36.093  29.896  1.00  0.00    -0.237 OA
ATOM     74  O   UNL A   1      33.822  36.544  28.032  1.00  0.00    -0.744 OA
ENDBRANCH  70  71
ENDBRANCH  49  63
BRANCH  50  75
ATOM     75  C   UNL A   1      43.879  28.711  35.878  1.00  0.00     0.058 A 
ATOM     76  C   UNL A   1      45.198  29.154  35.694  1.00  0.00     0.135 A 
ATOM     77  C   UNL A   1      43.670  27.625  36.742  1.00  0.00     0.135 A 
ATOM     78  F   UNL A   1      45.450  30.185  34.873  1.00  0.00    -0.206 F 
ATOM     79  C   UNL A   1      46.272  28.530  36.321  1.00  0.00     0.059 A 
ATOM     80  C   UNL A   1      44.725  27.001  37.402  1.00  0.00     0.059 A 
ATOM     81  F   UNL A   1      42.427  27.171  36.964  1.00  0.00    -0.206 F 
ATOM     82  C   UNL A   1      46.024  27.453  37.173  1.00  0.00     0.060 A 
BRANCH  82  83
ATOM     83  S   UNL A   1      47.422  26.670  38.007  1.00  0.00     0.124 S 
ATOM     84  O   UNL A   1      48.428  26.665  36.951  1.00  0.00    -0.237 OA
ATOM     85  O   UNL A   1      47.666  27.582  39.120  1.00  0.00    -0.237 OA
ATOM     86  O   UNL A   1      46.895  25.361  38.384  1.00  0.00    -0.744 OA
ENDBRANCH  82  83
ENDBRANCH  50  75
BRANCH  62  87
ATOM     87  C   UNL A   1      39.735  34.087  37.471  1.00  0.00     0.058 A 
ATOM     88  C   UNL A   1      38.973  33.741  38.597  1.00  0.00     0.135 A 
ATOM     89  C   UNL A   1      40.467  35.285  37.517  1.00  0.00     0.135 A 
ATOM     90  F   UNL A   1      38.249  32.610  38.602  1.00  0.00    -0.206 F 
ATOM     91  C   UNL A   1      38.920  34.563  39.719  1.00  0.00     0.059 A 
ATOM     92  C   UNL A   1      40.451  36.108  38.639  1.00  0.00     0.059 A 
ATOM     93  F   UNL A   1      41.221  35.658  36.471  1.00  0.00    -0.206 F 
ATOM     94  C   UNL A   1      39.665  35.745  39.731  1.00  0.00     0.060 A 
BRANCH  94  95
ATOM     95  S   UNL A   1      39.617  36.784  41.206  1.00  0.00     0.124 S 
ATOM     96  O   UNL A   1      38.935  37.974  40.705  1.00  0.00    -0.237 OA
ATOM     97  O   UNL A   1      38.855  35.964  42.142  1.00  0.00    -0.237 OA
ATOM     98  O   UNL A   1      41.027  36.963  41.541  1.00  0.00    -0.744 OA
ENDBRANCH  94  95
ENDBRANCH  62  87
ENDBRANCH  36  37
ENDBRANCH  28  31
ENDBRANCH  26  27
ENDBRANCH  25  26
ENDBRANCH   1  25
TORSDOF 17
ENDMDL
