MODEL 1
REMARK VINA RESULT:     -12.7      0.000      0.000
REMARK SMILES O=C(NCCCCCCNC(=O)[C@H]1[C@@H](C(=O)Nc2ccccc2-c2ccccc2)[C@@H]2C=C[C@H]1O2)c1ccc(-c2c3nc(c(-c4c(F)cc(S(=O)(=O)[O-])cc4F)c4ccc([nH]4)c(-c4c(F)cc(S(=O)(=O)[O-])cc4F)c4nc(c(-c5c(F)cc(S(=O)(=O)[O-])cc5F)c5ccc2[nH]5)C=C4)C=C3)cc1
REMARK SMILES IDX 6 1 5 2 4 3 3 4 1 5 2 6 35 8 36 9 100 10 37 11 99 12 38 13
REMARK SMILES IDX 39 14 40 15 93 16 41 17 98 18 92 19 94 20 42 21 97 22 91 23
REMARK SMILES IDX 90 24 43 26 77 27 56 28 76 29 57 30 60 31 75 32 95 33 58 34
REMARK SMILES IDX 59 35 74 37 96 38 61 39 44 40 45 41 54 42 46 43 47 44 53 45
REMARK SMILES IDX 55 46 48 47 49 48 50 49 51 50 52 51 78 52 79 53 88 54 80 55
REMARK SMILES IDX 81 56 87 57 89 58 82 59 83 60 84 61 85 62 86 63 62 64 63 65
REMARK SMILES IDX 72 66 64 67 65 68 71 69 73 70 66 71 67 72 68 73 69 74 70 75
REMARK SMILES IDX 7 76 8 77 9 78 10 79 11 80 12 82 13 83 14 84 33 85 30 86
REMARK SMILES IDX 32 87 34 88 31 89 15 90 16 91 17 92 18 94 19 95 23 96 20 97
REMARK SMILES IDX 22 98 21 99 24 100 25 101 29 102 26 103 28 104 27 105
REMARK H PARENT 3 7 94 25 60 36 10 81 17 93
REMARK Flexibility Score: inf
ROOT
ATOM      1  C   UNL A   1      35.354  31.838  27.638  1.00  0.00     0.002 C 
ENDROOT
BRANCH   1   2
ATOM      2  C   UNL A   1      35.486  32.828  28.787  1.00  0.00     0.021 C 
BRANCH   2   3
ATOM      3  C   UNL A   1      36.672  32.552  29.687  1.00  0.00     0.116 C 
BRANCH   3   4
ATOM      4  N   UNL A   1      36.286  31.818  30.880  1.00  0.00    -0.352 N 
ATOM      5  O   UNL A   1      36.251  30.026  32.258  1.00  0.00    -0.269 OA
ATOM      6  C   UNL A   1      36.810  30.641  31.357  1.00  0.00     0.251 C 
ATOM      7  H   UNL A   1      35.560  32.214  31.414  1.00  0.00     0.163 HD
BRANCH   6   8
ATOM      8  C   UNL A   1      38.041  30.122  30.728  1.00  0.00     0.039 A 
ATOM      9  C   UNL A   1      39.099  29.695  31.534  1.00  0.00     0.014 A 
ATOM     10  C   UNL A   1      38.173  30.153  29.341  1.00  0.00     0.014 A 
ATOM     11  C   UNL A   1      40.348  29.499  30.968  1.00  0.00     0.010 A 
ATOM     12  C   UNL A   1      39.399  29.813  28.763  1.00  0.00     0.010 A 
ATOM     13  C   UNL A   1      40.510  29.526  29.573  1.00  0.00    -0.014 A 
BRANCH  13  14
ATOM     14  C   UNL A   1      41.838  29.191  29.000  1.00  0.00     0.031 A 
ATOM     15  C   UNL A   1      42.948  30.206  28.939  1.00  0.00     0.074 A 
ATOM     16  C   UNL A   1      42.043  27.933  28.562  1.00  0.00     0.049 A 
ATOM     17  N   UNL A   1      44.169  30.060  28.493  1.00  0.00    -0.248 NA
ATOM     18  C   UNL A   1      42.650  31.562  29.429  1.00  0.00     0.031 C 
ATOM     19  C   UNL A   1      41.037  26.864  28.566  1.00  0.00     0.029 A 
ATOM     20  N   UNL A   1      43.161  27.325  28.054  1.00  0.00    -0.354 N 
ATOM     21  C   UNL A   1      44.777  31.304  28.619  1.00  0.00     0.074 A 
ATOM     22  C   UNL A   1      43.780  32.203  29.159  1.00  0.00     0.031 C 
ATOM     23  C   UNL A   1      41.598  25.724  28.147  1.00  0.00     0.029 A 
ATOM     24  C   UNL A   1      42.976  25.995  27.760  1.00  0.00     0.049 A 
ATOM     25  H   UNL A   1      44.015  27.795  27.914  1.00  0.00     0.167 HD
ATOM     26  C   UNL A   1      46.049  31.659  28.315  1.00  0.00     0.037 A 
ATOM     27  C   UNL A   1      43.811  25.093  27.214  1.00  0.00     0.037 A 
ATOM     28  C   UNL A   1      47.033  30.747  27.785  1.00  0.00     0.049 A 
ATOM     29  C   UNL A   1      45.203  25.524  26.854  1.00  0.00     0.074 A 
ATOM     30  C   UNL A   1      48.362  30.996  27.483  1.00  0.00     0.029 A 
ATOM     31  N   UNL A   1      46.796  29.417  27.461  1.00  0.00    -0.354 N 
ATOM     32  N   UNL A   1      45.772  26.695  27.020  1.00  0.00    -0.248 NA
ATOM     33  C   UNL A   1      46.067  24.512  26.237  1.00  0.00     0.031 C 
ATOM     34  C   UNL A   1      48.905  29.841  26.910  1.00  0.00     0.029 A 
ATOM     35  C   UNL A   1      47.943  28.844  26.933  1.00  0.00     0.049 A 
ATOM     36  H   UNL A   1      45.939  28.950  27.589  1.00  0.00     0.167 HD
ATOM     37  C   UNL A   1      47.075  26.550  26.558  1.00  0.00     0.074 A 
ATOM     38  C   UNL A   1      47.211  25.175  26.123  1.00  0.00     0.031 C 
ATOM     39  C   UNL A   1      48.069  27.471  26.506  1.00  0.00     0.037 A 
BRANCH  26  40
ATOM     40  C   UNL A   1      46.450  33.100  28.513  1.00  0.00     0.058 A 
ATOM     41  C   UNL A   1      46.918  33.586  29.744  1.00  0.00     0.135 A 
ATOM     42  C   UNL A   1      46.406  33.999  27.434  1.00  0.00     0.135 A 
ATOM     43  F   UNL A   1      46.972  32.779  30.815  1.00  0.00    -0.206 F 
ATOM     44  C   UNL A   1      47.297  34.916  29.906  1.00  0.00     0.059 A 
ATOM     45  C   UNL A   1      46.812  35.324  27.564  1.00  0.00     0.059 A 
ATOM     46  F   UNL A   1      45.968  33.593  26.231  1.00  0.00    -0.206 F 
ATOM     47  C   UNL A   1      47.241  35.777  28.809  1.00  0.00     0.060 A 
BRANCH  47  48
ATOM     48  S   UNL A   1      47.737  37.498  29.038  1.00  0.00     0.124 S 
ATOM     49  O   UNL A   1      46.481  38.109  29.461  1.00  0.00    -0.237 OA
ATOM     50  O   UNL A   1      48.765  37.389  30.067  1.00  0.00    -0.237 OA
ATOM     51  O   UNL A   1      48.214  37.896  27.717  1.00  0.00    -0.744 OA
ENDBRANCH  47  48
ENDBRANCH  26  40
BRANCH  27  52
ATOM     52  C   UNL A   1      43.348  23.699  26.978  1.00  0.00     0.058 A 
ATOM     53  C   UNL A   1      43.209  22.795  28.041  1.00  0.00     0.135 A 
ATOM     54  C   UNL A   1      43.021  23.248  25.689  1.00  0.00     0.135 A 
ATOM     55  F   UNL A   1      43.509  23.178  29.292  1.00  0.00    -0.206 F 
ATOM     56  C   UNL A   1      42.785  21.487  27.833  1.00  0.00     0.059 A 
ATOM     57  C   UNL A   1      42.560  21.957  25.460  1.00  0.00     0.059 A 
ATOM     58  F   UNL A   1      43.117  24.080  24.640  1.00  0.00    -0.206 F 
ATOM     59  C   UNL A   1      42.459  21.079  26.539  1.00  0.00     0.060 A 
BRANCH  59  60
ATOM     60  S   UNL A   1      41.873  19.391  26.288  1.00  0.00     0.124 S 
ATOM     61  O   UNL A   1      42.594  19.007  25.080  1.00  0.00    -0.237 OA
ATOM     62  O   UNL A   1      42.295  18.737  27.522  1.00  0.00    -0.237 OA
ATOM     63  O   UNL A   1      40.430  19.555  26.137  1.00  0.00    -0.744 OA
ENDBRANCH  59  60
ENDBRANCH  27  52
BRANCH  39  64
ATOM     64  C   UNL A   1      49.414  27.005  26.014  1.00  0.00     0.058 A 
ATOM     65  C   UNL A   1      50.356  26.403  26.864  1.00  0.00     0.135 A 
ATOM     66  C   UNL A   1      49.753  27.146  24.659  1.00  0.00     0.135 A 
ATOM     67  F   UNL A   1      50.088  26.249  28.171  1.00  0.00    -0.206 F 
ATOM     68  C   UNL A   1      51.602  25.997  26.396  1.00  0.00     0.059 A 
ATOM     69  C   UNL A   1      50.977  26.711  24.161  1.00  0.00     0.059 A 
ATOM     70  F   UNL A   1      48.888  27.706  23.798  1.00  0.00    -0.206 F 
ATOM     71  C   UNL A   1      51.902  26.154  25.041  1.00  0.00     0.060 A 
BRANCH  71  72
ATOM     72  S   UNL A   1      53.516  25.611  24.445  1.00  0.00     0.124 S 
ATOM     73  O   UNL A   1      53.400  25.863  23.012  1.00  0.00    -0.237 OA
ATOM     74  O   UNL A   1      54.428  26.488  25.172  1.00  0.00    -0.237 OA
ATOM     75  O   UNL A   1      53.566  24.204  24.832  1.00  0.00    -0.744 OA
ENDBRANCH  71  72
ENDBRANCH  39  64
ENDBRANCH  13  14
ENDBRANCH   6   8
ENDBRANCH   3   4
ENDBRANCH   2   3
ENDBRANCH   1   2
BRANCH   1  76
ATOM     76  C   UNL A   1      34.675  30.511  28.002  1.00  0.00     0.002 C 
BRANCH  76  77
ATOM     77  C   UNL A   1      35.166  29.276  27.232  1.00  0.00     0.021 C 
BRANCH  77  78
ATOM     78  C   UNL A   1      34.090  28.578  26.423  1.00  0.00     0.116 C 
BRANCH  78  79
ATOM     79  N   UNL A   1      32.864  28.500  27.162  1.00  0.00    -0.356 N 
ATOM     80  C   UNL A   1      31.738  27.848  26.830  1.00  0.00     0.227 C 
ATOM     81  H   UNL A   1      32.845  28.985  28.018  1.00  0.00     0.163 HD
ATOM     82  O   UNL A   1      31.013  27.493  27.763  1.00  0.00    -0.275 OA
BRANCH  80  83
ATOM     83  C   UNL A   1      31.511  27.356  25.425  1.00  0.00     0.127 C 
ATOM     84  C   UNL A   1      32.013  25.384  25.121  1.00  0.00     0.127 C 
ATOM     85  C   UNL A   1      30.205  27.905  23.940  1.00  0.00     0.155 C 
ATOM     86  C   UNL A   1      30.878  24.782  23.489  1.00  0.00     0.155 C 
ATOM     87  C   UNL A   1      31.477  27.597  22.447  1.00  0.00     0.004 C 
ATOM     88  O   UNL A   1      29.216  26.156  23.754  1.00  0.00    -0.365 OA
ATOM     89  C   UNL A   1      31.981  26.027  22.294  1.00  0.00     0.004 C 
BRANCH  84  90
ATOM     90  C   UNL A   1      32.105  24.408  26.328  1.00  0.00     0.231 C 
ATOM     91  O   UNL A   1      31.234  24.463  27.206  1.00  0.00    -0.274 OA
ATOM     92  N   UNL A   1      33.092  23.464  26.469  1.00  0.00    -0.325 N 
ATOM     93  H   UNL A   1      32.932  22.765  27.144  1.00  0.00     0.169 HD
BRANCH  92  94
ATOM     94  C   UNL A   1      34.302  23.377  25.765  1.00  0.00     0.049 A 
ATOM     95  C   UNL A   1      35.325  24.310  25.967  1.00  0.00     0.027 A 
ATOM     96  C   UNL A   1      34.518  22.302  24.916  1.00  0.00     0.005 A 
ATOM     97  C   UNL A   1      36.583  24.117  25.375  1.00  0.00     0.002 A 
ATOM     98  C   UNL A   1      35.763  22.146  24.277  1.00  0.00     0.011 A 
ATOM     99  C   UNL A   1      36.802  23.035  24.526  1.00  0.00     0.001 A 
BRANCH  96 100
ATOM    100  C   UNL A   1      33.422  21.368  24.632  1.00  0.00    -0.016 A 
ATOM    101  C   UNL A   1      33.244  19.661  25.390  1.00  0.00     0.009 A 
ATOM    102  C   UNL A   1      32.757  21.614  23.203  1.00  0.00     0.009 A 
ATOM    103  C   UNL A   1      32.539  18.405  24.015  1.00  0.00     0.001 A 
ATOM    104  C   UNL A   1      32.099  20.484  22.319  1.00  0.00     0.001 A 
ATOM    105  C   UNL A   1      32.012  18.965  22.642  1.00  0.00     0.000 A 
ENDBRANCH  96 100
ENDBRANCH  92  94
ENDBRANCH  84  90
ENDBRANCH  80  83
ENDBRANCH  78  79
ENDBRANCH  77  78
ENDBRANCH  76  77
ENDBRANCH   1  76
TORSDOF 19
ENDMDL
MODEL 2
REMARK VINA RESULT:     -12.3      6.099     11.809
REMARK SMILES O=C(NCCCCCCNC(=O)[C@H]1[C@@H](C(=O)Nc2ccccc2-c2ccccc2)[C@@H]2C=C[C@H]1O2)c1ccc(-c2c3nc(c(-c4c(F)cc(S(=O)(=O)[O-])cc4F)c4ccc([nH]4)c(-c4c(F)cc(S(=O)(=O)[O-])cc4F)c4nc(c(-c5c(F)cc(S(=O)(=O)[O-])cc5F)c5ccc2[nH]5)C=C4)C=C3)cc1
REMARK SMILES IDX 6 1 5 2 4 3 3 4 1 5 2 6 35 8 36 9 100 10 37 11 99 12 38 13
REMARK SMILES IDX 39 14 40 15 93 16 41 17 98 18 92 19 94 20 42 21 97 22 91 23
REMARK SMILES IDX 90 24 43 26 77 27 56 28 76 29 57 30 60 31 75 32 95 33 58 34
REMARK SMILES IDX 59 35 74 37 96 38 61 39 44 40 45 41 54 42 46 43 47 44 53 45
REMARK SMILES IDX 55 46 48 47 49 48 50 49 51 50 52 51 78 52 79 53 88 54 80 55
REMARK SMILES IDX 81 56 87 57 89 58 82 59 83 60 84 61 85 62 86 63 62 64 63 65
REMARK SMILES IDX 72 66 64 67 65 68 71 69 73 70 66 71 67 72 68 73 69 74 70 75
REMARK SMILES IDX 7 76 8 77 9 78 10 79 11 80 12 82 13 83 14 84 33 85 30 86
REMARK SMILES IDX 32 87 34 88 31 89 15 90 16 91 17 92 18 94 19 95 23 96 20 97
REMARK SMILES IDX 22 98 21 99 24 100 25 101 29 102 26 103 28 104 27 105
REMARK H PARENT 3 7 94 25 60 36 10 81 17 93
REMARK Flexibility Score: inf
ROOT
ATOM      1  C   UNL A   1      40.046  22.087  27.003  1.00  0.00     0.002 C 
ENDROOT
BRANCH   1   2
ATOM      2  C   UNL A   1      41.521  22.272  26.675  1.00  0.00     0.021 C 
BRANCH   2   3
ATOM      3  C   UNL A   1      42.072  23.614  27.111  1.00  0.00     0.116 C 
BRANCH   3   4
ATOM      4  N   UNL A   1      42.540  24.399  25.981  1.00  0.00    -0.352 N 
ATOM      5  O   UNL A   1      42.691  26.259  24.705  1.00  0.00    -0.269 OA
ATOM      6  C   UNL A   1      42.441  25.757  25.794  1.00  0.00     0.251 C 
ATOM      7  H   UNL A   1      42.984  23.896  25.261  1.00  0.00     0.163 HD
BRANCH   6   8
ATOM      8  C   UNL A   1      41.992  26.585  26.931  1.00  0.00     0.039 A 
ATOM      9  C   UNL A   1      42.524  27.864  27.104  1.00  0.00     0.014 A 
ATOM     10  C   UNL A   1      41.116  26.047  27.872  1.00  0.00     0.014 A 
ATOM     11  C   UNL A   1      42.344  28.517  28.312  1.00  0.00     0.010 A 
ATOM     12  C   UNL A   1      40.822  26.776  29.028  1.00  0.00     0.010 A 
ATOM     13  C   UNL A   1      41.467  27.998  29.279  1.00  0.00    -0.014 A 
BRANCH  13  14
ATOM     14  C   UNL A   1      41.208  28.788  30.509  1.00  0.00     0.031 A 
ATOM     15  C   UNL A   1      42.079  28.654  31.729  1.00  0.00     0.074 A 
ATOM     16  C   UNL A   1      40.185  29.665  30.498  1.00  0.00     0.049 A 
ATOM     17  N   UNL A   1      41.999  29.292  32.869  1.00  0.00    -0.248 NA
ATOM     18  C   UNL A   1      43.175  27.672  31.672  1.00  0.00     0.031 C 
ATOM     19  C   UNL A   1      39.268  29.876  29.371  1.00  0.00     0.029 A 
ATOM     20  N   UNL A   1      39.753  30.560  31.441  1.00  0.00    -0.354 N 
ATOM     21  C   UNL A   1      43.007  28.774  33.674  1.00  0.00     0.074 A 
ATOM     22  C   UNL A   1      43.671  27.746  32.900  1.00  0.00     0.031 C 
ATOM     23  C   UNL A   1      38.429  30.877  29.663  1.00  0.00     0.029 A 
ATOM     24  C   UNL A   1      38.685  31.320  31.027  1.00  0.00     0.049 A 
ATOM     25  H   UNL A   1      40.166  30.650  32.329  1.00  0.00     0.167 HD
ATOM     26  C   UNL A   1      43.346  29.127  34.937  1.00  0.00     0.037 A 
ATOM     27  C   UNL A   1      37.969  32.256  31.676  1.00  0.00     0.037 A 
ATOM     28  C   UNL A   1      42.678  30.159  35.690  1.00  0.00     0.049 A 
ATOM     29  C   UNL A   1      38.346  32.599  33.088  1.00  0.00     0.074 A 
ATOM     30  C   UNL A   1      42.971  30.623  36.962  1.00  0.00     0.029 A 
ATOM     31  N   UNL A   1      41.573  30.880  35.252  1.00  0.00    -0.354 N 
ATOM     32  N   UNL A   1      39.329  32.127  33.817  1.00  0.00    -0.248 NA
ATOM     33  C   UNL A   1      37.519  33.605  33.764  1.00  0.00     0.031 C 
ATOM     34  C   UNL A   1      42.003  31.566  37.320  1.00  0.00     0.029 A 
ATOM     35  C   UNL A   1      41.156  31.757  36.240  1.00  0.00     0.049 A 
ATOM     36  H   UNL A   1      41.151  30.780  34.369  1.00  0.00     0.167 HD
ATOM     37  C   UNL A   1      39.260  32.806  35.029  1.00  0.00     0.074 A 
ATOM     38  C   UNL A   1      38.149  33.730  34.924  1.00  0.00     0.031 C 
ATOM     39  C   UNL A   1      40.050  32.677  36.125  1.00  0.00     0.037 A 
BRANCH  26  40
ATOM     40  C   UNL A   1      44.468  28.372  35.607  1.00  0.00     0.058 A 
ATOM     41  C   UNL A   1      44.244  27.207  36.357  1.00  0.00     0.135 A 
ATOM     42  C   UNL A   1      45.797  28.802  35.456  1.00  0.00     0.135 A 
ATOM     43  F   UNL A   1      42.996  26.752  36.548  1.00  0.00    -0.206 F 
ATOM     44  C   UNL A   1      45.292  26.514  36.957  1.00  0.00     0.059 A 
ATOM     45  C   UNL A   1      46.864  28.106  36.018  1.00  0.00     0.059 A 
ATOM     46  F   UNL A   1      46.074  29.909  34.749  1.00  0.00    -0.206 F 
ATOM     47  C   UNL A   1      46.599  26.971  36.780  1.00  0.00     0.060 A 
BRANCH  47  48
ATOM     48  S   UNL A   1      47.945  26.060  37.566  1.00  0.00     0.124 S 
ATOM     49  O   UNL A   1      48.189  25.002  36.590  1.00  0.00    -0.237 OA
ATOM     50  O   UNL A   1      48.986  27.075  37.673  1.00  0.00    -0.237 OA
ATOM     51  O   UNL A   1      47.366  25.620  38.833  1.00  0.00    -0.744 OA
ENDBRANCH  47  48
ENDBRANCH  26  40
BRANCH  27  52
ATOM     52  C   UNL A   1      36.830  32.926  30.995  1.00  0.00     0.058 A 
ATOM     53  C   UNL A   1      35.505  32.614  31.329  1.00  0.00     0.135 A 
ATOM     54  C   UNL A   1      37.043  33.901  30.007  1.00  0.00     0.135 A 
ATOM     55  F   UNL A   1      35.248  31.689  32.267  1.00  0.00    -0.206 F 
ATOM     56  C   UNL A   1      34.430  33.227  30.694  1.00  0.00     0.059 A 
ATOM     57  C   UNL A   1      35.986  34.554  29.383  1.00  0.00     0.059 A 
ATOM     58  F   UNL A   1      38.292  34.252  29.664  1.00  0.00    -0.206 F 
ATOM     59  C   UNL A   1      34.682  34.200  29.725  1.00  0.00     0.060 A 
BRANCH  59  60
ATOM     60  S   UNL A   1      33.279  35.015  28.936  1.00  0.00     0.124 S 
ATOM     61  O   UNL A   1      32.853  34.003  27.976  1.00  0.00    -0.237 OA
ATOM     62  O   UNL A   1      32.385  35.241  30.067  1.00  0.00    -0.237 OA
ATOM     63  O   UNL A   1      33.870  36.220  28.362  1.00  0.00    -0.744 OA
ENDBRANCH  59  60
ENDBRANCH  27  52
BRANCH  39  64
ATOM     64  C   UNL A   1      39.777  33.604  37.280  1.00  0.00     0.058 A 
ATOM     65  C   UNL A   1      40.381  34.867  37.387  1.00  0.00     0.135 A 
ATOM     66  C   UNL A   1      38.876  33.224  38.288  1.00  0.00     0.135 A 
ATOM     67  F   UNL A   1      41.257  35.280  36.456  1.00  0.00    -0.206 F 
ATOM     68  C   UNL A   1      40.133  35.701  38.473  1.00  0.00     0.059 A 
ATOM     69  C   UNL A   1      38.582  34.058  39.361  1.00  0.00     0.059 A 
ATOM     70  F   UNL A   1      38.261  32.031  38.232  1.00  0.00    -0.206 F 
ATOM     71  C   UNL A   1      39.230  35.287  39.454  1.00  0.00     0.060 A 
BRANCH  71  72
ATOM     72  S   UNL A   1      38.908  36.385  40.850  1.00  0.00     0.124 S 
ATOM     73  O   UNL A   1      38.569  37.631  40.171  1.00  0.00    -0.237 OA
ATOM     74  O   UNL A   1      37.805  35.711  41.527  1.00  0.00    -0.237 OA
ATOM     75  O   UNL A   1      40.173  36.391  41.578  1.00  0.00    -0.744 OA
ENDBRANCH  71  72
ENDBRANCH  39  64
ENDBRANCH  13  14
ENDBRANCH   6   8
ENDBRANCH   3   4
ENDBRANCH   2   3
ENDBRANCH   1   2
BRANCH   1  76
ATOM     76  C   UNL A   1      39.279  23.385  27.290  1.00  0.00     0.002 C 
BRANCH  76  77
ATOM     77  C   UNL A   1      38.747  24.132  26.057  1.00  0.00     0.021 C 
BRANCH  77  78
ATOM     78  C   UNL A   1      37.316  23.785  25.689  1.00  0.00     0.116 C 
BRANCH  78  79
ATOM     79  N   UNL A   1      37.232  23.344  24.328  1.00  0.00    -0.356 N 
ATOM     80  C   UNL A   1      36.135  22.988  23.640  1.00  0.00     0.227 C 
ATOM     81  H   UNL A   1      38.083  23.294  23.837  1.00  0.00     0.163 HD
ATOM     82  O   UNL A   1      36.188  23.120  22.414  1.00  0.00    -0.275 OA
BRANCH  80  83
ATOM     83  C   UNL A   1      34.837  22.697  24.346  1.00  0.00     0.127 C 
ATOM     84  C   UNL A   1      33.493  24.255  24.335  1.00  0.00     0.127 C 
ATOM     85  C   UNL A   1      33.787  20.969  24.697  1.00  0.00     0.155 C 
ATOM     86  C   UNL A   1      31.632  23.366  24.578  1.00  0.00     0.155 C 
ATOM     87  C   UNL A   1      33.132  21.506  26.492  1.00  0.00     0.004 C 
ATOM     88  O   UNL A   1      32.100  21.437  23.694  1.00  0.00    -0.365 OA
ATOM     89  C   UNL A   1      32.157  22.845  26.488  1.00  0.00     0.004 C 
BRANCH  84  90
ATOM     90  C   UNL A   1      33.614  25.382  23.270  1.00  0.00     0.231 C 
ATOM     91  O   UNL A   1      34.008  25.087  22.133  1.00  0.00    -0.274 OA
ATOM     92  N   UNL A   1      33.285  26.693  23.509  1.00  0.00    -0.325 N 
ATOM     93  H   UNL A   1      33.191  27.269  22.716  1.00  0.00     0.169 HD
BRANCH  92  94
ATOM     94  C   UNL A   1      33.068  27.309  24.750  1.00  0.00     0.049 A 
ATOM     95  C   UNL A   1      34.064  27.327  25.733  1.00  0.00     0.027 A 
ATOM     96  C   UNL A   1      31.878  27.983  24.976  1.00  0.00     0.005 A 
ATOM     97  C   UNL A   1      33.887  28.081  26.903  1.00  0.00     0.002 A 
ATOM     98  C   UNL A   1      31.682  28.690  26.177  1.00  0.00     0.011 A 
ATOM     99  C   UNL A   1      32.694  28.763  27.128  1.00  0.00     0.001 A 
BRANCH  96 100
ATOM    100  C   UNL A   1      30.796  27.899  23.987  1.00  0.00    -0.016 A 
ATOM    101  C   UNL A   1      30.199  29.325  22.925  1.00  0.00     0.009 A 
ATOM    102  C   UNL A   1      29.756  26.733  24.310  1.00  0.00     0.009 A 
ATOM    103  C   UNL A   1      28.220  29.217  22.736  1.00  0.00     0.001 A 
ATOM    104  C   UNL A   1      28.224  26.774  23.931  1.00  0.00     0.001 A 
ATOM    105  C   UNL A   1      27.457  27.933  23.231  1.00  0.00     0.000 A 
ENDBRANCH  96 100
ENDBRANCH  92  94
ENDBRANCH  84  90
ENDBRANCH  80  83
ENDBRANCH  78  79
ENDBRANCH  77  78
ENDBRANCH  76  77
ENDBRANCH   1  76
TORSDOF 19
ENDMDL
MODEL 3
REMARK VINA RESULT:     -11.6      2.507      9.018
REMARK SMILES O=C(NCCCCCCNC(=O)[C@H]1[C@@H](C(=O)Nc2ccccc2-c2ccccc2)[C@@H]2C=C[C@H]1O2)c1ccc(-c2c3nc(c(-c4c(F)cc(S(=O)(=O)[O-])cc4F)c4ccc([nH]4)c(-c4c(F)cc(S(=O)(=O)[O-])cc4F)c4nc(c(-c5c(F)cc(S(=O)(=O)[O-])cc5F)c5ccc2[nH]5)C=C4)C=C3)cc1
REMARK SMILES IDX 6 1 5 2 4 3 3 4 1 5 2 6 35 8 36 9 100 10 37 11 99 12 38 13
REMARK SMILES IDX 39 14 40 15 93 16 41 17 98 18 92 19 94 20 42 21 97 22 91 23
REMARK SMILES IDX 90 24 43 26 77 27 56 28 76 29 57 30 60 31 75 32 95 33 58 34
REMARK SMILES IDX 59 35 74 37 96 38 61 39 44 40 45 41 54 42 46 43 47 44 53 45
REMARK SMILES IDX 55 46 48 47 49 48 50 49 51 50 52 51 78 52 79 53 88 54 80 55
REMARK SMILES IDX 81 56 87 57 89 58 82 59 83 60 84 61 85 62 86 63 62 64 63 65
REMARK SMILES IDX 72 66 64 67 65 68 71 69 73 70 66 71 67 72 68 73 69 74 70 75
REMARK SMILES IDX 7 76 8 77 9 78 10 79 11 80 12 82 13 83 14 84 33 85 30 86
REMARK SMILES IDX 32 87 34 88 31 89 15 90 16 91 17 92 18 94 19 95 23 96 20 97
REMARK SMILES IDX 22 98 21 99 24 100 25 101 29 102 26 103 28 104 27 105
REMARK H PARENT 3 7 94 25 60 36 10 81 17 93
REMARK Flexibility Score: inf
ROOT
ATOM      1  C   UNL A   1      37.397  20.834  25.153  1.00  0.00     0.002 C 
ENDROOT
BRANCH   1   2
ATOM      2  C   UNL A   1      38.642  19.969  25.016  1.00  0.00     0.021 C 
BRANCH   2   3
ATOM      3  C   UNL A   1      39.532  19.995  26.241  1.00  0.00     0.116 C 
BRANCH   3   4
ATOM      4  N   UNL A   1      40.700  19.145  26.080  1.00  0.00    -0.352 N 
ATOM      5  O   UNL A   1      42.886  18.724  25.687  1.00  0.00    -0.269 OA
ATOM      6  C   UNL A   1      42.021  19.520  26.035  1.00  0.00     0.251 C 
ATOM      7  H   UNL A   1      40.522  18.180  25.995  1.00  0.00     0.163 HD
BRANCH   6   8
ATOM      8  C   UNL A   1      42.361  20.915  26.380  1.00  0.00     0.039 A 
ATOM      9  C   UNL A   1      42.452  21.872  25.368  1.00  0.00     0.014 A 
ATOM     10  C   UNL A   1      42.680  21.241  27.697  1.00  0.00     0.014 A 
ATOM     11  C   UNL A   1      43.058  23.088  25.636  1.00  0.00     0.010 A 
ATOM     12  C   UNL A   1      43.156  22.522  27.987  1.00  0.00     0.010 A 
ATOM     13  C   UNL A   1      43.391  23.443  26.953  1.00  0.00    -0.014 A 
BRANCH  13  14
ATOM     14  C   UNL A   1      43.926  24.803  27.215  1.00  0.00     0.031 A 
ATOM     15  C   UNL A   1      45.360  25.154  26.924  1.00  0.00     0.074 A 
ATOM     16  C   UNL A   1      43.080  25.738  27.692  1.00  0.00     0.049 A 
ATOM     17  N   UNL A   1      45.970  26.302  27.073  1.00  0.00    -0.248 NA
ATOM     18  C   UNL A   1      46.227  24.081  26.411  1.00  0.00     0.031 C 
ATOM     19  C   UNL A   1      41.668  25.510  28.018  1.00  0.00     0.029 A 
ATOM     20  N   UNL A   1      43.266  27.068  27.964  1.00  0.00    -0.354 N 
ATOM     21  C   UNL A   1      47.293  26.087  26.703  1.00  0.00     0.074 A 
ATOM     22  C   UNL A   1      47.405  24.689  26.347  1.00  0.00     0.031 C 
ATOM     23  C   UNL A   1      41.103  26.668  28.380  1.00  0.00     0.029 A 
ATOM     24  C   UNL A   1      42.128  27.702  28.402  1.00  0.00     0.049 A 
ATOM     25  H   UNL A   1      44.131  27.526  27.856  1.00  0.00     0.167 HD
ATOM     26  C   UNL A   1      48.315  26.976  26.662  1.00  0.00     0.037 A 
ATOM     27  C   UNL A   1      41.929  28.971  28.802  1.00  0.00     0.037 A 
ATOM     28  C   UNL A   1      48.183  28.369  27.013  1.00  0.00     0.049 A 
ATOM     29  C   UNL A   1      43.089  29.923  28.780  1.00  0.00     0.074 A 
ATOM     30  C   UNL A   1      49.147  29.363  26.964  1.00  0.00     0.029 A 
ATOM     31  N   UNL A   1      47.024  28.966  27.492  1.00  0.00    -0.354 N 
ATOM     32  N   UNL A   1      44.323  29.711  28.387  1.00  0.00    -0.248 NA
ATOM     33  C   UNL A   1      42.829  31.288  29.251  1.00  0.00     0.031 C 
ATOM     34  C   UNL A   1      48.592  30.538  27.483  1.00  0.00     0.029 A 
ATOM     35  C   UNL A   1      47.258  30.303  27.773  1.00  0.00     0.049 A 
ATOM     36  H   UNL A   1      46.162  28.506  27.612  1.00  0.00     0.167 HD
ATOM     37  C   UNL A   1      44.979  30.928  28.532  1.00  0.00     0.074 A 
ATOM     38  C   UNL A   1      44.000  31.871  29.032  1.00  0.00     0.031 C 
ATOM     39  C   UNL A   1      46.274  31.236  28.267  1.00  0.00     0.037 A 
BRANCH  26  40
ATOM     40  C   UNL A   1      49.678  26.472  26.257  1.00  0.00     0.058 A 
ATOM     41  C   UNL A   1      50.188  26.648  24.961  1.00  0.00     0.135 A 
ATOM     42  C   UNL A   1      50.505  25.838  27.200  1.00  0.00     0.135 A 
ATOM     43  F   UNL A   1      49.441  27.234  24.012  1.00  0.00    -0.206 F 
ATOM     44  C   UNL A   1      51.453  26.188  24.607  1.00  0.00     0.059 A 
ATOM     45  C   UNL A   1      51.787  25.401  26.878  1.00  0.00     0.059 A 
ATOM     46  F   UNL A   1      50.073  25.642  28.456  1.00  0.00    -0.206 F 
ATOM     47  C   UNL A   1      52.246  25.567  25.574  1.00  0.00     0.060 A 
BRANCH  47  48
ATOM     48  S   UNL A   1      53.884  24.978  25.096  1.00  0.00     0.124 S 
ATOM     49  O   UNL A   1      54.099  25.697  23.843  1.00  0.00    -0.237 OA
ATOM     50  O   UNL A   1      54.708  25.407  26.220  1.00  0.00    -0.237 OA
ATOM     51  O   UNL A   1      53.705  23.534  24.966  1.00  0.00    -0.744 OA
ENDBRANCH  47  48
ENDBRANCH  26  40
BRANCH  27  52
ATOM     52  C   UNL A   1      40.581  29.405  29.255  1.00  0.00     0.058 A 
ATOM     53  C   UNL A   1      40.306  29.604  30.616  1.00  0.00     0.135 A 
ATOM     54  C   UNL A   1      39.544  29.643  28.338  1.00  0.00     0.135 A 
ATOM     55  F   UNL A   1      41.263  29.390  31.532  1.00  0.00    -0.206 F 
ATOM     56  C   UNL A   1      39.047  30.001  31.054  1.00  0.00     0.059 A 
ATOM     57  C   UNL A   1      38.289  30.076  28.748  1.00  0.00     0.059 A 
ATOM     58  F   UNL A   1      39.761  29.488  27.022  1.00  0.00    -0.206 F 
ATOM     59  C   UNL A   1      38.047  30.238  30.111  1.00  0.00     0.060 A 
BRANCH  59  60
ATOM     60  S   UNL A   1      36.430  30.791  30.689  1.00  0.00     0.124 S 
ATOM     61  O   UNL A   1      36.073  29.727  31.621  1.00  0.00    -0.237 OA
ATOM     62  O   UNL A   1      36.746  32.084  31.286  1.00  0.00    -0.237 OA
ATOM     63  O   UNL A   1      35.637  30.850  29.465  1.00  0.00    -0.744 OA
ENDBRANCH  59  60
ENDBRANCH  27  52
BRANCH  39  64
ATOM     64  C   UNL A   1      46.692  32.670  28.458  1.00  0.00     0.058 A 
ATOM     65  C   UNL A   1      46.549  33.634  27.447  1.00  0.00     0.135 A 
ATOM     66  C   UNL A   1      47.228  33.088  29.687  1.00  0.00     0.135 A 
ATOM     67  F   UNL A   1      46.049  33.288  26.249  1.00  0.00    -0.206 F 
ATOM     68  C   UNL A   1      46.960  34.950  27.634  1.00  0.00     0.059 A 
ATOM     69  C   UNL A   1      47.609  34.407  29.909  1.00  0.00     0.059 A 
ATOM     70  F   UNL A   1      47.380  32.212  30.693  1.00  0.00    -0.206 F 
ATOM     71  C   UNL A   1      47.488  35.326  28.870  1.00  0.00     0.060 A 
BRANCH  71  72
ATOM     72  S   UNL A   1      48.005  37.039  29.103  1.00  0.00     0.124 S 
ATOM     73  O   UNL A   1      49.405  36.982  28.693  1.00  0.00    -0.237 OA
ATOM     74  O   UNL A   1      47.110  37.760  28.204  1.00  0.00    -0.237 OA
ATOM     75  O   UNL A   1      47.778  37.273  30.526  1.00  0.00    -0.744 OA
ENDBRANCH  71  72
ENDBRANCH  39  64
ENDBRANCH  13  14
ENDBRANCH   6   8
ENDBRANCH   3   4
ENDBRANCH   2   3
ENDBRANCH   1   2
BRANCH   1  76
ATOM     76  C   UNL A   1      37.669  22.329  25.369  1.00  0.00     0.002 C 
BRANCH  76  77
ATOM     77  C   UNL A   1      36.936  23.285  24.416  1.00  0.00     0.021 C 
BRANCH  77  78
ATOM     78  C   UNL A   1      36.200  22.594  23.284  1.00  0.00     0.116 C 
BRANCH  78  79
ATOM     79  N   UNL A   1      35.199  23.455  22.725  1.00  0.00    -0.356 N 
ATOM     80  C   UNL A   1      34.055  23.871  23.291  1.00  0.00     0.227 C 
ATOM     81  H   UNL A   1      35.372  23.781  21.812  1.00  0.00     0.163 HD
ATOM     82  O   UNL A   1      33.599  24.943  22.886  1.00  0.00    -0.275 OA
BRANCH  80  83
ATOM     83  C   UNL A   1      33.510  23.198  24.523  1.00  0.00     0.127 C 
ATOM     84  C   UNL A   1      31.635  23.834  25.083  1.00  0.00     0.127 C 
ATOM     85  C   UNL A   1      33.822  21.354  25.368  1.00  0.00     0.155 C 
ATOM     86  C   UNL A   1      30.835  22.263  26.181  1.00  0.00     0.155 C 
ATOM     87  C   UNL A   1      33.691  21.983  27.247  1.00  0.00     0.004 C 
ATOM     88  O   UNL A   1      31.937  20.644  25.239  1.00  0.00    -0.365 OA
ATOM     89  C   UNL A   1      32.216  22.619  27.651  1.00  0.00     0.004 C 
BRANCH  84  90
ATOM     90  C   UNL A   1      30.706  24.530  24.048  1.00  0.00     0.231 C 
ATOM     91  O   UNL A   1      30.285  23.870  23.089  1.00  0.00    -0.274 OA
ATOM     92  N   UNL A   1      30.303  25.839  24.148  1.00  0.00    -0.325 N 
ATOM     93  H   UNL A   1      29.551  26.107  23.570  1.00  0.00     0.169 HD
BRANCH  92  94
ATOM     94  C   UNL A   1      30.834  26.839  24.975  1.00  0.00     0.049 A 
ATOM     95  C   UNL A   1      31.467  26.520  26.181  1.00  0.00     0.027 A 
ATOM     96  C   UNL A   1      30.803  28.159  24.551  1.00  0.00     0.005 A 
ATOM     97  C   UNL A   1      32.130  27.515  26.915  1.00  0.00     0.002 A 
ATOM     98  C   UNL A   1      31.418  29.163  25.322  1.00  0.00     0.011 A 
ATOM     99  C   UNL A   1      32.104  28.840  26.487  1.00  0.00     0.001 A 
BRANCH  96 100
ATOM    100  C   UNL A   1      30.067  28.514  23.331  1.00  0.00    -0.016 A 
ATOM    101  C   UNL A   1      30.696  29.672  21.997  1.00  0.00     0.009 A 
ATOM    102  C   UNL A   1      28.487  28.374  23.502  1.00  0.00     0.009 A 
ATOM    103  C   UNL A   1      29.181  30.769  21.315  1.00  0.00     0.001 A 
ATOM    104  C   UNL A   1      27.425  29.256  22.737  1.00  0.00     0.001 A 
ATOM    105  C   UNL A   1      27.707  30.414  21.736  1.00  0.00     0.000 A 
ENDBRANCH  96 100
ENDBRANCH  92  94
ENDBRANCH  84  90
ENDBRANCH  80  83
ENDBRANCH  78  79
ENDBRANCH  77  78
ENDBRANCH  76  77
ENDBRANCH   1  76
TORSDOF 19
ENDMDL
