MODEL 1
REMARK VINA RESULT:     -10.3      0.000      0.000
REMARK SMILES CS(=O)(=O)c1ccc(C2=NN(c3ccc(C(=O)NCCCCCCNC(=O)c4ccc(-c5c6nc(c(-c7c(F)cc(S(=O)(=O)[O-])cc7F)c7ccc([nH]7)c(-c7c(F)cc(S(=O)(=O)[O-])cc7F)c7nc(c(-c8c(F)cc(S(=O)(=O)[O-])cc8F)c8ccc5[nH]8)C=C7)C=C6)cc4)cc3)[C@H](c3cccs3)C2)cc1
REMARK SMILES IDX 21 1 20 2 19 3 18 4 16 5 17 6 15 8 12 9 13 10 95 11 14 12
REMARK SMILES IDX 94 13 11 14 9 15 10 16 102 17 96 18 8 19 5 20 6 21 104 22
REMARK SMILES IDX 7 23 103 24 2 25 1 26 3 27 4 28 97 29 98 30 101 31 99 32
REMARK SMILES IDX 100 33 22 34 23 35 24 36 25 37 26 38 27 40 28 41 29 42 93 43
REMARK SMILES IDX 30 44 92 45 31 46 32 47 33 48 86 49 34 50 91 51 85 52 87 53
REMARK SMILES IDX 35 54 90 55 84 56 83 57 36 59 70 60 49 61 69 62 50 63 53 64
REMARK SMILES IDX 68 65 88 66 51 67 52 68 67 70 89 71 54 72 37 73 38 74 47 75
REMARK SMILES IDX 39 76 40 77 46 78 48 79 41 80 42 81 43 82 44 83 45 84 71 85
REMARK SMILES IDX 72 86 81 87 73 88 74 89 80 90 82 91 75 92 76 93 77 94 78 95
REMARK SMILES IDX 79 96 55 97 56 98 65 99 57 100 58 101 64 102 66 103 59 104
REMARK SMILES IDX 60 105 61 106 62 107 63 108
REMARK H PARENT 18 7 25 39 87 58 53 69
REMARK Flexibility Score: inf
ROOT
ATOM      1  C   UNL A   1      37.039  32.155  29.840  1.00  0.00     0.002 C 
ENDROOT
BRANCH   1   2
ATOM      2  C   UNL A   1      37.266  30.994  28.864  1.00  0.00     0.021 C 
BRANCH   2   3
ATOM      3  C   UNL A   1      36.035  30.102  28.693  1.00  0.00     0.116 C 
BRANCH   3   4
ATOM      4  N   UNL A   1      34.870  30.918  28.399  1.00  0.00    -0.352 N 
ATOM      5  C   UNL A   1      33.793  30.697  27.581  1.00  0.00     0.251 C 
ATOM      6  O   UNL A   1      32.913  31.555  27.522  1.00  0.00    -0.269 OA
ATOM      7  H   UNL A   1      34.851  31.782  28.870  1.00  0.00     0.163 HD
BRANCH   5   8
ATOM      8  C   UNL A   1      33.618  29.422  26.842  1.00  0.00     0.039 A 
ATOM      9  C   UNL A   1      33.206  27.149  25.236  1.00  0.00     0.060 A 
ATOM     10  C   UNL A   1      33.985  28.213  24.773  1.00  0.00     0.029 A 
ATOM     11  C   UNL A   1      32.712  27.198  26.542  1.00  0.00     0.029 A 
ATOM     12  C   UNL A   1      34.193  29.341  25.568  1.00  0.00     0.016 A 
ATOM     13  C   UNL A   1      32.929  28.318  27.349  1.00  0.00     0.016 A 
BRANCH   9  14
ATOM     14  N   UNL A   1      32.953  26.065  24.421  1.00  0.00    -0.257 N 
ATOM     15  C   UNL A   1      32.949  24.029  23.865  1.00  0.00     0.071 C 
ATOM     16  N   UNL A   1      33.226  24.818  24.857  1.00  0.00    -0.176 NA
ATOM     17  C   UNL A   1      32.492  24.714  22.602  1.00  0.00     0.091 C 
ATOM     18  C   UNL A   1      32.199  26.116  23.165  1.00  0.00     0.154 C 
BRANCH  15  19
ATOM     19  C   UNL A   1      33.123  22.573  23.960  1.00  0.00    -0.002 A 
ATOM     20  C   UNL A   1      33.295  19.808  24.216  1.00  0.00     0.067 A 
ATOM     21  C   UNL A   1      32.233  20.374  23.502  1.00  0.00     0.021 A 
ATOM     22  C   UNL A   1      34.272  20.619  24.802  1.00  0.00     0.021 A 
ATOM     23  C   UNL A   1      32.145  21.759  23.381  1.00  0.00     0.011 A 
ATOM     24  C   UNL A   1      34.189  22.010  24.667  1.00  0.00     0.011 A 
BRANCH  20  25
ATOM     25  S   UNL A   1      33.311  18.038  24.365  1.00  0.00     0.175 S 
ATOM     26  C   UNL A   1      32.965  17.370  22.765  1.00  0.00     0.163 C 
ATOM     27  O   UNL A   1      32.210  17.686  25.235  1.00  0.00    -0.224 OA
ATOM     28  O   UNL A   1      34.679  17.663  24.687  1.00  0.00    -0.224 OA
ENDBRANCH  20  25
ENDBRANCH  15  19
BRANCH  18  29
ATOM     29  C   UNL A   1      30.729  26.496  23.303  1.00  0.00     0.030 A 
ATOM     30  C   UNL A   1      29.728  25.704  23.849  1.00  0.00     0.017 A 
ATOM     31  S   UNL A   1      30.078  27.988  22.759  1.00  0.00    -0.147 S 
ATOM     32  C   UNL A   1      28.449  26.330  23.835  1.00  0.00     0.012 A 
ATOM     33  C   UNL A   1      28.505  27.593  23.293  1.00  0.00     0.065 A 
ENDBRANCH  18  29
ENDBRANCH   9  14
ENDBRANCH   5   8
ENDBRANCH   3   4
ENDBRANCH   2   3
ENDBRANCH   1   2
BRANCH   1  34
ATOM     34  C   UNL A   1      37.125  33.549  29.207  1.00  0.00     0.002 C 
BRANCH  34  35
ATOM     35  C   UNL A   1      35.795  34.304  29.126  1.00  0.00     0.021 C 
BRANCH  35  36
ATOM     36  C   UNL A   1      34.589  33.510  29.620  1.00  0.00     0.116 C 
BRANCH  36  37
ATOM     37  N   UNL A   1      33.725  34.321  30.464  1.00  0.00    -0.352 N 
ATOM     38  C   UNL A   1      33.800  34.551  31.815  1.00  0.00     0.251 C 
ATOM     39  H   UNL A   1      32.981  34.769  30.000  1.00  0.00     0.163 HD
ATOM     40  O   UNL A   1      32.855  35.068  32.402  1.00  0.00    -0.269 OA
BRANCH  38  41
ATOM     41  C   UNL A   1      35.017  34.163  32.560  1.00  0.00     0.039 A 
ATOM     42  C   UNL A   1      35.113  32.869  33.076  1.00  0.00     0.014 A 
ATOM     43  C   UNL A   1      36.054  35.080  32.761  1.00  0.00     0.014 A 
ATOM     44  C   UNL A   1      36.273  32.477  33.748  1.00  0.00     0.010 A 
ATOM     45  C   UNL A   1      37.236  34.667  33.368  1.00  0.00     0.010 A 
ATOM     46  C   UNL A   1      37.356  33.364  33.875  1.00  0.00    -0.014 A 
BRANCH  46  47
ATOM     47  C   UNL A   1      38.619  32.947  34.536  1.00  0.00     0.031 A 
ATOM     48  C   UNL A   1      39.662  32.187  33.762  1.00  0.00     0.074 A 
ATOM     49  C   UNL A   1      38.796  33.197  35.849  1.00  0.00     0.049 A 
ATOM     50  N   UNL A   1      40.794  31.682  34.180  1.00  0.00    -0.248 NA
ATOM     51  C   UNL A   1      39.383  31.938  32.339  1.00  0.00     0.031 C 
ATOM     52  C   UNL A   1      37.835  33.882  36.715  1.00  0.00     0.029 A 
ATOM     53  N   UNL A   1      39.841  32.894  36.686  1.00  0.00    -0.354 N 
ATOM     54  C   UNL A   1      41.354  31.045  33.077  1.00  0.00     0.074 A 
ATOM     55  C   UNL A   1      40.413  31.183  31.987  1.00  0.00     0.031 C 
ATOM     56  C   UNL A   1      38.344  33.964  37.956  1.00  0.00     0.029 A 
ATOM     57  C   UNL A   1      39.646  33.306  37.982  1.00  0.00     0.049 A 
ATOM     58  H   UNL A   1      40.653  32.424  36.385  1.00  0.00     0.167 HD
ATOM     59  C   UNL A   1      42.553  30.423  32.978  1.00  0.00     0.037 A 
ATOM     60  C   UNL A   1      40.425  33.164  39.072  1.00  0.00     0.037 A 
ATOM     61  C   UNL A   1      43.494  30.311  34.062  1.00  0.00     0.049 A 
ATOM     62  C   UNL A   1      41.755  32.472  38.937  1.00  0.00     0.074 A 
ATOM     63  C   UNL A   1      44.761  29.755  34.048  1.00  0.00     0.029 A 
ATOM     64  N   UNL A   1      43.271  30.762  35.356  1.00  0.00    -0.354 N 
ATOM     65  N   UNL A   1      42.298  31.933  37.871  1.00  0.00    -0.248 NA
ATOM     66  C   UNL A   1      42.580  32.375  40.148  1.00  0.00     0.031 C 
ATOM     67  C   UNL A   1      45.286  29.828  35.343  1.00  0.00     0.029 A 
ATOM     68  C   UNL A   1      44.368  30.477  36.153  1.00  0.00     0.049 A 
ATOM     69  H   UNL A   1      42.454  31.218  35.661  1.00  0.00     0.167 HD
ATOM     70  C   UNL A   1      43.540  31.457  38.277  1.00  0.00     0.074 A 
ATOM     71  C   UNL A   1      43.671  31.781  39.682  1.00  0.00     0.031 C 
ATOM     72  C   UNL A   1      44.486  30.811  37.550  1.00  0.00     0.037 A 
BRANCH  59  73
ATOM     73  C   UNL A   1      42.916  29.816  31.649  1.00  0.00     0.058 A 
ATOM     74  C   UNL A   1      42.625  28.476  31.345  1.00  0.00     0.135 A 
ATOM     75  C   UNL A   1      43.536  30.591  30.656  1.00  0.00     0.135 A 
ATOM     76  F   UNL A   1      42.045  27.685  32.261  1.00  0.00    -0.206 F 
ATOM     77  C   UNL A   1      42.965  27.918  30.116  1.00  0.00     0.059 A 
ATOM     78  C   UNL A   1      43.859  30.062  29.409  1.00  0.00     0.059 A 
ATOM     79  F   UNL A   1      43.839  31.878  30.892  1.00  0.00    -0.206 F 
ATOM     80  C   UNL A   1      43.583  28.718  29.155  1.00  0.00     0.060 A 
BRANCH  80  81
ATOM     81  S   UNL A   1      44.017  27.979  27.567  1.00  0.00     0.124 S 
ATOM     82  O   UNL A   1      44.644  29.106  26.883  1.00  0.00    -0.237 OA
ATOM     83  O   UNL A   1      44.917  26.899  27.961  1.00  0.00    -0.237 OA
ATOM     84  O   UNL A   1      42.732  27.554  27.026  1.00  0.00    -0.744 OA
ENDBRANCH  80  81
ENDBRANCH  59  73
BRANCH  60  85
ATOM     85  C   UNL A   1      39.975  33.708  40.381  1.00  0.00     0.058 A 
ATOM     86  C   UNL A   1      39.211  32.928  41.263  1.00  0.00     0.135 A 
ATOM     87  C   UNL A   1      40.317  35.008  40.787  1.00  0.00     0.135 A 
ATOM     88  F   UNL A   1      38.856  31.682  40.918  1.00  0.00    -0.206 F 
ATOM     89  C   UNL A   1      38.790  33.421  42.494  1.00  0.00     0.059 A 
ATOM     90  C   UNL A   1      39.930  35.514  42.023  1.00  0.00     0.059 A 
ATOM     91  F   UNL A   1      41.061  35.788  39.987  1.00  0.00    -0.206 F 
ATOM     92  C   UNL A   1      39.158  34.716  42.867  1.00  0.00     0.060 A 
BRANCH  92  93
ATOM     93  S   UNL A   1      38.653  35.326  44.490  1.00  0.00     0.124 S 
ATOM     94  O   UNL A   1      38.794  34.130  45.311  1.00  0.00    -0.237 OA
ATOM     95  O   UNL A   1      39.623  36.388  44.734  1.00  0.00    -0.237 OA
ATOM     96  O   UNL A   1      37.282  35.778  44.264  1.00  0.00    -0.744 OA
ENDBRANCH  92  93
ENDBRANCH  60  85
BRANCH  72  97
ATOM     97  C   UNL A   1      45.763  30.439  38.253  1.00  0.00     0.058 A 
ATOM     98  C   UNL A   1      46.851  31.322  38.324  1.00  0.00     0.135 A 
ATOM     99  C   UNL A   1      45.877  29.201  38.907  1.00  0.00     0.135 A 
ATOM    100  F   UNL A   1      46.795  32.515  37.710  1.00  0.00    -0.206 F 
ATOM    101  C   UNL A   1      48.018  30.982  39.001  1.00  0.00     0.059 A 
ATOM    102  C   UNL A   1      47.024  28.853  39.613  1.00  0.00     0.059 A 
ATOM    103  F   UNL A   1      44.862  28.324  38.878  1.00  0.00    -0.206 F 
ATOM    104  C   UNL A   1      48.094  29.745  39.644  1.00  0.00     0.060 A 
BRANCH 104 105
ATOM    105  S   UNL A   1      49.602  29.330  40.545  1.00  0.00     0.124 S 
ATOM    106  O   UNL A   1      49.089  28.443  41.585  1.00  0.00    -0.237 OA
ATOM    107  O   UNL A   1      50.417  28.692  39.514  1.00  0.00    -0.237 OA
ATOM    108  O   UNL A   1      50.090  30.625  41.008  1.00  0.00    -0.744 OA
ENDBRANCH 104 105
ENDBRANCH  72  97
ENDBRANCH  46  47
ENDBRANCH  38  41
ENDBRANCH  36  37
ENDBRANCH  35  36
ENDBRANCH  34  35
ENDBRANCH   1  34
TORSDOF 20
ENDMDL
MODEL 2
REMARK VINA RESULT:     -10.1      1.040      7.826
REMARK SMILES CS(=O)(=O)c1ccc(C2=NN(c3ccc(C(=O)NCCCCCCNC(=O)c4ccc(-c5c6nc(c(-c7c(F)cc(S(=O)(=O)[O-])cc7F)c7ccc([nH]7)c(-c7c(F)cc(S(=O)(=O)[O-])cc7F)c7nc(c(-c8c(F)cc(S(=O)(=O)[O-])cc8F)c8ccc5[nH]8)C=C7)C=C6)cc4)cc3)[C@H](c3cccs3)C2)cc1
REMARK SMILES IDX 21 1 20 2 19 3 18 4 16 5 17 6 15 8 12 9 13 10 95 11 14 12
REMARK SMILES IDX 94 13 11 14 9 15 10 16 102 17 96 18 8 19 5 20 6 21 104 22
REMARK SMILES IDX 7 23 103 24 2 25 1 26 3 27 4 28 97 29 98 30 101 31 99 32
REMARK SMILES IDX 100 33 22 34 23 35 24 36 25 37 26 38 27 40 28 41 29 42 93 43
REMARK SMILES IDX 30 44 92 45 31 46 32 47 33 48 86 49 34 50 91 51 85 52 87 53
REMARK SMILES IDX 35 54 90 55 84 56 83 57 36 59 70 60 49 61 69 62 50 63 53 64
REMARK SMILES IDX 68 65 88 66 51 67 52 68 67 70 89 71 54 72 37 73 38 74 47 75
REMARK SMILES IDX 39 76 40 77 46 78 48 79 41 80 42 81 43 82 44 83 45 84 71 85
REMARK SMILES IDX 72 86 81 87 73 88 74 89 80 90 82 91 75 92 76 93 77 94 78 95
REMARK SMILES IDX 79 96 55 97 56 98 65 99 57 100 58 101 64 102 66 103 59 104
REMARK SMILES IDX 60 105 61 106 62 107 63 108
REMARK H PARENT 18 7 25 39 87 58 53 69
REMARK Flexibility Score: inf
ROOT
ATOM      1  C   UNL A   1      36.822  32.185  29.935  1.00  0.00     0.002 C 
ENDROOT
BRANCH   1   2
ATOM      2  C   UNL A   1      37.215  31.044  28.988  1.00  0.00     0.021 C 
BRANCH   2   3
ATOM      3  C   UNL A   1      36.035  30.150  28.603  1.00  0.00     0.116 C 
BRANCH   3   4
ATOM      4  N   UNL A   1      34.860  30.963  28.348  1.00  0.00    -0.352 N 
ATOM      5  C   UNL A   1      33.758  30.742  27.563  1.00  0.00     0.251 C 
ATOM      6  O   UNL A   1      32.874  31.598  27.535  1.00  0.00    -0.269 OA
ATOM      7  H   UNL A   1      34.853  31.826  28.822  1.00  0.00     0.163 HD
BRANCH   5   8
ATOM      8  C   UNL A   1      33.564  29.469  26.826  1.00  0.00     0.039 A 
ATOM      9  C   UNL A   1      33.140  27.201  25.216  1.00  0.00     0.060 A 
ATOM     10  C   UNL A   1      34.016  28.209  24.805  1.00  0.00     0.029 A 
ATOM     11  C   UNL A   1      32.549  27.299  26.479  1.00  0.00     0.029 A 
ATOM     12  C   UNL A   1      34.230  29.334  25.603  1.00  0.00     0.016 A 
ATOM     13  C   UNL A   1      32.771  28.416  27.289  1.00  0.00     0.016 A 
BRANCH   9  14
ATOM     14  N   UNL A   1      32.885  26.122  24.396  1.00  0.00    -0.257 N 
ATOM     15  C   UNL A   1      32.908  24.094  23.813  1.00  0.00     0.071 C 
ATOM     16  N   UNL A   1      33.199  24.875  24.806  1.00  0.00    -0.176 NA
ATOM     17  C   UNL A   1      32.396  24.784  22.575  1.00  0.00     0.091 C 
ATOM     18  C   UNL A   1      32.090  26.172  23.166  1.00  0.00     0.154 C 
BRANCH  15  19
ATOM     19  C   UNL A   1      33.118  22.641  23.883  1.00  0.00    -0.002 A 
ATOM     20  C   UNL A   1      33.351  19.875  24.075  1.00  0.00     0.067 A 
ATOM     21  C   UNL A   1      32.345  20.432  23.279  1.00  0.00     0.021 A 
ATOM     22  C   UNL A   1      34.243  20.695  24.775  1.00  0.00     0.021 A 
ATOM     23  C   UNL A   1      32.225  21.817  23.189  1.00  0.00     0.011 A 
ATOM     24  C   UNL A   1      34.129  22.086  24.671  1.00  0.00     0.011 A 
BRANCH  20  25
ATOM     25  S   UNL A   1      33.409  18.102  24.174  1.00  0.00     0.175 S 
ATOM     26  C   UNL A   1      32.624  17.631  25.686  1.00  0.00     0.163 C 
ATOM     27  O   UNL A   1      34.807  17.739  24.274  1.00  0.00    -0.224 OA
ATOM     28  O   UNL A   1      32.574  17.600  23.094  1.00  0.00    -0.224 OA
ENDBRANCH  20  25
ENDBRANCH  15  19
BRANCH  18  29
ATOM     29  C   UNL A   1      30.616  26.516  23.356  1.00  0.00     0.030 A 
ATOM     30  C   UNL A   1      29.662  25.715  23.967  1.00  0.00     0.017 A 
ATOM     31  S   UNL A   1      29.901  27.972  22.796  1.00  0.00    -0.147 S 
ATOM     32  C   UNL A   1      28.367  26.305  23.990  1.00  0.00     0.012 A 
ATOM     33  C   UNL A   1      28.364  27.551  23.409  1.00  0.00     0.065 A 
ENDBRANCH  18  29
ENDBRANCH   9  14
ENDBRANCH   5   8
ENDBRANCH   3   4
ENDBRANCH   2   3
ENDBRANCH   1   2
BRANCH   1  34
ATOM     34  C   UNL A   1      36.879  33.585  29.309  1.00  0.00     0.002 C 
BRANCH  34  35
ATOM     35  C   UNL A   1      35.527  34.296  29.196  1.00  0.00     0.021 C 
BRANCH  35  36
ATOM     36  C   UNL A   1      34.389  33.606  29.940  1.00  0.00     0.116 C 
BRANCH  36  37
ATOM     37  N   UNL A   1      33.735  34.510  30.874  1.00  0.00    -0.352 N 
ATOM     38  C   UNL A   1      34.026  34.754  32.193  1.00  0.00     0.251 C 
ATOM     39  H   UNL A   1      32.976  35.019  30.508  1.00  0.00     0.163 HD
ATOM     40  O   UNL A   1      33.229  35.369  32.893  1.00  0.00    -0.269 OA
BRANCH  38  41
ATOM     41  C   UNL A   1      35.298  34.264  32.767  1.00  0.00     0.039 A 
ATOM     42  C   UNL A   1      35.324  33.013  33.388  1.00  0.00     0.014 A 
ATOM     43  C   UNL A   1      36.457  35.043  32.705  1.00  0.00     0.014 A 
ATOM     44  C   UNL A   1      36.527  32.520  33.900  1.00  0.00     0.010 A 
ATOM     45  C   UNL A   1      37.668  34.522  33.153  1.00  0.00     0.010 A 
ATOM     46  C   UNL A   1      37.714  33.259  33.761  1.00  0.00    -0.014 A 
BRANCH  46  47
ATOM     47  C   UNL A   1      39.013  32.727  34.249  1.00  0.00     0.031 A 
ATOM     48  C   UNL A   1      39.490  33.052  35.639  1.00  0.00     0.074 A 
ATOM     49  C   UNL A   1      39.790  32.006  33.416  1.00  0.00     0.049 A 
ATOM     50  N   UNL A   1      40.618  32.736  36.218  1.00  0.00    -0.248 NA
ATOM     51  C   UNL A   1      38.590  33.860  36.477  1.00  0.00     0.031 C 
ATOM     52  C   UNL A   1      39.458  31.668  32.031  1.00  0.00     0.029 A 
ATOM     53  N   UNL A   1      41.024  31.437  33.609  1.00  0.00    -0.354 N 
ATOM     54  C   UNL A   1      40.572  33.318  37.481  1.00  0.00     0.074 A 
ATOM     55  C   UNL A   1      39.326  34.048  37.562  1.00  0.00     0.031 C 
ATOM     56  C   UNL A   1      40.454  30.935  31.506  1.00  0.00     0.029 A 
ATOM     57  C   UNL A   1      41.509  30.782  32.502  1.00  0.00     0.049 A 
ATOM     58  H   UNL A   1      41.515  31.493  34.461  1.00  0.00     0.167 HD
ATOM     59  C   UNL A   1      41.475  33.231  38.486  1.00  0.00     0.037 A 
ATOM     60  C   UNL A   1      42.676  30.137  32.308  1.00  0.00     0.037 A 
ATOM     61  C   UNL A   1      42.701  32.481  38.405  1.00  0.00     0.049 A 
ATOM     62  C   UNL A   1      43.662  30.051  33.442  1.00  0.00     0.074 A 
ATOM     63  C   UNL A   1      43.654  32.279  39.389  1.00  0.00     0.029 A 
ATOM     64  N   UNL A   1      43.148  31.811  37.274  1.00  0.00    -0.354 N 
ATOM     65  N   UNL A   1      43.573  30.552  34.652  1.00  0.00    -0.248 NA
ATOM     66  C   UNL A   1      44.903  29.307  33.188  1.00  0.00     0.031 C 
ATOM     67  C   UNL A   1      44.697  31.527  38.839  1.00  0.00     0.029 A 
ATOM     68  C   UNL A   1      44.372  31.215  37.529  1.00  0.00     0.049 A 
ATOM     69  H   UNL A   1      42.665  31.767  36.418  1.00  0.00     0.167 HD
ATOM     70  C   UNL A   1      44.733  30.161  35.311  1.00  0.00     0.074 A 
ATOM     71  C   UNL A   1      45.502  29.374  34.371  1.00  0.00     0.031 C 
ATOM     72  C   UNL A   1      45.124  30.429  36.582  1.00  0.00     0.037 A 
BRANCH  59  73
ATOM     73  C   UNL A   1      41.167  33.964  39.765  1.00  0.00     0.058 A 
ATOM     74  C   UNL A   1      41.557  35.299  39.962  1.00  0.00     0.135 A 
ATOM     75  C   UNL A   1      40.448  33.335  40.794  1.00  0.00     0.135 A 
ATOM     76  F   UNL A   1      42.259  35.946  39.018  1.00  0.00    -0.206 F 
ATOM     77  C   UNL A   1      41.274  35.973  41.147  1.00  0.00     0.059 A 
ATOM     78  C   UNL A   1      40.129  33.999  41.975  1.00  0.00     0.059 A 
ATOM     79  F   UNL A   1      40.051  32.059  40.660  1.00  0.00    -0.206 F 
ATOM     80  C   UNL A   1      40.560  35.314  42.148  1.00  0.00     0.060 A 
BRANCH  80  81
ATOM     81  S   UNL A   1      40.201  36.202  43.678  1.00  0.00     0.124 S 
ATOM     82  O   UNL A   1      39.585  35.153  44.485  1.00  0.00    -0.237 OA
ATOM     83  O   UNL A   1      41.529  36.633  44.107  1.00  0.00    -0.237 OA
ATOM     84  O   UNL A   1      39.307  37.271  43.250  1.00  0.00    -0.744 OA
ENDBRANCH  80  81
ENDBRANCH  59  73
BRANCH  60  85
ATOM     85  C   UNL A   1      42.964  29.505  30.993  1.00  0.00     0.058 A 
ATOM     86  C   UNL A   1      43.690  30.189  30.007  1.00  0.00     0.135 A 
ATOM     87  C   UNL A   1      42.539  28.198  30.704  1.00  0.00     0.135 A 
ATOM     88  F   UNL A   1      44.113  31.441  30.234  1.00  0.00    -0.206 F 
ATOM     89  C   UNL A   1      43.973  29.607  28.775  1.00  0.00     0.059 A 
ATOM     90  C   UNL A   1      42.832  27.586  29.491  1.00  0.00     0.059 A 
ATOM     91  F   UNL A   1      41.856  27.495  31.621  1.00  0.00    -0.206 F 
ATOM     92  C   UNL A   1      43.543  28.302  28.528  1.00  0.00     0.060 A 
BRANCH  92  93
ATOM     93  S   UNL A   1      43.963  27.536  26.948  1.00  0.00     0.124 S 
ATOM     94  O   UNL A   1      43.054  26.397  26.922  1.00  0.00    -0.237 OA
ATOM     95  O   UNL A   1      43.675  28.608  26.001  1.00  0.00    -0.237 OA
ATOM     96  O   UNL A   1      45.379  27.210  27.101  1.00  0.00    -0.744 OA
ENDBRANCH  92  93
ENDBRANCH  60  85
BRANCH  72  97
ATOM     97  C   UNL A   1      46.429  29.840  37.043  1.00  0.00     0.058 A 
ATOM     98  C   UNL A   1      47.640  30.537  36.916  1.00  0.00     0.135 A 
ATOM     99  C   UNL A   1      46.458  28.582  37.667  1.00  0.00     0.135 A 
ATOM    100  F   UNL A   1      47.668  31.740  36.322  1.00  0.00    -0.206 F 
ATOM    101  C   UNL A   1      48.839  29.997  37.371  1.00  0.00     0.059 A 
ATOM    102  C   UNL A   1      47.640  28.036  38.153  1.00  0.00     0.059 A 
ATOM    103  F   UNL A   1      45.326  27.878  37.822  1.00  0.00    -0.206 F 
ATOM    104  C   UNL A   1      48.828  28.746  37.991  1.00  0.00     0.060 A 
BRANCH 104 105
ATOM    105  S   UNL A   1      50.386  28.071  38.605  1.00  0.00     0.124 S 
ATOM    106  O   UNL A   1      49.940  26.840  39.248  1.00  0.00    -0.237 OA
ATOM    107  O   UNL A   1      51.158  27.901  37.377  1.00  0.00    -0.237 OA
ATOM    108  O   UNL A   1      50.875  29.110  39.506  1.00  0.00    -0.744 OA
ENDBRANCH 104 105
ENDBRANCH  72  97
ENDBRANCH  46  47
ENDBRANCH  38  41
ENDBRANCH  36  37
ENDBRANCH  35  36
ENDBRANCH  34  35
ENDBRANCH   1  34
TORSDOF 20
ENDMDL
MODEL 3
REMARK VINA RESULT:      -9.9      6.531     10.451
REMARK SMILES CS(=O)(=O)c1ccc(C2=NN(c3ccc(C(=O)NCCCCCCNC(=O)c4ccc(-c5c6nc(c(-c7c(F)cc(S(=O)(=O)[O-])cc7F)c7ccc([nH]7)c(-c7c(F)cc(S(=O)(=O)[O-])cc7F)c7nc(c(-c8c(F)cc(S(=O)(=O)[O-])cc8F)c8ccc5[nH]8)C=C7)C=C6)cc4)cc3)[C@H](c3cccs3)C2)cc1
REMARK SMILES IDX 21 1 20 2 19 3 18 4 16 5 17 6 15 8 12 9 13 10 95 11 14 12
REMARK SMILES IDX 94 13 11 14 9 15 10 16 102 17 96 18 8 19 5 20 6 21 104 22
REMARK SMILES IDX 7 23 103 24 2 25 1 26 3 27 4 28 97 29 98 30 101 31 99 32
REMARK SMILES IDX 100 33 22 34 23 35 24 36 25 37 26 38 27 40 28 41 29 42 93 43
REMARK SMILES IDX 30 44 92 45 31 46 32 47 33 48 86 49 34 50 91 51 85 52 87 53
REMARK SMILES IDX 35 54 90 55 84 56 83 57 36 59 70 60 49 61 69 62 50 63 53 64
REMARK SMILES IDX 68 65 88 66 51 67 52 68 67 70 89 71 54 72 37 73 38 74 47 75
REMARK SMILES IDX 39 76 40 77 46 78 48 79 41 80 42 81 43 82 44 83 45 84 71 85
REMARK SMILES IDX 72 86 81 87 73 88 74 89 80 90 82 91 75 92 76 93 77 94 78 95
REMARK SMILES IDX 79 96 55 97 56 98 65 99 57 100 58 101 64 102 66 103 59 104
REMARK SMILES IDX 60 105 61 106 62 107 63 108
REMARK H PARENT 18 7 25 39 87 58 53 69
REMARK Flexibility Score: inf
ROOT
ATOM      1  C   UNL A   1      36.638  31.246  32.675  1.00  0.00     0.002 C 
ENDROOT
BRANCH   1   2
ATOM      2  C   UNL A   1      36.142  30.673  31.342  1.00  0.00     0.021 C 
BRANCH   2   3
ATOM      3  C   UNL A   1      37.065  29.596  30.770  1.00  0.00     0.116 C 
BRANCH   3   4
ATOM      4  N   UNL A   1      37.617  28.794  31.848  1.00  0.00    -0.352 N 
ATOM      5  C   UNL A   1      38.663  27.909  31.874  1.00  0.00     0.251 C 
ATOM      6  O   UNL A   1      38.947  27.365  32.941  1.00  0.00    -0.269 OA
ATOM      7  H   UNL A   1      37.159  28.907  32.712  1.00  0.00     0.163 HD
BRANCH   5   8
ATOM      8  C   UNL A   1      39.511  27.661  30.682  1.00  0.00     0.039 A 
ATOM      9  C   UNL A   1      41.058  26.937  28.446  1.00  0.00     0.060 A 
ATOM     10  C   UNL A   1      39.722  26.537  28.545  1.00  0.00     0.029 A 
ATOM     11  C   UNL A   1      41.581  27.776  29.434  1.00  0.00     0.029 A 
ATOM     12  C   UNL A   1      38.951  26.897  29.652  1.00  0.00     0.016 A 
ATOM     13  C   UNL A   1      40.810  28.152  30.537  1.00  0.00     0.016 A 
BRANCH   9  14
ATOM     14  N   UNL A   1      41.831  26.526  27.381  1.00  0.00    -0.257 N 
ATOM     15  C   UNL A   1      43.547  26.462  26.155  1.00  0.00     0.071 C 
ATOM     16  N   UNL A   1      43.106  26.954  27.270  1.00  0.00    -0.176 NA
ATOM     17  C   UNL A   1      42.546  25.664  25.358  1.00  0.00     0.091 C 
ATOM     18  C   UNL A   1      41.463  25.470  26.434  1.00  0.00     0.154 C 
BRANCH  15  19
ATOM     19  C   UNL A   1      44.916  26.715  25.683  1.00  0.00    -0.002 A 
ATOM     20  C   UNL A   1      47.565  27.089  24.919  1.00  0.00     0.067 A 
ATOM     21  C   UNL A   1      47.027  25.798  24.947  1.00  0.00     0.021 A 
ATOM     22  C   UNL A   1      46.784  28.194  25.269  1.00  0.00     0.021 A 
ATOM     23  C   UNL A   1      45.703  25.611  25.338  1.00  0.00     0.011 A 
ATOM     24  C   UNL A   1      45.449  28.006  25.647  1.00  0.00     0.011 A 
BRANCH  20  25
ATOM     25  S   UNL A   1      49.274  27.238  24.456  1.00  0.00     0.175 S 
ATOM     26  C   UNL A   1      49.339  27.307  22.690  1.00  0.00     0.163 C 
ATOM     27  O   UNL A   1      49.923  26.013  24.871  1.00  0.00    -0.224 OA
ATOM     28  O   UNL A   1      49.722  28.534  24.942  1.00  0.00    -0.224 OA
ENDBRANCH  20  25
ENDBRANCH  15  19
BRANCH  18  29
ATOM     29  C   UNL A   1      41.346  24.072  27.031  1.00  0.00     0.030 A 
ATOM     30  C   UNL A   1      42.292  23.440  27.826  1.00  0.00     0.017 A 
ATOM     31  S   UNL A   1      40.000  23.037  26.771  1.00  0.00    -0.147 S 
ATOM     32  C   UNL A   1      41.901  22.132  28.230  1.00  0.00     0.012 A 
ATOM     33  C   UNL A   1      40.658  21.799  27.746  1.00  0.00     0.065 A 
ENDBRANCH  18  29
ENDBRANCH   9  14
ENDBRANCH   5   8
ENDBRANCH   3   4
ENDBRANCH   2   3
ENDBRANCH   1   2
BRANCH   1  34
ATOM     34  C   UNL A   1      35.824  32.433  33.204  1.00  0.00     0.002 C 
BRANCH  34  35
ATOM     35  C   UNL A   1      34.533  32.725  32.434  1.00  0.00     0.021 C 
BRANCH  35  36
ATOM     36  C   UNL A   1      34.444  34.138  31.865  1.00  0.00     0.116 C 
BRANCH  36  37
ATOM     37  N   UNL A   1      34.225  34.123  30.427  1.00  0.00    -0.352 N 
ATOM     38  C   UNL A   1      35.146  34.140  29.410  1.00  0.00     0.251 C 
ATOM     39  H   UNL A   1      33.283  34.095  30.143  1.00  0.00     0.163 HD
ATOM     40  O   UNL A   1      34.784  34.360  28.258  1.00  0.00    -0.269 OA
BRANCH  38  41
ATOM     41  C   UNL A   1      36.575  33.905  29.708  1.00  0.00     0.039 A 
ATOM     42  C   UNL A   1      37.283  32.971  28.947  1.00  0.00     0.014 A 
ATOM     43  C   UNL A   1      37.211  34.593  30.747  1.00  0.00     0.014 A 
ATOM     44  C   UNL A   1      38.643  32.767  29.193  1.00  0.00     0.010 A 
ATOM     45  C   UNL A   1      38.580  34.440  30.943  1.00  0.00     0.010 A 
ATOM     46  C   UNL A   1      39.309  33.521  30.174  1.00  0.00    -0.014 A 
BRANCH  46  47
ATOM     47  C   UNL A   1      40.766  33.359  30.411  1.00  0.00     0.031 A 
ATOM     48  C   UNL A   1      41.265  32.311  31.369  1.00  0.00     0.074 A 
ATOM     49  C   UNL A   1      41.634  34.198  29.812  1.00  0.00     0.049 A 
ATOM     50  N   UNL A   1      42.490  32.062  31.754  1.00  0.00    -0.248 NA
ATOM     51  C   UNL A   1      40.251  31.448  31.995  1.00  0.00     0.031 C 
ATOM     52  C   UNL A   1      41.267  35.285  28.902  1.00  0.00     0.029 A 
ATOM     53  N   UNL A   1      43.003  34.277  29.887  1.00  0.00    -0.354 N 
ATOM     54  C   UNL A   1      42.393  31.025  32.677  1.00  0.00     0.074 A 
ATOM     55  C   UNL A   1      40.985  30.729  32.832  1.00  0.00     0.031 C 
ATOM     56  C   UNL A   1      42.383  35.908  28.488  1.00  0.00     0.029 A 
ATOM     57  C   UNL A   1      43.539  35.292  29.131  1.00  0.00     0.049 A 
ATOM     58  H   UNL A   1      43.548  33.664  30.432  1.00  0.00     0.167 HD
ATOM     59  C   UNL A   1      43.388  30.368  33.319  1.00  0.00     0.037 A 
ATOM     60  C   UNL A   1      44.818  35.687  28.978  1.00  0.00     0.037 A 
ATOM     61  C   UNL A   1      44.788  30.654  33.141  1.00  0.00     0.049 A 
ATOM     62  C   UNL A   1      45.907  34.938  29.699  1.00  0.00     0.074 A 
ATOM     63  C   UNL A   1      45.876  30.004  33.697  1.00  0.00     0.029 A 
ATOM     64  N   UNL A   1      45.294  31.674  32.348  1.00  0.00    -0.354 N 
ATOM     65  N   UNL A   1      45.802  33.918  30.517  1.00  0.00    -0.248 NA
ATOM     66  C   UNL A   1      47.287  35.388  29.470  1.00  0.00     0.031 C 
ATOM     67  C   UNL A   1      47.038  30.661  33.277  1.00  0.00     0.029 A 
ATOM     68  C   UNL A   1      46.678  31.687  32.418  1.00  0.00     0.049 A 
ATOM     69  H   UNL A   1      44.750  32.297  31.815  1.00  0.00     0.167 HD
ATOM     70  C   UNL A   1      47.104  33.587  30.880  1.00  0.00     0.074 A 
ATOM     71  C   UNL A   1      47.977  34.508  30.183  1.00  0.00     0.031 C 
ATOM     72  C   UNL A   1      47.535  32.608  31.714  1.00  0.00     0.037 A 
BRANCH  59  73
ATOM     73  C   UNL A   1      42.997  29.270  34.273  1.00  0.00     0.058 A 
ATOM     74  C   UNL A   1      42.689  29.536  35.618  1.00  0.00     0.135 A 
ATOM     75  C   UNL A   1      42.898  27.941  33.831  1.00  0.00     0.135 A 
ATOM     76  F   UNL A   1      42.780  30.786  36.098  1.00  0.00    -0.206 F 
ATOM     77  C   UNL A   1      42.332  28.518  36.497  1.00  0.00     0.059 A 
ATOM     78  C   UNL A   1      42.514  26.912  34.686  1.00  0.00     0.059 A 
ATOM     79  F   UNL A   1      43.181  27.629  32.556  1.00  0.00    -0.206 F 
ATOM     80  C   UNL A   1      42.248  27.209  36.022  1.00  0.00     0.060 A 
BRANCH  80  81
ATOM     81  S   UNL A   1      41.782  25.902  37.176  1.00  0.00     0.124 S 
ATOM     82  O   UNL A   1      41.948  24.711  36.348  1.00  0.00    -0.237 OA
ATOM     83  O   UNL A   1      42.759  26.069  38.248  1.00  0.00    -0.237 OA
ATOM     84  O   UNL A   1      40.406  26.233  37.529  1.00  0.00    -0.744 OA
ENDBRANCH  80  81
ENDBRANCH  59  73
BRANCH  60  85
ATOM     85  C   UNL A   1      45.138  36.835  28.089  1.00  0.00     0.058 A 
ATOM     86  C   UNL A   1      44.988  38.157  28.535  1.00  0.00     0.135 A 
ATOM     87  C   UNL A   1      45.620  36.636  26.786  1.00  0.00     0.135 A 
ATOM     88  F   UNL A   1      44.526  38.399  29.771  1.00  0.00    -0.206 F 
ATOM     89  C   UNL A   1      45.291  39.241  27.717  1.00  0.00     0.059 A 
ATOM     90  C   UNL A   1      45.954  37.703  25.958  1.00  0.00     0.059 A 
ATOM     91  F   UNL A   1      45.798  35.391  26.318  1.00  0.00    -0.206 F 
ATOM     92  C   UNL A   1      45.777  39.003  26.430  1.00  0.00     0.060 A 
BRANCH  92  93
ATOM     93  S   UNL A   1      46.219  40.417  25.396  1.00  0.00     0.124 S 
ATOM     94  O   UNL A   1      47.126  41.149  26.271  1.00  0.00    -0.237 OA
ATOM     95  O   UNL A   1      46.829  39.771  24.238  1.00  0.00    -0.237 OA
ATOM     96  O   UNL A   1      44.932  41.059  25.141  1.00  0.00    -0.744 OA
ENDBRANCH  92  93
ENDBRANCH  60  85
BRANCH  72  97
ATOM     97  C   UNL A   1      49.021  32.459  31.895  1.00  0.00     0.058 A 
ATOM     98  C   UNL A   1      49.708  33.116  32.926  1.00  0.00     0.135 A 
ATOM     99  C   UNL A   1      49.755  31.604  31.056  1.00  0.00     0.135 A 
ATOM    100  F   UNL A   1      49.055  33.949  33.752  1.00  0.00    -0.206 F 
ATOM    101  C   UNL A   1      51.078  32.951  33.105  1.00  0.00     0.059 A 
ATOM    102  C   UNL A   1      51.119  31.403  31.235  1.00  0.00     0.059 A 
ATOM    103  F   UNL A   1      49.143  30.944  30.061  1.00  0.00    -0.206 F 
ATOM    104  C   UNL A   1      51.775  32.089  32.255  1.00  0.00     0.060 A 
BRANCH 104 105
ATOM    105  S   UNL A   1      53.546  31.859  32.518  1.00  0.00     0.124 S 
ATOM    106  O   UNL A   1      54.104  32.472  31.317  1.00  0.00    -0.237 OA
ATOM    107  O   UNL A   1      53.774  32.585  33.764  1.00  0.00    -0.237 OA
ATOM    108  O   UNL A   1      53.691  30.409  32.609  1.00  0.00    -0.744 OA
ENDBRANCH 104 105
ENDBRANCH  72  97
ENDBRANCH  46  47
ENDBRANCH  38  41
ENDBRANCH  36  37
ENDBRANCH  35  36
ENDBRANCH  34  35
ENDBRANCH   1  34
TORSDOF 20
ENDMDL
