MODEL 1
REMARK VINA RESULT:     -13.0      0.000      0.000
REMARK SMILES O=C(NCCCCCCNC(=O)c1ccc2c(c1)[C@@H]1C=CC[C@@H]1[C@H](c1ccncc1)N2)c1ccc(-c2c3nc(c(-c4c(F)cc(S(=O)(=O)[O-])cc4F)c4ccc([nH]4)c(-c4c(F)cc(S(=O)(=O)[O-])cc4F)c4nc(c(-c5c(F)cc(S(=O)(=O)[O-])cc5F)c5ccc2[nH]5)C=C4)C=C3)cc1
REMARK SMILES IDX 5 1 4 2 3 3 1 4 2 5 32 7 33 8 97 9 34 10 96 11 35 12 36 13
REMARK SMILES IDX 37 14 90 15 38 16 95 17 89 18 91 19 39 20 94 21 88 22 87 23
REMARK SMILES IDX 40 25 74 26 53 27 73 28 54 29 57 30 72 31 92 32 55 33 56 34
REMARK SMILES IDX 71 36 93 37 58 38 41 39 42 40 51 41 43 42 44 43 50 44 52 45
REMARK SMILES IDX 45 46 46 47 47 48 48 49 49 50 75 51 76 52 85 53 77 54 78 55
REMARK SMILES IDX 84 56 86 57 79 58 80 59 81 60 82 61 83 62 59 63 60 64 69 65
REMARK SMILES IDX 61 66 62 67 68 68 70 69 63 70 64 71 65 72 66 73 67 74 6 75
REMARK SMILES IDX 7 76 8 77 9 78 10 79 11 80 12 82 13 83 14 84 18 85 15 86
REMARK SMILES IDX 17 87 16 88 19 89 31 90 20 91 23 92 24 93 21 95 22 96 25 97
REMARK SMILES IDX 26 98 30 99 27 100 29 101 28 102
REMARK H PARENT 3 6 91 24 57 35 10 81 31 94
REMARK Flexibility Score: inf
ROOT
ATOM      1  C   UNL A   1      37.643  23.325  26.001  1.00  0.00     0.021 C 
ENDROOT
BRANCH   1   2
ATOM      2  C   UNL A   1      38.545  24.431  26.533  1.00  0.00     0.116 C 
BRANCH   2   3
ATOM      3  N   UNL A   1      39.926  24.296  26.102  1.00  0.00    -0.352 N 
ATOM      4  O   UNL A   1      42.118  24.813  25.982  1.00  0.00    -0.269 OA
ATOM      5  C   UNL A   1      41.043  24.958  26.557  1.00  0.00     0.251 C 
ATOM      6  H   UNL A   1      40.084  23.641  25.385  1.00  0.00     0.163 HD
BRANCH   5   7
ATOM      7  C   UNL A   1      40.938  25.866  27.722  1.00  0.00     0.039 A 
ATOM      8  C   UNL A   1      39.867  25.764  28.613  1.00  0.00     0.014 A 
ATOM      9  C   UNL A   1      41.925  26.835  27.925  1.00  0.00     0.014 A 
ATOM     10  C   UNL A   1      39.708  26.715  29.615  1.00  0.00     0.010 A 
ATOM     11  C   UNL A   1      41.809  27.740  28.987  1.00  0.00     0.010 A 
ATOM     12  C   UNL A   1      40.683  27.706  29.823  1.00  0.00    -0.014 A 
BRANCH  12  13
ATOM     13  C   UNL A   1      40.520  28.645  30.964  1.00  0.00     0.031 A 
ATOM     14  C   UNL A   1      41.404  28.565  32.179  1.00  0.00     0.074 A 
ATOM     15  C   UNL A   1      39.591  29.616  30.866  1.00  0.00     0.049 A 
ATOM     16  N   UNL A   1      41.425  29.342  33.231  1.00  0.00    -0.248 NA
ATOM     17  C   UNL A   1      42.386  27.470  32.226  1.00  0.00     0.031 C 
ATOM     18  C   UNL A   1      38.658  29.777  29.746  1.00  0.00     0.029 A 
ATOM     19  N   UNL A   1      39.290  30.662  31.699  1.00  0.00    -0.354 N 
ATOM     20  C   UNL A   1      42.413  28.834  34.066  1.00  0.00     0.074 A 
ATOM     21  C   UNL A   1      42.949  27.659  33.413  1.00  0.00     0.031 C 
ATOM     22  C   UNL A   1      37.924  30.882  29.938  1.00  0.00     0.029 A 
ATOM     23  C   UNL A   1      38.294  31.479  31.217  1.00  0.00     0.049 A 
ATOM     24  H   UNL A   1      39.742  30.813  32.561  1.00  0.00     0.167 HD
ATOM     25  C   UNL A   1      42.841  29.310  35.262  1.00  0.00     0.037 A 
ATOM     26  C   UNL A   1      37.733  32.582  31.745  1.00  0.00     0.037 A 
ATOM     27  C   UNL A   1      42.305  30.484  35.905  1.00  0.00     0.049 A 
ATOM     28  C   UNL A   1      38.230  33.090  33.067  1.00  0.00     0.074 A 
ATOM     29  C   UNL A   1      42.670  31.047  37.117  1.00  0.00     0.029 A 
ATOM     30  N   UNL A   1      41.293  31.280  35.389  1.00  0.00    -0.354 N 
ATOM     31  N   UNL A   1      39.175  32.600  33.833  1.00  0.00    -0.248 NA
ATOM     32  C   UNL A   1      37.587  34.299  33.596  1.00  0.00     0.031 C 
ATOM     33  C   UNL A   1      41.862  32.166  37.345  1.00  0.00     0.029 A 
ATOM     34  C   UNL A   1      41.018  32.324  36.258  1.00  0.00     0.049 A 
ATOM     35  H   UNL A   1      40.837  31.127  34.530  1.00  0.00     0.167 HD
ATOM     36  C   UNL A   1      39.242  33.443  34.935  1.00  0.00     0.074 A 
ATOM     37  C   UNL A   1      38.265  34.491  34.719  1.00  0.00     0.031 C 
ATOM     38  C   UNL A   1      40.036  33.354  36.030  1.00  0.00     0.037 A 
BRANCH  25  39
ATOM     39  C   UNL A   1      43.947  28.565  35.958  1.00  0.00     0.058 A 
ATOM     40  C   UNL A   1      43.678  27.466  36.790  1.00  0.00     0.135 A 
ATOM     41  C   UNL A   1      45.291  28.914  35.750  1.00  0.00     0.135 A 
ATOM     42  F   UNL A   1      42.410  27.098  37.034  1.00  0.00    -0.206 F 
ATOM     43  C   UNL A   1      44.701  26.751  37.404  1.00  0.00     0.059 A 
ATOM     44  C   UNL A   1      46.332  28.199  36.337  1.00  0.00     0.059 A 
ATOM     45  F   UNL A   1      45.604  29.955  34.963  1.00  0.00    -0.206 F 
ATOM     46  C   UNL A   1      46.026  27.125  37.173  1.00  0.00     0.060 A 
BRANCH  46  47
ATOM     47  S   UNL A   1      47.342  26.179  37.969  1.00  0.00     0.124 S 
ATOM     48  O   UNL A   1      46.641  25.621  39.122  1.00  0.00    -0.237 OA
ATOM     49  O   UNL A   1      47.713  25.223  36.931  1.00  0.00    -0.237 OA
ATOM     50  O   UNL A   1      48.349  27.189  38.277  1.00  0.00    -0.744 OA
ENDBRANCH  46  47
ENDBRANCH  25  39
BRANCH  26  51
ATOM     51  C   UNL A   1      36.631  33.267  31.022  1.00  0.00     0.058 A 
ATOM     52  C   UNL A   1      36.882  34.045  29.883  1.00  0.00     0.135 A 
ATOM     53  C   UNL A   1      35.300  33.136  31.447  1.00  0.00     0.135 A 
ATOM     54  F   UNL A   1      38.139  34.200  29.439  1.00  0.00    -0.206 F 
ATOM     55  C   UNL A   1      35.853  34.685  29.199  1.00  0.00     0.059 A 
ATOM     56  C   UNL A   1      34.253  33.743  30.764  1.00  0.00     0.059 A 
ATOM     57  F   UNL A   1      35.007  32.383  32.519  1.00  0.00    -0.206 F 
ATOM     58  C   UNL A   1      34.541  34.527  29.649  1.00  0.00     0.060 A 
BRANCH  58  59
ATOM     59  S   UNL A   1      33.203  35.323  28.734  1.00  0.00     0.124 S 
ATOM     60  O   UNL A   1      33.937  36.288  27.924  1.00  0.00    -0.237 OA
ATOM     61  O   UNL A   1      32.611  34.202  28.012  1.00  0.00    -0.237 OA
ATOM     62  O   UNL A   1      32.369  35.888  29.791  1.00  0.00    -0.744 OA
ENDBRANCH  58  59
ENDBRANCH  26  51
BRANCH  38  63
ATOM     63  C   UNL A   1      39.882  34.429  37.067  1.00  0.00     0.058 A 
ATOM     64  C   UNL A   1      39.015  34.272  38.161  1.00  0.00     0.135 A 
ATOM     65  C   UNL A   1      40.616  35.622  36.975  1.00  0.00     0.135 A 
ATOM     66  F   UNL A   1      38.286  33.153  38.289  1.00  0.00    -0.206 F 
ATOM     67  C   UNL A   1      38.856  35.277  39.109  1.00  0.00     0.059 A 
ATOM     68  C   UNL A   1      40.490  36.630  37.925  1.00  0.00     0.059 A 
ATOM     69  F   UNL A   1      41.464  35.816  35.952  1.00  0.00    -0.206 F 
ATOM     70  C   UNL A   1      39.594  36.454  38.979  1.00  0.00     0.060 A 
BRANCH  70  71
ATOM     71  S   UNL A   1      39.386  37.750  40.219  1.00  0.00     0.124 S 
ATOM     72  O   UNL A   1      38.293  38.531  39.647  1.00  0.00    -0.237 OA
ATOM     73  O   UNL A   1      39.060  36.988  41.421  1.00  0.00    -0.237 OA
ATOM     74  O   UNL A   1      40.688  38.411  40.239  1.00  0.00    -0.744 OA
ENDBRANCH  70  71
ENDBRANCH  38  63
ENDBRANCH  12  13
ENDBRANCH   5   7
ENDBRANCH   2   3
ENDBRANCH   1   2
BRANCH   1  75
ATOM     75  C   UNL A   1      36.777  23.706  24.801  1.00  0.00     0.002 C 
BRANCH  75  76
ATOM     76  C   UNL A   1      36.334  22.549  23.902  1.00  0.00     0.002 C 
BRANCH  76  77
ATOM     77  C   UNL A   1      36.082  21.210  24.603  1.00  0.00     0.021 C 
BRANCH  77  78
ATOM     78  C   UNL A   1      34.637  20.945  25.017  1.00  0.00     0.116 C 
BRANCH  78  79
ATOM     79  N   UNL A   1      34.422  21.148  26.440  1.00  0.00    -0.352 N 
ATOM     80  C   UNL A   1      33.740  22.155  27.076  1.00  0.00     0.251 C 
ATOM     81  H   UNL A   1      34.820  20.467  27.030  1.00  0.00     0.163 HD
ATOM     82  O   UNL A   1      33.784  22.260  28.298  1.00  0.00    -0.269 OA
BRANCH  80  83
ATOM     83  C   UNL A   1      32.963  23.130  26.285  1.00  0.00     0.040 A 
ATOM     84  C   UNL A   1      31.661  22.810  25.907  1.00  0.00     0.016 A 
ATOM     85  C   UNL A   1      33.514  24.361  25.921  1.00  0.00     0.020 A 
ATOM     86  C   UNL A   1      30.906  23.738  25.186  1.00  0.00     0.027 A 
ATOM     87  C   UNL A   1      32.734  25.320  25.254  1.00  0.00    -0.017 A 
ATOM     88  C   UNL A   1      31.438  24.986  24.829  1.00  0.00     0.038 A 
ATOM     89  C   UNL A   1      33.299  26.704  25.014  1.00  0.00     0.049 C 
ATOM     90  N   UNL A   1      30.640  25.891  24.142  1.00  0.00    -0.378 N 
ATOM     91  C   UNL A   1      33.724  27.385  26.293  1.00  0.00    -0.023 C 
ATOM     92  C   UNL A   1      32.265  27.716  24.489  1.00  0.00     0.031 C 
ATOM     93  C   UNL A   1      31.251  27.071  23.543  1.00  0.00     0.114 C 
ATOM     94  H   UNL A   1      29.671  25.737  24.060  1.00  0.00     0.161 HD
ATOM     95  C   UNL A   1      32.837  28.306  26.691  1.00  0.00    -0.030 C 
ATOM     96  C   UNL A   1      31.687  28.399  25.740  1.00  0.00     0.034 C 
BRANCH  93  97
ATOM     97  C   UNL A   1      30.212  28.065  23.046  1.00  0.00    -0.022 A 
ATOM     98  C   UNL A   1      28.854  27.817  23.291  1.00  0.00     0.026 A 
ATOM     99  C   UNL A   1      30.538  29.221  22.327  1.00  0.00     0.026 A 
ATOM    100  C   UNL A   1      27.907  28.720  22.832  1.00  0.00     0.111 A 
ATOM    101  C   UNL A   1      29.520  30.073  21.924  1.00  0.00     0.111 A 
ATOM    102  N   UNL A   1      28.212  29.852  22.167  1.00  0.00    -0.265 NA
ENDBRANCH  93  97
ENDBRANCH  80  83
ENDBRANCH  78  79
ENDBRANCH  77  78
ENDBRANCH  76  77
ENDBRANCH  75  76
ENDBRANCH   1  75
TORSDOF 17
ENDMDL
MODEL 2
REMARK VINA RESULT:     -13.0      6.421     11.992
REMARK SMILES O=C(NCCCCCCNC(=O)c1ccc2c(c1)[C@@H]1C=CC[C@@H]1[C@H](c1ccncc1)N2)c1ccc(-c2c3nc(c(-c4c(F)cc(S(=O)(=O)[O-])cc4F)c4ccc([nH]4)c(-c4c(F)cc(S(=O)(=O)[O-])cc4F)c4nc(c(-c5c(F)cc(S(=O)(=O)[O-])cc5F)c5ccc2[nH]5)C=C4)C=C3)cc1
REMARK SMILES IDX 5 1 4 2 3 3 1 4 2 5 32 7 33 8 97 9 34 10 96 11 35 12 36 13
REMARK SMILES IDX 37 14 90 15 38 16 95 17 89 18 91 19 39 20 94 21 88 22 87 23
REMARK SMILES IDX 40 25 74 26 53 27 73 28 54 29 57 30 72 31 92 32 55 33 56 34
REMARK SMILES IDX 71 36 93 37 58 38 41 39 42 40 51 41 43 42 44 43 50 44 52 45
REMARK SMILES IDX 45 46 46 47 47 48 48 49 49 50 75 51 76 52 85 53 77 54 78 55
REMARK SMILES IDX 84 56 86 57 79 58 80 59 81 60 82 61 83 62 59 63 60 64 69 65
REMARK SMILES IDX 61 66 62 67 68 68 70 69 63 70 64 71 65 72 66 73 67 74 6 75
REMARK SMILES IDX 7 76 8 77 9 78 10 79 11 80 12 82 13 83 14 84 18 85 15 86
REMARK SMILES IDX 17 87 16 88 19 89 31 90 20 91 23 92 24 93 21 95 22 96 25 97
REMARK SMILES IDX 26 98 30 99 27 100 29 101 28 102
REMARK H PARENT 3 6 91 24 57 35 10 81 31 94
REMARK Flexibility Score: inf
ROOT
ATOM      1  C   UNL A   1      34.545  30.918  27.606  1.00  0.00     0.021 C 
ENDROOT
BRANCH   1   2
ATOM      2  C   UNL A   1      35.670  31.453  28.482  1.00  0.00     0.116 C 
BRANCH   2   3
ATOM      3  N   UNL A   1      35.529  31.080  29.879  1.00  0.00    -0.352 N 
ATOM      4  O   UNL A   1      36.087  30.077  31.821  1.00  0.00    -0.269 OA
ATOM      5  C   UNL A   1      36.427  30.432  30.696  1.00  0.00     0.251 C 
ATOM      6  H   UNL A   1      34.674  31.325  30.300  1.00  0.00     0.163 HD
BRANCH   5   7
ATOM      7  C   UNL A   1      37.792  30.138  30.204  1.00  0.00     0.039 A 
ATOM      8  C   UNL A   1      38.063  30.091  28.834  1.00  0.00     0.014 A 
ATOM      9  C   UNL A   1      38.817  29.904  31.126  1.00  0.00     0.014 A 
ATOM     10  C   UNL A   1      39.313  29.672  28.390  1.00  0.00     0.010 A 
ATOM     11  C   UNL A   1      40.098  29.565  30.677  1.00  0.00     0.010 A 
ATOM     12  C   UNL A   1      40.349  29.417  29.304  1.00  0.00    -0.014 A 
BRANCH  12  13
ATOM     13  C   UNL A   1      41.695  29.063  28.784  1.00  0.00     0.031 A 
ATOM     14  C   UNL A   1      42.817  30.066  28.758  1.00  0.00     0.074 A 
ATOM     15  C   UNL A   1      41.912  27.795  28.379  1.00  0.00     0.049 A 
ATOM     16  N   UNL A   1      44.060  29.898  28.386  1.00  0.00    -0.248 NA
ATOM     17  C   UNL A   1      42.505  31.435  29.198  1.00  0.00     0.031 C 
ATOM     18  C   UNL A   1      40.893  26.742  28.334  1.00  0.00     0.029 A 
ATOM     19  N   UNL A   1      43.054  27.168  27.954  1.00  0.00    -0.354 N 
ATOM     20  C   UNL A   1      44.679  31.132  28.541  1.00  0.00     0.074 A 
ATOM     21  C   UNL A   1      43.665  32.052  29.011  1.00  0.00     0.031 C 
ATOM     22  C   UNL A   1      41.465  25.591  27.954  1.00  0.00     0.029 A 
ATOM     23  C   UNL A   1      42.876  25.834  27.676  1.00  0.00     0.049 A 
ATOM     24  H   UNL A   1      43.918  27.629  27.857  1.00  0.00     0.167 HD
ATOM     25  C   UNL A   1      45.976  31.464  28.323  1.00  0.00     0.037 A 
ATOM     26  C   UNL A   1      43.747  24.906  27.238  1.00  0.00     0.037 A 
ATOM     27  C   UNL A   1      46.981  30.541  27.858  1.00  0.00     0.049 A 
ATOM     28  C   UNL A   1      45.177  25.300  27.010  1.00  0.00     0.074 A 
ATOM     29  C   UNL A   1      48.322  30.782  27.605  1.00  0.00     0.029 A 
ATOM     30  N   UNL A   1      46.760  29.200  27.580  1.00  0.00    -0.354 N 
ATOM     31  N   UNL A   1      45.743  26.471  27.176  1.00  0.00    -0.248 NA
ATOM     32  C   UNL A   1      46.086  24.249  26.536  1.00  0.00     0.031 C 
ATOM     33  C   UNL A   1      48.905  29.594  27.150  1.00  0.00     0.029 A 
ATOM     34  C   UNL A   1      47.936  28.602  27.154  1.00  0.00     0.049 A 
ATOM     35  H   UNL A   1      45.895  28.740  27.673  1.00  0.00     0.167 HD
ATOM     36  C   UNL A   1      47.077  26.298  26.830  1.00  0.00     0.074 A 
ATOM     37  C   UNL A   1      47.239  24.902  26.476  1.00  0.00     0.031 C 
ATOM     38  C   UNL A   1      48.077  27.213  26.800  1.00  0.00     0.037 A 
BRANCH  25  39
ATOM     39  C   UNL A   1      46.388  32.887  28.585  1.00  0.00     0.058 A 
ATOM     40  C   UNL A   1      46.346  33.859  27.573  1.00  0.00     0.135 A 
ATOM     41  C   UNL A   1      46.776  33.298  29.871  1.00  0.00     0.135 A 
ATOM     42  F   UNL A   1      45.996  33.519  26.322  1.00  0.00    -0.206 F 
ATOM     43  C   UNL A   1      46.690  35.185  27.822  1.00  0.00     0.059 A 
ATOM     44  C   UNL A   1      47.104  34.623  30.147  1.00  0.00     0.059 A 
ATOM     45  F   UNL A   1      46.832  32.410  30.875  1.00  0.00    -0.206 F 
ATOM     46  C   UNL A   1      47.069  35.557  29.113  1.00  0.00     0.060 A 
BRANCH  46  47
ATOM     47  S   UNL A   1      47.502  37.284  29.421  1.00  0.00     0.124 S 
ATOM     48  O   UNL A   1      46.580  37.624  30.501  1.00  0.00    -0.237 OA
ATOM     49  O   UNL A   1      48.909  37.192  29.797  1.00  0.00    -0.237 OA
ATOM     50  O   UNL A   1      47.238  37.934  28.142  1.00  0.00    -0.744 OA
ENDBRANCH  46  47
ENDBRANCH  25  39
BRANCH  26  51
ATOM     51  C   UNL A   1      43.279  23.520  26.978  1.00  0.00     0.058 A 
ATOM     52  C   UNL A   1      43.080  23.053  25.671  1.00  0.00     0.135 A 
ATOM     53  C   UNL A   1      43.041  22.630  28.036  1.00  0.00     0.135 A 
ATOM     54  F   UNL A   1      43.293  23.868  24.627  1.00  0.00    -0.206 F 
ATOM     55  C   UNL A   1      42.645  21.755  25.422  1.00  0.00     0.059 A 
ATOM     56  C   UNL A   1      42.633  21.321  27.812  1.00  0.00     0.059 A 
ATOM     57  F   UNL A   1      43.239  23.025  29.304  1.00  0.00    -0.206 F 
ATOM     58  C   UNL A   1      42.424  20.896  26.501  1.00  0.00     0.060 A 
BRANCH  58  59
ATOM     59  S   UNL A   1      41.903  19.199  26.173  1.00  0.00     0.124 S 
ATOM     60  O   UNL A   1      42.271  18.535  27.418  1.00  0.00    -0.237 OA
ATOM     61  O   UNL A   1      40.473  19.355  25.930  1.00  0.00    -0.237 OA
ATOM     62  O   UNL A   1      42.693  18.830  25.001  1.00  0.00    -0.744 OA
ENDBRANCH  58  59
ENDBRANCH  26  51
BRANCH  38  63
ATOM     63  C   UNL A   1      49.432  26.721  26.380  1.00  0.00     0.058 A 
ATOM     64  C   UNL A   1      49.863  26.808  25.047  1.00  0.00     0.135 A 
ATOM     65  C   UNL A   1      50.315  26.169  27.323  1.00  0.00     0.135 A 
ATOM     66  F   UNL A   1      49.052  27.321  24.109  1.00  0.00    -0.206 F 
ATOM     67  C   UNL A   1      51.109  26.333  24.655  1.00  0.00     0.059 A 
ATOM     68  C   UNL A   1      51.575  25.710  26.957  1.00  0.00     0.059 A 
ATOM     69  F   UNL A   1      49.953  26.073  28.612  1.00  0.00    -0.206 F 
ATOM     70  C   UNL A   1      51.957  25.780  25.617  1.00  0.00     0.060 A 
BRANCH  70  71
ATOM     71  S   UNL A   1      53.576  25.172  25.101  1.00  0.00     0.124 S 
ATOM     72  O   UNL A   1      53.430  23.735  25.311  1.00  0.00    -0.237 OA
ATOM     73  O   UNL A   1      53.647  25.606  23.709  1.00  0.00    -0.237 OA
ATOM     74  O   UNL A   1      54.497  25.850  26.009  1.00  0.00    -0.744 OA
ENDBRANCH  70  71
ENDBRANCH  38  63
ENDBRANCH  12  13
ENDBRANCH   5   7
ENDBRANCH   2   3
ENDBRANCH   1   2
BRANCH   1  75
ATOM     75  C   UNL A   1      34.631  29.431  27.265  1.00  0.00     0.002 C 
BRANCH  75  76
ATOM     76  C   UNL A   1      33.296  28.688  27.170  1.00  0.00     0.002 C 
BRANCH  76  77
ATOM     77  C   UNL A   1      32.127  29.480  26.576  1.00  0.00     0.021 C 
BRANCH  77  78
ATOM     78  C   UNL A   1      31.695  29.064  25.173  1.00  0.00     0.116 C 
BRANCH  78  79
ATOM     79  N   UNL A   1      32.710  29.349  24.173  1.00  0.00    -0.352 N 
ATOM     80  C   UNL A   1      33.480  28.474  23.448  1.00  0.00     0.251 C 
ATOM     81  H   UNL A   1      32.868  30.304  23.989  1.00  0.00     0.163 HD
ATOM     82  O   UNL A   1      34.403  28.887  22.752  1.00  0.00    -0.269 OA
BRANCH  80  83
ATOM     83  C   UNL A   1      33.209  27.024  23.519  1.00  0.00     0.040 A 
ATOM     84  C   UNL A   1      32.365  26.447  22.573  1.00  0.00     0.016 A 
ATOM     85  C   UNL A   1      33.789  26.233  24.514  1.00  0.00     0.020 A 
ATOM     86  C   UNL A   1      32.127  25.071  22.611  1.00  0.00     0.027 A 
ATOM     87  C   UNL A   1      33.603  24.841  24.514  1.00  0.00    -0.017 A 
ATOM     88  C   UNL A   1      32.717  24.260  23.592  1.00  0.00     0.038 A 
ATOM     89  C   UNL A   1      34.369  23.987  25.500  1.00  0.00     0.049 C 
ATOM     90  N   UNL A   1      32.480  22.892  23.572  1.00  0.00    -0.378 N 
ATOM     91  C   UNL A   1      35.864  24.168  25.384  1.00  0.00    -0.023 C 
ATOM     92  C   UNL A   1      34.251  22.474  25.239  1.00  0.00     0.031 C 
ATOM     93  C   UNL A   1      32.867  22.083  24.721  1.00  0.00     0.114 C 
ATOM     94  H   UNL A   1      32.054  22.473  22.789  1.00  0.00     0.161 HD
ATOM     95  C   UNL A   1      36.446  23.150  24.738  1.00  0.00    -0.030 C 
ATOM     96  C   UNL A   1      35.440  22.121  24.330  1.00  0.00     0.034 C 
BRANCH  93  97
ATOM     97  C   UNL A   1      32.757  20.592  24.435  1.00  0.00    -0.022 A 
ATOM     98  C   UNL A   1      32.368  20.165  23.157  1.00  0.00     0.026 A 
ATOM     99  C   UNL A   1      33.008  19.606  25.397  1.00  0.00     0.026 A 
ATOM    100  C   UNL A   1      32.263  18.807  22.900  1.00  0.00     0.111 A 
ATOM    101  C   UNL A   1      32.891  18.271  25.038  1.00  0.00     0.111 A 
ATOM    102  N   UNL A   1      32.532  17.849  23.809  1.00  0.00    -0.265 NA
ENDBRANCH  93  97
ENDBRANCH  80  83
ENDBRANCH  78  79
ENDBRANCH  77  78
ENDBRANCH  76  77
ENDBRANCH  75  76
ENDBRANCH   1  75
TORSDOF 17
ENDMDL
MODEL 3
REMARK VINA RESULT:     -12.7      4.773      9.335
REMARK SMILES O=C(NCCCCCCNC(=O)c1ccc2c(c1)[C@@H]1C=CC[C@@H]1[C@H](c1ccncc1)N2)c1ccc(-c2c3nc(c(-c4c(F)cc(S(=O)(=O)[O-])cc4F)c4ccc([nH]4)c(-c4c(F)cc(S(=O)(=O)[O-])cc4F)c4nc(c(-c5c(F)cc(S(=O)(=O)[O-])cc5F)c5ccc2[nH]5)C=C4)C=C3)cc1
REMARK SMILES IDX 5 1 4 2 3 3 1 4 2 5 32 7 33 8 97 9 34 10 96 11 35 12 36 13
REMARK SMILES IDX 37 14 90 15 38 16 95 17 89 18 91 19 39 20 94 21 88 22 87 23
REMARK SMILES IDX 40 25 74 26 53 27 73 28 54 29 57 30 72 31 92 32 55 33 56 34
REMARK SMILES IDX 71 36 93 37 58 38 41 39 42 40 51 41 43 42 44 43 50 44 52 45
REMARK SMILES IDX 45 46 46 47 47 48 48 49 49 50 75 51 76 52 85 53 77 54 78 55
REMARK SMILES IDX 84 56 86 57 79 58 80 59 81 60 82 61 83 62 59 63 60 64 69 65
REMARK SMILES IDX 61 66 62 67 68 68 70 69 63 70 64 71 65 72 66 73 67 74 6 75
REMARK SMILES IDX 7 76 8 77 9 78 10 79 11 80 12 82 13 83 14 84 18 85 15 86
REMARK SMILES IDX 17 87 16 88 19 89 31 90 20 91 23 92 24 93 21 95 22 96 25 97
REMARK SMILES IDX 26 98 30 99 27 100 29 101 28 102
REMARK H PARENT 3 6 91 24 57 35 10 81 31 94
REMARK Flexibility Score: inf
ROOT
ATOM      1  C   UNL A   1      33.795  27.597  26.046  1.00  0.00     0.021 C 
ENDROOT
BRANCH   1   2
ATOM      2  C   UNL A   1      33.663  28.090  27.480  1.00  0.00     0.116 C 
BRANCH   2   3
ATOM      3  N   UNL A   1      33.503  29.531  27.574  1.00  0.00    -0.352 N 
ATOM      4  O   UNL A   1      34.069  31.647  28.109  1.00  0.00    -0.269 OA
ATOM      5  C   UNL A   1      34.420  30.480  27.961  1.00  0.00     0.251 C 
ATOM      6  H   UNL A   1      32.615  29.876  27.326  1.00  0.00     0.163 HD
BRANCH   5   7
ATOM      7  C   UNL A   1      35.822  30.085  28.227  1.00  0.00     0.039 A 
ATOM      8  C   UNL A   1      36.228  29.714  29.511  1.00  0.00     0.014 A 
ATOM      9  C   UNL A   1      36.745  30.089  27.177  1.00  0.00     0.014 A 
ATOM     10  C   UNL A   1      37.576  29.486  29.771  1.00  0.00     0.010 A 
ATOM     11  C   UNL A   1      38.087  29.777  27.424  1.00  0.00     0.010 A 
ATOM     12  C   UNL A   1      38.519  29.502  28.730  1.00  0.00    -0.014 A 
BRANCH  12  13
ATOM     13  C   UNL A   1      39.933  29.163  29.036  1.00  0.00     0.031 A 
ATOM     14  C   UNL A   1      40.509  27.815  28.694  1.00  0.00     0.074 A 
ATOM     15  C   UNL A   1      40.716  30.114  29.584  1.00  0.00     0.049 A 
ATOM     16  N   UNL A   1      41.735  27.383  28.847  1.00  0.00    -0.248 NA
ATOM     17  C   UNL A   1      39.594  26.820  28.114  1.00  0.00     0.031 C 
ATOM     18  C   UNL A   1      40.261  31.449  29.982  1.00  0.00     0.029 A 
ATOM     19  N   UNL A   1      42.055  30.119  29.878  1.00  0.00    -0.354 N 
ATOM     20  C   UNL A   1      41.742  26.072  28.389  1.00  0.00     0.074 A 
ATOM     21  C   UNL A   1      40.388  25.764  27.982  1.00  0.00     0.031 C 
ATOM     22  C   UNL A   1      41.310  32.160  30.422  1.00  0.00     0.029 A 
ATOM     23  C   UNL A   1      42.499  31.316  30.388  1.00  0.00     0.049 A 
ATOM     24  H   UNL A   1      42.641  29.341  29.739  1.00  0.00     0.167 HD
ATOM     25  C   UNL A   1      42.784  25.208  28.305  1.00  0.00     0.037 A 
ATOM     26  C   UNL A   1      43.725  31.695  30.793  1.00  0.00     0.037 A 
ATOM     27  C   UNL A   1      44.132  25.523  28.709  1.00  0.00     0.049 A 
ATOM     28  C   UNL A   1      44.861  30.721  30.684  1.00  0.00     0.074 A 
ATOM     29  C   UNL A   1      45.257  24.715  28.665  1.00  0.00     0.029 A 
ATOM     30  N   UNL A   1      44.541  26.743  29.228  1.00  0.00    -0.354 N 
ATOM     31  N   UNL A   1      44.847  29.488  30.235  1.00  0.00    -0.248 NA
ATOM     32  C   UNL A   1      46.179  31.186  31.135  1.00  0.00     0.031 C 
ATOM     33  C   UNL A   1      46.339  25.438  29.181  1.00  0.00     0.029 A 
ATOM     34  C   UNL A   1      45.897  26.708  29.513  1.00  0.00     0.049 A 
ATOM     35  H   UNL A   1      43.954  27.519  29.373  1.00  0.00     0.167 HD
ATOM     36  C   UNL A   1      46.154  29.031  30.346  1.00  0.00     0.074 A 
ATOM     37  C   UNL A   1      46.937  30.130  30.875  1.00  0.00     0.031 C 
ATOM     38  C   UNL A   1      46.659  27.810  30.045  1.00  0.00     0.037 A 
BRANCH  25  39
ATOM     39  C   UNL A   1      42.513  23.835  27.753  1.00  0.00     0.058 A 
ATOM     40  C   UNL A   1      42.516  23.589  26.370  1.00  0.00     0.135 A 
ATOM     41  C   UNL A   1      42.302  22.744  28.611  1.00  0.00     0.135 A 
ATOM     42  F   UNL A   1      42.699  24.598  25.504  1.00  0.00    -0.206 F 
ATOM     43  C   UNL A   1      42.303  22.313  25.858  1.00  0.00     0.059 A 
ATOM     44  C   UNL A   1      42.109  21.454  28.120  1.00  0.00     0.059 A 
ATOM     45  F   UNL A   1      42.290  22.923  29.940  1.00  0.00    -0.206 F 
ATOM     46  C   UNL A   1      42.100  21.251  26.741  1.00  0.00     0.060 A 
BRANCH  46  47
ATOM     47  S   UNL A   1      41.836  19.599  26.059  1.00  0.00     0.124 S 
ATOM     48  O   UNL A   1      42.254  18.756  27.176  1.00  0.00    -0.237 OA
ATOM     49  O   UNL A   1      40.406  19.604  25.771  1.00  0.00    -0.237 OA
ATOM     50  O   UNL A   1      42.709  19.571  24.891  1.00  0.00    -0.744 OA
ENDBRANCH  46  47
ENDBRANCH  25  39
BRANCH  26  51
ATOM     51  C   UNL A   1      43.930  33.058  31.348  1.00  0.00     0.058 A 
ATOM     52  C   UNL A   1      43.853  33.301  32.727  1.00  0.00     0.135 A 
ATOM     53  C   UNL A   1      44.226  34.141  30.506  1.00  0.00     0.135 A 
ATOM     54  F   UNL A   1      43.572  32.297  33.570  1.00  0.00    -0.206 F 
ATOM     55  C   UNL A   1      44.048  34.574  33.252  1.00  0.00     0.059 A 
ATOM     56  C   UNL A   1      44.452  35.416  31.010  1.00  0.00     0.059 A 
ATOM     57  F   UNL A   1      44.332  33.954  29.181  1.00  0.00    -0.206 F 
ATOM     58  C   UNL A   1      44.347  35.626  32.384  1.00  0.00     0.060 A 
BRANCH  58  59
ATOM     59  S   UNL A   1      44.642  37.269  33.072  1.00  0.00     0.124 S 
ATOM     60  O   UNL A   1      44.759  38.075  31.863  1.00  0.00    -0.237 OA
ATOM     61  O   UNL A   1      43.444  37.490  33.874  1.00  0.00    -0.237 OA
ATOM     62  O   UNL A   1      45.874  37.091  33.836  1.00  0.00    -0.744 OA
ENDBRANCH  58  59
ENDBRANCH  26  51
BRANCH  38  63
ATOM     63  C   UNL A   1      48.129  27.610  30.273  1.00  0.00     0.058 A 
ATOM     64  C   UNL A   1      49.069  27.871  29.263  1.00  0.00     0.135 A 
ATOM     65  C   UNL A   1      48.606  27.165  31.517  1.00  0.00     0.135 A 
ATOM     66  F   UNL A   1      48.662  28.290  28.055  1.00  0.00    -0.206 F 
ATOM     67  C   UNL A   1      50.429  27.665  29.468  1.00  0.00     0.059 A 
ATOM     68  C   UNL A   1      49.963  26.976  31.751  1.00  0.00     0.059 A 
ATOM     69  F   UNL A   1      47.748  26.911  32.517  1.00  0.00    -0.206 F 
ATOM     70  C   UNL A   1      50.866  27.212  30.714  1.00  0.00     0.060 A 
BRANCH  70  71
ATOM     71  S   UNL A   1      52.634  26.954  30.972  1.00  0.00     0.124 S 
ATOM     72  O   UNL A   1      52.928  27.946  32.002  1.00  0.00    -0.237 OA
ATOM     73  O   UNL A   1      52.690  25.560  31.401  1.00  0.00    -0.237 OA
ATOM     74  O   UNL A   1      53.210  27.222  29.658  1.00  0.00    -0.744 OA
ENDBRANCH  70  71
ENDBRANCH  38  63
ENDBRANCH  12  13
ENDBRANCH   5   7
ENDBRANCH   2   3
ENDBRANCH   1   2
BRANCH   1  75
ATOM     75  C   UNL A   1      33.599  26.094  25.849  1.00  0.00     0.002 C 
BRANCH  75  76
ATOM     76  C   UNL A   1      34.762  25.349  25.190  1.00  0.00     0.002 C 
BRANCH  76  77
ATOM     77  C   UNL A   1      34.929  23.878  25.583  1.00  0.00     0.021 C 
BRANCH  77  78
ATOM     78  C   UNL A   1      33.956  23.365  26.640  1.00  0.00     0.116 C 
BRANCH  78  79
ATOM     79  N   UNL A   1      33.149  22.256  26.159  1.00  0.00    -0.352 N 
ATOM     80  C   UNL A   1      31.906  22.281  25.576  1.00  0.00     0.251 C 
ATOM     81  H   UNL A   1      33.549  21.363  26.266  1.00  0.00     0.163 HD
ATOM     82  O   UNL A   1      31.297  21.236  25.367  1.00  0.00    -0.269 OA
BRANCH  80  83
ATOM     83  C   UNL A   1      31.290  23.573  25.214  1.00  0.00     0.040 A 
ATOM     84  C   UNL A   1      30.512  24.239  26.158  1.00  0.00     0.016 A 
ATOM     85  C   UNL A   1      31.484  24.130  23.948  1.00  0.00     0.020 A 
ATOM     86  C   UNL A   1      29.952  25.478  25.838  1.00  0.00     0.027 A 
ATOM     87  C   UNL A   1      30.976  25.405  23.646  1.00  0.00    -0.017 A 
ATOM     88  C   UNL A   1      30.152  26.060  24.577  1.00  0.00     0.038 A 
ATOM     89  C   UNL A   1      31.334  26.058  22.329  1.00  0.00     0.049 C 
ATOM     90  N   UNL A   1      29.605  27.309  24.313  1.00  0.00    -0.378 N 
ATOM     91  C   UNL A   1      32.826  26.190  22.136  1.00  0.00    -0.023 C 
ATOM     92  C   UNL A   1      30.908  27.534  22.229  1.00  0.00     0.031 C 
ATOM     93  C   UNL A   1      29.582  27.804  22.942  1.00  0.00     0.114 C 
ATOM     94  H   UNL A   1      29.235  27.854  25.044  1.00  0.00     0.161 HD
ATOM     95  C   UNL A   1      33.253  27.440  22.356  1.00  0.00    -0.030 C 
ATOM     96  C   UNL A   1      32.119  28.345  22.719  1.00  0.00     0.034 C 
BRANCH  93  97
ATOM     97  C   UNL A   1      29.174  29.268  22.868  1.00  0.00    -0.022 A 
ATOM     98  C   UNL A   1      28.389  29.707  21.792  1.00  0.00     0.026 A 
ATOM     99  C   UNL A   1      29.562  30.222  23.817  1.00  0.00     0.026 A 
ATOM    100  C   UNL A   1      28.023  31.043  21.722  1.00  0.00     0.111 A 
ATOM    101  C   UNL A   1      29.131  31.533  23.669  1.00  0.00     0.111 A 
ATOM    102  N   UNL A   1      28.364  31.963  22.647  1.00  0.00    -0.265 NA
ENDBRANCH  93  97
ENDBRANCH  80  83
ENDBRANCH  78  79
ENDBRANCH  77  78
ENDBRANCH  76  77
ENDBRANCH  75  76
ENDBRANCH   1  75
TORSDOF 17
ENDMDL
