MODEL 1
REMARK VINA RESULT:     -11.4      0.000      0.000
REMARK SMILES O=C(NCCCCCCNC(=O)c1ccc(-c2c3nc(c(-c4c(F)cc(S(=O)(=O)[O-])cc4F)c4ccc([nH]4)c(-c4c(F)cc(S(=O)(=O)[O-])cc4F)c4nc(c(-c5c(F)cc(S(=O)(=O)[O-])cc5F)c5ccc2[nH]5)C=C4)C=C3)cc1)C1=Cc2ccc(Cl)c(Cl)c2O[C@@H]1C(F)(F)F
REMARK SMILES IDX 7 1 6 2 5 3 4 4 3 5 1 6 2 7 79 9 80 10 90 11 81 12 89 13
REMARK SMILES IDX 82 14 88 15 83 16 86 17 84 18 87 19 85 20 91 21 92 22 93 23
REMARK SMILES IDX 94 24 8 25 9 26 10 27 11 28 12 30 13 31 14 32 78 33 15 34
REMARK SMILES IDX 77 35 16 36 17 37 18 38 71 39 19 40 76 41 70 42 72 43 20 44
REMARK SMILES IDX 75 45 69 46 68 47 21 49 55 50 34 51 54 52 35 53 38 54 53 55
REMARK SMILES IDX 73 56 36 57 37 58 52 60 74 61 39 62 22 63 23 64 32 65 24 66
REMARK SMILES IDX 25 67 31 68 33 69 26 70 27 71 28 72 29 73 30 74 56 75 57 76
REMARK SMILES IDX 66 77 58 78 59 79 65 80 67 81 60 82 61 83 62 84 63 85 64 86
REMARK SMILES IDX 40 87 41 88 50 89 42 90 43 91 49 92 51 93 44 94 45 95 46 96
REMARK SMILES IDX 47 97 48 98
REMARK H PARENT 3 8 10 29 72 48 38 59
REMARK Flexibility Score: inf
ROOT
ATOM      1  C   UNL A   1      32.216  26.577  25.299  1.00  0.00     0.002 C 
ENDROOT
BRANCH   1   2
ATOM      2  C   UNL A   1      30.757  26.377  25.727  1.00  0.00     0.002 C 
BRANCH   2   3
ATOM      3  C   UNL A   1      30.333  24.965  26.123  1.00  0.00     0.021 C 
BRANCH   3   4
ATOM      4  C   UNL A   1      31.224  23.820  25.649  1.00  0.00     0.116 C 
BRANCH   4   5
ATOM      5  N   UNL A   1      32.040  23.204  26.680  1.00  0.00    -0.352 N 
ATOM      6  O   UNL A   1      33.915  22.608  27.766  1.00  0.00    -0.270 OA
ATOM      7  C   UNL A   1      33.397  23.035  26.734  1.00  0.00     0.251 C 
ATOM      8  H   UNL A   1      31.544  22.856  27.456  1.00  0.00     0.163 HD
BRANCH   7   9
ATOM      9  C   UNL A   1      34.296  23.436  25.612  1.00  0.00     0.067 C 
ATOM     10  C   UNL A   1      35.357  24.238  25.802  1.00  0.00     0.025 C 
ATOM     11  C   UNL A   1      34.340  22.413  24.502  1.00  0.00     0.314 C 
ATOM     12  C   UNL A   1      36.637  23.503  25.657  1.00  0.00     0.019 A 
ATOM     13  O   UNL A   1      35.550  21.617  24.563  1.00  0.00    -0.474 OA
ATOM     14  C   UNL A   1      37.774  24.040  26.271  1.00  0.00     0.013 A 
ATOM     15  C   UNL A   1      36.656  22.189  25.154  1.00  0.00     0.148 A 
ATOM     16  C   UNL A   1      38.897  23.239  26.467  1.00  0.00     0.023 A 
ATOM     17  C   UNL A   1      37.791  21.387  25.347  1.00  0.00     0.102 A 
ATOM     18  C   UNL A   1      38.897  21.908  26.032  1.00  0.00     0.063 A 
ATOM     19  Cl  UNL A   1      37.754  19.731  24.829  1.00  0.00    -0.079 Cl
ATOM     20  Cl  UNL A   1      40.270  20.944  26.447  1.00  0.00    -0.083 Cl
BRANCH  11  21
ATOM     21  C   UNL A   1      34.151  23.051  23.116  1.00  0.00     0.429 C 
ATOM     22  F   UNL A   1      35.309  23.065  22.413  1.00  0.00    -0.167 F 
ATOM     23  F   UNL A   1      33.250  22.367  22.369  1.00  0.00    -0.167 F 
ATOM     24  F   UNL A   1      33.711  24.330  23.192  1.00  0.00    -0.167 F 
ENDBRANCH  11  21
ENDBRANCH   7   9
ENDBRANCH   4   5
ENDBRANCH   3   4
ENDBRANCH   2   3
ENDBRANCH   1   2
BRANCH   1  25
ATOM     25  C   UNL A   1      33.183  27.164  26.333  1.00  0.00     0.021 C 
BRANCH  25  26
ATOM     26  C   UNL A   1      34.142  28.251  25.847  1.00  0.00     0.116 C 
BRANCH  26  27
ATOM     27  N   UNL A   1      33.746  29.587  26.252  1.00  0.00    -0.352 N 
ATOM     28  C   UNL A   1      34.313  30.449  27.159  1.00  0.00     0.251 C 
ATOM     29  H   UNL A   1      32.939  29.931  25.804  1.00  0.00     0.163 HD
ATOM     30  O   UNL A   1      33.729  31.499  27.423  1.00  0.00    -0.269 OA
BRANCH  28  31
ATOM     31  C   UNL A   1      35.595  30.136  27.839  1.00  0.00     0.039 A 
ATOM     32  C   UNL A   1      35.548  29.647  29.150  1.00  0.00     0.014 A 
ATOM     33  C   UNL A   1      36.835  30.368  27.238  1.00  0.00     0.014 A 
ATOM     34  C   UNL A   1      36.731  29.347  29.835  1.00  0.00     0.010 A 
ATOM     35  C   UNL A   1      38.016  30.010  27.899  1.00  0.00     0.010 A 
ATOM     36  C   UNL A   1      37.976  29.499  29.206  1.00  0.00    -0.014 A 
BRANCH  36  37
ATOM     37  C   UNL A   1      39.239  29.135  29.907  1.00  0.00     0.031 A 
ATOM     38  C   UNL A   1      39.672  29.884  31.141  1.00  0.00     0.074 A 
ATOM     39  C   UNL A   1      40.021  28.156  29.411  1.00  0.00     0.049 A 
ATOM     40  N   UNL A   1      40.766  29.754  31.846  1.00  0.00    -0.248 NA
ATOM     41  C   UNL A   1      38.765  30.933  31.633  1.00  0.00     0.031 C 
ATOM     42  C   UNL A   1      39.738  27.379  28.202  1.00  0.00     0.029 A 
ATOM     43  N   UNL A   1      41.220  27.652  29.853  1.00  0.00    -0.354 N 
ATOM     44  C   UNL A   1      40.684  30.702  32.859  1.00  0.00     0.074 A 
ATOM     45  C   UNL A   1      39.455  31.436  32.646  1.00  0.00     0.031 C 
ATOM     46  C   UNL A   1      40.728  26.494  28.005  1.00  0.00     0.029 A 
ATOM     47  C   UNL A   1      41.732  26.658  29.052  1.00  0.00     0.049 A 
ATOM     48  H   UNL A   1      41.670  27.972  30.667  1.00  0.00     0.167 HD
ATOM     49  C   UNL A   1      41.540  30.926  33.886  1.00  0.00     0.037 A 
ATOM     50  C   UNL A   1      42.884  25.965  29.141  1.00  0.00     0.037 A 
ATOM     51  C   UNL A   1      42.752  30.181  34.109  1.00  0.00     0.049 A 
ATOM     52  C   UNL A   1      43.818  26.230  30.290  1.00  0.00     0.074 A 
ATOM     53  C   UNL A   1      43.666  30.313  35.141  1.00  0.00     0.029 A 
ATOM     54  N   UNL A   1      43.220  29.162  33.292  1.00  0.00    -0.354 N 
ATOM     55  N   UNL A   1      43.701  27.104  31.262  1.00  0.00    -0.248 NA
ATOM     56  C   UNL A   1      45.037  25.412  30.362  1.00  0.00     0.031 C 
ATOM     57  C   UNL A   1      44.703  29.396  34.929  1.00  0.00     0.029 A 
ATOM     58  C   UNL A   1      44.413  28.664  33.789  1.00  0.00     0.049 A 
ATOM     59  H   UNL A   1      42.769  28.840  32.478  1.00  0.00     0.167 HD
ATOM     60  C   UNL A   1      44.818  26.923  32.072  1.00  0.00     0.074 A 
ATOM     61  C   UNL A   1      45.592  25.849  31.485  1.00  0.00     0.031 C 
ATOM     62  C   UNL A   1      45.171  27.589  33.199  1.00  0.00     0.037 A 
BRANCH  49  63
ATOM     63  C   UNL A   1      41.190  32.018  34.860  1.00  0.00     0.058 A 
ATOM     64  C   UNL A   1      41.638  33.336  34.674  1.00  0.00     0.135 A 
ATOM     65  C   UNL A   1      40.365  31.758  35.966  1.00  0.00     0.135 A 
ATOM     66  F   UNL A   1      42.440  33.638  33.641  1.00  0.00    -0.206 F 
ATOM     67  C   UNL A   1      41.303  34.351  35.565  1.00  0.00     0.059 A 
ATOM     68  C   UNL A   1      39.995  32.763  36.856  1.00  0.00     0.059 A 
ATOM     69  F   UNL A   1      39.907  30.516  36.192  1.00  0.00    -0.206 F 
ATOM     70  C   UNL A   1      40.483  34.055  36.654  1.00  0.00     0.060 A 
BRANCH  70  71
ATOM     71  S   UNL A   1      40.053  35.383  37.798  1.00  0.00     0.124 S 
ATOM     72  O   UNL A   1      38.754  34.931  38.290  1.00  0.00    -0.237 OA
ATOM     73  O   UNL A   1      41.148  35.329  38.765  1.00  0.00    -0.237 OA
ATOM     74  O   UNL A   1      40.026  36.568  36.952  1.00  0.00    -0.744 OA
ENDBRANCH  70  71
ENDBRANCH  49  63
BRANCH  50  75
ATOM     75  C   UNL A   1      43.217  24.945  28.111  1.00  0.00     0.058 A 
ATOM     76  C   UNL A   1      43.881  25.299  26.927  1.00  0.00     0.135 A 
ATOM     77  C   UNL A   1      42.883  23.593  28.294  1.00  0.00     0.135 A 
ATOM     78  F   UNL A   1      44.214  26.580  26.704  1.00  0.00    -0.206 F 
ATOM     79  C   UNL A   1      44.183  24.355  25.951  1.00  0.00     0.059 A 
ATOM     80  C   UNL A   1      43.199  22.627  27.344  1.00  0.00     0.059 A 
ATOM     81  F   UNL A   1      42.263  23.200  29.417  1.00  0.00    -0.206 F 
ATOM     82  C   UNL A   1      43.838  23.020  26.170  1.00  0.00     0.060 A 
BRANCH  82  83
ATOM     83  S   UNL A   1      44.270  21.795  24.914  1.00  0.00     0.124 S 
ATOM     84  O   UNL A   1      43.917  22.498  23.686  1.00  0.00    -0.237 OA
ATOM     85  O   UNL A   1      45.697  21.601  25.151  1.00  0.00    -0.237 OA
ATOM     86  O   UNL A   1      43.426  20.655  25.257  1.00  0.00    -0.744 OA
ENDBRANCH  82  83
ENDBRANCH  50  75
BRANCH  62  87
ATOM     87  C   UNL A   1      46.432  27.157  33.893  1.00  0.00     0.058 A 
ATOM     88  C   UNL A   1      46.434  26.129  34.848  1.00  0.00     0.135 A 
ATOM     89  C   UNL A   1      47.664  27.745  33.561  1.00  0.00     0.135 A 
ATOM     90  F   UNL A   1      45.282  25.538  35.205  1.00  0.00    -0.206 F 
ATOM     91  C   UNL A   1      47.609  25.712  35.466  1.00  0.00     0.059 A 
ATOM     92  C   UNL A   1      48.855  27.327  34.147  1.00  0.00     0.059 A 
ATOM     93  F   UNL A   1      47.720  28.726  32.645  1.00  0.00    -0.206 F 
ATOM     94  C   UNL A   1      48.815  26.317  35.107  1.00  0.00     0.060 A 
BRANCH  94  95
ATOM     95  S   UNL A   1      50.338  25.743  35.890  1.00  0.00     0.124 S 
ATOM     96  O   UNL A   1      51.329  26.630  35.290  1.00  0.00    -0.237 OA
ATOM     97  O   UNL A   1      50.065  25.966  37.307  1.00  0.00    -0.237 OA
ATOM     98  O   UNL A   1      50.420  24.343  35.487  1.00  0.00    -0.744 OA
ENDBRANCH  94  95
ENDBRANCH  62  87
ENDBRANCH  36  37
ENDBRANCH  28  31
ENDBRANCH  26  27
ENDBRANCH  25  26
ENDBRANCH   1  25
TORSDOF 17
ENDMDL
MODEL 2
REMARK VINA RESULT:     -11.4      3.134      4.179
REMARK SMILES O=C(NCCCCCCNC(=O)c1ccc(-c2c3nc(c(-c4c(F)cc(S(=O)(=O)[O-])cc4F)c4ccc([nH]4)c(-c4c(F)cc(S(=O)(=O)[O-])cc4F)c4nc(c(-c5c(F)cc(S(=O)(=O)[O-])cc5F)c5ccc2[nH]5)C=C4)C=C3)cc1)C1=Cc2ccc(Cl)c(Cl)c2O[C@@H]1C(F)(F)F
REMARK SMILES IDX 7 1 6 2 5 3 4 4 3 5 1 6 2 7 79 9 80 10 90 11 81 12 89 13
REMARK SMILES IDX 82 14 88 15 83 16 86 17 84 18 87 19 85 20 91 21 92 22 93 23
REMARK SMILES IDX 94 24 8 25 9 26 10 27 11 28 12 30 13 31 14 32 78 33 15 34
REMARK SMILES IDX 77 35 16 36 17 37 18 38 71 39 19 40 76 41 70 42 72 43 20 44
REMARK SMILES IDX 75 45 69 46 68 47 21 49 55 50 34 51 54 52 35 53 38 54 53 55
REMARK SMILES IDX 73 56 36 57 37 58 52 60 74 61 39 62 22 63 23 64 32 65 24 66
REMARK SMILES IDX 25 67 31 68 33 69 26 70 27 71 28 72 29 73 30 74 56 75 57 76
REMARK SMILES IDX 66 77 58 78 59 79 65 80 67 81 60 82 61 83 62 84 63 85 64 86
REMARK SMILES IDX 40 87 41 88 50 89 42 90 43 91 49 92 51 93 44 94 45 95 46 96
REMARK SMILES IDX 47 97 48 98
REMARK H PARENT 3 8 10 29 72 48 38 59
REMARK Flexibility Score: inf
ROOT
ATOM      1  C   UNL A   1      33.038  29.201  24.601  1.00  0.00     0.002 C 
ENDROOT
BRANCH   1   2
ATOM      2  C   UNL A   1      31.509  29.105  24.674  1.00  0.00     0.002 C 
BRANCH   2   3
ATOM      3  C   UNL A   1      30.739  29.213  23.360  1.00  0.00     0.021 C 
BRANCH   3   4
ATOM      4  C   UNL A   1      30.288  27.905  22.717  1.00  0.00     0.116 C 
BRANCH   4   5
ATOM      5  N   UNL A   1      31.336  27.148  22.054  1.00  0.00    -0.352 N 
ATOM      6  O   UNL A   1      32.595  25.362  21.532  1.00  0.00    -0.270 OA
ATOM      7  C   UNL A   1      31.786  25.880  22.301  1.00  0.00     0.251 C 
ATOM      8  H   UNL A   1      31.789  27.617  21.316  1.00  0.00     0.163 HD
BRANCH   7   9
ATOM      9  C   UNL A   1      31.262  25.054  23.429  1.00  0.00     0.067 C 
ATOM     10  C   UNL A   1      30.961  23.753  23.278  1.00  0.00     0.025 C 
ATOM     11  C   UNL A   1      31.720  25.548  24.780  1.00  0.00     0.314 C 
ATOM     12  C   UNL A   1      31.926  22.878  23.988  1.00  0.00     0.019 A 
ATOM     13  O   UNL A   1      32.798  24.732  25.304  1.00  0.00    -0.474 OA
ATOM     14  C   UNL A   1      32.047  21.552  23.559  1.00  0.00     0.013 A 
ATOM     15  C   UNL A   1      32.870  23.425  24.876  1.00  0.00     0.148 A 
ATOM     16  C   UNL A   1      33.157  20.800  23.939  1.00  0.00     0.023 A 
ATOM     17  C   UNL A   1      33.984  22.664  25.263  1.00  0.00     0.102 A 
ATOM     18  C   UNL A   1      34.137  21.362  24.766  1.00  0.00     0.063 A 
ATOM     19  Cl  UNL A   1      35.202  23.394  26.261  1.00  0.00    -0.079 Cl
ATOM     20  Cl  UNL A   1      35.551  20.415  25.066  1.00  0.00    -0.083 Cl
BRANCH  11  21
ATOM     21  C   UNL A   1      30.559  25.663  25.782  1.00  0.00     0.429 C 
ATOM     22  F   UNL A   1      29.382  25.894  25.153  1.00  0.00    -0.167 F 
ATOM     23  F   UNL A   1      30.403  24.524  26.498  1.00  0.00    -0.167 F 
ATOM     24  F   UNL A   1      30.743  26.667  26.672  1.00  0.00    -0.167 F 
ENDBRANCH  11  21
ENDBRANCH   7   9
ENDBRANCH   4   5
ENDBRANCH   3   4
ENDBRANCH   2   3
ENDBRANCH   1   2
BRANCH   1  25
ATOM     25  C   UNL A   1      33.851  28.166  25.385  1.00  0.00     0.021 C 
BRANCH  25  26
ATOM     26  C   UNL A   1      33.839  28.284  26.909  1.00  0.00     0.116 C 
BRANCH  26  27
ATOM     27  N   UNL A   1      33.670  29.647  27.377  1.00  0.00    -0.352 N 
ATOM     28  C   UNL A   1      34.529  30.465  28.070  1.00  0.00     0.251 C 
ATOM     29  H   UNL A   1      32.797  30.051  27.164  1.00  0.00     0.163 HD
ATOM     30  O   UNL A   1      34.120  31.557  28.462  1.00  0.00    -0.269 OA
BRANCH  28  31
ATOM     31  C   UNL A   1      35.924  30.056  28.373  1.00  0.00     0.039 A 
ATOM     32  C   UNL A   1      36.875  30.134  27.348  1.00  0.00     0.014 A 
ATOM     33  C   UNL A   1      36.299  29.547  29.619  1.00  0.00     0.014 A 
ATOM     34  C   UNL A   1      38.200  29.752  27.584  1.00  0.00     0.010 A 
ATOM     35  C   UNL A   1      37.636  29.223  29.873  1.00  0.00     0.010 A 
ATOM     36  C   UNL A   1      38.601  29.319  28.858  1.00  0.00    -0.014 A 
BRANCH  36  37
ATOM     37  C   UNL A   1      40.019  28.958  29.134  1.00  0.00     0.031 A 
ATOM     38  C   UNL A   1      40.964  29.971  29.725  1.00  0.00     0.074 A 
ATOM     39  C   UNL A   1      40.471  27.729  28.814  1.00  0.00     0.049 A 
ATOM     40  N   UNL A   1      42.245  29.862  29.974  1.00  0.00    -0.248 NA
ATOM     41  C   UNL A   1      40.401  31.289  30.059  1.00  0.00     0.031 C 
ATOM     42  C   UNL A   1      39.670  26.668  28.200  1.00  0.00     0.029 A 
ATOM     43  N   UNL A   1      41.717  27.166  28.949  1.00  0.00    -0.354 N 
ATOM     44  C   UNL A   1      42.641  31.091  30.487  1.00  0.00     0.074 A 
ATOM     45  C   UNL A   1      41.476  31.949  30.466  1.00  0.00     0.031 C 
ATOM     46  C   UNL A   1      40.441  25.582  28.021  1.00  0.00     0.029 A 
ATOM     47  C   UNL A   1      41.796  25.877  28.476  1.00  0.00     0.049 A 
ATOM     48  H   UNL A   1      42.481  27.641  29.348  1.00  0.00     0.167 HD
ATOM     49  C   UNL A   1      43.856  31.465  30.956  1.00  0.00     0.037 A 
ATOM     50  C   UNL A   1      42.842  25.031  28.404  1.00  0.00     0.037 A 
ATOM     51  C   UNL A   1      45.011  30.604  30.996  1.00  0.00     0.049 A 
ATOM     52  C   UNL A   1      44.182  25.467  28.931  1.00  0.00     0.074 A 
ATOM     53  C   UNL A   1      46.277  30.882  31.483  1.00  0.00     0.029 A 
ATOM     54  N   UNL A   1      45.041  29.296  30.535  1.00  0.00    -0.354 N 
ATOM     55  N   UNL A   1      44.526  26.621  29.452  1.00  0.00    -0.248 NA
ATOM     56  C   UNL A   1      45.275  24.487  28.869  1.00  0.00     0.031 C 
ATOM     57  C   UNL A   1      47.081  29.754  31.287  1.00  0.00     0.029 A 
ATOM     58  C   UNL A   1      46.305  28.758  30.716  1.00  0.00     0.049 A 
ATOM     59  H   UNL A   1      44.277  28.819  30.138  1.00  0.00     0.167 HD
ATOM     60  C   UNL A   1      45.867  26.496  29.801  1.00  0.00     0.074 A 
ATOM     61  C   UNL A   1      46.268  25.152  29.445  1.00  0.00     0.031 C 
ATOM     62  C   UNL A   1      46.691  27.414  30.364  1.00  0.00     0.037 A 
BRANCH  49  63
ATOM     63  C   UNL A   1      44.002  32.868  31.478  1.00  0.00     0.058 A 
ATOM     64  C   UNL A   1      43.906  33.152  32.851  1.00  0.00     0.135 A 
ATOM     65  C   UNL A   1      44.281  33.934  30.608  1.00  0.00     0.135 A 
ATOM     66  F   UNL A   1      43.627  32.173  33.726  1.00  0.00    -0.206 F 
ATOM     67  C   UNL A   1      44.056  34.447  33.338  1.00  0.00     0.059 A 
ATOM     68  C   UNL A   1      44.461  35.233  31.076  1.00  0.00     0.059 A 
ATOM     69  F   UNL A   1      44.384  33.719  29.287  1.00  0.00    -0.206 F 
ATOM     70  C   UNL A   1      44.331  35.481  32.443  1.00  0.00     0.060 A 
BRANCH  70  71
ATOM     71  S   UNL A   1      44.527  37.155  33.090  1.00  0.00     0.124 S 
ATOM     72  O   UNL A   1      43.141  37.520  33.373  1.00  0.00    -0.237 OA
ATOM     73  O   UNL A   1      45.375  36.940  34.261  1.00  0.00    -0.237 OA
ATOM     74  O   UNL A   1      45.153  37.875  31.990  1.00  0.00    -0.744 OA
ENDBRANCH  70  71
ENDBRANCH  49  63
BRANCH  50  75
ATOM     75  C   UNL A   1      42.663  23.678  27.813  1.00  0.00     0.058 A 
ATOM     76  C   UNL A   1      42.674  23.486  26.423  1.00  0.00     0.135 A 
ATOM     77  C   UNL A   1      42.481  22.548  28.628  1.00  0.00     0.135 A 
ATOM     78  F   UNL A   1      42.837  24.536  25.604  1.00  0.00    -0.206 F 
ATOM     79  C   UNL A   1      42.492  22.227  25.860  1.00  0.00     0.059 A 
ATOM     80  C   UNL A   1      42.324  21.275  28.088  1.00  0.00     0.059 A 
ATOM     81  F   UNL A   1      42.479  22.676  29.963  1.00  0.00    -0.206 F 
ATOM     82  C   UNL A   1      42.318  21.127  26.702  1.00  0.00     0.060 A 
BRANCH  82  83
ATOM     83  S   UNL A   1      42.121  19.490  25.963  1.00  0.00     0.124 S 
ATOM     84  O   UNL A   1      40.683  19.447  25.726  1.00  0.00    -0.237 OA
ATOM     85  O   UNL A   1      42.962  19.587  24.773  1.00  0.00    -0.237 OA
ATOM     86  O   UNL A   1      42.619  18.593  27.001  1.00  0.00    -0.744 OA
ENDBRANCH  82  83
ENDBRANCH  50  75
BRANCH  62  87
ATOM     87  C   UNL A   1      48.102  26.989  30.661  1.00  0.00     0.058 A 
ATOM     88  C   UNL A   1      49.146  27.208  29.748  1.00  0.00     0.135 A 
ATOM     89  C   UNL A   1      48.423  26.401  31.895  1.00  0.00     0.135 A 
ATOM     90  F   UNL A   1      48.890  27.763  28.552  1.00  0.00    -0.206 F 
ATOM     91  C   UNL A   1      50.455  26.841  30.040  1.00  0.00     0.059 A 
ATOM     92  C   UNL A   1      49.730  26.048  32.218  1.00  0.00     0.059 A 
ATOM     93  F   UNL A   1      47.464  26.178  32.808  1.00  0.00    -0.206 F 
ATOM     94  C   UNL A   1      50.738  26.262  31.278  1.00  0.00     0.060 A 
BRANCH  94  95
ATOM     95  S   UNL A   1      52.447  25.821  31.659  1.00  0.00     0.124 S 
ATOM     96  O   UNL A   1      52.785  26.807  32.679  1.00  0.00    -0.237 OA
ATOM     97  O   UNL A   1      52.319  24.444  32.127  1.00  0.00    -0.237 OA
ATOM     98  O   UNL A   1      53.131  25.980  30.379  1.00  0.00    -0.744 OA
ENDBRANCH  94  95
ENDBRANCH  62  87
ENDBRANCH  36  37
ENDBRANCH  28  31
ENDBRANCH  26  27
ENDBRANCH  25  26
ENDBRANCH   1  25
TORSDOF 17
ENDMDL
MODEL 3
REMARK VINA RESULT:     -11.4      5.006      6.315
REMARK SMILES O=C(NCCCCCCNC(=O)c1ccc(-c2c3nc(c(-c4c(F)cc(S(=O)(=O)[O-])cc4F)c4ccc([nH]4)c(-c4c(F)cc(S(=O)(=O)[O-])cc4F)c4nc(c(-c5c(F)cc(S(=O)(=O)[O-])cc5F)c5ccc2[nH]5)C=C4)C=C3)cc1)C1=Cc2ccc(Cl)c(Cl)c2O[C@@H]1C(F)(F)F
REMARK SMILES IDX 7 1 6 2 5 3 4 4 3 5 1 6 2 7 79 9 80 10 90 11 81 12 89 13
REMARK SMILES IDX 82 14 88 15 83 16 86 17 84 18 87 19 85 20 91 21 92 22 93 23
REMARK SMILES IDX 94 24 8 25 9 26 10 27 11 28 12 30 13 31 14 32 78 33 15 34
REMARK SMILES IDX 77 35 16 36 17 37 18 38 71 39 19 40 76 41 70 42 72 43 20 44
REMARK SMILES IDX 75 45 69 46 68 47 21 49 55 50 34 51 54 52 35 53 38 54 53 55
REMARK SMILES IDX 73 56 36 57 37 58 52 60 74 61 39 62 22 63 23 64 32 65 24 66
REMARK SMILES IDX 25 67 31 68 33 69 26 70 27 71 28 72 29 73 30 74 56 75 57 76
REMARK SMILES IDX 66 77 58 78 59 79 65 80 67 81 60 82 61 83 62 84 63 85 64 86
REMARK SMILES IDX 40 87 41 88 50 89 42 90 43 91 49 92 51 93 44 94 45 95 46 96
REMARK SMILES IDX 47 97 48 98
REMARK H PARENT 3 8 10 29 72 48 38 59
REMARK Flexibility Score: inf
ROOT
ATOM      1  C   UNL A   1      33.704  29.133  26.523  1.00  0.00     0.002 C 
ENDROOT
BRANCH   1   2
ATOM      2  C   UNL A   1      32.399  29.386  27.287  1.00  0.00     0.002 C 
BRANCH   2   3
ATOM      3  C   UNL A   1      31.413  28.225  27.387  1.00  0.00     0.021 C 
BRANCH   3   4
ATOM      4  C   UNL A   1      31.630  27.054  26.433  1.00  0.00     0.116 C 
BRANCH   4   5
ATOM      5  N   UNL A   1      30.893  25.845  26.759  1.00  0.00    -0.352 N 
ATOM      6  O   UNL A   1      30.556  23.655  27.136  1.00  0.00    -0.270 OA
ATOM      7  C   UNL A   1      31.284  24.536  26.678  1.00  0.00     0.251 C 
ATOM      8  H   UNL A   1      29.976  25.989  27.089  1.00  0.00     0.163 HD
BRANCH   7   9
ATOM      9  C   UNL A   1      32.614  24.134  26.131  1.00  0.00     0.067 C 
ATOM     10  C   UNL A   1      33.293  23.080  26.614  1.00  0.00     0.025 C 
ATOM     11  C   UNL A   1      32.791  24.518  24.681  1.00  0.00     0.314 C 
ATOM     12  C   UNL A   1      33.320  21.953  25.651  1.00  0.00     0.019 A 
ATOM     13  O   UNL A   1      32.612  23.376  23.806  1.00  0.00    -0.474 OA
ATOM     14  C   UNL A   1      33.551  20.668  26.153  1.00  0.00     0.013 A 
ATOM     15  C   UNL A   1      32.871  22.128  24.330  1.00  0.00     0.148 A 
ATOM     16  C   UNL A   1      33.244  19.555  25.372  1.00  0.00     0.023 A 
ATOM     17  C   UNL A   1      32.569  21.006  23.543  1.00  0.00     0.102 A 
ATOM     18  C   UNL A   1      32.730  19.722  24.081  1.00  0.00     0.063 A 
ATOM     19  Cl  UNL A   1      31.901  21.240  21.958  1.00  0.00    -0.079 Cl
ATOM     20  Cl  UNL A   1      32.237  18.295  23.239  1.00  0.00    -0.083 Cl
BRANCH  11  21
ATOM     21  C   UNL A   1      34.135  25.221  24.427  1.00  0.00     0.429 C 
ATOM     22  F   UNL A   1      34.028  26.162  23.458  1.00  0.00    -0.167 F 
ATOM     23  F   UNL A   1      34.587  25.852  25.537  1.00  0.00    -0.167 F 
ATOM     24  F   UNL A   1      35.105  24.357  24.042  1.00  0.00    -0.167 F 
ENDBRANCH  11  21
ENDBRANCH   7   9
ENDBRANCH   4   5
ENDBRANCH   3   4
ENDBRANCH   2   3
ENDBRANCH   1   2
BRANCH   1  25
ATOM     25  C   UNL A   1      35.017  29.242  27.306  1.00  0.00     0.021 C 
BRANCH  25  26
ATOM     26  C   UNL A   1      35.362  30.609  27.895  1.00  0.00     0.116 C 
BRANCH  26  27
ATOM     27  N   UNL A   1      35.341  30.630  29.346  1.00  0.00    -0.352 N 
ATOM     28  C   UNL A   1      36.316  30.311  30.257  1.00  0.00     0.251 C 
ATOM     29  H   UNL A   1      34.486  30.921  29.741  1.00  0.00     0.163 HD
ATOM     30  O   UNL A   1      36.029  30.297  31.453  1.00  0.00    -0.269 OA
BRANCH  28  31
ATOM     31  C   UNL A   1      37.697  29.963  29.835  1.00  0.00     0.039 A 
ATOM     32  C   UNL A   1      38.614  29.579  30.821  1.00  0.00     0.014 A 
ATOM     33  C   UNL A   1      38.119  30.063  28.507  1.00  0.00     0.014 A 
ATOM     34  C   UNL A   1      39.929  29.251  30.472  1.00  0.00     0.010 A 
ATOM     35  C   UNL A   1      39.416  29.676  28.150  1.00  0.00     0.010 A 
ATOM     36  C   UNL A   1      40.336  29.269  29.129  1.00  0.00    -0.014 A 
BRANCH  36  37
ATOM     37  C   UNL A   1      41.718  28.873  28.741  1.00  0.00     0.031 A 
ATOM     38  C   UNL A   1      42.823  29.897  28.697  1.00  0.00     0.074 A 
ATOM     39  C   UNL A   1      41.974  27.598  28.385  1.00  0.00     0.049 A 
ATOM     40  N   UNL A   1      44.069  29.753  28.323  1.00  0.00    -0.248 NA
ATOM     41  C   UNL A   1      42.475  31.266  29.108  1.00  0.00     0.031 C 
ATOM     42  C   UNL A   1      40.986  26.518  28.345  1.00  0.00     0.029 A 
ATOM     43  N   UNL A   1      43.139  26.995  27.978  1.00  0.00    -0.354 N 
ATOM     44  C   UNL A   1      44.652  31.009  28.447  1.00  0.00     0.074 A 
ATOM     45  C   UNL A   1      43.610  31.913  28.883  1.00  0.00     0.031 C 
ATOM     46  C   UNL A   1      41.587  25.385  27.947  1.00  0.00     0.029 A 
ATOM     47  C   UNL A   1      42.994  25.662  27.671  1.00  0.00     0.049 A 
ATOM     48  H   UNL A   1      43.997  27.472  27.912  1.00  0.00     0.167 HD
ATOM     49  C   UNL A   1      45.941  31.372  28.241  1.00  0.00     0.037 A 
ATOM     50  C   UNL A   1      43.887  24.765  27.209  1.00  0.00     0.037 A 
ATOM     51  C   UNL A   1      46.983  30.467  27.826  1.00  0.00     0.049 A 
ATOM     52  C   UNL A   1      45.313  25.191  26.988  1.00  0.00     0.074 A 
ATOM     53  C   UNL A   1      48.326  30.734  27.624  1.00  0.00     0.029 A 
ATOM     54  N   UNL A   1      46.801  29.119  27.555  1.00  0.00    -0.354 N 
ATOM     55  N   UNL A   1      45.854  26.375  27.152  1.00  0.00    -0.248 NA
ATOM     56  C   UNL A   1      46.253  24.159  26.527  1.00  0.00     0.031 C 
ATOM     57  C   UNL A   1      48.949  29.556  27.198  1.00  0.00     0.029 A 
ATOM     58  C   UNL A   1      48.004  28.544  27.177  1.00  0.00     0.049 A 
ATOM     59  H   UNL A   1      45.944  28.640  27.622  1.00  0.00     0.167 HD
ATOM     60  C   UNL A   1      47.201  26.223  26.837  1.00  0.00     0.074 A 
ATOM     61  C   UNL A   1      47.395  24.832  26.487  1.00  0.00     0.031 C 
ATOM     62  C   UNL A   1      48.186  27.155  26.838  1.00  0.00     0.037 A 
BRANCH  49  63
ATOM     63  C   UNL A   1      46.306  32.813  28.471  1.00  0.00     0.058 A 
ATOM     64  C   UNL A   1      46.221  33.764  27.441  1.00  0.00     0.135 A 
ATOM     65  C   UNL A   1      46.703  33.260  29.741  1.00  0.00     0.135 A 
ATOM     66  F   UNL A   1      45.860  33.389  26.203  1.00  0.00    -0.206 F 
ATOM     67  C   UNL A   1      46.543  35.101  27.655  1.00  0.00     0.059 A 
ATOM     68  C   UNL A   1      47.004  34.598  29.986  1.00  0.00     0.059 A 
ATOM     69  F   UNL A   1      46.801  32.395  30.763  1.00  0.00    -0.206 F 
ATOM     70  C   UNL A   1      46.935  35.508  28.931  1.00  0.00     0.060 A 
BRANCH  70  71
ATOM     71  S   UNL A   1      47.345  37.246  29.195  1.00  0.00     0.124 S 
ATOM     72  O   UNL A   1      48.128  37.174  30.426  1.00  0.00    -0.237 OA
ATOM     73  O   UNL A   1      48.097  37.577  27.986  1.00  0.00    -0.237 OA
ATOM     74  O   UNL A   1      46.044  37.889  29.316  1.00  0.00    -0.744 OA
ENDBRANCH  70  71
ENDBRANCH  49  63
BRANCH  50  75
ATOM     75  C   UNL A   1      43.459  23.369  26.928  1.00  0.00     0.058 A 
ATOM     76  C   UNL A   1      43.271  22.918  25.613  1.00  0.00     0.135 A 
ATOM     77  C   UNL A   1      43.234  22.455  27.971  1.00  0.00     0.135 A 
ATOM     78  F   UNL A   1      43.466  23.756  24.583  1.00  0.00    -0.206 F 
ATOM     79  C   UNL A   1      42.856  21.618  25.341  1.00  0.00     0.059 A 
ATOM     80  C   UNL A   1      42.844  21.143  27.722  1.00  0.00     0.059 A 
ATOM     81  F   UNL A   1      43.416  22.832  29.245  1.00  0.00    -0.206 F 
ATOM     82  C   UNL A   1      42.645  20.737  26.403  1.00  0.00     0.060 A 
BRANCH  82  83
ATOM     83  S   UNL A   1      42.145  19.041  26.038  1.00  0.00     0.124 S 
ATOM     84  O   UNL A   1      42.945  18.748  24.856  1.00  0.00    -0.237 OA
ATOM     85  O   UNL A   1      42.527  18.337  27.259  1.00  0.00    -0.237 OA
ATOM     86  O   UNL A   1      40.707  19.158  25.817  1.00  0.00    -0.744 OA
ENDBRANCH  82  83
ENDBRANCH  50  75
BRANCH  62  87
ATOM     87  C   UNL A   1      49.572  26.697  26.478  1.00  0.00     0.058 A 
ATOM     88  C   UNL A   1      50.394  26.035  27.404  1.00  0.00     0.135 A 
ATOM     89  C   UNL A   1      50.066  26.878  25.176  1.00  0.00     0.135 A 
ATOM     90  F   UNL A   1      49.971  25.842  28.664  1.00  0.00    -0.206 F 
ATOM     91  C   UNL A   1      51.664  25.587  27.057  1.00  0.00     0.059 A 
ATOM     92  C   UNL A   1      51.323  26.415  24.800  1.00  0.00     0.059 A 
ATOM     93  F   UNL A   1      49.316  27.496  24.248  1.00  0.00    -0.206 F 
ATOM     94  C   UNL A   1      52.120  25.780  25.752  1.00  0.00     0.060 A 
BRANCH  94  95
ATOM     95  S   UNL A   1      53.757  25.163  25.305  1.00  0.00     0.124 S 
ATOM     96  O   UNL A   1      54.594  25.786  26.325  1.00  0.00    -0.237 OA
ATOM     97  O   UNL A   1      53.589  23.718  25.419  1.00  0.00    -0.237 OA
ATOM     98  O   UNL A   1      53.947  25.660  23.946  1.00  0.00    -0.744 OA
ENDBRANCH  94  95
ENDBRANCH  62  87
ENDBRANCH  36  37
ENDBRANCH  28  31
ENDBRANCH  26  27
ENDBRANCH  25  26
ENDBRANCH   1  25
TORSDOF 17
ENDMDL
