MODEL 1
REMARK VINA RESULT:     -11.6      0.000      0.000
REMARK SMILES CCc1ccc([C@H](C)[N@@H+]2[C@@H](C(=O)NCCCCCCNC(=O)c3ccc(-c4c5nc(c(-c6c(F)cc(S(=O)(=O)[O-])cc6F)c6ccc([nH]6)c(-c6c(F)cc(S(=O)(=O)[O-])cc6F)c6nc(c(-c7c(F)cc(S(=O)(=O)[O-])cc7F)c7ccc4[nH]7)C=C6)C=C5)cc3)C[C@H]3CCCC[C@H]32)s1
REMARK SMILES IDX 16 1 15 2 14 3 13 4 11 5 12 6 10 8 9 9 95 10 89 12 90 13
REMARK SMILES IDX 94 14 91 15 93 16 92 17 7 18 8 19 6 20 3 21 4 22 96 23 5 24
REMARK SMILES IDX 2 25 1 26 17 27 18 28 19 29 20 30 21 31 22 33 23 34 24 35
REMARK SMILES IDX 88 36 25 37 87 38 26 39 27 40 28 41 81 42 29 43 86 44 80 45
REMARK SMILES IDX 82 46 30 47 85 48 79 49 78 50 31 52 65 53 44 54 64 55 45 56
REMARK SMILES IDX 48 57 63 58 83 59 46 60 47 61 62 63 84 64 49 65 32 66 33 67
REMARK SMILES IDX 42 68 34 69 35 70 41 71 43 72 36 73 37 74 38 75 39 76 40 77
REMARK SMILES IDX 66 78 67 79 76 80 68 81 69 82 75 83 77 84 70 85 71 86 72 87
REMARK SMILES IDX 73 88 74 89 50 90 51 91 60 92 52 93 53 94 59 95 61 96 54 97
REMARK SMILES IDX 55 98 56 99 57 100 58 101
REMARK H PARENT 13 7 9 11 20 32 82 51 48 62
REMARK Flexibility Score: inf
ROOT
ATOM      1  C   UNL A   1      39.617  21.785  26.173  1.00  0.00     0.002 C 
ENDROOT
BRANCH   1   2
ATOM      2  C   UNL A   1      38.368  22.624  25.883  1.00  0.00     0.021 C 
BRANCH   2   3
ATOM      3  C   UNL A   1      37.143  21.819  25.454  1.00  0.00     0.116 C 
BRANCH   3   4
ATOM      4  N   UNL A   1      36.645  22.255  24.162  1.00  0.00    -0.351 N 
ATOM      5  C   UNL A   1      35.509  22.954  23.860  1.00  0.00     0.278 C 
ATOM      6  O   UNL A   1      35.258  23.139  22.668  1.00  0.00    -0.268 OA
ATOM      7  H   UNL A   1      37.207  22.012  23.392  1.00  0.00     0.163 HD
BRANCH   5   8
ATOM      8  C   UNL A   1      34.625  23.455  25.024  1.00  0.00     0.275 C 
ATOM      9  N   UNL A   1      33.194  23.493  24.625  1.00  0.00    -0.315 N 
ATOM     10  C   UNL A   1      32.746  24.891  24.632  1.00  0.00     0.188 C 
ATOM     11  H   UNL A   1      33.091  23.154  23.667  1.00  0.00     0.349 HD
ATOM     12  C   UNL A   1      34.997  24.895  25.411  1.00  0.00     0.085 C 
ATOM     13  C   UNL A   1      33.659  25.579  25.641  1.00  0.00     0.054 C 
ATOM     14  C   UNL A   1      32.893  25.457  23.206  1.00  0.00     0.065 C 
ATOM     15  C   UNL A   1      33.684  27.102  25.532  1.00  0.00     0.010 C 
ATOM     16  C   UNL A   1      32.795  26.978  23.178  1.00  0.00     0.006 C 
ATOM     17  C   UNL A   1      33.828  27.612  24.102  1.00  0.00     0.001 C 
BRANCH   9  18
ATOM     18  C   UNL A   1      32.342  22.514  25.324  1.00  0.00     0.223 C 
ATOM     19  C   UNL A   1      30.861  22.915  25.451  1.00  0.00     0.082 C 
BRANCH  18  20
ATOM     20  C   UNL A   1      32.557  21.115  24.744  1.00  0.00     0.062 A 
ATOM     21  C   UNL A   1      33.102  18.716  24.349  1.00  0.00     0.005 A 
ATOM     22  C   UNL A   1      32.537  19.317  23.242  1.00  0.00     0.016 A 
ATOM     23  S   UNL A   1      33.244  19.826  25.644  1.00  0.00    -0.139 S 
ATOM     24  C   UNL A   1      32.232  20.692  23.467  1.00  0.00     0.022 A 
BRANCH  21  25
ATOM     25  C   UNL A   1      33.556  17.302  24.568  1.00  0.00     0.043 C 
ATOM     26  C   UNL A   1      34.032  16.597  23.308  1.00  0.00     0.010 C 
ENDBRANCH  21  25
ENDBRANCH  18  20
ENDBRANCH   9  18
ENDBRANCH   5   8
ENDBRANCH   3   4
ENDBRANCH   2   3
ENDBRANCH   1   2
BRANCH   1  27
ATOM     27  C   UNL A   1      40.406  22.191  27.421  1.00  0.00     0.002 C 
BRANCH  27  28
ATOM     28  C   UNL A   1      41.929  22.107  27.289  1.00  0.00     0.021 C 
BRANCH  28  29
ATOM     29  C   UNL A   1      42.646  23.452  27.234  1.00  0.00     0.116 C 
BRANCH  29  30
ATOM     30  N   UNL A   1      42.222  24.264  26.105  1.00  0.00    -0.352 N 
ATOM     31  C   UNL A   1      41.632  25.506  26.112  1.00  0.00     0.251 C 
ATOM     32  H   UNL A   1      42.380  23.873  25.215  1.00  0.00     0.163 HD
ATOM     33  O   UNL A   1      41.194  25.987  25.071  1.00  0.00    -0.269 OA
BRANCH  31  34
ATOM     34  C   UNL A   1      41.504  26.244  27.387  1.00  0.00     0.039 A 
ATOM     35  C   UNL A   1      42.431  27.245  27.690  1.00  0.00     0.014 A 
ATOM     36  C   UNL A   1      40.460  25.957  28.271  1.00  0.00     0.014 A 
ATOM     37  C   UNL A   1      42.271  28.005  28.853  1.00  0.00     0.010 A 
ATOM     38  C   UNL A   1      40.268  26.757  29.394  1.00  0.00     0.010 A 
ATOM     39  C   UNL A   1      41.171  27.788  29.696  1.00  0.00    -0.014 A 
BRANCH  39  40
ATOM     40  C   UNL A   1      40.940  28.611  30.912  1.00  0.00     0.031 A 
ATOM     41  C   UNL A   1      39.864  29.662  30.906  1.00  0.00     0.074 A 
ATOM     42  C   UNL A   1      41.751  28.478  31.979  1.00  0.00     0.049 A 
ATOM     43  N   UNL A   1      39.602  30.582  31.797  1.00  0.00    -0.248 NA
ATOM     44  C   UNL A   1      38.988  29.701  29.724  1.00  0.00     0.031 C 
ATOM     45  C   UNL A   1      42.849  27.515  32.097  1.00  0.00     0.029 A 
ATOM     46  N   UNL A   1      41.791  29.170  33.164  1.00  0.00    -0.354 N 
ATOM     47  C   UNL A   1      38.550  31.325  31.274  1.00  0.00     0.074 A 
ATOM     48  C   UNL A   1      38.252  30.774  29.968  1.00  0.00     0.031 C 
ATOM     49  C   UNL A   1      43.447  27.672  33.288  1.00  0.00     0.029 A 
ATOM     50  C   UNL A   1      42.806  28.772  34.003  1.00  0.00     0.049 A 
ATOM     51  H   UNL A   1      41.154  29.885  33.392  1.00  0.00     0.167 HD
ATOM     52  C   UNL A   1      37.881  32.360  31.837  1.00  0.00     0.037 A 
ATOM     53  C   UNL A   1      43.187  29.251  35.204  1.00  0.00     0.037 A 
ATOM     54  C   UNL A   1      38.163  32.881  33.148  1.00  0.00     0.049 A 
ATOM     55  C   UNL A   1      42.431  30.401  35.812  1.00  0.00     0.074 A 
ATOM     56  C   UNL A   1      37.514  33.897  33.828  1.00  0.00     0.029 A 
ATOM     57  N   UNL A   1      39.174  32.425  33.981  1.00  0.00    -0.354 N 
ATOM     58  N   UNL A   1      41.414  31.069  35.319  1.00  0.00    -0.248 NA
ATOM     59  C   UNL A   1      42.868  30.862  37.137  1.00  0.00     0.031 C 
ATOM     60  C   UNL A   1      38.153  34.077  35.058  1.00  0.00     0.029 A 
ATOM     61  C   UNL A   1      39.173  33.145  35.164  1.00  0.00     0.049 A 
ATOM     62  H   UNL A   1      39.800  31.697  33.763  1.00  0.00     0.167 HD
ATOM     63  C   UNL A   1      41.069  32.004  36.289  1.00  0.00     0.074 A 
ATOM     64  C   UNL A   1      41.984  31.818  37.395  1.00  0.00     0.031 C 
ATOM     65  C   UNL A   1      40.079  32.930  36.266  1.00  0.00     0.037 A 
BRANCH  52  66
ATOM     66  C   UNL A   1      36.782  32.995  31.032  1.00  0.00     0.058 A 
ATOM     67  C   UNL A   1      37.055  33.915  30.008  1.00  0.00     0.135 A 
ATOM     68  C   UNL A   1      35.438  32.669  31.277  1.00  0.00     0.135 A 
ATOM     69  F   UNL A   1      38.321  34.274  29.741  1.00  0.00    -0.206 F 
ATOM     70  C   UNL A   1      36.035  34.519  29.281  1.00  0.00     0.059 A 
ATOM     71  C   UNL A   1      34.402  33.239  30.542  1.00  0.00     0.059 A 
ATOM     72  F   UNL A   1      35.119  31.794  32.244  1.00  0.00    -0.206 F 
ATOM     73  C   UNL A   1      34.711  34.178  29.558  1.00  0.00     0.060 A 
BRANCH  73  74
ATOM     74  S   UNL A   1      33.396  34.980  28.617  1.00  0.00     0.124 S 
ATOM     75  O   UNL A   1      34.160  35.899  27.779  1.00  0.00    -0.237 OA
ATOM     76  O   UNL A   1      32.777  33.856  27.923  1.00  0.00    -0.237 OA
ATOM     77  O   UNL A   1      32.575  35.607  29.647  1.00  0.00    -0.744 OA
ENDBRANCH  73  74
ENDBRANCH  52  66
BRANCH  53  78
ATOM     78  C   UNL A   1      44.330  28.625  35.921  1.00  0.00     0.058 A 
ATOM     79  C   UNL A   1      45.641  29.077  35.715  1.00  0.00     0.135 A 
ATOM     80  C   UNL A   1      44.134  27.582  36.838  1.00  0.00     0.135 A 
ATOM     81  F   UNL A   1      45.879  30.067  34.842  1.00  0.00    -0.206 F 
ATOM     82  C   UNL A   1      46.722  28.510  36.384  1.00  0.00     0.059 A 
ATOM     83  C   UNL A   1      45.196  27.014  37.537  1.00  0.00     0.059 A 
ATOM     84  F   UNL A   1      42.896  27.124  37.084  1.00  0.00    -0.206 F 
ATOM     85  C   UNL A   1      46.487  27.480  37.296  1.00  0.00     0.060 A 
BRANCH  85  86
ATOM     86  S   UNL A   1      47.890  26.790  38.202  1.00  0.00     0.124 S 
ATOM     87  O   UNL A   1      48.852  26.571  37.128  1.00  0.00    -0.237 OA
ATOM     88  O   UNL A   1      48.209  27.863  39.139  1.00  0.00    -0.237 OA
ATOM     89  O   UNL A   1      47.335  25.584  38.808  1.00  0.00    -0.744 OA
ENDBRANCH  85  86
ENDBRANCH  53  78
BRANCH  65  90
ATOM     90  C   UNL A   1      39.889  33.782  37.489  1.00  0.00     0.058 A 
ATOM     91  C   UNL A   1      40.578  34.992  37.661  1.00  0.00     0.135 A 
ATOM     92  C   UNL A   1      38.943  33.420  38.461  1.00  0.00     0.135 A 
ATOM     93  F   UNL A   1      41.498  35.379  36.764  1.00  0.00    -0.206 F 
ATOM     94  C   UNL A   1      40.340  35.811  38.760  1.00  0.00     0.059 A 
ATOM     95  C   UNL A   1      38.671  34.234  39.555  1.00  0.00     0.059 A 
ATOM     96  F   UNL A   1      38.252  32.275  38.338  1.00  0.00    -0.206 F 
ATOM     97  C   UNL A   1      39.379  35.427  39.698  1.00  0.00     0.060 A 
BRANCH  97  98
ATOM     98  S   UNL A   1      39.034  36.529  41.087  1.00  0.00     0.124 S 
ATOM     99  O   UNL A   1      38.535  37.716  40.403  1.00  0.00    -0.237 OA
ATOM    100  O   UNL A   1      38.044  35.771  41.847  1.00  0.00    -0.237 OA
ATOM    101  O   UNL A   1      40.333  36.675  41.736  1.00  0.00    -0.744 OA
ENDBRANCH  97  98
ENDBRANCH  65  90
ENDBRANCH  39  40
ENDBRANCH  31  34
ENDBRANCH  29  30
ENDBRANCH  28  29
ENDBRANCH  27  28
ENDBRANCH   1  27
TORSDOF 19
ENDMDL
MODEL 2
REMARK VINA RESULT:     -11.5      3.506      9.541
REMARK SMILES CCc1ccc([C@H](C)[N@@H+]2[C@@H](C(=O)NCCCCCCNC(=O)c3ccc(-c4c5nc(c(-c6c(F)cc(S(=O)(=O)[O-])cc6F)c6ccc([nH]6)c(-c6c(F)cc(S(=O)(=O)[O-])cc6F)c6nc(c(-c7c(F)cc(S(=O)(=O)[O-])cc7F)c7ccc4[nH]7)C=C6)C=C5)cc3)C[C@H]3CCCC[C@H]32)s1
REMARK SMILES IDX 16 1 15 2 14 3 13 4 11 5 12 6 10 8 9 9 95 10 89 12 90 13
REMARK SMILES IDX 94 14 91 15 93 16 92 17 7 18 8 19 6 20 3 21 4 22 96 23 5 24
REMARK SMILES IDX 2 25 1 26 17 27 18 28 19 29 20 30 21 31 22 33 23 34 24 35
REMARK SMILES IDX 88 36 25 37 87 38 26 39 27 40 28 41 81 42 29 43 86 44 80 45
REMARK SMILES IDX 82 46 30 47 85 48 79 49 78 50 31 52 65 53 44 54 64 55 45 56
REMARK SMILES IDX 48 57 63 58 83 59 46 60 47 61 62 63 84 64 49 65 32 66 33 67
REMARK SMILES IDX 42 68 34 69 35 70 41 71 43 72 36 73 37 74 38 75 39 76 40 77
REMARK SMILES IDX 66 78 67 79 76 80 68 81 69 82 75 83 77 84 70 85 71 86 72 87
REMARK SMILES IDX 73 88 74 89 50 90 51 91 60 92 52 93 53 94 59 95 61 96 54 97
REMARK SMILES IDX 55 98 56 99 57 100 58 101
REMARK H PARENT 13 7 9 11 20 32 82 51 48 62
REMARK Flexibility Score: inf
ROOT
ATOM      1  C   UNL A   1      34.381  23.070  23.854  1.00  0.00     0.002 C 
ENDROOT
BRANCH   1   2
ATOM      2  C   UNL A   1      32.974  22.860  23.286  1.00  0.00     0.021 C 
BRANCH   2   3
ATOM      3  C   UNL A   1      32.520  23.923  22.289  1.00  0.00     0.116 C 
BRANCH   3   4
ATOM      4  N   UNL A   1      33.334  25.122  22.382  1.00  0.00    -0.351 N 
ATOM      5  C   UNL A   1      33.106  26.273  23.085  1.00  0.00     0.278 C 
ATOM      6  O   UNL A   1      33.914  27.193  22.942  1.00  0.00    -0.268 OA
ATOM      7  H   UNL A   1      34.170  25.103  21.865  1.00  0.00     0.163 HD
BRANCH   5   8
ATOM      8  C   UNL A   1      31.862  26.341  23.999  1.00  0.00     0.275 C 
ATOM      9  N   UNL A   1      31.104  27.599  23.769  1.00  0.00    -0.315 N 
ATOM     10  C   UNL A   1      31.160  28.404  24.996  1.00  0.00     0.188 C 
ATOM     11  H   UNL A   1      31.553  28.146  23.035  1.00  0.00     0.349 HD
ATOM     12  C   UNL A   1      32.272  26.354  25.479  1.00  0.00     0.085 C 
ATOM     13  C   UNL A   1      31.352  27.386  26.113  1.00  0.00     0.054 C 
ATOM     14  C   UNL A   1      32.336  29.393  24.876  1.00  0.00     0.065 C 
ATOM     15  C   UNL A   1      31.856  27.979  27.427  1.00  0.00     0.010 C 
ATOM     16  C   UNL A   1      32.698  30.021  26.216  1.00  0.00     0.006 C 
ATOM     17  C   UNL A   1      33.017  28.953  27.255  1.00  0.00     0.001 C 
BRANCH   9  18
ATOM     18  C   UNL A   1      29.777  27.406  23.155  1.00  0.00     0.223 C 
ATOM     19  C   UNL A   1      28.873  26.387  23.871  1.00  0.00     0.082 C 
BRANCH  18  20
ATOM     20  C   UNL A   1      29.109  28.758  22.904  1.00  0.00     0.062 A 
ATOM     21  C   UNL A   1      28.523  31.075  22.195  1.00  0.00     0.005 A 
ATOM     22  C   UNL A   1      27.499  30.460  22.888  1.00  0.00     0.016 A 
ATOM     23  S   UNL A   1      29.874  30.034  22.048  1.00  0.00    -0.139 S 
ATOM     24  C   UNL A   1      27.838  29.138  23.299  1.00  0.00     0.022 A 
BRANCH  21  25
ATOM     25  C   UNL A   1      28.601  32.437  21.569  1.00  0.00     0.043 C 
ATOM     26  C   UNL A   1      27.614  32.659  20.434  1.00  0.00     0.010 C 
ENDBRANCH  21  25
ENDBRANCH  18  20
ENDBRANCH   9  18
ENDBRANCH   5   8
ENDBRANCH   3   4
ENDBRANCH   2   3
ENDBRANCH   1   2
BRANCH   1  27
ATOM     27  C   UNL A   1      34.505  22.934  25.374  1.00  0.00     0.002 C 
BRANCH  27  28
ATOM     28  C   UNL A   1      35.745  23.586  25.991  1.00  0.00     0.021 C 
BRANCH  28  29
ATOM     29  C   UNL A   1      36.935  23.728  25.049  1.00  0.00     0.116 C 
BRANCH  29  30
ATOM     30  N   UNL A   1      37.949  22.709  25.273  1.00  0.00    -0.352 N 
ATOM     31  C   UNL A   1      39.147  22.819  25.937  1.00  0.00     0.251 C 
ATOM     32  H   UNL A   1      37.749  21.820  24.900  1.00  0.00     0.163 HD
ATOM     33  O   UNL A   1      39.960  21.899  25.901  1.00  0.00    -0.269 OA
BRANCH  31  34
ATOM     34  C   UNL A   1      39.462  24.064  26.669  1.00  0.00     0.039 A 
ATOM     35  C   UNL A   1      38.945  24.248  27.954  1.00  0.00     0.014 A 
ATOM     36  C   UNL A   1      40.281  25.040  26.092  1.00  0.00     0.014 A 
ATOM     37  C   UNL A   1      39.303  25.382  28.688  1.00  0.00     0.010 A 
ATOM     38  C   UNL A   1      40.686  26.135  26.848  1.00  0.00     0.010 A 
ATOM     39  C   UNL A   1      40.202  26.318  28.153  1.00  0.00    -0.014 A 
BRANCH  39  40
ATOM     40  C   UNL A   1      40.646  27.509  28.924  1.00  0.00     0.031 A 
ATOM     41  C   UNL A   1      41.964  27.478  29.647  1.00  0.00     0.074 A 
ATOM     42  C   UNL A   1      39.830  28.573  29.049  1.00  0.00     0.049 A 
ATOM     43  N   UNL A   1      42.464  28.340  30.492  1.00  0.00    -0.248 NA
ATOM     44  C   UNL A   1      42.817  26.301  29.410  1.00  0.00     0.031 C 
ATOM     45  C   UNL A   1      38.514  28.713  28.420  1.00  0.00     0.029 A 
ATOM     46  N   UNL A   1      39.978  29.735  29.766  1.00  0.00    -0.354 N 
ATOM     47  C   UNL A   1      43.677  27.802  30.907  1.00  0.00     0.074 A 
ATOM     48  C   UNL A   1      43.815  26.517  30.254  1.00  0.00     0.031 C 
ATOM     49  C   UNL A   1      37.981  29.894  28.771  1.00  0.00     0.029 A 
ATOM     50  C   UNL A   1      38.895  30.578  29.682  1.00  0.00     0.049 A 
ATOM     51  H   UNL A   1      40.784  29.945  30.291  1.00  0.00     0.167 HD
ATOM     52  C   UNL A   1      44.599  28.336  31.743  1.00  0.00     0.037 A 
ATOM     53  C   UNL A   1      38.657  31.759  30.285  1.00  0.00     0.037 A 
ATOM     54  C   UNL A   1      44.469  29.628  32.365  1.00  0.00     0.049 A 
ATOM     55  C   UNL A   1      39.695  32.336  31.209  1.00  0.00     0.074 A 
ATOM     56  C   UNL A   1      45.368  30.280  33.191  1.00  0.00     0.029 A 
ATOM     57  N   UNL A   1      43.374  30.467  32.224  1.00  0.00    -0.354 N 
ATOM     58  N   UNL A   1      40.853  31.830  31.564  1.00  0.00    -0.248 NA
ATOM     59  C   UNL A   1      39.399  33.642  31.815  1.00  0.00     0.031 C 
ATOM     60  C   UNL A   1      44.801  31.499  33.577  1.00  0.00     0.029 A 
ATOM     61  C   UNL A   1      43.569  31.626  32.956  1.00  0.00     0.049 A 
ATOM     62  H   UNL A   1      42.575  30.267  31.683  1.00  0.00     0.167 HD
ATOM     63  C   UNL A   1      41.438  32.773  32.403  1.00  0.00     0.074 A 
ATOM     64  C   UNL A   1      40.507  33.877  32.507  1.00  0.00     0.031 C 
ATOM     65  C   UNL A   1      42.640  32.727  33.029  1.00  0.00     0.037 A 
BRANCH  52  66
ATOM     66  C   UNL A   1      45.828  27.520  32.033  1.00  0.00     0.058 A 
ATOM     67  C   UNL A   1      45.864  26.588  33.082  1.00  0.00     0.135 A 
ATOM     68  C   UNL A   1      46.982  27.661  31.244  1.00  0.00     0.135 A 
ATOM     69  F   UNL A   1      44.794  26.424  33.877  1.00  0.00    -0.206 F 
ATOM     70  C   UNL A   1      47.009  25.852  33.362  1.00  0.00     0.059 A 
ATOM     71  C   UNL A   1      48.129  26.913  31.488  1.00  0.00     0.059 A 
ATOM     72  F   UNL A   1      47.003  28.537  30.227  1.00  0.00    -0.206 F 
ATOM     73  C   UNL A   1      48.140  26.024  32.563  1.00  0.00     0.060 A 
BRANCH  73  74
ATOM     74  S   UNL A   1      49.624  25.072  32.947  1.00  0.00     0.124 S 
ATOM     75  O   UNL A   1      50.157  24.817  31.613  1.00  0.00    -0.237 OA
ATOM     76  O   UNL A   1      50.390  26.004  33.768  1.00  0.00    -0.237 OA
ATOM     77  O   UNL A   1      49.105  23.903  33.649  1.00  0.00    -0.744 OA
ENDBRANCH  73  74
ENDBRANCH  52  66
BRANCH  53  78
ATOM     78  C   UNL A   1      37.389  32.488  30.013  1.00  0.00     0.058 A 
ATOM     79  C   UNL A   1      36.210  32.156  30.695  1.00  0.00     0.135 A 
ATOM     80  C   UNL A   1      37.334  33.538  29.085  1.00  0.00     0.135 A 
ATOM     81  F   UNL A   1      36.211  31.153  31.587  1.00  0.00    -0.206 F 
ATOM     82  C   UNL A   1      35.016  32.831  30.461  1.00  0.00     0.059 A 
ATOM     83  C   UNL A   1      36.158  34.245  28.850  1.00  0.00     0.059 A 
ATOM     84  F   UNL A   1      38.439  33.906  28.417  1.00  0.00    -0.206 F 
ATOM     85  C   UNL A   1      35.002  33.877  29.538  1.00  0.00     0.060 A 
BRANCH  85  86
ATOM     86  S   UNL A   1      33.462  34.787  29.282  1.00  0.00     0.124 S 
ATOM     87  O   UNL A   1      33.952  36.042  28.726  1.00  0.00    -0.237 OA
ATOM     88  O   UNL A   1      32.740  33.915  28.360  1.00  0.00    -0.237 OA
ATOM     89  O   UNL A   1      32.896  34.869  30.626  1.00  0.00    -0.744 OA
ENDBRANCH  85  86
ENDBRANCH  53  78
BRANCH  65  90
ATOM     90  C   UNL A   1      43.052  33.924  33.839  1.00  0.00     0.058 A 
ATOM     91  C   UNL A   1      43.725  35.012  33.261  1.00  0.00     0.135 A 
ATOM     92  C   UNL A   1      42.695  34.016  35.193  1.00  0.00     0.135 A 
ATOM     93  F   UNL A   1      44.095  34.970  31.972  1.00  0.00    -0.206 F 
ATOM     94  C   UNL A   1      44.035  36.147  34.002  1.00  0.00     0.059 A 
ATOM     95  C   UNL A   1      42.973  35.151  35.947  1.00  0.00     0.059 A 
ATOM     96  F   UNL A   1      42.043  33.004  35.790  1.00  0.00    -0.206 F 
ATOM     97  C   UNL A   1      43.648  36.210  35.343  1.00  0.00     0.060 A 
BRANCH  97  98
ATOM     98  S   UNL A   1      44.001  37.715  36.277  1.00  0.00     0.124 S 
ATOM     99  O   UNL A   1      43.761  38.747  35.275  1.00  0.00    -0.237 OA
ATOM    100  O   UNL A   1      43.025  37.645  37.360  1.00  0.00    -0.237 OA
ATOM    101  O   UNL A   1      45.392  37.544  36.684  1.00  0.00    -0.744 OA
ENDBRANCH  97  98
ENDBRANCH  65  90
ENDBRANCH  39  40
ENDBRANCH  31  34
ENDBRANCH  29  30
ENDBRANCH  28  29
ENDBRANCH  27  28
ENDBRANCH   1  27
TORSDOF 19
ENDMDL
MODEL 3
REMARK VINA RESULT:     -11.3      6.322     11.605
REMARK SMILES CCc1ccc([C@H](C)[N@@H+]2[C@@H](C(=O)NCCCCCCNC(=O)c3ccc(-c4c5nc(c(-c6c(F)cc(S(=O)(=O)[O-])cc6F)c6ccc([nH]6)c(-c6c(F)cc(S(=O)(=O)[O-])cc6F)c6nc(c(-c7c(F)cc(S(=O)(=O)[O-])cc7F)c7ccc4[nH]7)C=C6)C=C5)cc3)C[C@H]3CCCC[C@H]32)s1
REMARK SMILES IDX 16 1 15 2 14 3 13 4 11 5 12 6 10 8 9 9 95 10 89 12 90 13
REMARK SMILES IDX 94 14 91 15 93 16 92 17 7 18 8 19 6 20 3 21 4 22 96 23 5 24
REMARK SMILES IDX 2 25 1 26 17 27 18 28 19 29 20 30 21 31 22 33 23 34 24 35
REMARK SMILES IDX 88 36 25 37 87 38 26 39 27 40 28 41 81 42 29 43 86 44 80 45
REMARK SMILES IDX 82 46 30 47 85 48 79 49 78 50 31 52 65 53 44 54 64 55 45 56
REMARK SMILES IDX 48 57 63 58 83 59 46 60 47 61 62 63 84 64 49 65 32 66 33 67
REMARK SMILES IDX 42 68 34 69 35 70 41 71 43 72 36 73 37 74 38 75 39 76 40 77
REMARK SMILES IDX 66 78 67 79 76 80 68 81 69 82 75 83 77 84 70 85 71 86 72 87
REMARK SMILES IDX 73 88 74 89 50 90 51 91 60 92 52 93 53 94 59 95 61 96 54 97
REMARK SMILES IDX 55 98 56 99 57 100 58 101
REMARK H PARENT 13 7 9 11 20 32 82 51 48 62
REMARK Flexibility Score: inf
ROOT
ATOM      1  C   UNL A   1      32.276  30.038  27.035  1.00  0.00     0.002 C 
ENDROOT
BRANCH   1   2
ATOM      2  C   UNL A   1      31.637  28.690  27.387  1.00  0.00     0.021 C 
BRANCH   2   3
ATOM      3  C   UNL A   1      32.055  27.530  26.486  1.00  0.00     0.116 C 
BRANCH   3   4
ATOM      4  N   UNL A   1      31.626  26.254  27.027  1.00  0.00    -0.351 N 
ATOM      5  C   UNL A   1      31.977  24.987  26.648  1.00  0.00     0.278 C 
ATOM      6  O   UNL A   1      31.412  24.049  27.215  1.00  0.00    -0.268 OA
ATOM      7  H   UNL A   1      30.990  26.308  27.776  1.00  0.00     0.163 HD
BRANCH   5   8
ATOM      8  C   UNL A   1      33.045  24.821  25.545  1.00  0.00     0.275 C 
ATOM      9  N   UNL A   1      32.421  24.407  24.261  1.00  0.00    -0.315 N 
ATOM     10  C   UNL A   1      32.900  23.061  23.925  1.00  0.00     0.188 C 
ATOM     11  H   UNL A   1      31.409  24.342  24.372  1.00  0.00     0.349 HD
ATOM     12  C   UNL A   1      34.042  23.712  25.911  1.00  0.00     0.085 C 
ATOM     13  C   UNL A   1      34.258  22.957  24.610  1.00  0.00     0.054 C 
ATOM     14  C   UNL A   1      31.880  22.034  24.456  1.00  0.00     0.065 C 
ATOM     15  C   UNL A   1      34.776  21.529  24.769  1.00  0.00     0.010 C 
ATOM     16  C   UNL A   1      32.446  20.619  24.475  1.00  0.00     0.006 C 
ATOM     17  C   UNL A   1      33.729  20.552  25.294  1.00  0.00     0.001 C 
BRANCH   9  18
ATOM     18  C   UNL A   1      32.487  25.426  23.197  1.00  0.00     0.223 C 
ATOM     19  C   UNL A   1      32.769  24.874  21.788  1.00  0.00     0.082 C 
BRANCH  18  20
ATOM     20  C   UNL A   1      31.268  26.346  23.269  1.00  0.00     0.062 A 
ATOM     21  C   UNL A   1      29.656  28.243  23.148  1.00  0.00     0.005 A 
ATOM     22  C   UNL A   1      29.072  27.084  23.619  1.00  0.00     0.016 A 
ATOM     23  S   UNL A   1      31.313  27.995  22.797  1.00  0.00    -0.139 S 
ATOM     24  C   UNL A   1      29.997  26.001  23.695  1.00  0.00     0.022 A 
BRANCH  21  25
ATOM     25  C   UNL A   1      29.068  29.600  22.891  1.00  0.00     0.043 C 
ATOM     26  C   UNL A   1      27.562  29.598  22.681  1.00  0.00     0.010 C 
ENDBRANCH  21  25
ENDBRANCH  18  20
ENDBRANCH   9  18
ENDBRANCH   5   8
ENDBRANCH   3   4
ENDBRANCH   2   3
ENDBRANCH   1   2
BRANCH   1  27
ATOM     27  C   UNL A   1      33.791  30.121  27.239  1.00  0.00     0.002 C 
BRANCH  27  28
ATOM     28  C   UNL A   1      34.318  31.488  27.683  1.00  0.00     0.021 C 
BRANCH  28  29
ATOM     29  C   UNL A   1      35.644  31.453  28.436  1.00  0.00     0.116 C 
BRANCH  29  30
ATOM     30  N   UNL A   1      35.466  31.279  29.869  1.00  0.00    -0.352 N 
ATOM     31  C   UNL A   1      36.280  30.627  30.764  1.00  0.00     0.251 C 
ATOM     32  H   UNL A   1      34.653  31.684  30.250  1.00  0.00     0.163 HD
ATOM     33  O   UNL A   1      35.904  30.438  31.918  1.00  0.00    -0.269 OA
BRANCH  31  34
ATOM     34  C   UNL A   1      37.600  30.129  30.320  1.00  0.00     0.039 A 
ATOM     35  C   UNL A   1      37.908  30.142  28.957  1.00  0.00     0.014 A 
ATOM     36  C   UNL A   1      38.534  29.666  31.250  1.00  0.00     0.014 A 
ATOM     37  C   UNL A   1      39.182  29.752  28.532  1.00  0.00     0.010 A 
ATOM     38  C   UNL A   1      39.821  29.339  30.832  1.00  0.00     0.010 A 
ATOM     39  C   UNL A   1      40.157  29.379  29.469  1.00  0.00    -0.014 A 
BRANCH  39  40
ATOM     40  C   UNL A   1      41.537  29.008  29.060  1.00  0.00     0.031 A 
ATOM     41  C   UNL A   1      42.606  30.065  29.003  1.00  0.00     0.074 A 
ATOM     42  C   UNL A   1      41.805  27.752  28.653  1.00  0.00     0.049 A 
ATOM     43  N   UNL A   1      43.822  29.987  28.531  1.00  0.00    -0.248 NA
ATOM     44  C   UNL A   1      42.243  31.396  29.518  1.00  0.00     0.031 C 
ATOM     45  C   UNL A   1      40.847  26.644  28.635  1.00  0.00     0.029 A 
ATOM     46  N   UNL A   1      42.960  27.199  28.157  1.00  0.00    -0.354 N 
ATOM     47  C   UNL A   1      44.362  31.260  28.667  1.00  0.00     0.074 A 
ATOM     48  C   UNL A   1      43.325  32.102  29.226  1.00  0.00     0.031 C 
ATOM     49  C   UNL A   1      41.455  25.544  28.161  1.00  0.00     0.029 A 
ATOM     50  C   UNL A   1      42.832  25.877  27.803  1.00  0.00     0.049 A 
ATOM     51  H   UNL A   1      43.801  27.702  28.064  1.00  0.00     0.167 HD
ATOM     52  C   UNL A   1      45.614  31.686  28.370  1.00  0.00     0.037 A 
ATOM     53  C   UNL A   1      43.717  25.033  27.237  1.00  0.00     0.037 A 
ATOM     54  C   UNL A   1      46.648  30.836  27.843  1.00  0.00     0.049 A 
ATOM     55  C   UNL A   1      45.102  25.525  26.916  1.00  0.00     0.074 A 
ATOM     56  C   UNL A   1      47.962  31.160  27.552  1.00  0.00     0.029 A 
ATOM     57  N   UNL A   1      46.489  29.494  27.534  1.00  0.00    -0.354 N 
ATOM     58  N   UNL A   1      45.608  26.724  27.084  1.00  0.00    -0.248 NA
ATOM     59  C   UNL A   1      46.037  24.555  26.330  1.00  0.00     0.031 C 
ATOM     60  C   UNL A   1      48.588  30.021  27.035  1.00  0.00     0.029 A 
ATOM     61  C   UNL A   1      47.677  28.977  27.045  1.00  0.00     0.049 A 
ATOM     62  H   UNL A   1      45.654  28.984  27.645  1.00  0.00     0.167 HD
ATOM     63  C   UNL A   1      46.930  26.641  26.660  1.00  0.00     0.074 A 
ATOM     64  C   UNL A   1      47.145  25.277  26.224  1.00  0.00     0.031 C 
ATOM     65  C   UNL A   1      47.880  27.608  26.638  1.00  0.00     0.037 A 
BRANCH  52  66
ATOM     66  C   UNL A   1      45.927  33.137  28.608  1.00  0.00     0.058 A 
ATOM     67  C   UNL A   1      46.418  33.593  29.842  1.00  0.00     0.135 A 
ATOM     68  C   UNL A   1      45.749  34.083  27.585  1.00  0.00     0.135 A 
ATOM     69  F   UNL A   1      46.592  32.733  30.859  1.00  0.00    -0.206 F 
ATOM     70  C   UNL A   1      46.684  34.939  30.067  1.00  0.00     0.059 A 
ATOM     71  C   UNL A   1      46.038  35.431  27.779  1.00  0.00     0.059 A 
ATOM     72  F   UNL A   1      45.284  33.703  26.385  1.00  0.00    -0.206 F 
ATOM     73  C   UNL A   1      46.487  35.852  29.030  1.00  0.00     0.060 A 
BRANCH  73  74
ATOM     74  S   UNL A   1      46.823  37.598  29.341  1.00  0.00     0.124 S 
ATOM     75  O   UNL A   1      46.943  37.615  30.795  1.00  0.00    -0.237 OA
ATOM     76  O   UNL A   1      48.061  37.815  28.600  1.00  0.00    -0.237 OA
ATOM     77  O   UNL A   1      45.646  38.272  28.801  1.00  0.00    -0.744 OA
ENDBRANCH  73  74
ENDBRANCH  52  66
BRANCH  53  78
ATOM     78  C   UNL A   1      43.325  23.625  26.960  1.00  0.00     0.058 A 
ATOM     79  C   UNL A   1      43.191  22.699  28.004  1.00  0.00     0.135 A 
ATOM     80  C   UNL A   1      43.058  23.183  25.656  1.00  0.00     0.135 A 
ATOM     81  F   UNL A   1      43.443  23.072  29.268  1.00  0.00    -0.206 F 
ATOM     82  C   UNL A   1      42.816  21.380  27.766  1.00  0.00     0.059 A 
ATOM     83  C   UNL A   1      42.659  21.875  25.394  1.00  0.00     0.059 A 
ATOM     84  F   UNL A   1      43.156  24.035  24.623  1.00  0.00    -0.206 F 
ATOM     85  C   UNL A   1      42.549  20.979  26.457  1.00  0.00     0.060 A 
BRANCH  85  86
ATOM     86  S   UNL A   1      42.007  19.280  26.164  1.00  0.00     0.124 S 
ATOM     87  O   UNL A   1      42.379  18.635  27.418  1.00  0.00    -0.237 OA
ATOM     88  O   UNL A   1      40.576  19.450  25.931  1.00  0.00    -0.237 OA
ATOM     89  O   UNL A   1      42.782  18.880  24.993  1.00  0.00    -0.744 OA
ENDBRANCH  85  86
ENDBRANCH  53  78
BRANCH  65  90
ATOM     90  C   UNL A   1      49.258  27.224  26.179  1.00  0.00     0.058 A 
ATOM     91  C   UNL A   1      49.630  27.278  24.827  1.00  0.00     0.135 A 
ATOM     92  C   UNL A   1      50.243  26.875  27.118  1.00  0.00     0.135 A 
ATOM     93  F   UNL A   1      48.724  27.598  23.890  1.00  0.00    -0.206 F 
ATOM     94  C   UNL A   1      50.930  26.993  24.421  1.00  0.00     0.059 A 
ATOM     95  C   UNL A   1      51.554  26.610  26.738  1.00  0.00     0.059 A 
ATOM     96  F   UNL A   1      49.939  26.817  28.425  1.00  0.00    -0.206 F 
ATOM     97  C   UNL A   1      51.886  26.667  25.385  1.00  0.00     0.060 A 
BRANCH  97  98
ATOM     98  S   UNL A   1      53.585  26.361  24.852  1.00  0.00     0.124 S 
ATOM     99  O   UNL A   1      53.740  27.342  23.784  1.00  0.00    -0.237 OA
ATOM    100  O   UNL A   1      54.345  26.624  26.070  1.00  0.00    -0.237 OA
ATOM    101  O   UNL A   1      53.561  24.966  24.426  1.00  0.00    -0.744 OA
ENDBRANCH  97  98
ENDBRANCH  65  90
ENDBRANCH  39  40
ENDBRANCH  31  34
ENDBRANCH  29  30
ENDBRANCH  28  29
ENDBRANCH  27  28
ENDBRANCH   1  27
TORSDOF 19
ENDMDL
