MODEL 1
REMARK VINA RESULT:     -14.4      0.000      0.000
REMARK SMILES Cc1ccc(-c2nc(C)cc(N3CCCC[C@H]3C(=O)NCCCCCCNC(=O)c3ccc(-c4c5nc(c(-c6c(F)cc(S(=O)(=O)[O-])cc6F)c6ccc([nH]6)c(-c6c(F)cc(S(=O)(=O)[O-])cc6F)c6nc(c(-c7c(F)cc(S(=O)(=O)[O-])cc7F)c7ccc4[nH]7)C=C6)C=C5)cc3)n2)cc1
REMARK SMILES IDX 24 1 23 2 22 3 21 4 20 5 18 6 19 7 17 9 12 10 13 11 14 12
REMARK SMILES IDX 16 13 15 14 11 15 6 16 7 17 96 18 8 19 9 20 10 21 5 22 1 23
REMARK SMILES IDX 2 24 3 25 98 26 4 27 97 28 25 29 26 30 27 31 28 32 29 34
REMARK SMILES IDX 30 35 31 36 95 37 32 38 94 39 33 40 34 41 35 42 88 43 36 44
REMARK SMILES IDX 93 45 87 46 89 47 37 48 92 49 86 50 85 51 38 53 72 54 51 55
REMARK SMILES IDX 71 56 52 57 55 58 70 59 90 60 53 61 54 62 69 64 91 65 56 66
REMARK SMILES IDX 39 67 40 68 49 69 41 70 42 71 48 72 50 73 43 74 44 75 45 76
REMARK SMILES IDX 46 77 47 78 73 79 74 80 83 81 75 82 76 83 82 84 84 85 77 86
REMARK SMILES IDX 78 87 79 88 80 89 81 90 57 91 58 92 67 93 59 94 60 95 66 96
REMARK SMILES IDX 68 97 61 98 62 99 63 100 64 101 65 102
REMARK H PARENT 20 8 27 33 89 52 55 63
REMARK Flexibility Score: inf
ROOT
ATOM      1  C   UNL A   1      32.879  30.605  27.416  1.00  0.00     0.002 C 
ENDROOT
BRANCH   1   2
ATOM      2  C   UNL A   1      31.702  29.661  27.127  1.00  0.00     0.002 C 
BRANCH   2   3
ATOM      3  C   UNL A   1      32.003  28.158  27.128  1.00  0.00     0.021 C 
BRANCH   3   4
ATOM      4  C   UNL A   1      31.133  27.309  26.198  1.00  0.00     0.116 C 
BRANCH   4   5
ATOM      5  N   UNL A   1      31.013  25.939  26.646  1.00  0.00    -0.354 N 
ATOM      6  C   UNL A   1      31.829  24.859  26.624  1.00  0.00     0.242 C 
ATOM      7  O   UNL A   1      31.403  23.881  27.266  1.00  0.00    -0.273 OA
ATOM      8  H   UNL A   1      30.141  25.749  27.061  1.00  0.00     0.163 HD
BRANCH   6   9
ATOM      9  C   UNL A   1      33.209  24.733  25.905  1.00  0.00     0.173 C 
ATOM     10  N   UNL A   1      33.103  23.688  24.860  1.00  0.00    -0.344 N 
ATOM     11  C   UNL A   1      32.557  24.077  23.565  1.00  0.00     0.119 C 
ATOM     12  C   UNL A   1      33.341  25.238  22.966  1.00  0.00     0.022 C 
ATOM     13  C   UNL A   1      33.979  25.919  25.314  1.00  0.00     0.035 C 
ATOM     14  C   UNL A   1      33.446  26.391  23.958  1.00  0.00     0.004 C 
BRANCH  10  15
ATOM     15  C   UNL A   1      34.027  22.658  24.900  1.00  0.00     0.133 A 
ATOM     16  C   UNL A   1      34.528  20.426  25.035  1.00  0.00     0.161 A 
ATOM     17  N   UNL A   1      35.858  20.628  25.060  1.00  0.00    -0.233 NA
ATOM     18  N   UNL A   1      33.594  21.391  24.966  1.00  0.00    -0.211 NA
ATOM     19  C   UNL A   1      36.267  21.908  24.978  1.00  0.00     0.043 A 
ATOM     20  C   UNL A   1      37.743  22.150  25.020  1.00  0.00     0.067 C 
ATOM     21  C   UNL A   1      35.377  22.958  24.885  1.00  0.00     0.070 A 
BRANCH  16  22
ATOM     22  C   UNL A   1      34.059  19.041  25.062  1.00  0.00     0.019 A 
ATOM     23  C   UNL A   1      32.674  14.939  25.132  1.00  0.00     0.044 C 
ATOM     24  C   UNL A   1      33.140  16.364  25.103  1.00  0.00    -0.051 A 
ATOM     25  C   UNL A   1      34.282  16.713  24.375  1.00  0.00     0.004 A 
ATOM     26  C   UNL A   1      32.463  17.356  25.821  1.00  0.00     0.004 A 
ATOM     27  C   UNL A   1      34.729  18.037  24.346  1.00  0.00     0.012 A 
ATOM     28  C   UNL A   1      32.923  18.677  25.805  1.00  0.00     0.012 A 
ENDBRANCH  16  22
ENDBRANCH  10  15
ENDBRANCH   6   9
ENDBRANCH   4   5
ENDBRANCH   3   4
ENDBRANCH   2   3
ENDBRANCH   1   2
BRANCH   1  29
ATOM     29  C   UNL A   1      34.281  30.008  27.278  1.00  0.00     0.021 C 
BRANCH  29  30
ATOM     30  C   UNL A   1      35.399  31.043  27.262  1.00  0.00     0.116 C 
BRANCH  30  31
ATOM     31  N   UNL A   1      35.752  31.514  28.601  1.00  0.00    -0.352 N 
ATOM     32  C   UNL A   1      36.504  30.875  29.569  1.00  0.00     0.251 C 
ATOM     33  H   UNL A   1      35.408  32.404  28.845  1.00  0.00     0.163 HD
ATOM     34  O   UNL A   1      36.644  31.297  30.713  1.00  0.00    -0.269 OA
BRANCH  32  35
ATOM     35  C   UNL A   1      37.288  29.713  29.124  1.00  0.00     0.039 A 
ATOM     36  C   UNL A   1      37.483  28.703  30.073  1.00  0.00     0.014 A 
ATOM     37  C   UNL A   1      38.108  29.845  28.007  1.00  0.00     0.014 A 
ATOM     38  C   UNL A   1      38.656  27.968  30.028  1.00  0.00     0.010 A 
ATOM     39  C   UNL A   1      39.318  29.190  28.023  1.00  0.00     0.010 A 
ATOM     40  C   UNL A   1      39.609  28.303  29.067  1.00  0.00    -0.014 A 
BRANCH  40  41
ATOM     41  C   UNL A   1      40.966  27.790  29.116  1.00  0.00     0.031 A 
ATOM     42  C   UNL A   1      41.198  26.408  28.660  1.00  0.00     0.074 A 
ATOM     43  C   UNL A   1      41.961  28.569  29.591  1.00  0.00     0.049 A 
ATOM     44  N   UNL A   1      42.135  25.643  29.094  1.00  0.00    -0.248 NA
ATOM     45  C   UNL A   1      40.314  25.758  27.697  1.00  0.00     0.031 C 
ATOM     46  C   UNL A   1      43.390  28.276  29.601  1.00  0.00     0.029 A 
ATOM     47  N   UNL A   1      41.829  29.710  30.394  1.00  0.00    -0.354 N 
ATOM     48  C   UNL A   1      42.135  24.507  28.317  1.00  0.00     0.074 A 
ATOM     49  C   UNL A   1      40.950  24.601  27.498  1.00  0.00     0.031 C 
ATOM     50  C   UNL A   1      43.968  29.003  30.572  1.00  0.00     0.029 A 
ATOM     51  C   UNL A   1      42.910  29.690  31.296  1.00  0.00     0.049 A 
ATOM     52  H   UNL A   1      41.119  30.390  30.339  1.00  0.00     0.167 HD
ATOM     53  C   UNL A   1      43.211  23.672  28.350  1.00  0.00     0.037 A 
ATOM     54  C   UNL A   1      42.685  29.579  32.637  1.00  0.00     0.037 A 
ATOM     55  C   UNL A   1      44.180  24.128  29.341  1.00  0.00     0.049 A 
ATOM     56  C   UNL A   1      43.234  28.294  33.226  1.00  0.00     0.074 A 
ATOM     57  C   UNL A   1      45.279  24.967  29.238  1.00  0.00     0.029 A 
ATOM     58  N   UNL A   1      43.860  24.063  30.693  1.00  0.00    -0.354 N 
ATOM     59  N   UNL A   1      43.535  27.236  32.519  1.00  0.00    -0.248 NA
ATOM     60  C   UNL A   1      43.527  28.109  34.645  1.00  0.00     0.031 C 
ATOM     61  C   UNL A   1      45.543  25.501  30.526  1.00  0.00     0.029 A 
ATOM     62  C   UNL A   1      44.641  24.947  31.417  1.00  0.00     0.049 A 
ATOM     63  H   UNL A   1      43.175  23.472  31.081  1.00  0.00     0.167 HD
ATOM     64  C   UNL A   1      44.064  26.266  33.334  1.00  0.00     0.074 A 
ATOM     65  C   UNL A   1      44.042  26.865  34.657  1.00  0.00     0.031 C 
ATOM     66  C   UNL A   1      44.500  25.057  32.862  1.00  0.00     0.037 A 
BRANCH  53  67
ATOM     67  C   UNL A   1      43.486  22.695  27.230  1.00  0.00     0.058 A 
ATOM     68  C   UNL A   1      42.756  21.495  27.123  1.00  0.00     0.135 A 
ATOM     69  C   UNL A   1      44.527  22.844  26.290  1.00  0.00     0.135 A 
ATOM     70  F   UNL A   1      41.683  21.259  27.891  1.00  0.00    -0.206 F 
ATOM     71  C   UNL A   1      43.107  20.470  26.243  1.00  0.00     0.059 A 
ATOM     72  C   UNL A   1      44.937  21.811  25.441  1.00  0.00     0.059 A 
ATOM     73  F   UNL A   1      45.172  24.013  26.156  1.00  0.00    -0.206 F 
ATOM     74  C   UNL A   1      44.226  20.619  25.433  1.00  0.00     0.060 A 
BRANCH  74  75
ATOM     75  S   UNL A   1      44.728  19.239  24.385  1.00  0.00     0.124 S 
ATOM     76  O   UNL A   1      44.525  19.778  23.043  1.00  0.00    -0.237 OA
ATOM     77  O   UNL A   1      46.116  19.046  24.788  1.00  0.00    -0.237 OA
ATOM     78  O   UNL A   1      43.808  18.172  24.766  1.00  0.00    -0.744 OA
ENDBRANCH  74  75
ENDBRANCH  53  67
BRANCH  54  79
ATOM     79  C   UNL A   1      41.516  30.377  33.109  1.00  0.00     0.058 A 
ATOM     80  C   UNL A   1      40.303  29.688  33.329  1.00  0.00     0.135 A 
ATOM     81  C   UNL A   1      41.638  31.642  33.696  1.00  0.00     0.135 A 
ATOM     82  F   UNL A   1      40.116  28.476  32.782  1.00  0.00    -0.206 F 
ATOM     83  C   UNL A   1      39.312  30.172  34.181  1.00  0.00     0.059 A 
ATOM     84  C   UNL A   1      40.653  32.150  34.559  1.00  0.00     0.059 A 
ATOM     85  F   UNL A   1      42.755  32.362  33.519  1.00  0.00    -0.206 F 
ATOM     86  C   UNL A   1      39.520  31.381  34.837  1.00  0.00     0.060 A 
BRANCH  86  87
ATOM     87  S   UNL A   1      38.295  31.926  36.059  1.00  0.00     0.124 S 
ATOM     88  O   UNL A   1      37.173  32.330  35.218  1.00  0.00    -0.237 OA
ATOM     89  O   UNL A   1      38.077  30.711  36.840  1.00  0.00    -0.237 OA
ATOM     90  O   UNL A   1      38.978  33.011  36.751  1.00  0.00    -0.744 OA
ENDBRANCH  86  87
ENDBRANCH  54  79
BRANCH  66  91
ATOM     91  C   UNL A   1      44.933  23.872  33.697  1.00  0.00     0.058 A 
ATOM     92  C   UNL A   1      44.073  22.837  34.099  1.00  0.00     0.135 A 
ATOM     93  C   UNL A   1      46.309  23.662  33.970  1.00  0.00     0.135 A 
ATOM     94  F   UNL A   1      42.762  22.876  33.825  1.00  0.00    -0.206 F 
ATOM     95  C   UNL A   1      44.538  21.694  34.755  1.00  0.00     0.059 A 
ATOM     96  C   UNL A   1      46.799  22.505  34.566  1.00  0.00     0.059 A 
ATOM     97  F   UNL A   1      47.236  24.577  33.646  1.00  0.00    -0.206 F 
ATOM     98  C   UNL A   1      45.903  21.530  34.973  1.00  0.00     0.060 A 
BRANCH  98  99
ATOM     99  S   UNL A   1      46.527  20.015  35.723  1.00  0.00     0.124 S 
ATOM    100  O   UNL A   1      47.931  20.050  35.326  1.00  0.00    -0.237 OA
ATOM    101  O   UNL A   1      46.268  20.226  37.145  1.00  0.00    -0.237 OA
ATOM    102  O   UNL A   1      45.716  18.977  35.096  1.00  0.00    -0.744 OA
ENDBRANCH  98  99
ENDBRANCH  66  91
ENDBRANCH  40  41
ENDBRANCH  32  35
ENDBRANCH  30  31
ENDBRANCH  29  30
ENDBRANCH   1  29
TORSDOF 18
ENDMDL
MODEL 2
REMARK VINA RESULT:     -13.7      1.607      4.192
REMARK SMILES Cc1ccc(-c2nc(C)cc(N3CCCC[C@H]3C(=O)NCCCCCCNC(=O)c3ccc(-c4c5nc(c(-c6c(F)cc(S(=O)(=O)[O-])cc6F)c6ccc([nH]6)c(-c6c(F)cc(S(=O)(=O)[O-])cc6F)c6nc(c(-c7c(F)cc(S(=O)(=O)[O-])cc7F)c7ccc4[nH]7)C=C6)C=C5)cc3)n2)cc1
REMARK SMILES IDX 24 1 23 2 22 3 21 4 20 5 18 6 19 7 17 9 12 10 13 11 14 12
REMARK SMILES IDX 16 13 15 14 11 15 6 16 7 17 96 18 8 19 9 20 10 21 5 22 1 23
REMARK SMILES IDX 2 24 3 25 98 26 4 27 97 28 25 29 26 30 27 31 28 32 29 34
REMARK SMILES IDX 30 35 31 36 95 37 32 38 94 39 33 40 34 41 35 42 88 43 36 44
REMARK SMILES IDX 93 45 87 46 89 47 37 48 92 49 86 50 85 51 38 53 72 54 51 55
REMARK SMILES IDX 71 56 52 57 55 58 70 59 90 60 53 61 54 62 69 64 91 65 56 66
REMARK SMILES IDX 39 67 40 68 49 69 41 70 42 71 48 72 50 73 43 74 44 75 45 76
REMARK SMILES IDX 46 77 47 78 73 79 74 80 83 81 75 82 76 83 82 84 84 85 77 86
REMARK SMILES IDX 78 87 79 88 80 89 81 90 57 91 58 92 67 93 59 94 60 95 66 96
REMARK SMILES IDX 68 97 61 98 62 99 63 100 64 101 65 102
REMARK H PARENT 20 8 27 33 89 52 55 63
REMARK Flexibility Score: inf
ROOT
ATOM      1  C   UNL A   1      33.235  29.560  27.962  1.00  0.00     0.002 C 
ENDROOT
BRANCH   1   2
ATOM      2  C   UNL A   1      32.075  29.043  27.097  1.00  0.00     0.002 C 
BRANCH   2   3
ATOM      3  C   UNL A   1      31.372  27.766  27.572  1.00  0.00     0.021 C 
BRANCH   3   4
ATOM      4  C   UNL A   1      31.277  26.641  26.540  1.00  0.00     0.116 C 
BRANCH   4   5
ATOM      5  N   UNL A   1      31.596  25.346  27.099  1.00  0.00    -0.354 N 
ATOM      6  C   UNL A   1      31.924  24.141  26.575  1.00  0.00     0.242 C 
ATOM      7  O   UNL A   1      32.285  23.297  27.417  1.00  0.00    -0.273 OA
ATOM      8  H   UNL A   1      31.569  25.339  28.083  1.00  0.00     0.163 HD
BRANCH   6   9
ATOM      9  C   UNL A   1      31.902  23.728  25.070  1.00  0.00     0.173 C 
ATOM     10  N   UNL A   1      32.892  24.554  24.340  1.00  0.00    -0.344 N 
ATOM     11  C   UNL A   1      34.283  24.117  24.355  1.00  0.00     0.119 C 
ATOM     12  C   UNL A   1      34.414  22.690  23.836  1.00  0.00     0.022 C 
ATOM     13  C   UNL A   1      32.033  22.283  24.576  1.00  0.00     0.035 C 
ATOM     14  C   UNL A   1      33.469  21.753  24.581  1.00  0.00     0.004 C 
BRANCH  10  15
ATOM     15  C   UNL A   1      32.438  25.260  23.239  1.00  0.00     0.133 A 
ATOM     16  C   UNL A   1      31.129  26.898  22.315  1.00  0.00     0.161 A 
ATOM     17  N   UNL A   1      31.481  26.600  21.051  1.00  0.00    -0.233 NA
ATOM     18  N   UNL A   1      31.566  26.262  23.417  1.00  0.00    -0.211 NA
ATOM     19  C   UNL A   1      32.368  25.599  20.901  1.00  0.00     0.043 A 
ATOM     20  C   UNL A   1      32.758  25.245  19.500  1.00  0.00     0.067 C 
ATOM     21  C   UNL A   1      32.883  24.906  21.978  1.00  0.00     0.070 A 
BRANCH  16  22
ATOM     22  C   UNL A   1      30.213  28.022  22.509  1.00  0.00     0.019 A 
ATOM     23  C   UNL A   1      27.492  31.340  23.082  1.00  0.00     0.044 C 
ATOM     24  C   UNL A   1      28.435  30.195  22.869  1.00  0.00    -0.051 A 
ATOM     25  C   UNL A   1      28.058  28.899  23.237  1.00  0.00     0.004 A 
ATOM     26  C   UNL A   1      29.709  30.404  22.330  1.00  0.00     0.004 A 
ATOM     27  C   UNL A   1      28.933  27.825  23.049  1.00  0.00     0.012 A 
ATOM     28  C   UNL A   1      30.589  29.329  22.159  1.00  0.00     0.012 A 
ENDBRANCH  16  22
ENDBRANCH  10  15
ENDBRANCH   6   9
ENDBRANCH   4   5
ENDBRANCH   3   4
ENDBRANCH   2   3
ENDBRANCH   1   2
BRANCH   1  29
ATOM     29  C   UNL A   1      34.639  29.422  27.370  1.00  0.00     0.021 C 
BRANCH  29  30
ATOM     30  C   UNL A   1      35.401  30.738  27.263  1.00  0.00     0.116 C 
BRANCH  30  31
ATOM     31  N   UNL A   1      35.797  31.269  28.566  1.00  0.00    -0.352 N 
ATOM     32  C   UNL A   1      36.593  30.681  29.531  1.00  0.00     0.251 C 
ATOM     33  H   UNL A   1      35.451  32.165  28.786  1.00  0.00     0.163 HD
ATOM     34  O   UNL A   1      36.770  31.152  30.650  1.00  0.00    -0.269 OA
BRANCH  32  35
ATOM     35  C   UNL A   1      37.375  29.510  29.106  1.00  0.00     0.039 A 
ATOM     36  C   UNL A   1      37.617  28.542  30.088  1.00  0.00     0.014 A 
ATOM     37  C   UNL A   1      38.151  29.604  27.955  1.00  0.00     0.014 A 
ATOM     38  C   UNL A   1      38.797  27.819  30.030  1.00  0.00     0.010 A 
ATOM     39  C   UNL A   1      39.369  28.964  27.952  1.00  0.00     0.010 A 
ATOM     40  C   UNL A   1      39.709  28.124  29.021  1.00  0.00    -0.014 A 
BRANCH  40  41
ATOM     41  C   UNL A   1      41.074  27.629  29.041  1.00  0.00     0.031 A 
ATOM     42  C   UNL A   1      41.315  26.254  28.569  1.00  0.00     0.074 A 
ATOM     43  C   UNL A   1      42.068  28.417  29.504  1.00  0.00     0.049 A 
ATOM     44  N   UNL A   1      42.270  25.498  28.979  1.00  0.00    -0.248 NA
ATOM     45  C   UNL A   1      40.423  25.600  27.617  1.00  0.00     0.031 C 
ATOM     46  C   UNL A   1      43.500  28.143  29.484  1.00  0.00     0.029 A 
ATOM     47  N   UNL A   1      41.936  29.549  30.319  1.00  0.00    -0.354 N 
ATOM     48  C   UNL A   1      42.270  24.368  28.192  1.00  0.00     0.074 A 
ATOM     49  C   UNL A   1      41.069  24.454  27.396  1.00  0.00     0.031 C 
ATOM     50  C   UNL A   1      44.086  28.869  30.451  1.00  0.00     0.029 A 
ATOM     51  C   UNL A   1      43.033  29.537  31.200  1.00  0.00     0.049 A 
ATOM     52  H   UNL A   1      41.216  30.221  30.282  1.00  0.00     0.167 HD
ATOM     53  C   UNL A   1      43.357  23.547  28.199  1.00  0.00     0.037 A 
ATOM     54  C   UNL A   1      42.835  29.412  32.544  1.00  0.00     0.037 A 
ATOM     55  C   UNL A   1      44.339  24.008  29.175  1.00  0.00     0.049 A 
ATOM     56  C   UNL A   1      43.411  28.130  33.111  1.00  0.00     0.074 A 
ATOM     57  C   UNL A   1      45.425  24.862  29.059  1.00  0.00     0.029 A 
ATOM     58  N   UNL A   1      44.045  23.928  30.533  1.00  0.00    -0.354 N 
ATOM     59  N   UNL A   1      43.713  27.081  32.390  1.00  0.00    -0.248 NA
ATOM     60  C   UNL A   1      43.733  27.937  34.524  1.00  0.00     0.031 C 
ATOM     61  C   UNL A   1      45.706  25.390  30.346  1.00  0.00     0.029 A 
ATOM     62  C   UNL A   1      44.828  24.817  31.249  1.00  0.00     0.049 A 
ATOM     63  H   UNL A   1      43.376  23.325  30.928  1.00  0.00     0.167 HD
ATOM     64  C   UNL A   1      44.269  26.112  33.188  1.00  0.00     0.074 A 
ATOM     65  C   UNL A   1      44.264  26.700  34.516  1.00  0.00     0.031 C 
ATOM     66  C   UNL A   1      44.712  24.913  32.698  1.00  0.00     0.037 A 
BRANCH  53  67
ATOM     67  C   UNL A   1      43.625  22.583  27.065  1.00  0.00     0.058 A 
ATOM     68  C   UNL A   1      42.842  21.422  26.906  1.00  0.00     0.135 A 
ATOM     69  C   UNL A   1      44.703  22.703  26.165  1.00  0.00     0.135 A 
ATOM     70  F   UNL A   1      41.734  21.222  27.632  1.00  0.00    -0.206 F 
ATOM     71  C   UNL A   1      43.175  20.402  26.014  1.00  0.00     0.059 A 
ATOM     72  C   UNL A   1      45.093  21.670  25.306  1.00  0.00     0.059 A 
ATOM     73  F   UNL A   1      45.408  23.841  26.080  1.00  0.00    -0.206 F 
ATOM     74  C   UNL A   1      44.327  20.514  25.245  1.00  0.00     0.060 A 
BRANCH  74  75
ATOM     75  S   UNL A   1      44.799  19.135  24.183  1.00  0.00     0.124 S 
ATOM     76  O   UNL A   1      44.544  19.671  22.847  1.00  0.00    -0.237 OA
ATOM     77  O   UNL A   1      46.202  18.951  24.535  1.00  0.00    -0.237 OA
ATOM     78  O   UNL A   1      43.899  18.063  24.598  1.00  0.00    -0.744 OA
ENDBRANCH  74  75
ENDBRANCH  53  67
BRANCH  54  79
ATOM     79  C   UNL A   1      41.664  30.191  33.044  1.00  0.00     0.058 A 
ATOM     80  C   UNL A   1      40.477  29.477  33.320  1.00  0.00     0.135 A 
ATOM     81  C   UNL A   1      41.776  31.469  33.604  1.00  0.00     0.135 A 
ATOM     82  F   UNL A   1      40.300  28.251  32.802  1.00  0.00    -0.206 F 
ATOM     83  C   UNL A   1      39.506  29.953  34.200  1.00  0.00     0.059 A 
ATOM     84  C   UNL A   1      40.811  31.969  34.492  1.00  0.00     0.059 A 
ATOM     85  F   UNL A   1      42.869  32.212  33.374  1.00  0.00    -0.206 F 
ATOM     86  C   UNL A   1      39.707  31.179  34.826  1.00  0.00     0.060 A 
BRANCH  86  87
ATOM     87  S   UNL A   1      38.515  31.717  36.082  1.00  0.00     0.124 S 
ATOM     88  O   UNL A   1      37.432  32.263  35.270  1.00  0.00    -0.237 OA
ATOM     89  O   UNL A   1      38.204  30.466  36.768  1.00  0.00    -0.237 OA
ATOM     90  O   UNL A   1      39.268  32.695  36.856  1.00  0.00    -0.744 OA
ENDBRANCH  86  87
ENDBRANCH  54  79
BRANCH  66  91
ATOM     91  C   UNL A   1      45.176  23.727  33.515  1.00  0.00     0.058 A 
ATOM     92  C   UNL A   1      46.482  23.574  34.008  1.00  0.00     0.135 A 
ATOM     93  C   UNL A   1      44.233  22.773  33.978  1.00  0.00     0.135 A 
ATOM     94  F   UNL A   1      47.445  24.457  33.713  1.00  0.00    -0.206 F 
ATOM     95  C   UNL A   1      46.836  22.532  34.870  1.00  0.00     0.059 A 
ATOM     96  C   UNL A   1      44.551  21.766  34.883  1.00  0.00     0.059 A 
ATOM     97  F   UNL A   1      42.953  22.800  33.576  1.00  0.00    -0.206 F 
ATOM     98  C   UNL A   1      45.862  21.640  35.312  1.00  0.00     0.060 A 
BRANCH  98  99
ATOM     99  S   UNL A   1      46.282  20.356  36.504  1.00  0.00     0.124 S 
ATOM    100  O   UNL A   1      45.516  19.223  35.993  1.00  0.00    -0.237 OA
ATOM    101  O   UNL A   1      47.732  20.249  36.368  1.00  0.00    -0.237 OA
ATOM    102  O   UNL A   1      45.819  20.914  37.769  1.00  0.00    -0.744 OA
ENDBRANCH  98  99
ENDBRANCH  66  91
ENDBRANCH  40  41
ENDBRANCH  32  35
ENDBRANCH  30  31
ENDBRANCH  29  30
ENDBRANCH   1  29
TORSDOF 18
ENDMDL
MODEL 3
REMARK VINA RESULT:     -13.6      4.904     11.751
REMARK SMILES Cc1ccc(-c2nc(C)cc(N3CCCC[C@H]3C(=O)NCCCCCCNC(=O)c3ccc(-c4c5nc(c(-c6c(F)cc(S(=O)(=O)[O-])cc6F)c6ccc([nH]6)c(-c6c(F)cc(S(=O)(=O)[O-])cc6F)c6nc(c(-c7c(F)cc(S(=O)(=O)[O-])cc7F)c7ccc4[nH]7)C=C6)C=C5)cc3)n2)cc1
REMARK SMILES IDX 24 1 23 2 22 3 21 4 20 5 18 6 19 7 17 9 12 10 13 11 14 12
REMARK SMILES IDX 16 13 15 14 11 15 6 16 7 17 96 18 8 19 9 20 10 21 5 22 1 23
REMARK SMILES IDX 2 24 3 25 98 26 4 27 97 28 25 29 26 30 27 31 28 32 29 34
REMARK SMILES IDX 30 35 31 36 95 37 32 38 94 39 33 40 34 41 35 42 88 43 36 44
REMARK SMILES IDX 93 45 87 46 89 47 37 48 92 49 86 50 85 51 38 53 72 54 51 55
REMARK SMILES IDX 71 56 52 57 55 58 70 59 90 60 53 61 54 62 69 64 91 65 56 66
REMARK SMILES IDX 39 67 40 68 49 69 41 70 42 71 48 72 50 73 43 74 44 75 45 76
REMARK SMILES IDX 46 77 47 78 73 79 74 80 83 81 75 82 76 83 82 84 84 85 77 86
REMARK SMILES IDX 78 87 79 88 80 89 81 90 57 91 58 92 67 93 59 94 60 95 66 96
REMARK SMILES IDX 68 97 61 98 62 99 63 100 64 101 65 102
REMARK H PARENT 20 8 27 33 89 52 55 63
REMARK Flexibility Score: inf
ROOT
ATOM      1  C   UNL A   1      36.625  23.147  25.898  1.00  0.00     0.002 C 
ENDROOT
BRANCH   1   2
ATOM      2  C   UNL A   1      37.015  21.691  25.598  1.00  0.00     0.002 C 
BRANCH   2   3
ATOM      3  C   UNL A   1      36.070  20.893  24.691  1.00  0.00     0.021 C 
BRANCH   3   4
ATOM      4  C   UNL A   1      34.810  20.348  25.366  1.00  0.00     0.116 C 
BRANCH   4   5
ATOM      5  N   UNL A   1      34.403  21.139  26.507  1.00  0.00    -0.354 N 
ATOM      6  C   UNL A   1      33.367  21.971  26.763  1.00  0.00     0.242 C 
ATOM      7  O   UNL A   1      33.290  22.344  27.948  1.00  0.00    -0.273 OA
ATOM      8  H   UNL A   1      35.020  21.053  27.269  1.00  0.00     0.163 HD
BRANCH   6   9
ATOM      9  C   UNL A   1      32.293  22.480  25.751  1.00  0.00     0.173 C 
ATOM     10  N   UNL A   1      32.851  23.634  25.009  1.00  0.00    -0.344 N 
ATOM     11  C   UNL A   1      33.690  23.353  23.850  1.00  0.00     0.119 C 
ATOM     12  C   UNL A   1      32.956  22.480  22.841  1.00  0.00     0.022 C 
ATOM     13  C   UNL A   1      31.565  21.578  24.748  1.00  0.00     0.035 C 
ATOM     14  C   UNL A   1      32.397  21.229  23.510  1.00  0.00     0.004 C 
BRANCH  10  15
ATOM     15  C   UNL A   1      32.118  24.808  25.019  1.00  0.00     0.133 A 
ATOM     16  C   UNL A   1      31.875  27.009  25.606  1.00  0.00     0.161 A 
ATOM     17  N   UNL A   1      30.629  27.105  25.107  1.00  0.00    -0.233 NA
ATOM     18  N   UNL A   1      32.638  25.902  25.592  1.00  0.00    -0.211 NA
ATOM     19  C   UNL A   1      30.136  25.996  24.524  1.00  0.00     0.043 A 
ATOM     20  C   UNL A   1      28.745  26.082  23.977  1.00  0.00     0.067 C 
ATOM     21  C   UNL A   1      30.857  24.823  24.449  1.00  0.00     0.070 A 
BRANCH  16  22
ATOM     22  C   UNL A   1      32.458  28.217  26.191  1.00  0.00     0.019 A 
ATOM     23  C   UNL A   1      34.176  31.797  27.916  1.00  0.00     0.044 C 
ATOM     24  C   UNL A   1      33.593  30.556  27.309  1.00  0.00    -0.051 A 
ATOM     25  C   UNL A   1      32.273  30.557  26.846  1.00  0.00     0.004 A 
ATOM     26  C   UNL A   1      34.343  29.379  27.221  1.00  0.00     0.004 A 
ATOM     27  C   UNL A   1      31.717  29.404  26.285  1.00  0.00     0.012 A 
ATOM     28  C   UNL A   1      33.777  28.221  26.674  1.00  0.00     0.012 A 
ENDBRANCH  16  22
ENDBRANCH  10  15
ENDBRANCH   6   9
ENDBRANCH   4   5
ENDBRANCH   3   4
ENDBRANCH   2   3
ENDBRANCH   1   2
BRANCH   1  29
ATOM     29  C   UNL A   1      37.740  24.058  26.415  1.00  0.00     0.021 C 
BRANCH  29  30
ATOM     30  C   UNL A   1      39.049  23.937  25.645  1.00  0.00     0.116 C 
BRANCH  30  31
ATOM     31  N   UNL A   1      40.196  23.683  26.517  1.00  0.00    -0.352 N 
ATOM     32  C   UNL A   1      40.851  24.564  27.358  1.00  0.00     0.251 C 
ATOM     33  H   UNL A   1      40.548  22.764  26.504  1.00  0.00     0.163 HD
ATOM     34  O   UNL A   1      41.884  24.291  27.961  1.00  0.00    -0.269 OA
BRANCH  32  35
ATOM     35  C   UNL A   1      40.160  25.831  27.641  1.00  0.00     0.039 A 
ATOM     36  C   UNL A   1      40.625  26.954  26.945  1.00  0.00     0.014 A 
ATOM     37  C   UNL A   1      39.418  25.944  28.813  1.00  0.00     0.014 A 
ATOM     38  C   UNL A   1      40.552  28.193  27.560  1.00  0.00     0.010 A 
ATOM     39  C   UNL A   1      39.441  27.154  29.468  1.00  0.00     0.010 A 
ATOM     40  C   UNL A   1      40.062  28.254  28.864  1.00  0.00    -0.014 A 
BRANCH  40  41
ATOM     41  C   UNL A   1      40.207  29.443  29.685  1.00  0.00     0.031 A 
ATOM     42  C   UNL A   1      39.118  30.434  29.660  1.00  0.00     0.074 A 
ATOM     43  C   UNL A   1      41.325  29.618  30.421  1.00  0.00     0.049 A 
ATOM     44  N   UNL A   1      39.272  31.694  29.863  1.00  0.00    -0.248 NA
ATOM     45  C   UNL A   1      37.746  30.062  29.329  1.00  0.00     0.031 C 
ATOM     46  C   UNL A   1      41.592  30.673  31.393  1.00  0.00     0.029 A 
ATOM     47  N   UNL A   1      42.561  28.981  30.244  1.00  0.00    -0.354 N 
ATOM     48  C   UNL A   1      38.018  32.260  29.928  1.00  0.00     0.074 A 
ATOM     49  C   UNL A   1      37.104  31.214  29.536  1.00  0.00     0.031 C 
ATOM     50  C   UNL A   1      42.923  30.814  31.514  1.00  0.00     0.029 A 
ATOM     51  C   UNL A   1      43.549  29.939  30.535  1.00  0.00     0.049 A 
ATOM     52  H   UNL A   1      42.708  28.047  29.968  1.00  0.00     0.167 HD
ATOM     53  C   UNL A   1      37.874  33.514  30.440  1.00  0.00     0.037 A 
ATOM     54  C   UNL A   1      44.416  30.352  29.565  1.00  0.00     0.037 A 
ATOM     55  C   UNL A   1      39.178  34.089  30.756  1.00  0.00     0.049 A 
ATOM     56  C   UNL A   1      44.259  31.818  29.215  1.00  0.00     0.074 A 
ATOM     57  C   UNL A   1      39.933  34.082  31.918  1.00  0.00     0.029 A 
ATOM     58  N   UNL A   1      40.051  34.415  29.723  1.00  0.00    -0.354 N 
ATOM     59  N   UNL A   1      43.195  32.527  29.492  1.00  0.00    -0.248 NA
ATOM     60  C   UNL A   1      45.297  32.615  28.564  1.00  0.00     0.031 C 
ATOM     61  C   UNL A   1      41.290  34.289  31.561  1.00  0.00     0.029 A 
ATOM     62  C   UNL A   1      41.352  34.474  30.191  1.00  0.00     0.049 A 
ATOM     63  H   UNL A   1      39.782  34.582  28.791  1.00  0.00     0.167 HD
ATOM     64  C   UNL A   1      43.389  33.830  29.103  1.00  0.00     0.074 A 
ATOM     65  C   UNL A   1      44.724  33.833  28.531  1.00  0.00     0.031 C 
ATOM     66  C   UNL A   1      42.453  34.809  29.298  1.00  0.00     0.037 A 
BRANCH  53  67
ATOM     67  C   UNL A   1      36.543  34.005  30.962  1.00  0.00     0.058 A 
ATOM     68  C   UNL A   1      35.532  34.424  30.074  1.00  0.00     0.135 A 
ATOM     69  C   UNL A   1      36.246  34.179  32.329  1.00  0.00     0.135 A 
ATOM     70  F   UNL A   1      35.639  34.235  28.752  1.00  0.00    -0.206 F 
ATOM     71  C   UNL A   1      34.374  35.078  30.501  1.00  0.00     0.059 A 
ATOM     72  C   UNL A   1      35.125  34.885  32.778  1.00  0.00     0.059 A 
ATOM     73  F   UNL A   1      37.033  33.652  33.279  1.00  0.00    -0.206 F 
ATOM     74  C   UNL A   1      34.197  35.342  31.853  1.00  0.00     0.060 A 
BRANCH  74  75
ATOM     75  S   UNL A   1      32.750  36.287  32.370  1.00  0.00     0.124 S 
ATOM     76  O   UNL A   1      31.738  35.245  32.527  1.00  0.00    -0.237 OA
ATOM     77  O   UNL A   1      33.221  36.906  33.603  1.00  0.00    -0.237 OA
ATOM     78  O   UNL A   1      32.525  37.200  31.253  1.00  0.00    -0.744 OA
ENDBRANCH  74  75
ENDBRANCH  53  67
BRANCH  54  79
ATOM     79  C   UNL A   1      44.886  29.244  28.682  1.00  0.00     0.058 A 
ATOM     80  C   UNL A   1      44.295  29.134  27.405  1.00  0.00     0.135 A 
ATOM     81  C   UNL A   1      46.098  28.570  28.877  1.00  0.00     0.135 A 
ATOM     82  F   UNL A   1      43.125  29.744  27.156  1.00  0.00    -0.206 F 
ATOM     83  C   UNL A   1      44.928  28.491  26.341  1.00  0.00     0.059 A 
ATOM     84  C   UNL A   1      46.753  27.917  27.822  1.00  0.00     0.059 A 
ATOM     85  F   UNL A   1      46.710  28.617  30.070  1.00  0.00    -0.206 F 
ATOM     86  C   UNL A   1      46.185  27.932  26.545  1.00  0.00     0.060 A 
BRANCH  86  87
ATOM     87  S   UNL A   1      47.064  27.235  25.120  1.00  0.00     0.124 S 
ATOM     88  O   UNL A   1      46.151  26.188  24.672  1.00  0.00    -0.237 OA
ATOM     89  O   UNL A   1      47.171  28.387  24.229  1.00  0.00    -0.237 OA
ATOM     90  O   UNL A   1      48.316  26.764  25.701  1.00  0.00    -0.744 OA
ENDBRANCH  86  87
ENDBRANCH  54  79
BRANCH  66  91
ATOM     91  C   UNL A   1      42.504  36.220  28.753  1.00  0.00     0.058 A 
ATOM     92  C   UNL A   1      43.269  37.253  29.317  1.00  0.00     0.135 A 
ATOM     93  C   UNL A   1      41.896  36.520  27.507  1.00  0.00     0.135 A 
ATOM     94  F   UNL A   1      43.962  37.068  30.449  1.00  0.00    -0.206 F 
ATOM     95  C   UNL A   1      43.395  38.505  28.709  1.00  0.00     0.059 A 
ATOM     96  C   UNL A   1      42.058  37.738  26.856  1.00  0.00     0.059 A 
ATOM     97  F   UNL A   1      41.130  35.625  26.866  1.00  0.00    -0.206 F 
ATOM     98  C   UNL A   1      42.797  38.735  27.473  1.00  0.00     0.060 A 
BRANCH  98  99
ATOM     99  S   UNL A   1      43.037  40.308  26.628  1.00  0.00     0.124 S 
ATOM    100  O   UNL A   1      43.288  41.206  27.751  1.00  0.00    -0.237 OA
ATOM    101  O   UNL A   1      44.184  40.042  25.765  1.00  0.00    -0.237 OA
ATOM    102  O   UNL A   1      41.771  40.506  25.930  1.00  0.00    -0.744 OA
ENDBRANCH  98  99
ENDBRANCH  66  91
ENDBRANCH  40  41
ENDBRANCH  32  35
ENDBRANCH  30  31
ENDBRANCH  29  30
ENDBRANCH   1  29
TORSDOF 18
ENDMDL
