MODEL 1
REMARK VINA RESULT:     -12.2      0.000      0.000
REMARK SMILES C[C@]12CCC(=O)N1[C@@H](C(=O)N1C[C@H](O)C[C@@H]1C(=O)NCCCCCCNC(=O)c1ccc(-c3c4nc(c(-c5c(F)cc(S(=O)(=O)[O-])cc5F)c5ccc([nH]5)c(-c5c(F)cc(S(=O)(=O)[O-])cc5F)c5nc(c(-c6c(F)cc(S(=O)(=O)[O-])cc6F)c6ccc3[nH]6)C=C5)C=C4)cc1)CS2
REMARK SMILES IDX 23 1 22 2 21 3 20 4 19 5 17 6 18 7 16 9 11 10 12 11 13 12
REMARK SMILES IDX 15 13 9 14 10 15 8 16 1 17 2 18 3 19 7 20 96 21 4 22 5 23
REMARK SMILES IDX 95 24 6 25 14 26 24 28 25 29 26 30 27 31 28 33 29 34 30 35
REMARK SMILES IDX 94 36 31 37 93 38 32 39 33 40 34 41 87 42 35 43 92 44 86 45
REMARK SMILES IDX 88 46 36 47 91 48 85 49 84 50 37 52 71 53 50 54 70 55 51 56
REMARK SMILES IDX 54 57 69 58 89 59 52 60 53 61 68 63 90 64 55 65 38 66 39 67
REMARK SMILES IDX 48 68 40 69 41 70 47 71 49 72 42 73 43 74 44 75 45 76 46 77
REMARK SMILES IDX 72 78 73 79 82 80 74 81 75 82 81 83 83 84 76 85 77 86 78 87
REMARK SMILES IDX 79 88 80 89 56 90 57 91 66 92 58 93 59 94 65 95 67 96 60 97
REMARK SMILES IDX 61 98 62 99 63 100 64 101
REMARK H PARENT 19 8 14 27 26 32 88 51 54 62
REMARK Flexibility Score: inf
ROOT
ATOM      1  C   UNL A   1      39.891  21.416  26.485  1.00  0.00     0.002 C 
ENDROOT
BRANCH   1   2
ATOM      2  C   UNL A   1      38.628  21.891  25.761  1.00  0.00     0.002 C 
BRANCH   2   3
ATOM      3  C   UNL A   1      38.143  23.297  26.121  1.00  0.00     0.021 C 
BRANCH   3   4
ATOM      4  C   UNL A   1      36.650  23.537  25.914  1.00  0.00     0.116 C 
BRANCH   4   5
ATOM      5  N   UNL A   1      35.850  22.719  26.800  1.00  0.00    -0.354 N 
ATOM      6  C   UNL A   1      34.567  22.286  26.705  1.00  0.00     0.242 C 
ATOM      7  O   UNL A   1      34.106  21.706  27.698  1.00  0.00    -0.273 OA
ATOM      8  H   UNL A   1      36.318  22.425  27.615  1.00  0.00     0.163 HD
BRANCH   6   9
ATOM      9  C   UNL A   1      33.654  22.509  25.472  1.00  0.00     0.177 C 
ATOM     10  N   UNL A   1      32.248  22.855  25.675  1.00  0.00    -0.326 N 
ATOM     11  C   UNL A   1      31.381  21.795  25.163  1.00  0.00     0.152 C 
ATOM     12  C   UNL A   1      32.297  20.614  24.849  1.00  0.00     0.136 C 
ATOM     13  C   UNL A   1      33.646  21.260  24.582  1.00  0.00     0.069 C 
BRANCH  10  14
ATOM     14  C   UNL A   1      31.667  24.066  25.986  1.00  0.00     0.247 C 
ATOM     15  O   UNL A   1      31.382  24.315  27.166  1.00  0.00    -0.272 OA
BRANCH  14  16
ATOM     16  C   UNL A   1      31.215  25.070  24.899  1.00  0.00     0.186 C 
ATOM     17  C   UNL A   1      31.659  26.007  21.847  1.00  0.00     0.047 C 
ATOM     18  C   UNL A   1      31.791  26.715  23.195  1.00  0.00     0.087 C 
ATOM     19  C   UNL A   1      32.788  27.869  23.118  1.00  0.00     0.049 C 
ATOM     20  N   UNL A   1      32.270  25.849  24.240  1.00  0.00    -0.315 N 
ATOM     21  S   UNL A   1      30.117  27.221  23.761  1.00  0.00    -0.131 SA
ATOM     22  C   UNL A   1      33.700  27.715  24.322  1.00  0.00     0.103 C 
ATOM     23  C   UNL A   1      33.363  26.376  24.903  1.00  0.00     0.224 C 
ATOM     24  C   UNL A   1      30.058  26.025  25.153  1.00  0.00     0.107 C 
ATOM     25  O   UNL A   1      33.940  25.905  25.872  1.00  0.00    -0.275 OA
ENDBRANCH  14  16
ENDBRANCH  10  14
BRANCH  12  26
ATOM     26  O   UNL A   1      32.414  19.723  25.955  1.00  0.00    -0.391 OA
ATOM     27  H   UNL A   1      31.894  18.923  25.782  1.00  0.00     0.211 HD
ENDBRANCH  12  26
ENDBRANCH   6   9
ENDBRANCH   4   5
ENDBRANCH   3   4
ENDBRANCH   2   3
ENDBRANCH   1   2
BRANCH   1  28
ATOM     28  C   UNL A   1      40.409  22.320  27.607  1.00  0.00     0.021 C 
BRANCH  28  29
ATOM     29  C   UNL A   1      41.738  23.024  27.342  1.00  0.00     0.116 C 
BRANCH  29  30
ATOM     30  N   UNL A   1      41.709  23.867  26.162  1.00  0.00    -0.352 N 
ATOM     31  C   UNL A   1      41.517  25.225  26.067  1.00  0.00     0.251 C 
ATOM     32  H   UNL A   1      41.846  23.401  25.306  1.00  0.00     0.163 HD
ATOM     33  O   UNL A   1      41.420  25.752  24.963  1.00  0.00    -0.269 OA
BRANCH  31  34
ATOM     34  C   UNL A   1      41.391  26.045  27.293  1.00  0.00     0.039 A 
ATOM     35  C   UNL A   1      42.435  26.914  27.622  1.00  0.00     0.014 A 
ATOM     36  C   UNL A   1      40.261  25.961  28.112  1.00  0.00     0.014 A 
ATOM     37  C   UNL A   1      42.318  27.749  28.736  1.00  0.00     0.010 A 
ATOM     38  C   UNL A   1      40.125  26.828  29.197  1.00  0.00     0.010 A 
ATOM     39  C   UNL A   1      41.147  27.736  29.512  1.00  0.00    -0.014 A 
BRANCH  39  40
ATOM     40  C   UNL A   1      40.968  28.687  30.637  1.00  0.00     0.031 A 
ATOM     41  C   UNL A   1      41.814  28.575  31.873  1.00  0.00     0.074 A 
ATOM     42  C   UNL A   1      39.994  29.616  30.566  1.00  0.00     0.049 A 
ATOM     43  N   UNL A   1      41.754  29.270  32.979  1.00  0.00    -0.248 NA
ATOM     44  C   UNL A   1      42.851  27.531  31.873  1.00  0.00     0.031 C 
ATOM     45  C   UNL A   1      39.079  29.798  29.438  1.00  0.00     0.029 A 
ATOM     46  N   UNL A   1      39.602  30.572  31.469  1.00  0.00    -0.354 N 
ATOM     47  C   UNL A   1      42.732  28.743  33.813  1.00  0.00     0.074 A 
ATOM     48  C   UNL A   1      43.351  27.648  33.095  1.00  0.00     0.031 C 
ATOM     49  C   UNL A   1      38.239  30.810  29.712  1.00  0.00     0.029 A 
ATOM     50  C   UNL A   1      38.537  31.328  31.043  1.00  0.00     0.049 A 
ATOM     51  H   UNL A   1      40.042  30.704  32.340  1.00  0.00     0.167 HD
ATOM     52  C   UNL A   1      43.090  29.145  35.056  1.00  0.00     0.037 A 
ATOM     53  C   UNL A   1      37.868  32.322  31.659  1.00  0.00     0.037 A 
ATOM     54  C   UNL A   1      42.495  30.253  35.755  1.00  0.00     0.049 A 
ATOM     55  C   UNL A   1      38.286  32.751  33.036  1.00  0.00     0.074 A 
ATOM     56  C   UNL A   1      42.844  30.785  36.984  1.00  0.00     0.029 A 
ATOM     57  N   UNL A   1      41.422  30.998  35.288  1.00  0.00    -0.354 N 
ATOM     58  N   UNL A   1      39.252  32.279  33.786  1.00  0.00    -0.248 NA
ATOM     59  C   UNL A   1      37.521  33.844  33.653  1.00  0.00     0.031 C 
ATOM     60  C   UNL A   1      41.964  31.835  37.274  1.00  0.00     0.029 A 
ATOM     61  C   UNL A   1      41.082  31.971  36.214  1.00  0.00     0.049 A 
ATOM     62  H   UNL A   1      40.968  30.856  34.425  1.00  0.00     0.167 HD
ATOM     63  C   UNL A   1      39.217  33.021  34.961  1.00  0.00     0.074 A 
ATOM     64  C   UNL A   1      38.144  33.984  34.816  1.00  0.00     0.031 C 
ATOM     65  C   UNL A   1      40.003  32.913  36.059  1.00  0.00     0.037 A 
BRANCH  52  66
ATOM     66  C   UNL A   1      44.187  28.379  35.737  1.00  0.00     0.058 A 
ATOM     67  C   UNL A   1      45.535  28.732  35.575  1.00  0.00     0.135 A 
ATOM     68  C   UNL A   1      43.886  27.295  36.576  1.00  0.00     0.135 A 
ATOM     69  F   UNL A   1      45.874  29.752  34.772  1.00  0.00    -0.206 F 
ATOM     70  C   UNL A   1      46.552  28.019  36.201  1.00  0.00     0.059 A 
ATOM     71  C   UNL A   1      44.886  26.579  37.227  1.00  0.00     0.059 A 
ATOM     72  F   UNL A   1      42.611  26.917  36.762  1.00  0.00    -0.206 F 
ATOM     73  C   UNL A   1      46.218  26.939  37.021  1.00  0.00     0.060 A 
BRANCH  73  74
ATOM     74  S   UNL A   1      47.544  26.014  37.822  1.00  0.00     0.124 S 
ATOM     75  O   UNL A   1      47.986  25.143  36.737  1.00  0.00    -0.237 OA
ATOM     76  O   UNL A   1      48.478  27.067  38.208  1.00  0.00    -0.237 OA
ATOM     77  O   UNL A   1      46.869  25.345  38.930  1.00  0.00    -0.744 OA
ENDBRANCH  73  74
ENDBRANCH  52  66
BRANCH  53  78
ATOM     78  C   UNL A   1      36.736  32.985  30.966  1.00  0.00     0.058 A 
ATOM     79  C   UNL A   1      35.415  32.760  31.375  1.00  0.00     0.135 A 
ATOM     80  C   UNL A   1      36.955  33.876  29.905  1.00  0.00     0.135 A 
ATOM     81  F   UNL A   1      35.159  31.912  32.382  1.00  0.00    -0.206 F 
ATOM     82  C   UNL A   1      34.344  33.393  30.754  1.00  0.00     0.059 A 
ATOM     83  C   UNL A   1      35.901  34.534  29.277  1.00  0.00     0.059 A 
ATOM     84  F   UNL A   1      38.205  34.131  29.488  1.00  0.00    -0.206 F 
ATOM     85  C   UNL A   1      34.598  34.281  29.705  1.00  0.00     0.060 A 
BRANCH  85  86
ATOM     86  S   UNL A   1      33.211  35.153  28.946  1.00  0.00     0.124 S 
ATOM     87  O   UNL A   1      33.869  36.335  28.403  1.00  0.00    -0.237 OA
ATOM     88  O   UNL A   1      32.730  34.183  27.966  1.00  0.00    -0.237 OA
ATOM     89  O   UNL A   1      32.311  35.388  30.072  1.00  0.00    -0.744 OA
ENDBRANCH  85  86
ENDBRANCH  53  78
BRANCH  65  90
ATOM     90  C   UNL A   1      39.729  33.857  37.192  1.00  0.00     0.058 A 
ATOM     91  C   UNL A   1      38.914  33.481  38.271  1.00  0.00     0.135 A 
ATOM     92  C   UNL A   1      40.317  35.130  37.223  1.00  0.00     0.135 A 
ATOM     93  F   UNL A   1      38.323  32.276  38.281  1.00  0.00    -0.206 F 
ATOM     94  C   UNL A   1      38.681  34.341  39.339  1.00  0.00     0.059 A 
ATOM     95  C   UNL A   1      40.112  36.001  38.288  1.00  0.00     0.059 A 
ATOM     96  F   UNL A   1      41.109  35.534  36.216  1.00  0.00    -0.206 F 
ATOM     97  C   UNL A   1      39.283  35.600  39.338  1.00  0.00     0.060 A 
BRANCH  97  98
ATOM     98  S   UNL A   1      39.008  36.699  40.743  1.00  0.00     0.124 S 
ATOM     99  O   UNL A   1      40.351  36.803  41.302  1.00  0.00    -0.237 OA
ATOM    100  O   UNL A   1      38.491  37.907  40.106  1.00  0.00    -0.237 OA
ATOM    101  O   UNL A   1      38.041  35.969  41.558  1.00  0.00    -0.744 OA
ENDBRANCH  97  98
ENDBRANCH  65  90
ENDBRANCH  39  40
ENDBRANCH  31  34
ENDBRANCH  29  30
ENDBRANCH  28  29
ENDBRANCH   1  28
TORSDOF 19
ENDMDL
MODEL 2
REMARK VINA RESULT:     -11.9      1.093      2.109
REMARK SMILES C[C@]12CCC(=O)N1[C@@H](C(=O)N1C[C@H](O)C[C@@H]1C(=O)NCCCCCCNC(=O)c1ccc(-c3c4nc(c(-c5c(F)cc(S(=O)(=O)[O-])cc5F)c5ccc([nH]5)c(-c5c(F)cc(S(=O)(=O)[O-])cc5F)c5nc(c(-c6c(F)cc(S(=O)(=O)[O-])cc6F)c6ccc3[nH]6)C=C5)C=C4)cc1)CS2
REMARK SMILES IDX 23 1 22 2 21 3 20 4 19 5 17 6 18 7 16 9 11 10 12 11 13 12
REMARK SMILES IDX 15 13 9 14 10 15 8 16 1 17 2 18 3 19 7 20 96 21 4 22 5 23
REMARK SMILES IDX 95 24 6 25 14 26 24 28 25 29 26 30 27 31 28 33 29 34 30 35
REMARK SMILES IDX 94 36 31 37 93 38 32 39 33 40 34 41 87 42 35 43 92 44 86 45
REMARK SMILES IDX 88 46 36 47 91 48 85 49 84 50 37 52 71 53 50 54 70 55 51 56
REMARK SMILES IDX 54 57 69 58 89 59 52 60 53 61 68 63 90 64 55 65 38 66 39 67
REMARK SMILES IDX 48 68 40 69 41 70 47 71 49 72 42 73 43 74 44 75 45 76 46 77
REMARK SMILES IDX 72 78 73 79 82 80 74 81 75 82 81 83 83 84 76 85 77 86 78 87
REMARK SMILES IDX 79 88 80 89 56 90 57 91 66 92 58 93 59 94 65 95 67 96 60 97
REMARK SMILES IDX 61 98 62 99 63 100 64 101
REMARK H PARENT 19 8 14 27 26 32 88 51 54 62
REMARK Flexibility Score: inf
ROOT
ATOM      1  C   UNL A   1      39.724  22.359  26.520  1.00  0.00     0.002 C 
ENDROOT
BRANCH   1   2
ATOM      2  C   UNL A   1      38.728  23.501  26.745  1.00  0.00     0.002 C 
BRANCH   2   3
ATOM      3  C   UNL A   1      37.665  23.681  25.658  1.00  0.00     0.021 C 
BRANCH   3   4
ATOM      4  C   UNL A   1      36.955  22.399  25.233  1.00  0.00     0.116 C 
BRANCH   4   5
ATOM      5  N   UNL A   1      35.909  22.034  26.165  1.00  0.00    -0.354 N 
ATOM      6  C   UNL A   1      34.788  21.285  26.005  1.00  0.00     0.242 C 
ATOM      7  O   UNL A   1      34.001  21.262  26.961  1.00  0.00    -0.273 OA
ATOM      8  H   UNL A   1      36.032  22.392  27.074  1.00  0.00     0.163 HD
BRANCH   6   9
ATOM      9  C   UNL A   1      34.425  20.515  24.710  1.00  0.00     0.177 C 
ATOM     10  N   UNL A   1      33.084  20.656  24.145  1.00  0.00    -0.326 N 
ATOM     11  C   UNL A   1      32.372  19.380  24.188  1.00  0.00     0.152 C 
ATOM     12  C   UNL A   1      33.221  18.451  25.053  1.00  0.00     0.136 C 
ATOM     13  C   UNL A   1      34.629  19.008  24.912  1.00  0.00     0.069 C 
BRANCH  10  14
ATOM     14  C   UNL A   1      32.548  21.665  23.372  1.00  0.00     0.247 C 
ATOM     15  O   UNL A   1      31.890  21.370  22.365  1.00  0.00    -0.272 OA
BRANCH  14  16
ATOM     16  C   UNL A   1      32.864  23.158  23.626  1.00  0.00     0.186 C 
ATOM     17  C   UNL A   1      34.324  25.227  25.621  1.00  0.00     0.047 C 
ATOM     18  C   UNL A   1      32.882  25.069  25.140  1.00  0.00     0.087 C 
ATOM     19  C   UNL A   1      31.894  25.635  26.158  1.00  0.00     0.049 C 
ATOM     20  N   UNL A   1      32.502  23.694  24.944  1.00  0.00    -0.315 N 
ATOM     21  S   UNL A   1      32.733  25.820  23.469  1.00  0.00    -0.131 SA
ATOM     22  C   UNL A   1      30.819  24.576  26.331  1.00  0.00     0.103 C 
ATOM     23  C   UNL A   1      31.337  23.368  25.612  1.00  0.00     0.224 C 
ATOM     24  C   UNL A   1      32.488  24.219  22.603  1.00  0.00     0.107 C 
ATOM     25  O   UNL A   1      30.737  22.304  25.581  1.00  0.00    -0.275 OA
ENDBRANCH  14  16
ENDBRANCH  10  14
BRANCH  12  26
ATOM     26  O   UNL A   1      32.834  18.498  26.424  1.00  0.00    -0.391 OA
ATOM     27  H   UNL A   1      33.444  19.072  26.913  1.00  0.00     0.211 HD
ENDBRANCH  12  26
ENDBRANCH   6   9
ENDBRANCH   4   5
ENDBRANCH   3   4
ENDBRANCH   2   3
ENDBRANCH   1   2
BRANCH   1  28
ATOM     28  C   UNL A   1      40.751  22.127  27.632  1.00  0.00     0.021 C 
BRANCH  28  29
ATOM     29  C   UNL A   1      41.893  23.137  27.713  1.00  0.00     0.116 C 
BRANCH  29  30
ATOM     30  N   UNL A   1      42.162  23.793  26.448  1.00  0.00    -0.352 N 
ATOM     31  C   UNL A   1      42.111  25.129  26.133  1.00  0.00     0.251 C 
ATOM     32  H   UNL A   1      42.418  23.196  25.709  1.00  0.00     0.163 HD
ATOM     33  O   UNL A   1      42.273  25.489  24.970  1.00  0.00    -0.269 OA
BRANCH  31  34
ATOM     34  C   UNL A   1      41.827  26.131  27.185  1.00  0.00     0.039 A 
ATOM     35  C   UNL A   1      40.791  25.873  28.086  1.00  0.00     0.014 A 
ATOM     36  C   UNL A   1      42.568  27.312  27.284  1.00  0.00     0.014 A 
ATOM     37  C   UNL A   1      40.540  26.767  29.130  1.00  0.00     0.010 A 
ATOM     38  C   UNL A   1      42.347  28.181  28.353  1.00  0.00     0.010 A 
ATOM     39  C   UNL A   1      41.339  27.911  29.291  1.00  0.00    -0.014 A 
BRANCH  39  40
ATOM     40  C   UNL A   1      41.149  28.817  30.451  1.00  0.00     0.031 A 
ATOM     41  C   UNL A   1      42.012  28.682  31.673  1.00  0.00     0.074 A 
ATOM     42  C   UNL A   1      40.152  29.724  30.424  1.00  0.00     0.049 A 
ATOM     43  N   UNL A   1      41.948  29.336  32.803  1.00  0.00    -0.248 NA
ATOM     44  C   UNL A   1      43.074  27.665  31.624  1.00  0.00     0.031 C 
ATOM     45  C   UNL A   1      39.220  29.923  29.313  1.00  0.00     0.029 A 
ATOM     46  N   UNL A   1      39.748  30.637  31.365  1.00  0.00    -0.354 N 
ATOM     47  C   UNL A   1      42.948  28.803  33.608  1.00  0.00     0.074 A 
ATOM     48  C   UNL A   1      43.585  27.750  32.845  1.00  0.00     0.031 C 
ATOM     49  C   UNL A   1      38.360  30.904  29.632  1.00  0.00     0.029 A 
ATOM     50  C   UNL A   1      38.660  31.382  30.978  1.00  0.00     0.049 A 
ATOM     51  H   UNL A   1      40.195  30.749  32.235  1.00  0.00     0.167 HD
ATOM     52  C   UNL A   1      43.311  29.170  34.860  1.00  0.00     0.037 A 
ATOM     53  C   UNL A   1      37.975  32.336  31.636  1.00  0.00     0.037 A 
ATOM     54  C   UNL A   1      42.697  30.237  35.605  1.00  0.00     0.049 A 
ATOM     55  C   UNL A   1      38.398  32.726  33.023  1.00  0.00     0.074 A 
ATOM     56  C   UNL A   1      43.047  30.733  36.849  1.00  0.00     0.029 A 
ATOM     57  N   UNL A   1      41.601  30.972  35.177  1.00  0.00    -0.354 N 
ATOM     58  N   UNL A   1      39.384  32.252  33.745  1.00  0.00    -0.248 NA
ATOM     59  C   UNL A   1      37.614  33.778  33.686  1.00  0.00     0.031 C 
ATOM     60  C   UNL A   1      42.146  31.750  37.185  1.00  0.00     0.029 A 
ATOM     61  C   UNL A   1      41.249  31.902  36.140  1.00  0.00     0.049 A 
ATOM     62  H   UNL A   1      41.141  30.849  34.314  1.00  0.00     0.167 HD
ATOM     63  C   UNL A   1      39.344  32.950  34.946  1.00  0.00     0.074 A 
ATOM     64  C   UNL A   1      38.247  33.891  34.847  1.00  0.00     0.031 C 
ATOM     65  C   UNL A   1      40.146  32.823  36.031  1.00  0.00     0.037 A 
BRANCH  52  66
ATOM     66  C   UNL A   1      44.433  28.406  35.502  1.00  0.00     0.058 A 
ATOM     67  C   UNL A   1      44.185  27.307  36.339  1.00  0.00     0.135 A 
ATOM     68  C   UNL A   1      45.769  28.763  35.263  1.00  0.00     0.135 A 
ATOM     69  F   UNL A   1      42.924  26.936  36.610  1.00  0.00    -0.206 F 
ATOM     70  C   UNL A   1      45.224  26.603  36.938  1.00  0.00     0.059 A 
ATOM     71  C   UNL A   1      46.824  28.062  35.837  1.00  0.00     0.059 A 
ATOM     72  F   UNL A   1      46.058  29.808  34.471  1.00  0.00    -0.206 F 
ATOM     73  C   UNL A   1      46.541  26.993  36.687  1.00  0.00     0.060 A 
BRANCH  73  74
ATOM     74  S   UNL A   1      47.882  26.079  37.477  1.00  0.00     0.124 S 
ATOM     75  O   UNL A   1      49.049  26.834  37.032  1.00  0.00    -0.237 OA
ATOM     76  O   UNL A   1      47.556  26.199  38.895  1.00  0.00    -0.237 OA
ATOM     77  O   UNL A   1      47.751  24.736  36.920  1.00  0.00    -0.744 OA
ENDBRANCH  73  74
ENDBRANCH  52  66
BRANCH  53  78
ATOM     78  C   UNL A   1      36.819  32.996  30.979  1.00  0.00     0.058 A 
ATOM     79  C   UNL A   1      35.507  32.697  31.369  1.00  0.00     0.135 A 
ATOM     80  C   UNL A   1      37.005  33.956  29.973  1.00  0.00     0.135 A 
ATOM     81  F   UNL A   1      35.283  31.780  32.323  1.00  0.00    -0.206 F 
ATOM     82  C   UNL A   1      34.413  33.324  30.783  1.00  0.00     0.059 A 
ATOM     83  C   UNL A   1      35.928  34.609  29.382  1.00  0.00     0.059 A 
ATOM     84  F   UNL A   1      38.245  34.282  29.577  1.00  0.00    -0.206 F 
ATOM     85  C   UNL A   1      34.634  34.281  29.789  1.00  0.00     0.060 A 
BRANCH  85  86
ATOM     86  S   UNL A   1      33.216  35.143  29.078  1.00  0.00     0.124 S 
ATOM     87  O   UNL A   1      33.848  36.326  28.507  1.00  0.00    -0.237 OA
ATOM     88  O   UNL A   1      32.704  34.166  28.121  1.00  0.00    -0.237 OA
ATOM     89  O   UNL A   1      32.357  35.379  30.236  1.00  0.00    -0.744 OA
ENDBRANCH  85  86
ENDBRANCH  53  78
BRANCH  65  90
ATOM     90  C   UNL A   1      39.862  33.718  37.200  1.00  0.00     0.058 A 
ATOM     91  C   UNL A   1      40.439  34.994  37.297  1.00  0.00     0.135 A 
ATOM     92  C   UNL A   1      38.974  33.318  38.211  1.00  0.00     0.135 A 
ATOM     93  F   UNL A   1      41.301  35.416  36.358  1.00  0.00    -0.206 F 
ATOM     94  C   UNL A   1      40.155  35.840  38.363  1.00  0.00     0.059 A 
ATOM     95  C   UNL A   1      38.663  34.154  39.278  1.00  0.00     0.059 A 
ATOM     96  F   UNL A   1      38.393  32.108  38.160  1.00  0.00    -0.206 F 
ATOM     97  C   UNL A   1      39.266  35.410  39.351  1.00  0.00     0.060 A 
BRANCH  97  98
ATOM     98  S   UNL A   1      38.872  36.526  40.714  1.00  0.00     0.124 S 
ATOM     99  O   UNL A   1      38.383  37.700  40.000  1.00  0.00    -0.237 OA
ATOM    100  O   UNL A   1      37.868  35.774  41.460  1.00  0.00    -0.237 OA
ATOM    101  O   UNL A   1      40.152  36.691  41.396  1.00  0.00    -0.744 OA
ENDBRANCH  97  98
ENDBRANCH  65  90
ENDBRANCH  39  40
ENDBRANCH  31  34
ENDBRANCH  29  30
ENDBRANCH  28  29
ENDBRANCH   1  28
TORSDOF 19
ENDMDL
MODEL 3
REMARK VINA RESULT:     -11.8      6.446     12.038
REMARK SMILES C[C@]12CCC(=O)N1[C@@H](C(=O)N1C[C@H](O)C[C@@H]1C(=O)NCCCCCCNC(=O)c1ccc(-c3c4nc(c(-c5c(F)cc(S(=O)(=O)[O-])cc5F)c5ccc([nH]5)c(-c5c(F)cc(S(=O)(=O)[O-])cc5F)c5nc(c(-c6c(F)cc(S(=O)(=O)[O-])cc6F)c6ccc3[nH]6)C=C5)C=C4)cc1)CS2
REMARK SMILES IDX 23 1 22 2 21 3 20 4 19 5 17 6 18 7 16 9 11 10 12 11 13 12
REMARK SMILES IDX 15 13 9 14 10 15 8 16 1 17 2 18 3 19 7 20 96 21 4 22 5 23
REMARK SMILES IDX 95 24 6 25 14 26 24 28 25 29 26 30 27 31 28 33 29 34 30 35
REMARK SMILES IDX 94 36 31 37 93 38 32 39 33 40 34 41 87 42 35 43 92 44 86 45
REMARK SMILES IDX 88 46 36 47 91 48 85 49 84 50 37 52 71 53 50 54 70 55 51 56
REMARK SMILES IDX 54 57 69 58 89 59 52 60 53 61 68 63 90 64 55 65 38 66 39 67
REMARK SMILES IDX 48 68 40 69 41 70 47 71 49 72 42 73 43 74 44 75 45 76 46 77
REMARK SMILES IDX 72 78 73 79 82 80 74 81 75 82 81 83 83 84 76 85 77 86 78 87
REMARK SMILES IDX 79 88 80 89 56 90 57 91 66 92 58 93 59 94 65 95 67 96 60 97
REMARK SMILES IDX 61 98 62 99 63 100 64 101
REMARK H PARENT 19 8 14 27 26 32 88 51 54 62
REMARK Flexibility Score: inf
ROOT
ATOM      1  C   UNL A   1      34.173  33.041  28.079  1.00  0.00     0.002 C 
ENDROOT
BRANCH   1   2
ATOM      2  C   UNL A   1      33.296  31.917  27.518  1.00  0.00     0.002 C 
BRANCH   2   3
ATOM      3  C   UNL A   1      33.979  30.555  27.363  1.00  0.00     0.021 C 
BRANCH   3   4
ATOM      4  C   UNL A   1      33.227  29.552  26.494  1.00  0.00     0.116 C 
BRANCH   4   5
ATOM      5  N   UNL A   1      33.596  29.673  25.099  1.00  0.00    -0.354 N 
ATOM      6  C   UNL A   1      33.231  28.949  24.010  1.00  0.00     0.242 C 
ATOM      7  O   UNL A   1      33.825  29.206  22.954  1.00  0.00    -0.273 OA
ATOM      8  H   UNL A   1      34.222  30.408  24.906  1.00  0.00     0.163 HD
BRANCH   6   9
ATOM      9  C   UNL A   1      32.171  27.818  24.023  1.00  0.00     0.177 C 
ATOM     10  N   UNL A   1      32.164  26.830  22.945  1.00  0.00    -0.326 N 
ATOM     11  C   UNL A   1      30.930  26.929  22.168  1.00  0.00     0.152 C 
ATOM     12  C   UNL A   1      30.240  28.211  22.630  1.00  0.00     0.136 C 
ATOM     13  C   UNL A   1      30.757  28.412  24.045  1.00  0.00     0.069 C 
BRANCH  10  14
ATOM     14  C   UNL A   1      32.955  25.717  22.755  1.00  0.00     0.247 C 
ATOM     15  O   UNL A   1      33.937  25.795  22.003  1.00  0.00    -0.272 OA
BRANCH  14  16
ATOM     16  C   UNL A   1      32.580  24.328  23.324  1.00  0.00     0.186 C 
ATOM     17  C   UNL A   1      30.920  22.798  25.624  1.00  0.00     0.047 C 
ATOM     18  C   UNL A   1      32.398  22.824  25.233  1.00  0.00     0.087 C 
ATOM     19  C   UNL A   1      33.291  22.503  26.429  1.00  0.00     0.049 C 
ATOM     20  N   UNL A   1      32.829  24.111  24.754  1.00  0.00    -0.315 N 
ATOM     21  S   UNL A   1      32.648  21.702  23.800  1.00  0.00    -0.131 SA
ATOM     22  C   UNL A   1      34.380  23.561  26.435  1.00  0.00     0.103 C 
ATOM     23  C   UNL A   1      33.950  24.574  25.417  1.00  0.00     0.224 C 
ATOM     24  C   UNL A   1      33.001  23.053  22.608  1.00  0.00     0.107 C 
ATOM     25  O   UNL A   1      34.581  25.595  25.186  1.00  0.00    -0.275 OA
ENDBRANCH  14  16
ENDBRANCH  10  14
BRANCH  12  26
ATOM     26  O   UNL A   1      30.609  29.332  21.832  1.00  0.00    -0.391 OA
ATOM     27  H   UNL A   1      31.571  29.333  21.702  1.00  0.00     0.211 HD
ENDBRANCH  12  26
ENDBRANCH   6   9
ENDBRANCH   4   5
ENDBRANCH   3   4
ENDBRANCH   2   3
ENDBRANCH   1   2
BRANCH   1  28
ATOM     28  C   UNL A   1      35.683  32.788  28.079  1.00  0.00     0.021 C 
BRANCH  28  29
ATOM     29  C   UNL A   1      36.362  32.785  29.446  1.00  0.00     0.116 C 
BRANCH  29  30
ATOM     30  N   UNL A   1      35.909  31.707  30.304  1.00  0.00    -0.352 N 
ATOM     31  C   UNL A   1      36.539  30.529  30.626  1.00  0.00     0.251 C 
ATOM     32  H   UNL A   1      35.024  31.837  30.714  1.00  0.00     0.163 HD
ATOM     33  O   UNL A   1      35.947  29.683  31.292  1.00  0.00    -0.269 OA
BRANCH  31  34
ATOM     34  C   UNL A   1      37.912  30.263  30.143  1.00  0.00     0.039 A 
ATOM     35  C   UNL A   1      38.951  30.231  31.076  1.00  0.00     0.014 A 
ATOM     36  C   UNL A   1      38.177  30.048  28.787  1.00  0.00     0.014 A 
ATOM     37  C   UNL A   1      40.248  29.917  30.661  1.00  0.00     0.010 A 
ATOM     38  C   UNL A   1      39.463  29.690  28.381  1.00  0.00     0.010 A 
ATOM     39  C   UNL A   1      40.507  29.612  29.315  1.00  0.00    -0.014 A 
BRANCH  39  40
ATOM     40  C   UNL A   1      41.858  29.180  28.877  1.00  0.00     0.031 A 
ATOM     41  C   UNL A   1      42.984  30.171  28.789  1.00  0.00     0.074 A 
ATOM     42  C   UNL A   1      42.051  27.901  28.499  1.00  0.00     0.049 A 
ATOM     43  N   UNL A   1      44.207  29.991  28.364  1.00  0.00    -0.248 NA
ATOM     44  C   UNL A   1      42.689  31.548  29.215  1.00  0.00     0.031 C 
ATOM     45  C   UNL A   1      41.027  26.855  28.499  1.00  0.00     0.029 A 
ATOM     46  N   UNL A   1      43.173  27.268  28.026  1.00  0.00    -0.354 N 
ATOM     47  C   UNL A   1      44.827  31.231  28.458  1.00  0.00     0.074 A 
ATOM     48  C   UNL A   1      43.834  32.162  28.951  1.00  0.00     0.031 C 
ATOM     49  C   UNL A   1      41.570  25.709  28.058  1.00  0.00     0.029 A 
ATOM     50  C   UNL A   1      42.969  25.944  27.718  1.00  0.00     0.049 A 
ATOM     51  H   UNL A   1      44.041  27.718  27.918  1.00  0.00     0.167 HD
ATOM     52  C   UNL A   1      46.110  31.559  28.173  1.00  0.00     0.037 A 
ATOM     53  C   UNL A   1      43.812  25.025  27.210  1.00  0.00     0.037 A 
ATOM     54  C   UNL A   1      47.104  30.626  27.712  1.00  0.00     0.049 A 
ATOM     55  C   UNL A   1      45.230  25.412  26.904  1.00  0.00     0.074 A 
ATOM     56  C   UNL A   1      48.450  30.847  27.472  1.00  0.00     0.029 A 
ATOM     57  N   UNL A   1      46.861  29.293  27.417  1.00  0.00    -0.354 N 
ATOM     58  N   UNL A   1      45.815  26.576  27.054  1.00  0.00    -0.248 NA
ATOM     59  C   UNL A   1      46.103  24.364  26.356  1.00  0.00     0.031 C 
ATOM     60  C   UNL A   1      49.014  29.654  27.005  1.00  0.00     0.029 A 
ATOM     61  C   UNL A   1      48.026  28.684  26.977  1.00  0.00     0.049 A 
ATOM     62  H   UNL A   1      45.989  28.844  27.507  1.00  0.00     0.167 HD
ATOM     63  C   UNL A   1      47.125  26.400  26.626  1.00  0.00     0.074 A 
ATOM     64  C   UNL A   1      47.253  25.013  26.225  1.00  0.00     0.031 C 
ATOM     65  C   UNL A   1      48.131  27.306  26.571  1.00  0.00     0.037 A 
BRANCH  52  66
ATOM     66  C   UNL A   1      46.511  32.993  28.359  1.00  0.00     0.058 A 
ATOM     67  C   UNL A   1      46.362  33.934  27.327  1.00  0.00     0.135 A 
ATOM     68  C   UNL A   1      47.030  33.438  29.584  1.00  0.00     0.135 A 
ATOM     69  F   UNL A   1      45.884  33.555  26.132  1.00  0.00    -0.206 F 
ATOM     70  C   UNL A   1      46.738  35.261  27.496  1.00  0.00     0.059 A 
ATOM     71  C   UNL A   1      47.396  34.765  29.781  1.00  0.00     0.059 A 
ATOM     72  F   UNL A   1      47.194  32.576  30.601  1.00  0.00    -0.206 F 
ATOM     73  C   UNL A   1      47.262  35.667  28.726  1.00  0.00     0.060 A 
BRANCH  73  74
ATOM     74  S   UNL A   1      47.757  37.390  28.933  1.00  0.00     0.124 S 
ATOM     75  O   UNL A   1      46.739  38.080  28.147  1.00  0.00    -0.237 OA
ATOM     76  O   UNL A   1      47.671  37.574  30.379  1.00  0.00    -0.237 OA
ATOM     77  O   UNL A   1      49.108  37.423  28.381  1.00  0.00    -0.744 OA
ENDBRANCH  73  74
ENDBRANCH  52  66
BRANCH  53  78
ATOM     78  C   UNL A   1      43.332  23.642  26.968  1.00  0.00     0.058 A 
ATOM     79  C   UNL A   1      42.984  23.219  25.678  1.00  0.00     0.135 A 
ATOM     80  C   UNL A   1      43.240  22.711  28.013  1.00  0.00     0.135 A 
ATOM     81  F   UNL A   1      43.050  24.078  24.650  1.00  0.00    -0.206 F 
ATOM     82  C   UNL A   1      42.556  21.920  25.429  1.00  0.00     0.059 A 
ATOM     83  C   UNL A   1      42.831  21.400  27.787  1.00  0.00     0.059 A 
ATOM     84  F   UNL A   1      43.576  23.068  29.263  1.00  0.00    -0.206 F 
ATOM     85  C   UNL A   1      42.485  21.016  26.492  1.00  0.00     0.060 A 
BRANCH  85  86
ATOM     86  S   UNL A   1      41.996  19.311  26.154  1.00  0.00     0.124 S 
ATOM     87  O   UNL A   1      40.576  19.465  25.863  1.00  0.00    -0.237 OA
ATOM     88  O   UNL A   1      42.846  18.961  25.020  1.00  0.00    -0.237 OA
ATOM     89  O   UNL A   1      42.317  18.620  27.400  1.00  0.00    -0.744 OA
ENDBRANCH  85  86
ENDBRANCH  53  78
BRANCH  65  90
ATOM     90  C   UNL A   1      49.456  26.827  26.054  1.00  0.00     0.058 A 
ATOM     91  C   UNL A   1      49.821  27.006  24.711  1.00  0.00     0.135 A 
ATOM     92  C   UNL A   1      50.384  26.223  26.915  1.00  0.00     0.135 A 
ATOM     93  F   UNL A   1      48.961  27.572  23.849  1.00  0.00    -0.206 F 
ATOM     94  C   UNL A   1      51.059  26.592  24.234  1.00  0.00     0.059 A 
ATOM     95  C   UNL A   1      51.636  25.815  26.464  1.00  0.00     0.059 A 
ATOM     96  F   UNL A   1      50.083  26.034  28.210  1.00  0.00    -0.206 F 
ATOM     97  C   UNL A   1      51.960  25.995  25.118  1.00  0.00     0.060 A 
BRANCH  97  98
ATOM     98  S   UNL A   1      53.582  25.492  24.503  1.00  0.00     0.124 S 
ATOM     99  O   UNL A   1      53.568  24.060  24.780  1.00  0.00    -0.237 OA
ATOM    100  O   UNL A   1      53.516  25.867  23.094  1.00  0.00    -0.237 OA
ATOM    101  O   UNL A   1      54.508  26.281  25.309  1.00  0.00    -0.744 OA
ENDBRANCH  97  98
ENDBRANCH  65  90
ENDBRANCH  39  40
ENDBRANCH  31  34
ENDBRANCH  29  30
ENDBRANCH  28  29
ENDBRANCH   1  28
TORSDOF 19
ENDMDL
