MODEL 1
REMARK VINA RESULT:     -11.7      0.000      0.000
REMARK SMILES CCCCCCNC(=O)Nc1cccc(-c2ccc([C@@H](C)C(=O)NCCCCCCNC(=O)c3ccc(-c4c5nc(c(-c6c(F)cc(S(=O)(=O)[O-])cc6F)c6ccc([nH]6)c(-c6c(F)cc(S(=O)(=O)[O-])cc6F)c6nc(c(-c7c(F)cc(S(=O)(=O)[O-])cc7F)c7ccc4[nH]7)C=C6)C=C5)cc3)cc2F)c1
REMARK SMILES IDX 25 1 24 2 22 3 23 4 20 6 21 7 19 8 16 9 17 10 101 11 18 12
REMARK SMILES IDX 100 13 102 14 15 15 11 16 12 17 103 18 13 19 14 20 10 21
REMARK SMILES IDX 7 22 8 23 9 25 6 27 5 28 4 29 3 30 2 31 1 32 26 33 27 34
REMARK SMILES IDX 28 35 29 36 30 37 31 38 32 39 33 41 34 42 35 43 99 44 36 45
REMARK SMILES IDX 98 46 37 47 38 48 39 49 92 50 40 51 97 52 91 53 93 54 41 55
REMARK SMILES IDX 96 56 90 57 89 58 42 60 76 61 55 62 75 63 56 64 59 65 74 66
REMARK SMILES IDX 94 67 57 68 58 69 73 71 95 72 60 73 43 74 44 75 53 76 45 77
REMARK SMILES IDX 46 78 52 79 54 80 47 81 48 82 49 83 50 84 51 85 77 86 78 87
REMARK SMILES IDX 87 88 79 89 80 90 86 91 88 92 81 93 82 94 83 95 84 96 85 97
REMARK SMILES IDX 61 98 62 99 71 100 63 101 64 102 70 103 72 104 65 105 66 106
REMARK SMILES IDX 67 107 68 108 69 109
REMARK H PARENT 24 5 7 24 10 26 31 40 93 59 59 70
REMARK Flexibility Score: inf
ROOT
ATOM      1  C   UNL A   1      31.181  29.322  24.744  1.00  0.00     0.116 C 
ENDROOT
BRANCH   1   2
ATOM      2  N   UNL A   1      30.392  30.256  23.967  1.00  0.00    -0.356 N 
ATOM      3  C   UNL A   1      29.395  30.070  23.061  1.00  0.00     0.227 C 
ATOM      4  O   UNL A   1      29.028  31.075  22.439  1.00  0.00    -0.274 OA
ATOM      5  H   UNL A   1      30.620  31.201  24.123  1.00  0.00     0.163 HD
BRANCH   3   6
ATOM      6  C   UNL A   1      28.710  28.721  22.801  1.00  0.00     0.105 C 
ATOM      7  C   UNL A   1      27.337  28.567  23.454  1.00  0.00     0.023 C 
BRANCH   6   8
ATOM      8  C   UNL A   1      29.624  27.510  22.930  1.00  0.00    -0.033 A 
ATOM      9  C   UNL A   1      31.396  25.266  23.116  1.00  0.00     0.018 A 
ATOM     10  C   UNL A   1      30.257  25.378  23.930  1.00  0.00     0.012 A 
ATOM     11  C   UNL A   1      31.620  26.306  22.204  1.00  0.00     0.131 A 
ATOM     12  C   UNL A   1      29.378  26.462  23.820  1.00  0.00     0.005 A 
ATOM     13  C   UNL A   1      30.765  27.411  22.118  1.00  0.00     0.044 A 
ATOM     14  F   UNL A   1      32.674  26.265  21.374  1.00  0.00    -0.206 F 
BRANCH   9  15
ATOM     15  C   UNL A   1      32.312  24.118  23.276  1.00  0.00    -0.013 A 
ATOM     16  C   UNL A   1      32.663  21.760  23.811  1.00  0.00     0.043 A 
ATOM     17  C   UNL A   1      33.975  21.828  23.347  1.00  0.00     0.026 A 
ATOM     18  C   UNL A   1      31.869  22.915  23.849  1.00  0.00     0.035 A 
ATOM     19  C   UNL A   1      34.446  23.019  22.801  1.00  0.00     0.003 A 
ATOM     20  C   UNL A   1      33.617  24.144  22.751  1.00  0.00     0.009 A 
BRANCH  16  21
ATOM     21  N   UNL A   1      32.150  20.496  24.133  1.00  0.00    -0.308 N 
ATOM     22  N   UNL A   1      33.027  20.076  26.294  1.00  0.00    -0.338 N 
ATOM     23  C   UNL A   1      32.489  19.640  25.129  1.00  0.00     0.319 C 
ATOM     24  H   UNL A   1      33.394  19.363  26.865  1.00  0.00     0.165 HD
ATOM     25  O   UNL A   1      32.214  18.444  25.023  1.00  0.00    -0.249 OA
ATOM     26  H   UNL A   1      31.429  20.180  23.543  1.00  0.00     0.171 HD
BRANCH  22  27
ATOM     27  C   UNL A   1      33.155  21.416  26.844  1.00  0.00     0.117 C 
BRANCH  27  28
ATOM     28  C   UNL A   1      34.541  22.022  26.675  1.00  0.00     0.021 C 
BRANCH  28  29
ATOM     29  C   UNL A   1      34.580  23.540  26.515  1.00  0.00     0.002 C 
BRANCH  29  30
ATOM     30  C   UNL A   1      33.261  24.275  26.780  1.00  0.00    -0.000 C 
BRANCH  30  31
ATOM     31  C   UNL A   1      33.147  25.678  26.181  1.00  0.00    -0.003 C 
ATOM     32  C   UNL A   1      34.394  26.138  25.445  1.00  0.00     0.004 C 
ENDBRANCH  30  31
ENDBRANCH  29  30
ENDBRANCH  28  29
ENDBRANCH  27  28
ENDBRANCH  22  27
ENDBRANCH  16  21
ENDBRANCH   9  15
ENDBRANCH   6   8
ENDBRANCH   3   6
ENDBRANCH   1   2
BRANCH   1  33
ATOM     33  C   UNL A   1      31.742  29.995  25.997  1.00  0.00     0.021 C 
BRANCH  33  34
ATOM     34  C   UNL A   1      32.447  29.015  26.938  1.00  0.00     0.002 C 
BRANCH  34  35
ATOM     35  C   UNL A   1      33.871  29.411  27.342  1.00  0.00     0.002 C 
BRANCH  35  36
ATOM     36  C   UNL A   1      34.152  30.915  27.420  1.00  0.00     0.021 C 
BRANCH  36  37
ATOM     37  C   UNL A   1      35.486  31.306  28.054  1.00  0.00     0.116 C 
BRANCH  37  38
ATOM     38  N   UNL A   1      35.394  31.436  29.498  1.00  0.00    -0.352 N 
ATOM     39  C   UNL A   1      36.233  30.964  30.477  1.00  0.00     0.251 C 
ATOM     40  H   UNL A   1      34.611  31.938  29.824  1.00  0.00     0.163 HD
ATOM     41  O   UNL A   1      35.875  30.980  31.649  1.00  0.00    -0.269 OA
BRANCH  39  42
ATOM     42  C   UNL A   1      37.562  30.426  30.114  1.00  0.00     0.039 A 
ATOM     43  C   UNL A   1      37.844  30.166  28.771  1.00  0.00     0.014 A 
ATOM     44  C   UNL A   1      38.520  30.158  31.097  1.00  0.00     0.014 A 
ATOM     45  C   UNL A   1      39.108  29.695  28.408  1.00  0.00     0.010 A 
ATOM     46  C   UNL A   1      39.801  29.752  30.727  1.00  0.00     0.010 A 
ATOM     47  C   UNL A   1      40.108  29.516  29.379  1.00  0.00    -0.014 A 
BRANCH  47  48
ATOM     48  C   UNL A   1      41.485  29.108  28.990  1.00  0.00     0.031 A 
ATOM     49  C   UNL A   1      42.614  30.102  29.012  1.00  0.00     0.074 A 
ATOM     50  C   UNL A   1      41.705  27.850  28.565  1.00  0.00     0.049 A 
ATOM     51  N   UNL A   1      43.872  29.929  28.692  1.00  0.00    -0.248 NA
ATOM     52  C   UNL A   1      42.283  31.475  29.421  1.00  0.00     0.031 C 
ATOM     53  C   UNL A   1      40.683  26.806  28.451  1.00  0.00     0.029 A 
ATOM     54  N   UNL A   1      42.857  27.231  28.148  1.00  0.00    -0.354 N 
ATOM     55  C   UNL A   1      44.479  31.169  28.852  1.00  0.00     0.074 A 
ATOM     56  C   UNL A   1      43.439  32.097  29.242  1.00  0.00     0.031 C 
ATOM     57  C   UNL A   1      41.260  25.670  28.030  1.00  0.00     0.029 A 
ATOM     58  C   UNL A   1      42.682  25.911  27.806  1.00  0.00     0.049 A 
ATOM     59  H   UNL A   1      43.727  27.689  28.098  1.00  0.00     0.167 HD
ATOM     60  C   UNL A   1      45.786  31.500  28.709  1.00  0.00     0.037 A 
ATOM     61  C   UNL A   1      43.565  24.995  27.362  1.00  0.00     0.037 A 
ATOM     62  C   UNL A   1      46.817  30.568  28.329  1.00  0.00     0.049 A 
ATOM     63  C   UNL A   1      45.008  25.385  27.198  1.00  0.00     0.074 A 
ATOM     64  C   UNL A   1      48.179  30.787  28.219  1.00  0.00     0.029 A 
ATOM     65  N   UNL A   1      46.600  29.240  27.983  1.00  0.00    -0.354 N 
ATOM     66  N   UNL A   1      45.579  26.543  27.428  1.00  0.00    -0.248 NA
ATOM     67  C   UNL A   1      45.926  24.344  26.719  1.00  0.00     0.031 C 
ATOM     68  C   UNL A   1      48.778  29.610  27.753  1.00  0.00     0.029 A 
ATOM     69  C   UNL A   1      47.797  28.638  27.628  1.00  0.00     0.049 A 
ATOM     70  H   UNL A   1      45.724  28.792  27.990  1.00  0.00     0.167 HD
ATOM     71  C   UNL A   1      46.929  26.364  27.144  1.00  0.00     0.074 A 
ATOM     72  C   UNL A   1      47.088  24.981  26.741  1.00  0.00     0.031 C 
ATOM     73  C   UNL A   1      47.943  27.263  27.216  1.00  0.00     0.037 A 
BRANCH  60  74
ATOM     74  C   UNL A   1      46.168  32.937  28.950  1.00  0.00     0.058 A 
ATOM     75  C   UNL A   1      46.532  33.403  30.225  1.00  0.00     0.135 A 
ATOM     76  C   UNL A   1      46.173  33.862  27.894  1.00  0.00     0.135 A 
ATOM     77  F   UNL A   1      46.536  32.567  31.276  1.00  0.00    -0.206 F 
ATOM     78  C   UNL A   1      46.837  34.741  30.452  1.00  0.00     0.059 A 
ATOM     79  C   UNL A   1      46.508  35.198  28.092  1.00  0.00     0.059 A 
ATOM     80  F   UNL A   1      45.840  33.473  26.653  1.00  0.00    -0.206 F 
ATOM     81  C   UNL A   1      46.814  35.633  29.380  1.00  0.00     0.060 A 
BRANCH  81  82
ATOM     82  S   UNL A   1      47.178  37.373  29.697  1.00  0.00     0.124 S 
ATOM     83  O   UNL A   1      47.711  37.796  28.405  1.00  0.00    -0.237 OA
ATOM     84  O   UNL A   1      45.868  37.909  30.050  1.00  0.00    -0.237 OA
ATOM     85  O   UNL A   1      48.148  37.324  30.787  1.00  0.00    -0.744 OA
ENDBRANCH  81  82
ENDBRANCH  60  74
BRANCH  61  86
ATOM     86  C   UNL A   1      43.108  23.607  27.085  1.00  0.00     0.058 A 
ATOM     87  C   UNL A   1      42.913  23.165  25.769  1.00  0.00     0.135 A 
ATOM     88  C   UNL A   1      42.901  22.685  28.123  1.00  0.00     0.135 A 
ATOM     89  F   UNL A   1      43.090  24.013  24.744  1.00  0.00    -0.206 F 
ATOM     90  C   UNL A   1      42.529  21.858  25.488  1.00  0.00     0.059 A 
ATOM     91  C   UNL A   1      42.541  21.366  27.867  1.00  0.00     0.059 A 
ATOM     92  F   UNL A   1      43.089  23.055  29.399  1.00  0.00    -0.206 F 
ATOM     93  C   UNL A   1      42.355  20.963  26.545  1.00  0.00     0.060 A 
BRANCH  93  94
ATOM     94  S   UNL A   1      41.940  19.247  26.164  1.00  0.00     0.124 S 
ATOM     95  O   UNL A   1      42.819  18.975  25.033  1.00  0.00    -0.237 OA
ATOM     96  O   UNL A   1      42.275  18.568  27.412  1.00  0.00    -0.237 OA
ATOM     97  O   UNL A   1      40.515  19.308  25.855  1.00  0.00    -0.744 OA
ENDBRANCH  93  94
ENDBRANCH  61  86
BRANCH  73  98
ATOM     98  C   UNL A   1      49.322  26.774  26.866  1.00  0.00     0.058 A 
ATOM     99  C   UNL A   1      50.197  26.267  27.840  1.00  0.00     0.135 A 
ATOM    100  C   UNL A   1      49.765  26.780  25.532  1.00  0.00     0.135 A 
ATOM    101  F   UNL A   1      49.830  26.244  29.132  1.00  0.00    -0.206 F 
ATOM    102  C   UNL A   1      51.471  25.814  27.511  1.00  0.00     0.059 A 
ATOM    103  C   UNL A   1      51.022  26.303  25.175  1.00  0.00     0.059 A 
ATOM    104  F   UNL A   1      48.965  27.243  24.558  1.00  0.00    -0.206 F 
ATOM    105  C   UNL A   1      51.874  25.836  26.174  1.00  0.00     0.060 A 
BRANCH 105 106
ATOM    106  S   UNL A   1      53.522  25.227  25.757  1.00  0.00     0.124 S 
ATOM    107  O   UNL A   1      53.924  26.159  24.711  1.00  0.00    -0.237 OA
ATOM    108  O   UNL A   1      54.231  25.353  27.027  1.00  0.00    -0.237 OA
ATOM    109  O   UNL A   1      53.277  23.856  25.318  1.00  0.00    -0.744 OA
ENDBRANCH 105 106
ENDBRANCH  73  98
ENDBRANCH  47  48
ENDBRANCH  39  42
ENDBRANCH  37  38
ENDBRANCH  36  37
ENDBRANCH  35  36
ENDBRANCH  34  35
ENDBRANCH  33  34
ENDBRANCH   1  33
TORSDOF 24
ENDMDL
MODEL 2
REMARK VINA RESULT:     -11.3      1.086      2.096
REMARK SMILES CCCCCCNC(=O)Nc1cccc(-c2ccc([C@@H](C)C(=O)NCCCCCCNC(=O)c3ccc(-c4c5nc(c(-c6c(F)cc(S(=O)(=O)[O-])cc6F)c6ccc([nH]6)c(-c6c(F)cc(S(=O)(=O)[O-])cc6F)c6nc(c(-c7c(F)cc(S(=O)(=O)[O-])cc7F)c7ccc4[nH]7)C=C6)C=C5)cc3)cc2F)c1
REMARK SMILES IDX 25 1 24 2 22 3 23 4 20 6 21 7 19 8 16 9 17 10 101 11 18 12
REMARK SMILES IDX 100 13 102 14 15 15 11 16 12 17 103 18 13 19 14 20 10 21
REMARK SMILES IDX 7 22 8 23 9 25 6 27 5 28 4 29 3 30 2 31 1 32 26 33 27 34
REMARK SMILES IDX 28 35 29 36 30 37 31 38 32 39 33 41 34 42 35 43 99 44 36 45
REMARK SMILES IDX 98 46 37 47 38 48 39 49 92 50 40 51 97 52 91 53 93 54 41 55
REMARK SMILES IDX 96 56 90 57 89 58 42 60 76 61 55 62 75 63 56 64 59 65 74 66
REMARK SMILES IDX 94 67 57 68 58 69 73 71 95 72 60 73 43 74 44 75 53 76 45 77
REMARK SMILES IDX 46 78 52 79 54 80 47 81 48 82 49 83 50 84 51 85 77 86 78 87
REMARK SMILES IDX 87 88 79 89 80 90 86 91 88 92 81 93 82 94 83 95 84 96 85 97
REMARK SMILES IDX 61 98 62 99 71 100 63 101 64 102 70 103 72 104 65 105 66 106
REMARK SMILES IDX 67 107 68 108 69 109
REMARK H PARENT 24 5 7 24 10 26 31 40 93 59 59 70
REMARK Flexibility Score: inf
ROOT
ATOM      1  C   UNL A   1      31.259  29.186  25.108  1.00  0.00     0.116 C 
ENDROOT
BRANCH   1   2
ATOM      2  N   UNL A   1      30.992  29.514  23.722  1.00  0.00    -0.356 N 
ATOM      3  C   UNL A   1      30.349  28.835  22.735  1.00  0.00     0.227 C 
ATOM      4  O   UNL A   1      30.432  29.317  21.599  1.00  0.00    -0.274 OA
ATOM      5  H   UNL A   1      31.342  30.391  23.444  1.00  0.00     0.163 HD
BRANCH   3   6
ATOM      6  C   UNL A   1      29.534  27.555  22.963  1.00  0.00     0.105 C 
ATOM      7  C   UNL A   1      28.073  27.789  23.349  1.00  0.00     0.023 C 
BRANCH   6   8
ATOM      8  C   UNL A   1      30.249  26.481  23.771  1.00  0.00    -0.033 A 
ATOM      9  C   UNL A   1      31.661  24.466  25.239  1.00  0.00     0.018 A 
ATOM     10  C   UNL A   1      30.426  24.971  25.677  1.00  0.00     0.012 A 
ATOM     11  C   UNL A   1      32.166  24.995  24.045  1.00  0.00     0.131 A 
ATOM     12  C   UNL A   1      29.725  25.936  24.945  1.00  0.00     0.005 A 
ATOM     13  C   UNL A   1      31.487  25.989  23.330  1.00  0.00     0.044 A 
ATOM     14  F   UNL A   1      33.331  24.552  23.545  1.00  0.00    -0.206 F 
BRANCH   9  15
ATOM     15  C   UNL A   1      32.381  23.462  26.049  1.00  0.00    -0.013 A 
ATOM     16  C   UNL A   1      32.992  21.134  26.466  1.00  0.00     0.043 A 
ATOM     17  C   UNL A   1      33.943  21.529  27.405  1.00  0.00     0.026 A 
ATOM     18  C   UNL A   1      32.165  22.088  25.858  1.00  0.00     0.035 A 
ATOM     19  C   UNL A   1      34.155  22.885  27.633  1.00  0.00     0.003 A 
ATOM     20  C   UNL A   1      33.394  23.839  26.950  1.00  0.00     0.009 A 
BRANCH  16  21
ATOM     21  N   UNL A   1      32.967  19.784  26.090  1.00  0.00    -0.308 N 
ATOM     22  N   UNL A   1      34.700  19.624  24.482  1.00  0.00    -0.338 N 
ATOM     23  C   UNL A   1      33.562  19.153  25.047  1.00  0.00     0.319 C 
ATOM     24  H   UNL A   1      34.941  19.193  23.630  1.00  0.00     0.165 HD
ATOM     25  O   UNL A   1      33.121  18.070  24.660  1.00  0.00    -0.249 OA
ATOM     26  H   UNL A   1      32.433  19.201  26.677  1.00  0.00     0.171 HD
BRANCH  22  27
ATOM     27  C   UNL A   1      35.625  20.657  24.918  1.00  0.00     0.117 C 
BRANCH  27  28
ATOM     28  C   UNL A   1      35.543  21.941  24.104  1.00  0.00     0.021 C 
BRANCH  28  29
ATOM     29  C   UNL A   1      36.455  23.074  24.569  1.00  0.00     0.002 C 
BRANCH  29  30
ATOM     30  C   UNL A   1      37.182  22.846  25.900  1.00  0.00    -0.000 C 
BRANCH  30  31
ATOM     31  C   UNL A   1      38.703  22.719  25.816  1.00  0.00    -0.003 C 
ATOM     32  C   UNL A   1      39.423  23.068  27.108  1.00  0.00     0.004 C 
ENDBRANCH  30  31
ENDBRANCH  29  30
ENDBRANCH  28  29
ENDBRANCH  27  28
ENDBRANCH  22  27
ENDBRANCH  16  21
ENDBRANCH   9  15
ENDBRANCH   6   8
ENDBRANCH   3   6
ENDBRANCH   1   2
BRANCH   1  33
ATOM     33  C   UNL A   1      31.733  30.419  25.877  1.00  0.00     0.021 C 
BRANCH  33  34
ATOM     34  C   UNL A   1      33.219  30.361  26.243  1.00  0.00     0.002 C 
BRANCH  34  35
ATOM     35  C   UNL A   1      33.522  29.838  27.651  1.00  0.00     0.002 C 
BRANCH  35  36
ATOM     36  C   UNL A   1      35.003  29.781  28.040  1.00  0.00     0.021 C 
BRANCH  36  37
ATOM     37  C   UNL A   1      35.655  31.125  28.360  1.00  0.00     0.116 C 
BRANCH  37  38
ATOM     38  N   UNL A   1      35.709  31.386  29.789  1.00  0.00    -0.352 N 
ATOM     39  C   UNL A   1      36.652  31.011  30.713  1.00  0.00     0.251 C 
ATOM     40  H   UNL A   1      34.955  31.909  30.147  1.00  0.00     0.163 HD
ATOM     41  O   UNL A   1      36.415  31.131  31.910  1.00  0.00    -0.269 OA
BRANCH  39  42
ATOM     42  C   UNL A   1      37.946  30.452  30.265  1.00  0.00     0.039 A 
ATOM     43  C   UNL A   1      38.190  30.325  28.895  1.00  0.00     0.014 A 
ATOM     44  C   UNL A   1      38.906  30.034  31.191  1.00  0.00     0.014 A 
ATOM     45  C   UNL A   1      39.423  29.837  28.454  1.00  0.00     0.010 A 
ATOM     46  C   UNL A   1      40.159  29.610  30.750  1.00  0.00     0.010 A 
ATOM     47  C   UNL A   1      40.430  29.506  29.377  1.00  0.00    -0.014 A 
BRANCH  47  48
ATOM     48  C   UNL A   1      41.777  29.078  28.916  1.00  0.00     0.031 A 
ATOM     49  C   UNL A   1      42.914  30.061  28.847  1.00  0.00     0.074 A 
ATOM     50  C   UNL A   1      41.961  27.808  28.505  1.00  0.00     0.049 A 
ATOM     51  N   UNL A   1      44.148  29.869  28.457  1.00  0.00    -0.248 NA
ATOM     52  C   UNL A   1      42.618  31.445  29.246  1.00  0.00     0.031 C 
ATOM     53  C   UNL A   1      40.926  26.772  28.476  1.00  0.00     0.029 A 
ATOM     54  N   UNL A   1      43.081  27.170  28.033  1.00  0.00    -0.354 N 
ATOM     55  C   UNL A   1      44.774  31.107  28.553  1.00  0.00     0.074 A 
ATOM     56  C   UNL A   1      43.767  32.052  28.984  1.00  0.00     0.031 C 
ATOM     57  C   UNL A   1      41.467  25.622  28.045  1.00  0.00     0.029 A 
ATOM     58  C   UNL A   1      42.874  25.844  27.731  1.00  0.00     0.049 A 
ATOM     59  H   UNL A   1      43.949  27.618  27.921  1.00  0.00     0.167 HD
ATOM     60  C   UNL A   1      46.072  31.422  28.324  1.00  0.00     0.037 A 
ATOM     61  C   UNL A   1      43.722  24.911  27.255  1.00  0.00     0.037 A 
ATOM     62  C   UNL A   1      47.071  30.473  27.903  1.00  0.00     0.049 A 
ATOM     63  C   UNL A   1      45.155  25.285  26.996  1.00  0.00     0.074 A 
ATOM     64  C   UNL A   1      48.426  30.677  27.706  1.00  0.00     0.029 A 
ATOM     65  N   UNL A   1      46.823  29.140  27.600  1.00  0.00    -0.354 N 
ATOM     66  N   UNL A   1      45.749  26.442  27.166  1.00  0.00    -0.248 NA
ATOM     67  C   UNL A   1      46.034  24.225  26.486  1.00  0.00     0.031 C 
ATOM     68  C   UNL A   1      48.986  29.485  27.231  1.00  0.00     0.029 A 
ATOM     69  C   UNL A   1      47.992  28.520  27.187  1.00  0.00     0.049 A 
ATOM     70  H   UNL A   1      45.945  28.701  27.669  1.00  0.00     0.167 HD
ATOM     71  C   UNL A   1      47.077  26.244  26.805  1.00  0.00     0.074 A 
ATOM     72  C   UNL A   1      47.201  24.852  26.423  1.00  0.00     0.031 C 
ATOM     73  C   UNL A   1      48.101  27.135  26.796  1.00  0.00     0.037 A 
BRANCH  60  74
ATOM     74  C   UNL A   1      46.479  32.860  28.511  1.00  0.00     0.058 A 
ATOM     75  C   UNL A   1      46.357  33.805  27.478  1.00  0.00     0.135 A 
ATOM     76  C   UNL A   1      46.996  33.304  29.739  1.00  0.00     0.135 A 
ATOM     77  F   UNL A   1      45.880  33.438  26.278  1.00  0.00    -0.206 F 
ATOM     78  C   UNL A   1      46.779  35.121  27.639  1.00  0.00     0.059 A 
ATOM     79  C   UNL A   1      47.393  34.623  29.934  1.00  0.00     0.059 A 
ATOM     80  F   UNL A   1      47.130  32.448  30.764  1.00  0.00    -0.206 F 
ATOM     81  C   UNL A   1      47.304  35.519  28.869  1.00  0.00     0.060 A 
BRANCH  81  82
ATOM     82  S   UNL A   1      47.879  37.221  29.052  1.00  0.00     0.124 S 
ATOM     83  O   UNL A   1      49.275  37.099  28.641  1.00  0.00    -0.237 OA
ATOM     84  O   UNL A   1      47.008  37.946  28.134  1.00  0.00    -0.237 OA
ATOM     85  O   UNL A   1      47.666  37.500  30.469  1.00  0.00    -0.744 OA
ENDBRANCH  81  82
ENDBRANCH  60  74
BRANCH  61  86
ATOM     86  C   UNL A   1      43.238  23.523  27.036  1.00  0.00     0.058 A 
ATOM     87  C   UNL A   1      42.822  23.099  25.766  1.00  0.00     0.135 A 
ATOM     88  C   UNL A   1      43.224  22.581  28.077  1.00  0.00     0.135 A 
ATOM     89  F   UNL A   1      42.809  23.966  24.742  1.00  0.00    -0.206 F 
ATOM     90  C   UNL A   1      42.408  21.792  25.533  1.00  0.00     0.059 A 
ATOM     91  C   UNL A   1      42.839  21.261  27.864  1.00  0.00     0.059 A 
ATOM     92  F   UNL A   1      43.628  22.932  29.308  1.00  0.00    -0.206 F 
ATOM     93  C   UNL A   1      42.430  20.877  26.587  1.00  0.00     0.060 A 
BRANCH  93  94
ATOM     94  S   UNL A   1      41.972  19.162  26.253  1.00  0.00     0.124 S 
ATOM     95  O   UNL A   1      40.595  19.309  25.798  1.00  0.00    -0.237 OA
ATOM     96  O   UNL A   1      42.945  18.781  25.234  1.00  0.00    -0.237 OA
ATOM     97  O   UNL A   1      42.144  18.511  27.548  1.00  0.00    -0.744 OA
ENDBRANCH  93  94
ENDBRANCH  61  86
BRANCH  73  98
ATOM     98  C   UNL A   1      49.453  26.626  26.375  1.00  0.00     0.058 A 
ATOM     99  C   UNL A   1      49.953  26.837  25.080  1.00  0.00     0.135 A 
ATOM    100  C   UNL A   1      50.276  25.945  27.289  1.00  0.00     0.135 A 
ATOM    101  F   UNL A   1      49.207  27.475  24.164  1.00  0.00    -0.206 F 
ATOM    102  C   UNL A   1      51.205  26.367  24.697  1.00  0.00     0.059 A 
ATOM    103  C   UNL A   1      51.544  25.493  26.937  1.00  0.00     0.059 A 
ATOM    104  F   UNL A   1      49.852  25.724  28.544  1.00  0.00    -0.206 F 
ATOM    105  C   UNL A   1      51.994  25.695  25.633  1.00  0.00     0.060 A 
BRANCH 105 106
ATOM    106  S   UNL A   1      53.624  25.108  25.129  1.00  0.00     0.124 S 
ATOM    107  O   UNL A   1      54.458  25.571  26.233  1.00  0.00    -0.237 OA
ATOM    108  O   UNL A   1      53.424  23.663  25.049  1.00  0.00    -0.237 OA
ATOM    109  O   UNL A   1      53.846  25.775  23.850  1.00  0.00    -0.744 OA
ENDBRANCH 105 106
ENDBRANCH  73  98
ENDBRANCH  47  48
ENDBRANCH  39  42
ENDBRANCH  37  38
ENDBRANCH  36  37
ENDBRANCH  35  36
ENDBRANCH  34  35
ENDBRANCH  33  34
ENDBRANCH   1  33
TORSDOF 24
ENDMDL
MODEL 3
REMARK VINA RESULT:     -11.3      1.990      4.109
REMARK SMILES CCCCCCNC(=O)Nc1cccc(-c2ccc([C@@H](C)C(=O)NCCCCCCNC(=O)c3ccc(-c4c5nc(c(-c6c(F)cc(S(=O)(=O)[O-])cc6F)c6ccc([nH]6)c(-c6c(F)cc(S(=O)(=O)[O-])cc6F)c6nc(c(-c7c(F)cc(S(=O)(=O)[O-])cc7F)c7ccc4[nH]7)C=C6)C=C5)cc3)cc2F)c1
REMARK SMILES IDX 25 1 24 2 22 3 23 4 20 6 21 7 19 8 16 9 17 10 101 11 18 12
REMARK SMILES IDX 100 13 102 14 15 15 11 16 12 17 103 18 13 19 14 20 10 21
REMARK SMILES IDX 7 22 8 23 9 25 6 27 5 28 4 29 3 30 2 31 1 32 26 33 27 34
REMARK SMILES IDX 28 35 29 36 30 37 31 38 32 39 33 41 34 42 35 43 99 44 36 45
REMARK SMILES IDX 98 46 37 47 38 48 39 49 92 50 40 51 97 52 91 53 93 54 41 55
REMARK SMILES IDX 96 56 90 57 89 58 42 60 76 61 55 62 75 63 56 64 59 65 74 66
REMARK SMILES IDX 94 67 57 68 58 69 73 71 95 72 60 73 43 74 44 75 53 76 45 77
REMARK SMILES IDX 46 78 52 79 54 80 47 81 48 82 49 83 50 84 51 85 77 86 78 87
REMARK SMILES IDX 87 88 79 89 80 90 86 91 88 92 81 93 82 94 83 95 84 96 85 97
REMARK SMILES IDX 61 98 62 99 71 100 63 101 64 102 70 103 72 104 65 105 66 106
REMARK SMILES IDX 67 107 68 108 69 109
REMARK H PARENT 24 5 7 24 10 26 31 40 93 59 59 70
REMARK Flexibility Score: inf
ROOT
ATOM      1  C   UNL A   1      34.450  33.588  31.477  1.00  0.00     0.116 C 
ENDROOT
BRANCH   1   2
ATOM      2  N   UNL A   1      33.843  33.988  30.223  1.00  0.00    -0.356 N 
ATOM      3  C   UNL A   1      34.033  33.566  28.946  1.00  0.00     0.227 C 
ATOM      4  O   UNL A   1      33.472  34.227  28.063  1.00  0.00    -0.274 OA
ATOM      5  H   UNL A   1      33.167  34.698  30.314  1.00  0.00     0.163 HD
BRANCH   3   6
ATOM      6  C   UNL A   1      34.865  32.333  28.562  1.00  0.00     0.105 C 
ATOM      7  C   UNL A   1      36.242  32.649  27.979  1.00  0.00     0.023 C 
BRANCH   6   8
ATOM      8  C   UNL A   1      34.089  31.247  27.830  1.00  0.00    -0.033 A 
ATOM      9  C   UNL A   1      32.696  29.150  26.461  1.00  0.00     0.018 A 
ATOM     10  C   UNL A   1      32.082  30.379  26.750  1.00  0.00     0.012 A 
ATOM     11  C   UNL A   1      34.027  29.001  26.873  1.00  0.00     0.131 A 
ATOM     12  C   UNL A   1      32.772  31.412  27.396  1.00  0.00     0.005 A 
ATOM     13  C   UNL A   1      34.708  30.017  27.553  1.00  0.00     0.044 A 
ATOM     14  F   UNL A   1      34.694  27.865  26.617  1.00  0.00    -0.206 F 
BRANCH   9  15
ATOM     15  C   UNL A   1      31.929  28.076  25.797  1.00  0.00    -0.013 A 
ATOM     16  C   UNL A   1      31.511  26.692  23.828  1.00  0.00     0.043 A 
ATOM     17  C   UNL A   1      30.671  25.860  24.565  1.00  0.00     0.026 A 
ATOM     18  C   UNL A   1      32.067  27.834  24.421  1.00  0.00     0.035 A 
ATOM     19  C   UNL A   1      30.496  26.097  25.925  1.00  0.00     0.003 A 
ATOM     20  C   UNL A   1      31.131  27.183  26.536  1.00  0.00     0.009 A 
BRANCH  16  21
ATOM     21  N   UNL A   1      31.851  26.291  22.528  1.00  0.00    -0.308 N 
ATOM     22  N   UNL A   1      33.958  25.244  22.803  1.00  0.00    -0.338 N 
ATOM     23  C   UNL A   1      33.032  25.857  22.025  1.00  0.00     0.319 C 
ATOM     24  H   UNL A   1      34.839  25.132  22.377  1.00  0.00     0.165 HD
ATOM     25  O   UNL A   1      33.240  25.925  20.812  1.00  0.00    -0.249 OA
ATOM     26  H   UNL A   1      31.114  26.333  21.877  1.00  0.00     0.171 HD
BRANCH  22  27
ATOM     27  C   UNL A   1      33.873  24.723  24.158  1.00  0.00     0.117 C 
BRANCH  27  28
ATOM     28  C   UNL A   1      34.927  23.673  24.481  1.00  0.00     0.021 C 
BRANCH  28  29
ATOM     29  C   UNL A   1      34.389  22.336  24.987  1.00  0.00     0.002 C 
BRANCH  29  30
ATOM     30  C   UNL A   1      34.255  22.202  26.509  1.00  0.00    -0.000 C 
BRANCH  30  31
ATOM     31  C   UNL A   1      32.975  22.773  27.120  1.00  0.00    -0.003 C 
ATOM     32  C   UNL A   1      31.738  22.571  26.260  1.00  0.00     0.004 C 
ENDBRANCH  30  31
ENDBRANCH  29  30
ENDBRANCH  28  29
ENDBRANCH  27  28
ENDBRANCH  22  27
ENDBRANCH  16  21
ENDBRANCH   9  15
ENDBRANCH   6   8
ENDBRANCH   3   6
ENDBRANCH   1   2
BRANCH   1  33
ATOM     33  C   UNL A   1      35.678  34.445  31.784  1.00  0.00     0.021 C 
BRANCH  33  34
ATOM     34  C   UNL A   1      36.140  34.329  33.239  1.00  0.00     0.002 C 
BRANCH  34  35
ATOM     35  C   UNL A   1      37.657  34.253  33.437  1.00  0.00     0.002 C 
BRANCH  35  36
ATOM     36  C   UNL A   1      38.328  32.954  32.980  1.00  0.00     0.021 C 
BRANCH  36  37
ATOM     37  C   UNL A   1      37.827  31.678  33.656  1.00  0.00     0.116 C 
BRANCH  37  38
ATOM     38  N   UNL A   1      36.714  31.076  32.943  1.00  0.00    -0.352 N 
ATOM     39  C   UNL A   1      36.700  30.404  31.746  1.00  0.00     0.251 C 
ATOM     40  H   UNL A   1      35.838  31.163  33.385  1.00  0.00     0.163 HD
ATOM     41  O   UNL A   1      35.633  30.162  31.194  1.00  0.00    -0.269 OA
BRANCH  39  42
ATOM     42  C   UNL A   1      37.972  29.985  31.118  1.00  0.00     0.039 A 
ATOM     43  C   UNL A   1      38.222  30.342  29.791  1.00  0.00     0.014 A 
ATOM     44  C   UNL A   1      38.906  29.224  31.829  1.00  0.00     0.014 A 
ATOM     45  C   UNL A   1      39.436  29.988  29.196  1.00  0.00     0.010 A 
ATOM     46  C   UNL A   1      40.142  28.930  31.256  1.00  0.00     0.010 A 
ATOM     47  C   UNL A   1      40.420  29.308  29.934  1.00  0.00    -0.014 A 
BRANCH  47  48
ATOM     48  C   UNL A   1      41.751  29.013  29.340  1.00  0.00     0.031 A 
ATOM     49  C   UNL A   1      42.804  30.083  29.248  1.00  0.00     0.074 A 
ATOM     50  C   UNL A   1      41.991  27.788  28.833  1.00  0.00     0.049 A 
ATOM     51  N   UNL A   1      44.012  30.011  28.749  1.00  0.00    -0.248 NA
ATOM     52  C   UNL A   1      42.445  31.414  29.760  1.00  0.00     0.031 C 
ATOM     53  C   UNL A   1      41.033  26.679  28.817  1.00  0.00     0.029 A 
ATOM     54  N   UNL A   1      43.109  27.268  28.233  1.00  0.00    -0.354 N 
ATOM     55  C   UNL A   1      44.554  31.285  28.877  1.00  0.00     0.074 A 
ATOM     56  C   UNL A   1      43.521  32.122  29.449  1.00  0.00     0.031 C 
ATOM     57  C   UNL A   1      41.618  25.602  28.269  1.00  0.00     0.029 A 
ATOM     58  C   UNL A   1      42.974  25.951  27.861  1.00  0.00     0.049 A 
ATOM     59  H   UNL A   1      43.932  27.787  28.082  1.00  0.00     0.167 HD
ATOM     60  C   UNL A   1      45.803  31.712  28.569  1.00  0.00     0.037 A 
ATOM     61  C   UNL A   1      43.844  25.116  27.258  1.00  0.00     0.037 A 
ATOM     62  C   UNL A   1      46.828  30.869  28.008  1.00  0.00     0.049 A 
ATOM     63  C   UNL A   1      45.220  25.613  26.912  1.00  0.00     0.074 A 
ATOM     64  C   UNL A   1      48.144  31.188  27.719  1.00  0.00     0.029 A 
ATOM     65  N   UNL A   1      46.652  29.542  27.638  1.00  0.00    -0.354 N 
ATOM     66  N   UNL A   1      45.741  26.800  27.111  1.00  0.00    -0.248 NA
ATOM     67  C   UNL A   1      46.127  24.657  26.265  1.00  0.00     0.031 C 
ATOM     68  C   UNL A   1      48.746  30.073  27.123  1.00  0.00     0.029 A 
ATOM     69  C   UNL A   1      47.823  29.040  27.093  1.00  0.00     0.049 A 
ATOM     70  H   UNL A   1      45.816  29.033  27.747  1.00  0.00     0.167 HD
ATOM     71  C   UNL A   1      47.045  26.728  26.635  1.00  0.00     0.074 A 
ATOM     72  C   UNL A   1      47.236  25.374  26.153  1.00  0.00     0.031 C 
ATOM     73  C   UNL A   1      47.998  27.693  26.604  1.00  0.00     0.037 A 
BRANCH  60  74
ATOM     74  C   UNL A   1      46.120  33.163  28.818  1.00  0.00     0.058 A 
ATOM     75  C   UNL A   1      46.690  33.601  30.026  1.00  0.00     0.135 A 
ATOM     76  C   UNL A   1      45.855  34.131  27.836  1.00  0.00     0.135 A 
ATOM     77  F   UNL A   1      46.956  32.723  31.005  1.00  0.00    -0.206 F 
ATOM     78  C   UNL A   1      46.936  34.948  30.270  1.00  0.00     0.059 A 
ATOM     79  C   UNL A   1      46.124  35.480  28.045  1.00  0.00     0.059 A 
ATOM     80  F   UNL A   1      45.317  33.772  26.660  1.00  0.00    -0.206 F 
ATOM     81  C   UNL A   1      46.642  35.882  29.275  1.00  0.00     0.060 A 
BRANCH  81  82
ATOM     82  S   UNL A   1      46.935  37.630  29.620  1.00  0.00     0.124 S 
ATOM     83  O   UNL A   1      48.117  37.891  28.802  1.00  0.00    -0.237 OA
ATOM     84  O   UNL A   1      45.698  38.252  29.163  1.00  0.00    -0.237 OA
ATOM     85  O   UNL A   1      47.155  37.660  31.063  1.00  0.00    -0.744 OA
ENDBRANCH  81  82
ENDBRANCH  60  74
BRANCH  61  86
ATOM     86  C   UNL A   1      43.444  23.710  26.987  1.00  0.00     0.058 A 
ATOM     87  C   UNL A   1      43.389  22.766  28.022  1.00  0.00     0.135 A 
ATOM     88  C   UNL A   1      43.065  23.293  25.701  1.00  0.00     0.135 A 
ATOM     89  F   UNL A   1      43.751  23.116  29.266  1.00  0.00    -0.206 F 
ATOM     90  C   UNL A   1      42.974  21.458  27.796  1.00  0.00     0.059 A 
ATOM     91  C   UNL A   1      42.622  21.997  25.454  1.00  0.00     0.059 A 
ATOM     92  F   UNL A   1      43.084  24.162  24.679  1.00  0.00    -0.206 F 
ATOM     93  C   UNL A   1      42.583  21.086  26.509  1.00  0.00     0.060 A 
BRANCH  93  94
ATOM     94  S   UNL A   1      41.965  19.410  26.245  1.00  0.00     0.124 S 
ATOM     95  O   UNL A   1      42.316  18.765  27.505  1.00  0.00    -0.237 OA
ATOM     96  O   UNL A   1      40.542  19.642  26.020  1.00  0.00    -0.237 OA
ATOM     97  O   UNL A   1      42.712  18.958  25.075  1.00  0.00    -0.744 OA
ENDBRANCH  93  94
ENDBRANCH  61  86
BRANCH  73  98
ATOM     98  C   UNL A   1      49.344  27.315  26.045  1.00  0.00     0.058 A 
ATOM     99  C   UNL A   1      49.596  27.311  24.664  1.00  0.00     0.135 A 
ATOM    100  C   UNL A   1      50.406  26.985  26.903  1.00  0.00     0.135 A 
ATOM    101  F   UNL A   1      48.615  27.612  23.797  1.00  0.00    -0.206 F 
ATOM    102  C   UNL A   1      50.843  26.965  24.151  1.00  0.00     0.059 A 
ATOM    103  C   UNL A   1      51.669  26.665  26.415  1.00  0.00     0.059 A 
ATOM    104  F   UNL A   1      50.224  26.983  28.233  1.00  0.00    -0.206 F 
ATOM    105  C   UNL A   1      51.873  26.642  25.037  1.00  0.00     0.060 A 
BRANCH 105 106
ATOM    106  S   UNL A   1      53.491  26.213  24.361  1.00  0.00     0.124 S 
ATOM    107  O   UNL A   1      53.438  24.756  24.373  1.00  0.00    -0.237 OA
ATOM    108  O   UNL A   1      53.454  26.839  23.042  1.00  0.00    -0.237 OA
ATOM    109  O   UNL A   1      54.426  26.816  25.306  1.00  0.00    -0.744 OA
ENDBRANCH 105 106
ENDBRANCH  73  98
ENDBRANCH  47  48
ENDBRANCH  39  42
ENDBRANCH  37  38
ENDBRANCH  36  37
ENDBRANCH  35  36
ENDBRANCH  34  35
ENDBRANCH  33  34
ENDBRANCH   1  33
TORSDOF 24
ENDMDL
