MODEL 1
REMARK VINA RESULT:     -10.3      0.000      0.000
REMARK SMILES CCN(CC(=O)NC(C)C)C(=O)N[C@H]1C=C[C@H](C(=O)NCCCCCCNC(=O)c2ccc(-c3c4nc(c(-c5c(F)cc(S(=O)(=O)[O-])cc5F)c5ccc([nH]5)c(-c5c(F)cc(S(=O)(=O)[O-])cc5F)c5nc(c(-c6c(F)cc(S(=O)(=O)[O-])cc6F)c6ccc3[nH]6)C=C5)C=C4)cc2)C1
REMARK SMILES IDX 22 1 21 2 20 3 18 4 19 5 17 7 14 8 15 9 96 10 16 11 13 12
REMARK SMILES IDX 11 13 12 14 3 16 2 17 1 18 4 19 5 20 6 21 7 22 8 24 9 25
REMARK SMILES IDX 10 26 23 27 24 28 25 29 26 30 27 31 28 32 29 34 30 35 31 36
REMARK SMILES IDX 95 37 32 38 94 39 33 40 34 41 35 42 88 43 36 44 93 45 87 46
REMARK SMILES IDX 89 47 37 48 92 49 86 50 85 51 38 53 72 54 51 55 71 56 52 57
REMARK SMILES IDX 55 58 70 59 90 60 53 61 54 62 69 64 91 65 56 66 39 67 40 68
REMARK SMILES IDX 49 69 41 70 42 71 48 72 50 73 43 74 44 75 45 76 46 77 47 78
REMARK SMILES IDX 73 79 74 80 83 81 75 82 76 83 82 84 84 85 77 86 78 87 79 88
REMARK SMILES IDX 80 89 81 90 57 91 58 92 67 93 59 94 60 95 66 96 68 97 61 98
REMARK SMILES IDX 62 99 63 100 64 101 65 102
REMARK H PARENT 20 6 13 15 7 23 27 33 89 52 55 63
REMARK Flexibility Score: inf
ROOT
ATOM      1  C   UNL A   1      34.753  30.696  27.626  1.00  0.00     0.021 C 
ENDROOT
BRANCH   1   2
ATOM      2  C   UNL A   1      33.443  30.068  27.138  1.00  0.00     0.116 C 
BRANCH   2   3
ATOM      3  N   UNL A   1      33.580  29.641  25.763  1.00  0.00    -0.356 N 
ATOM      4  C   UNL A   1      32.793  28.844  24.992  1.00  0.00     0.227 C 
ATOM      5  O   UNL A   1      33.188  28.643  23.838  1.00  0.00    -0.274 OA
ATOM      6  H   UNL A   1      34.381  29.987  25.306  1.00  0.00     0.163 HD
BRANCH   4   7
ATOM      7  C   UNL A   1      31.424  28.333  25.489  1.00  0.00     0.103 C 
ATOM      8  C   UNL A   1      31.375  25.917  25.351  1.00  0.00     0.107 C 
ATOM      9  C   UNL A   1      30.578  26.511  24.240  1.00  0.00    -0.006 C 
ATOM     10  C   UNL A   1      31.392  27.065  26.353  1.00  0.00     0.047 C 
ATOM     11  C   UNL A   1      30.609  27.849  24.308  1.00  0.00    -0.016 C 
BRANCH   8  12
ATOM     12  N   UNL A   1      30.732  24.735  25.861  1.00  0.00    -0.332 N 
ATOM     13  C   UNL A   1      31.072  23.460  26.108  1.00  0.00     0.318 C 
ATOM     14  O   UNL A   1      30.197  22.799  26.683  1.00  0.00    -0.249 OA
ATOM     15  H   UNL A   1      29.790  24.908  26.088  1.00  0.00     0.165 HD
BRANCH  13  16
ATOM     16  N   UNL A   1      32.266  22.892  25.753  1.00  0.00    -0.316 N 
BRANCH  16  17
ATOM     17  C   UNL A   1      32.194  21.670  24.940  1.00  0.00     0.118 C 
ATOM     18  C   UNL A   1      32.641  21.872  23.499  1.00  0.00     0.027 C 
ENDBRANCH  16  17
BRANCH  16  19
ATOM     19  C   UNL A   1      33.609  23.313  26.166  1.00  0.00     0.221 C 
BRANCH  19  20
ATOM     20  C   UNL A   1      34.444  22.265  26.930  1.00  0.00     0.239 C 
ATOM     21  O   UNL A   1      33.983  21.699  27.927  1.00  0.00    -0.273 OA
ATOM     22  N   UNL A   1      35.659  21.849  26.481  1.00  0.00    -0.352 N 
ATOM     23  H   UNL A   1      36.316  21.588  27.167  1.00  0.00     0.163 HD
BRANCH  22  24
ATOM     24  C   UNL A   1      36.093  21.748  25.100  1.00  0.00     0.075 C 
ATOM     25  C   UNL A   1      36.644  23.071  24.589  1.00  0.00     0.030 C 
ATOM     26  C   UNL A   1      37.134  20.635  25.002  1.00  0.00     0.030 C 
ENDBRANCH  22  24
ENDBRANCH  19  20
ENDBRANCH  16  19
ENDBRANCH  13  16
ENDBRANCH   8  12
ENDBRANCH   4   7
ENDBRANCH   2   3
ENDBRANCH   1   2
BRANCH   1  27
ATOM     27  C   UNL A   1      34.610  32.170  28.028  1.00  0.00     0.002 C 
BRANCH  27  28
ATOM     28  C   UNL A   1      35.925  32.960  28.044  1.00  0.00     0.002 C 
BRANCH  28  29
ATOM     29  C   UNL A   1      36.125  33.850  29.274  1.00  0.00     0.021 C 
BRANCH  29  30
ATOM     30  C   UNL A   1      37.071  33.268  30.319  1.00  0.00     0.116 C 
BRANCH  30  31
ATOM     31  N   UNL A   1      36.436  32.197  31.076  1.00  0.00    -0.352 N 
ATOM     32  C   UNL A   1      36.724  30.857  31.087  1.00  0.00     0.251 C 
ATOM     33  H   UNL A   1      35.695  32.476  31.662  1.00  0.00     0.163 HD
ATOM     34  O   UNL A   1      35.927  30.062  31.587  1.00  0.00    -0.269 OA
BRANCH  32  35
ATOM     35  C   UNL A   1      37.985  30.369  30.492  1.00  0.00     0.039 A 
ATOM     36  C   UNL A   1      38.081  30.247  29.104  1.00  0.00     0.014 A 
ATOM     37  C   UNL A   1      39.069  30.027  31.306  1.00  0.00     0.014 A 
ATOM     38  C   UNL A   1      39.287  29.841  28.529  1.00  0.00     0.010 A 
ATOM     39  C   UNL A   1      40.290  29.689  30.728  1.00  0.00     0.010 A 
ATOM     40  C   UNL A   1      40.413  29.594  29.333  1.00  0.00    -0.014 A 
BRANCH  40  41
ATOM     41  C   UNL A   1      41.730  29.254  28.736  1.00  0.00     0.031 A 
ATOM     42  C   UNL A   1      42.015  27.845  28.286  1.00  0.00     0.074 A 
ATOM     43  C   UNL A   1      42.693  30.195  28.673  1.00  0.00     0.049 A 
ATOM     44  N   UNL A   1      43.130  27.337  27.828  1.00  0.00    -0.248 NA
ATOM     45  C   UNL A   1      40.911  26.875  28.383  1.00  0.00     0.031 C 
ATOM     46  C   UNL A   1      42.550  31.584  29.120  1.00  0.00     0.029 A 
ATOM     47  N   UNL A   1      43.989  30.127  28.226  1.00  0.00    -0.354 N 
ATOM     48  C   UNL A   1      42.871  25.989  27.608  1.00  0.00     0.074 A 
ATOM     49  C   UNL A   1      41.502  25.748  28.010  1.00  0.00     0.031 C 
ATOM     50  C   UNL A   1      43.706  32.236  28.914  1.00  0.00     0.029 A 
ATOM     51  C   UNL A   1      44.687  31.305  28.363  1.00  0.00     0.049 A 
ATOM     52  H   UNL A   1      44.383  29.310  27.842  1.00  0.00     0.167 HD
ATOM     53  C   UNL A   1      43.697  25.044  27.101  1.00  0.00     0.037 A 
ATOM     54  C   UNL A   1      45.975  31.598  28.096  1.00  0.00     0.037 A 
ATOM     55  C   UNL A   1      45.045  25.301  26.663  1.00  0.00     0.049 A 
ATOM     56  C   UNL A   1      46.868  30.522  27.536  1.00  0.00     0.074 A 
ATOM     57  C   UNL A   1      45.928  24.427  26.053  1.00  0.00     0.029 A 
ATOM     58  N   UNL A   1      45.707  26.512  26.795  1.00  0.00    -0.354 N 
ATOM     59  N   UNL A   1      46.578  29.274  27.250  1.00  0.00    -0.248 NA
ATOM     60  C   UNL A   1      48.264  30.891  27.260  1.00  0.00     0.031 C 
ATOM     61  C   UNL A   1      47.144  25.092  25.870  1.00  0.00     0.029 A 
ATOM     62  C   UNL A   1      46.998  26.397  26.309  1.00  0.00     0.049 A 
ATOM     63  H   UNL A   1      45.316  27.331  27.177  1.00  0.00     0.167 HD
ATOM     64  C   UNL A   1      47.744  28.723  26.728  1.00  0.00     0.074 A 
ATOM     65  C   UNL A   1      48.737  29.776  26.723  1.00  0.00     0.031 C 
ATOM     66  C   UNL A   1      47.972  27.460  26.293  1.00  0.00     0.037 A 
BRANCH  53  67
ATOM     67  C   UNL A   1      43.185  23.634  26.983  1.00  0.00     0.058 A 
ATOM     68  C   UNL A   1      42.790  23.090  25.753  1.00  0.00     0.135 A 
ATOM     69  C   UNL A   1      43.191  22.786  28.104  1.00  0.00     0.135 A 
ATOM     70  F   UNL A   1      42.748  23.860  24.654  1.00  0.00    -0.206 F 
ATOM     71  C   UNL A   1      42.420  21.753  25.635  1.00  0.00     0.059 A 
ATOM     72  C   UNL A   1      42.850  21.441  28.004  1.00  0.00     0.059 A 
ATOM     73  F   UNL A   1      43.556  23.258  29.307  1.00  0.00    -0.206 F 
ATOM     74  C   UNL A   1      42.463  20.934  26.765  1.00  0.00     0.060 A 
BRANCH  74  75
ATOM     75  S   UNL A   1      42.039  19.189  26.581  1.00  0.00     0.124 S 
ATOM     76  O   UNL A   1      43.293  18.636  26.075  1.00  0.00    -0.237 OA
ATOM     77  O   UNL A   1      41.684  18.810  27.945  1.00  0.00    -0.237 OA
ATOM     78  O   UNL A   1      40.933  19.204  25.629  1.00  0.00    -0.744 OA
ENDBRANCH  74  75
ENDBRANCH  53  67
BRANCH  54  79
ATOM     79  C   UNL A   1      46.514  32.961  28.362  1.00  0.00     0.058 A 
ATOM     80  C   UNL A   1      47.019  33.307  29.624  1.00  0.00     0.135 A 
ATOM     81  C   UNL A   1      46.492  33.957  27.374  1.00  0.00     0.135 A 
ATOM     82  F   UNL A   1      47.058  32.392  30.604  1.00  0.00    -0.206 F 
ATOM     83  C   UNL A   1      47.438  34.602  29.913  1.00  0.00     0.059 A 
ATOM     84  C   UNL A   1      46.936  35.251  27.627  1.00  0.00     0.059 A 
ATOM     85  F   UNL A   1      46.039  33.677  26.142  1.00  0.00    -0.206 F 
ATOM     86  C   UNL A   1      47.387  35.570  28.908  1.00  0.00     0.060 A 
BRANCH  86  87
ATOM     87  S   UNL A   1      47.926  37.249  29.292  1.00  0.00     0.124 S 
ATOM     88  O   UNL A   1      49.141  37.356  28.494  1.00  0.00    -0.237 OA
ATOM     89  O   UNL A   1      46.791  38.048  28.839  1.00  0.00    -0.237 OA
ATOM     90  O   UNL A   1      48.120  37.215  30.739  1.00  0.00    -0.744 OA
ENDBRANCH  86  87
ENDBRANCH  54  79
BRANCH  66  91
ATOM     91  C   UNL A   1      49.334  27.153  25.732  1.00  0.00     0.058 A 
ATOM     92  C   UNL A   1      49.637  27.346  24.375  1.00  0.00     0.135 A 
ATOM     93  C   UNL A   1      50.364  26.709  26.576  1.00  0.00     0.135 A 
ATOM     94  F   UNL A   1      48.687  27.763  23.523  1.00  0.00    -0.206 F 
ATOM     95  C   UNL A   1      50.905  27.082  23.870  1.00  0.00     0.059 A 
ATOM     96  C   UNL A   1      51.649  26.470  26.100  1.00  0.00     0.059 A 
ATOM     97  F   UNL A   1      50.133  26.520  27.885  1.00  0.00    -0.206 F 
ATOM     98  C   UNL A   1      51.906  26.648  24.741  1.00  0.00     0.060 A 
BRANCH  98  99
ATOM     99  S   UNL A   1      53.557  26.340  24.078  1.00  0.00     0.124 S 
ATOM    100  O   UNL A   1      54.153  25.533  25.138  1.00  0.00    -0.237 OA
ATOM    101  O   UNL A   1      53.266  25.636  22.833  1.00  0.00    -0.237 OA
ATOM    102  O   UNL A   1      54.115  27.680  23.918  1.00  0.00    -0.744 OA
ENDBRANCH  98  99
ENDBRANCH  66  91
ENDBRANCH  40  41
ENDBRANCH  32  35
ENDBRANCH  30  31
ENDBRANCH  29  30
ENDBRANCH  28  29
ENDBRANCH  27  28
ENDBRANCH   1  27
TORSDOF 22
ENDMDL
MODEL 2
REMARK VINA RESULT:     -10.1      1.154      8.214
REMARK SMILES CCN(CC(=O)NC(C)C)C(=O)N[C@H]1C=C[C@H](C(=O)NCCCCCCNC(=O)c2ccc(-c3c4nc(c(-c5c(F)cc(S(=O)(=O)[O-])cc5F)c5ccc([nH]5)c(-c5c(F)cc(S(=O)(=O)[O-])cc5F)c5nc(c(-c6c(F)cc(S(=O)(=O)[O-])cc6F)c6ccc3[nH]6)C=C5)C=C4)cc2)C1
REMARK SMILES IDX 22 1 21 2 20 3 18 4 19 5 17 7 14 8 15 9 96 10 16 11 13 12
REMARK SMILES IDX 11 13 12 14 3 16 2 17 1 18 4 19 5 20 6 21 7 22 8 24 9 25
REMARK SMILES IDX 10 26 23 27 24 28 25 29 26 30 27 31 28 32 29 34 30 35 31 36
REMARK SMILES IDX 95 37 32 38 94 39 33 40 34 41 35 42 88 43 36 44 93 45 87 46
REMARK SMILES IDX 89 47 37 48 92 49 86 50 85 51 38 53 72 54 51 55 71 56 52 57
REMARK SMILES IDX 55 58 70 59 90 60 53 61 54 62 69 64 91 65 56 66 39 67 40 68
REMARK SMILES IDX 49 69 41 70 42 71 48 72 50 73 43 74 44 75 45 76 46 77 47 78
REMARK SMILES IDX 73 79 74 80 83 81 75 82 76 83 82 84 84 85 77 86 78 87 79 88
REMARK SMILES IDX 80 89 81 90 57 91 58 92 67 93 59 94 60 95 66 96 68 97 61 98
REMARK SMILES IDX 62 99 63 100 64 101 65 102
REMARK H PARENT 20 6 13 15 7 23 27 33 89 52 55 63
REMARK Flexibility Score: inf
ROOT
ATOM      1  C   UNL A   1      34.535  30.613  27.395  1.00  0.00     0.021 C 
ENDROOT
BRANCH   1   2
ATOM      2  C   UNL A   1      33.215  29.846  27.520  1.00  0.00     0.116 C 
BRANCH   2   3
ATOM      3  N   UNL A   1      32.352  30.160  26.402  1.00  0.00    -0.356 N 
ATOM      4  C   UNL A   1      31.743  29.355  25.489  1.00  0.00     0.227 C 
ATOM      5  O   UNL A   1      31.069  29.927  24.625  1.00  0.00    -0.274 OA
ATOM      6  H   UNL A   1      32.174  31.121  26.280  1.00  0.00     0.163 HD
BRANCH   4   7
ATOM      7  C   UNL A   1      31.786  27.817  25.610  1.00  0.00     0.103 C 
ATOM      8  C   UNL A   1      32.933  26.897  23.688  1.00  0.00     0.107 C 
ATOM      9  C   UNL A   1      31.463  26.694  23.554  1.00  0.00    -0.006 C 
ATOM     10  C   UNL A   1      33.072  27.091  25.193  1.00  0.00     0.047 C 
ATOM     11  C   UNL A   1      30.823  27.209  24.612  1.00  0.00    -0.016 C 
BRANCH   8  12
ATOM     12  N   UNL A   1      33.651  25.750  23.200  1.00  0.00    -0.332 N 
ATOM     13  C   UNL A   1      33.852  24.479  23.583  1.00  0.00     0.318 C 
ATOM     14  O   UNL A   1      34.466  23.786  22.761  1.00  0.00    -0.249 OA
ATOM     15  H   UNL A   1      34.123  25.952  22.360  1.00  0.00     0.165 HD
BRANCH  13  16
ATOM     16  N   UNL A   1      33.447  23.957  24.782  1.00  0.00    -0.316 N 
BRANCH  16  17
ATOM     17  C   UNL A   1      34.449  23.931  25.858  1.00  0.00     0.118 C 
ATOM     18  C   UNL A   1      35.823  24.418  25.419  1.00  0.00     0.027 C 
ENDBRANCH  16  17
BRANCH  16  19
ATOM     19  C   UNL A   1      32.154  23.339  25.092  1.00  0.00     0.221 C 
BRANCH  19  20
ATOM     20  C   UNL A   1      32.121  22.417  26.328  1.00  0.00     0.239 C 
ATOM     21  O   UNL A   1      31.428  22.705  27.310  1.00  0.00    -0.273 OA
ATOM     22  N   UNL A   1      32.755  21.213  26.344  1.00  0.00    -0.352 N 
ATOM     23  H   UNL A   1      33.100  20.909  27.215  1.00  0.00     0.163 HD
BRANCH  22  24
ATOM     24  C   UNL A   1      32.981  20.330  25.215  1.00  0.00     0.075 C 
ATOM     25  C   UNL A   1      34.381  20.499  24.644  1.00  0.00     0.030 C 
ATOM     26  C   UNL A   1      32.735  18.893  25.672  1.00  0.00     0.030 C 
ENDBRANCH  22  24
ENDBRANCH  19  20
ENDBRANCH  16  19
ENDBRANCH  13  16
ENDBRANCH   8  12
ENDBRANCH   4   7
ENDBRANCH   2   3
ENDBRANCH   1   2
BRANCH   1  27
ATOM     27  C   UNL A   1      34.509  31.989  28.074  1.00  0.00     0.002 C 
BRANCH  27  28
ATOM     28  C   UNL A   1      35.777  32.827  27.874  1.00  0.00     0.002 C 
BRANCH  28  29
ATOM     29  C   UNL A   1      36.079  33.816  29.003  1.00  0.00     0.021 C 
BRANCH  29  30
ATOM     30  C   UNL A   1      37.077  33.299  30.036  1.00  0.00     0.116 C 
BRANCH  30  31
ATOM     31  N   UNL A   1      36.461  32.336  30.937  1.00  0.00    -0.352 N 
ATOM     32  C   UNL A   1      36.788  31.022  31.155  1.00  0.00     0.251 C 
ATOM     33  H   UNL A   1      35.703  32.676  31.465  1.00  0.00     0.163 HD
ATOM     34  O   UNL A   1      36.006  30.287  31.759  1.00  0.00    -0.269 OA
BRANCH  32  35
ATOM     35  C   UNL A   1      38.072  30.489  30.655  1.00  0.00     0.039 A 
ATOM     36  C   UNL A   1      38.269  30.366  29.279  1.00  0.00     0.014 A 
ATOM     37  C   UNL A   1      39.079  30.108  31.548  1.00  0.00     0.014 A 
ATOM     38  C   UNL A   1      39.500  29.917  28.795  1.00  0.00     0.010 A 
ATOM     39  C   UNL A   1      40.327  29.728  31.063  1.00  0.00     0.010 A 
ATOM     40  C   UNL A   1      40.552  29.629  29.681  1.00  0.00    -0.014 A 
BRANCH  40  41
ATOM     41  C   UNL A   1      41.897  29.242  29.185  1.00  0.00     0.031 A 
ATOM     42  C   UNL A   1      42.975  30.284  29.032  1.00  0.00     0.074 A 
ATOM     43  C   UNL A   1      42.123  27.970  28.799  1.00  0.00     0.049 A 
ATOM     44  N   UNL A   1      44.177  30.157  28.532  1.00  0.00    -0.248 NA
ATOM     45  C   UNL A   1      42.654  31.650  29.479  1.00  0.00     0.031 C 
ATOM     46  C   UNL A   1      41.142  26.882  28.857  1.00  0.00     0.029 A 
ATOM     47  N   UNL A   1      43.239  27.376  28.264  1.00  0.00    -0.354 N 
ATOM     48  C   UNL A   1      44.743  31.425  28.579  1.00  0.00     0.074 A 
ATOM     49  C   UNL A   1      43.745  32.316  29.129  1.00  0.00     0.031 C 
ATOM     50  C   UNL A   1      41.704  25.755  28.389  1.00  0.00     0.029 A 
ATOM     51  C   UNL A   1      43.067  26.047  27.956  1.00  0.00     0.049 A 
ATOM     52  H   UNL A   1      44.085  27.858  28.116  1.00  0.00     0.167 HD
ATOM     53  C   UNL A   1      45.989  31.806  28.211  1.00  0.00     0.037 A 
ATOM     54  C   UNL A   1      43.904  25.167  27.370  1.00  0.00     0.037 A 
ATOM     55  C   UNL A   1      46.991  30.905  27.704  1.00  0.00     0.049 A 
ATOM     56  C   UNL A   1      45.282  25.625  26.970  1.00  0.00     0.074 A 
ATOM     57  C   UNL A   1      48.311  31.181  27.389  1.00  0.00     0.029 A 
ATOM     58  N   UNL A   1      46.788  29.562  27.429  1.00  0.00    -0.354 N 
ATOM     59  N   UNL A   1      45.831  26.809  27.107  1.00  0.00    -0.248 NA
ATOM     60  C   UNL A   1      46.158  24.628  26.337  1.00  0.00     0.031 C 
ATOM     61  C   UNL A   1      48.888  30.020  26.868  1.00  0.00     0.029 A 
ATOM     62  C   UNL A   1      47.947  29.005  26.916  1.00  0.00     0.049 A 
ATOM     63  H   UNL A   1      45.944  29.076  27.577  1.00  0.00     0.167 HD
ATOM     64  C   UNL A   1      47.125  26.687  26.610  1.00  0.00     0.074 A 
ATOM     65  C   UNL A   1      47.282  25.313  26.185  1.00  0.00     0.031 C 
ATOM     66  C   UNL A   1      48.095  27.629  26.514  1.00  0.00     0.037 A 
BRANCH  53  67
ATOM     67  C   UNL A   1      46.360  33.259  28.336  1.00  0.00     0.058 A 
ATOM     68  C   UNL A   1      46.148  34.170  27.293  1.00  0.00     0.135 A 
ATOM     69  C   UNL A   1      46.837  33.761  29.559  1.00  0.00     0.135 A 
ATOM     70  F   UNL A   1      45.710  33.742  26.098  1.00  0.00    -0.206 F 
ATOM     71  C   UNL A   1      46.394  35.531  27.455  1.00  0.00     0.059 A 
ATOM     72  C   UNL A   1      47.065  35.120  29.752  1.00  0.00     0.059 A 
ATOM     73  F   UNL A   1      47.063  32.931  30.590  1.00  0.00    -0.206 F 
ATOM     74  C   UNL A   1      46.842  35.998  28.692  1.00  0.00     0.060 A 
BRANCH  74  75
ATOM     75  S   UNL A   1      47.097  37.772  28.903  1.00  0.00     0.124 S 
ATOM     76  O   UNL A   1      48.163  37.797  29.900  1.00  0.00    -0.237 OA
ATOM     77  O   UNL A   1      47.477  38.194  27.558  1.00  0.00    -0.237 OA
ATOM     78  O   UNL A   1      45.798  38.252  29.364  1.00  0.00    -0.744 OA
ENDBRANCH  74  75
ENDBRANCH  53  67
BRANCH  54  79
ATOM     79  C   UNL A   1      43.470  23.765  27.110  1.00  0.00     0.058 A 
ATOM     80  C   UNL A   1      43.114  23.345  25.820  1.00  0.00     0.135 A 
ATOM     81  C   UNL A   1      43.360  22.833  28.153  1.00  0.00     0.135 A 
ATOM     82  F   UNL A   1      43.198  24.200  24.789  1.00  0.00    -0.206 F 
ATOM     83  C   UNL A   1      42.619  22.067  25.579  1.00  0.00     0.059 A 
ATOM     84  C   UNL A   1      42.899  21.539  27.932  1.00  0.00     0.059 A 
ATOM     85  F   UNL A   1      43.707  23.174  29.403  1.00  0.00    -0.206 F 
ATOM     86  C   UNL A   1      42.509  21.173  26.645  1.00  0.00     0.060 A 
BRANCH  86  87
ATOM     87  S   UNL A   1      41.859  19.519  26.326  1.00  0.00     0.124 S 
ATOM     88  O   UNL A   1      42.521  19.182  25.071  1.00  0.00    -0.237 OA
ATOM     89  O   UNL A   1      42.305  18.780  27.503  1.00  0.00    -0.237 OA
ATOM     90  O   UNL A   1      40.417  19.737  26.241  1.00  0.00    -0.744 OA
ENDBRANCH  86  87
ENDBRANCH  54  79
BRANCH  66  91
ATOM     91  C   UNL A   1      49.430  27.198  25.970  1.00  0.00     0.058 A 
ATOM     92  C   UNL A   1      50.469  26.768  26.809  1.00  0.00     0.135 A 
ATOM     93  C   UNL A   1      49.653  27.168  24.583  1.00  0.00     0.135 A 
ATOM     94  F   UNL A   1      50.311  26.783  28.143  1.00  0.00    -0.206 F 
ATOM     95  C   UNL A   1      51.692  26.349  26.295  1.00  0.00     0.059 A 
ATOM     96  C   UNL A   1      50.856  26.722  24.045  1.00  0.00     0.059 A 
ATOM     97  F   UNL A   1      48.689  27.556  23.734  1.00  0.00    -0.206 F 
ATOM     98  C   UNL A   1      51.875  26.326  24.911  1.00  0.00     0.060 A 
BRANCH  98  99
ATOM     99  S   UNL A   1      53.455  25.750  24.256  1.00  0.00     0.124 S 
ATOM    100  O   UNL A   1      54.393  26.651  24.916  1.00  0.00    -0.237 OA
ATOM    101  O   UNL A   1      53.489  24.361  24.704  1.00  0.00    -0.237 OA
ATOM    102  O   UNL A   1      53.313  25.934  22.815  1.00  0.00    -0.744 OA
ENDBRANCH  98  99
ENDBRANCH  66  91
ENDBRANCH  40  41
ENDBRANCH  32  35
ENDBRANCH  30  31
ENDBRANCH  29  30
ENDBRANCH  28  29
ENDBRANCH  27  28
ENDBRANCH   1  27
TORSDOF 22
ENDMDL
MODEL 3
REMARK VINA RESULT:      -9.9      6.572     11.919
REMARK SMILES CCN(CC(=O)NC(C)C)C(=O)N[C@H]1C=C[C@H](C(=O)NCCCCCCNC(=O)c2ccc(-c3c4nc(c(-c5c(F)cc(S(=O)(=O)[O-])cc5F)c5ccc([nH]5)c(-c5c(F)cc(S(=O)(=O)[O-])cc5F)c5nc(c(-c6c(F)cc(S(=O)(=O)[O-])cc6F)c6ccc3[nH]6)C=C5)C=C4)cc2)C1
REMARK SMILES IDX 22 1 21 2 20 3 18 4 19 5 17 7 14 8 15 9 96 10 16 11 13 12
REMARK SMILES IDX 11 13 12 14 3 16 2 17 1 18 4 19 5 20 6 21 7 22 8 24 9 25
REMARK SMILES IDX 10 26 23 27 24 28 25 29 26 30 27 31 28 32 29 34 30 35 31 36
REMARK SMILES IDX 95 37 32 38 94 39 33 40 34 41 35 42 88 43 36 44 93 45 87 46
REMARK SMILES IDX 89 47 37 48 92 49 86 50 85 51 38 53 72 54 51 55 71 56 52 57
REMARK SMILES IDX 55 58 70 59 90 60 53 61 54 62 69 64 91 65 56 66 39 67 40 68
REMARK SMILES IDX 49 69 41 70 42 71 48 72 50 73 43 74 44 75 45 76 46 77 47 78
REMARK SMILES IDX 73 79 74 80 83 81 75 82 76 83 82 84 84 85 77 86 78 87 79 88
REMARK SMILES IDX 80 89 81 90 57 91 58 92 67 93 59 94 60 95 66 96 68 97 61 98
REMARK SMILES IDX 62 99 63 100 64 101 65 102
REMARK H PARENT 20 6 13 15 7 23 27 33 89 52 55 63
REMARK Flexibility Score: inf
ROOT
ATOM      1  C   UNL A   1      34.727  25.538  25.108  1.00  0.00     0.021 C 
ENDROOT
BRANCH   1   2
ATOM      2  C   UNL A   1      33.791  26.282  26.066  1.00  0.00     0.116 C 
BRANCH   2   3
ATOM      3  N   UNL A   1      34.448  27.460  26.586  1.00  0.00    -0.356 N 
ATOM      4  C   UNL A   1      33.944  28.650  27.013  1.00  0.00     0.227 C 
ATOM      5  O   UNL A   1      34.772  29.486  27.392  1.00  0.00    -0.274 OA
ATOM      6  H   UNL A   1      35.429  27.390  26.642  1.00  0.00     0.163 HD
BRANCH   4   7
ATOM      7  C   UNL A   1      32.424  28.888  27.138  1.00  0.00     0.103 C 
ATOM      8  C   UNL A   1      31.437  28.917  24.929  1.00  0.00     0.107 C 
ATOM      9  C   UNL A   1      31.543  30.304  25.462  1.00  0.00    -0.006 C 
ATOM     10  C   UNL A   1      31.488  28.099  26.213  1.00  0.00     0.047 C 
ATOM     11  C   UNL A   1      32.097  30.294  26.682  1.00  0.00    -0.016 C 
BRANCH   8  12
ATOM     12  N   UNL A   1      30.207  28.745  24.201  1.00  0.00    -0.332 N 
ATOM     13  C   UNL A   1      29.647  27.805  23.423  1.00  0.00     0.318 C 
ATOM     14  O   UNL A   1      28.477  28.040  23.097  1.00  0.00    -0.249 OA
ATOM     15  H   UNL A   1      29.619  29.528  24.299  1.00  0.00     0.165 HD
BRANCH  13  16
ATOM     16  N   UNL A   1      30.288  26.675  22.989  1.00  0.00    -0.316 N 
BRANCH  16  17
ATOM     17  C   UNL A   1      31.310  26.862  21.949  1.00  0.00     0.118 C 
ATOM     18  C   UNL A   1      32.735  26.810  22.483  1.00  0.00     0.027 C 
ENDBRANCH  16  17
BRANCH  16  19
ATOM     19  C   UNL A   1      30.009  25.289  23.377  1.00  0.00     0.221 C 
BRANCH  19  20
ATOM     20  C   UNL A   1      30.584  24.836  24.734  1.00  0.00     0.239 C 
ATOM     21  O   UNL A   1      30.091  25.239  25.793  1.00  0.00    -0.273 OA
ATOM     22  N   UNL A   1      31.570  23.902  24.821  1.00  0.00    -0.352 N 
ATOM     23  H   UNL A   1      32.194  23.990  25.578  1.00  0.00     0.163 HD
BRANCH  22  24
ATOM     24  C   UNL A   1      31.803  22.790  23.918  1.00  0.00     0.075 C 
ATOM     25  C   UNL A   1      32.864  23.125  22.881  1.00  0.00     0.030 C 
ATOM     26  C   UNL A   1      32.199  21.571  24.749  1.00  0.00     0.030 C 
ENDBRANCH  22  24
ENDBRANCH  19  20
ENDBRANCH  16  19
ENDBRANCH  13  16
ENDBRANCH   8  12
ENDBRANCH   4   7
ENDBRANCH   2   3
ENDBRANCH   1   2
BRANCH   1  27
ATOM     27  C   UNL A   1      35.279  24.228  25.688  1.00  0.00     0.002 C 
BRANCH  27  28
ATOM     28  C   UNL A   1      36.535  23.697  24.988  1.00  0.00     0.002 C 
BRANCH  28  29
ATOM     29  C   UNL A   1      37.633  23.196  25.931  1.00  0.00     0.021 C 
BRANCH  29  30
ATOM     30  C   UNL A   1      38.435  24.307  26.602  1.00  0.00     0.116 C 
BRANCH  30  31
ATOM     31  N   UNL A   1      39.689  24.556  25.904  1.00  0.00    -0.352 N 
ATOM     32  C   UNL A   1      40.629  25.527  26.133  1.00  0.00     0.251 C 
ATOM     33  H   UNL A   1      39.890  23.938  25.164  1.00  0.00     0.163 HD
ATOM     34  O   UNL A   1      41.501  25.749  25.292  1.00  0.00    -0.269 OA
BRANCH  32  35
ATOM     35  C   UNL A   1      40.589  26.312  27.384  1.00  0.00     0.039 A 
ATOM     36  C   UNL A   1      41.412  27.432  27.512  1.00  0.00     0.014 A 
ATOM     37  C   UNL A   1      39.742  25.938  28.431  1.00  0.00     0.014 A 
ATOM     38  C   UNL A   1      41.341  28.214  28.668  1.00  0.00     0.010 A 
ATOM     39  C   UNL A   1      39.621  26.756  29.551  1.00  0.00     0.010 A 
ATOM     40  C   UNL A   1      40.418  27.903  29.682  1.00  0.00    -0.014 A 
BRANCH  40  41
ATOM     41  C   UNL A   1      40.258  28.773  30.875  1.00  0.00     0.031 A 
ATOM     42  C   UNL A   1      39.208  29.853  30.887  1.00  0.00     0.074 A 
ATOM     43  C   UNL A   1      41.109  28.642  31.912  1.00  0.00     0.049 A 
ATOM     44  N   UNL A   1      38.978  30.767  31.795  1.00  0.00    -0.248 NA
ATOM     45  C   UNL A   1      38.314  29.931  29.720  1.00  0.00     0.031 C 
ATOM     46  C   UNL A   1      42.197  27.662  31.995  1.00  0.00     0.029 A 
ATOM     47  N   UNL A   1      41.210  29.343  33.088  1.00  0.00    -0.354 N 
ATOM     48  C   UNL A   1      37.935  31.540  31.298  1.00  0.00     0.074 A 
ATOM     49  C   UNL A   1      37.595  31.010  29.996  1.00  0.00     0.031 C 
ATOM     50  C   UNL A   1      42.844  27.818  33.162  1.00  0.00     0.029 A 
ATOM     51  C   UNL A   1      42.250  28.935  33.891  1.00  0.00     0.049 A 
ATOM     52  H   UNL A   1      40.594  30.071  33.334  1.00  0.00     0.167 HD
ATOM     53  C   UNL A   1      37.309  32.588  31.885  1.00  0.00     0.037 A 
ATOM     54  C   UNL A   1      42.691  29.419  35.069  1.00  0.00     0.037 A 
ATOM     55  C   UNL A   1      37.626  33.083  33.200  1.00  0.00     0.049 A 
ATOM     56  C   UNL A   1      41.973  30.588  35.693  1.00  0.00     0.074 A 
ATOM     57  C   UNL A   1      36.987  34.082  33.916  1.00  0.00     0.029 A 
ATOM     58  N   UNL A   1      38.669  32.628  33.992  1.00  0.00    -0.354 N 
ATOM     59  N   UNL A   1      40.930  31.249  35.249  1.00  0.00    -0.248 NA
ATOM     60  C   UNL A   1      42.490  31.077  36.979  1.00  0.00     0.031 C 
ATOM     61  C   UNL A   1      37.680  34.271  35.115  1.00  0.00     0.029 A 
ATOM     62  C   UNL A   1      38.712  33.349  35.173  1.00  0.00     0.049 A 
ATOM     63  H   UNL A   1      39.286  31.900  33.750  1.00  0.00     0.167 HD
ATOM     64  C   UNL A   1      40.647  32.206  36.218  1.00  0.00     0.074 A 
ATOM     65  C   UNL A   1      41.617  32.028  37.277  1.00  0.00     0.031 C 
ATOM     66  C   UNL A   1      39.673  33.148  36.229  1.00  0.00     0.037 A 
BRANCH  53  67
ATOM     67  C   UNL A   1      36.214  33.285  31.125  1.00  0.00     0.058 A 
ATOM     68  C   UNL A   1      34.892  33.316  31.592  1.00  0.00     0.135 A 
ATOM     69  C   UNL A   1      36.518  34.020  29.966  1.00  0.00     0.135 A 
ATOM     70  F   UNL A   1      34.543  32.618  32.685  1.00  0.00    -0.206 F 
ATOM     71  C   UNL A   1      33.908  34.053  30.939  1.00  0.00     0.059 A 
ATOM     72  C   UNL A   1      35.556  34.784  29.312  1.00  0.00     0.059 A 
ATOM     73  F   UNL A   1      37.767  34.019  29.473  1.00  0.00    -0.206 F 
ATOM     74  C   UNL A   1      34.252  34.792  29.806  1.00  0.00     0.060 A 
BRANCH  74  75
ATOM     75  S   UNL A   1      32.978  35.790  29.008  1.00  0.00     0.124 S 
ATOM     76  O   UNL A   1      33.779  36.832  28.371  1.00  0.00    -0.237 OA
ATOM     77  O   UNL A   1      32.352  34.830  28.104  1.00  0.00    -0.237 OA
ATOM     78  O   UNL A   1      32.145  36.235  30.121  1.00  0.00    -0.744 OA
ENDBRANCH  74  75
ENDBRANCH  53  67
BRANCH  54  79
ATOM     79  C   UNL A   1      43.876  28.816  35.741  1.00  0.00     0.058 A 
ATOM     80  C   UNL A   1      45.175  29.256  35.449  1.00  0.00     0.135 A 
ATOM     81  C   UNL A   1      43.735  27.759  36.654  1.00  0.00     0.135 A 
ATOM     82  F   UNL A   1      45.364  30.261  34.580  1.00  0.00    -0.206 F 
ATOM     83  C   UNL A   1      46.295  28.640  35.998  1.00  0.00     0.059 A 
ATOM     84  C   UNL A   1      44.838  27.148  37.242  1.00  0.00     0.059 A 
ATOM     85  F   UNL A   1      42.514  27.312  36.987  1.00  0.00    -0.206 F 
ATOM     86  C   UNL A   1      46.116  27.581  36.890  1.00  0.00     0.060 A 
BRANCH  86  87
ATOM     87  S   UNL A   1      47.574  26.782  37.593  1.00  0.00     0.124 S 
ATOM     88  O   UNL A   1      47.079  25.433  37.836  1.00  0.00    -0.237 OA
ATOM     89  O   UNL A   1      48.550  26.921  36.517  1.00  0.00    -0.237 OA
ATOM     90  O   UNL A   1      47.850  27.578  38.786  1.00  0.00    -0.744 OA
ENDBRANCH  86  87
ENDBRANCH  54  79
BRANCH  66  91
ATOM     91  C   UNL A   1      39.574  34.032  37.443  1.00  0.00     0.058 A 
ATOM     92  C   UNL A   1      38.830  33.659  38.572  1.00  0.00     0.135 A 
ATOM     93  C   UNL A   1      40.277  35.247  37.494  1.00  0.00     0.135 A 
ATOM     94  F   UNL A   1      38.133  32.510  38.574  1.00  0.00    -0.206 F 
ATOM     95  C   UNL A   1      38.763  34.471  39.699  1.00  0.00     0.059 A 
ATOM     96  C   UNL A   1      40.252  36.060  38.622  1.00  0.00     0.059 A 
ATOM     97  F   UNL A   1      41.015  35.646  36.445  1.00  0.00    -0.206 F 
ATOM     98  C   UNL A   1      39.481  35.669  39.716  1.00  0.00     0.060 A 
BRANCH  98  99
ATOM     99  S   UNL A   1      39.413  36.698  41.197  1.00  0.00     0.124 S 
ATOM    100  O   UNL A   1      40.807  36.690  41.625  1.00  0.00    -0.237 OA
ATOM    101  O   UNL A   1      38.919  37.967  40.671  1.00  0.00    -0.237 OA
ATOM    102  O   UNL A   1      38.484  35.983  42.067  1.00  0.00    -0.744 OA
ENDBRANCH  98  99
ENDBRANCH  66  91
ENDBRANCH  40  41
ENDBRANCH  32  35
ENDBRANCH  30  31
ENDBRANCH  29  30
ENDBRANCH  28  29
ENDBRANCH  27  28
ENDBRANCH   1  27
TORSDOF 22
ENDMDL
