MODEL 1
REMARK VINA RESULT:     -12.7      0.000      0.000
REMARK SMILES C[C@@H]1CCCN(C(=O)CSc2nnc3c4ccccc4n(CC(=O)NCCCCCCNC(=O)c4ccc(-c5c6nc(c(-c7c(F)cc(S(=O)(=O)[O-])cc7F)c7ccc([nH]7)c(-c7c(F)cc(S(=O)(=O)[O-])cc7F)c7nc(c(-c8c(F)cc(S(=O)(=O)[O-])cc8F)c8ccc5[nH]8)C=C7)C=C6)cc4)c3n2)C1
REMARK SMILES IDX 27 1 26 2 25 3 23 4 24 5 22 7 21 8 11 9 12 10 102 11 13 12
REMARK SMILES IDX 101 13 14 14 15 15 20 16 16 17 19 18 17 19 18 20 10 21 9 22
REMARK SMILES IDX 7 23 8 24 6 25 1 26 2 27 3 28 103 29 4 30 5 31 28 32 29 33
REMARK SMILES IDX 30 34 31 35 32 36 33 37 34 39 35 40 36 41 100 42 37 43 99 44
REMARK SMILES IDX 38 45 39 46 40 47 93 48 41 49 98 50 92 51 94 52 42 53 97 54
REMARK SMILES IDX 91 55 90 56 43 58 77 59 56 60 76 61 57 62 60 63 75 64 95 65
REMARK SMILES IDX 58 66 59 67 74 69 96 70 61 71 44 72 45 73 54 74 46 75 47 76
REMARK SMILES IDX 53 77 55 78 48 79 49 80 50 81 51 82 52 83 78 84 79 85 88 86
REMARK SMILES IDX 80 87 81 88 87 89 89 90 82 91 83 92 84 93 85 94 86 95 62 96
REMARK SMILES IDX 63 97 72 98 64 99 65 100 71 101 73 102 66 103 67 104 68 105
REMARK SMILES IDX 69 106 70 107
REMARK H PARENT 25 6 32 38 94 57 60 68
REMARK Flexibility Score: inf
ROOT
ATOM      1  C   UNL A   1      38.663  24.304  26.498  1.00  0.00     0.021 C 
ENDROOT
BRANCH   1   2
ATOM      2  C   UNL A   1      37.219  23.841  26.302  1.00  0.00     0.116 C 
BRANCH   2   3
ATOM      3  N   UNL A   1      36.950  23.538  24.907  1.00  0.00    -0.355 N 
ATOM      4  C   UNL A   1      36.574  22.358  24.335  1.00  0.00     0.240 C 
ATOM      5  O   UNL A   1      36.455  22.315  23.107  1.00  0.00    -0.273 OA
ATOM      6  H   UNL A   1      37.053  24.293  24.284  1.00  0.00     0.163 HD
BRANCH   4   7
ATOM      7  C   UNL A   1      36.258  21.144  25.185  1.00  0.00     0.224 C 
BRANCH   7   8
ATOM      8  N   UNL A   1      34.907  20.633  25.006  1.00  0.00    -0.314 N 
ATOM      9  C   UNL A   1      32.460  23.121  25.616  1.00  0.00     0.211 A 
ATOM     10  N   UNL A   1      31.340  22.366  25.459  1.00  0.00    -0.122 NA
ATOM     11  N   UNL A   1      33.731  22.709  25.435  1.00  0.00    -0.201 NA
ATOM     12  N   UNL A   1      31.427  21.080  25.104  1.00  0.00    -0.144 NA
ATOM     13  C   UNL A   1      33.777  21.401  25.126  1.00  0.00     0.165 A 
ATOM     14  C   UNL A   1      32.680  20.576  24.969  1.00  0.00     0.138 A 
ATOM     15  C   UNL A   1      33.155  19.262  24.723  1.00  0.00     0.030 A 
ATOM     16  C   UNL A   1      34.557  19.321  24.733  1.00  0.00     0.053 A 
ATOM     17  C   UNL A   1      32.526  18.016  24.524  1.00  0.00     0.013 A 
ATOM     18  C   UNL A   1      35.346  18.178  24.525  1.00  0.00     0.027 A 
ATOM     19  C   UNL A   1      33.306  16.871  24.338  1.00  0.00     0.001 A 
ATOM     20  C   UNL A   1      34.695  16.955  24.335  1.00  0.00     0.002 A 
BRANCH   9  21
ATOM     21  S   UNL A   1      32.292  24.696  26.419  1.00  0.00    -0.074 SA
BRANCH  21  22
ATOM     22  C   UNL A   1      33.754  25.541  25.772  1.00  0.00     0.178 C 
BRANCH  22  23
ATOM     23  C   UNL A   1      33.606  25.948  24.316  1.00  0.00     0.233 C 
ATOM     24  O   UNL A   1      34.219  25.312  23.453  1.00  0.00    -0.274 OA
BRANCH  23  25
ATOM     25  N   UNL A   1      32.747  26.991  23.981  1.00  0.00    -0.342 N 
ATOM     26  C   UNL A   1      28.962  27.206  23.501  1.00  0.00     0.009 C 
ATOM     27  C   UNL A   1      30.333  27.533  24.085  1.00  0.00     0.005 C 
ATOM     28  C   UNL A   1      30.669  29.016  23.897  1.00  0.00     0.007 C 
ATOM     29  C   UNL A   1      31.423  26.659  23.452  1.00  0.00     0.122 C 
ATOM     30  C   UNL A   1      32.050  29.325  24.470  1.00  0.00     0.022 C 
ATOM     31  C   UNL A   1      33.123  28.406  23.892  1.00  0.00     0.119 C 
ENDBRANCH  23  25
ENDBRANCH  22  23
ENDBRANCH  21  22
ENDBRANCH   9  21
ENDBRANCH   7   8
ENDBRANCH   4   7
ENDBRANCH   2   3
ENDBRANCH   1   2
BRANCH   1  32
ATOM     32  C   UNL A   1      39.542  23.292  27.244  1.00  0.00     0.002 C 
BRANCH  32  33
ATOM     33  C   UNL A   1      39.673  21.921  26.570  1.00  0.00     0.002 C 
BRANCH  33  34
ATOM     34  C   UNL A   1      40.731  20.990  27.171  1.00  0.00     0.021 C 
BRANCH  34  35
ATOM     35  C   UNL A   1      42.147  21.568  27.198  1.00  0.00     0.116 C 
BRANCH  35  36
ATOM     36  N   UNL A   1      42.607  22.053  25.913  1.00  0.00    -0.352 N 
ATOM     37  C   UNL A   1      42.948  23.280  25.409  1.00  0.00     0.251 C 
ATOM     38  H   UNL A   1      42.697  21.333  25.247  1.00  0.00     0.163 HD
ATOM     39  O   UNL A   1      43.435  23.280  24.275  1.00  0.00    -0.269 OA
BRANCH  37  40
ATOM     40  C   UNL A   1      42.723  24.587  26.091  1.00  0.00     0.039 A 
ATOM     41  C   UNL A   1      43.191  24.931  27.358  1.00  0.00     0.014 A 
ATOM     42  C   UNL A   1      41.926  25.521  25.399  1.00  0.00     0.014 A 
ATOM     43  C   UNL A   1      42.794  26.125  27.955  1.00  0.00     0.010 A 
ATOM     44  C   UNL A   1      41.545  26.729  25.982  1.00  0.00     0.010 A 
ATOM     45  C   UNL A   1      41.948  27.011  27.281  1.00  0.00    -0.014 A 
BRANCH  45  46
ATOM     46  C   UNL A   1      41.634  28.272  27.950  1.00  0.00     0.031 A 
ATOM     47  C   UNL A   1      42.698  29.307  27.837  1.00  0.00     0.074 A 
ATOM     48  C   UNL A   1      40.473  28.553  28.575  1.00  0.00     0.049 A 
ATOM     49  N   UNL A   1      43.468  29.766  28.770  1.00  0.00    -0.248 NA
ATOM     50  C   UNL A   1      43.038  29.789  26.491  1.00  0.00     0.031 C 
ATOM     51  C   UNL A   1      39.223  27.793  28.556  1.00  0.00     0.029 A 
ATOM     52  N   UNL A   1      40.154  29.652  29.322  1.00  0.00    -0.354 N 
ATOM     53  C   UNL A   1      44.253  30.749  28.171  1.00  0.00     0.074 A 
ATOM     54  C   UNL A   1      44.061  30.603  26.753  1.00  0.00     0.031 C 
ATOM     55  C   UNL A   1      38.232  28.547  29.089  1.00  0.00     0.029 A 
ATOM     56  C   UNL A   1      38.801  29.776  29.616  1.00  0.00     0.049 A 
ATOM     57  H   UNL A   1      40.827  30.302  29.627  1.00  0.00     0.167 HD
ATOM     58  C   UNL A   1      44.831  31.744  28.902  1.00  0.00     0.037 A 
ATOM     59  C   UNL A   1      38.194  30.830  30.219  1.00  0.00     0.037 A 
ATOM     60  C   UNL A   1      44.911  31.380  30.296  1.00  0.00     0.049 A 
ATOM     61  C   UNL A   1      39.237  31.558  30.985  1.00  0.00     0.074 A 
ATOM     62  C   UNL A   1      45.522  30.367  31.010  1.00  0.00     0.029 A 
ATOM     63  N   UNL A   1      44.000  31.944  31.155  1.00  0.00    -0.354 N 
ATOM     64  N   UNL A   1      39.844  31.080  32.036  1.00  0.00    -0.248 NA
ATOM     65  C   UNL A   1      39.889  32.692  30.352  1.00  0.00     0.031 C 
ATOM     66  C   UNL A   1      44.628  30.074  32.082  1.00  0.00     0.029 A 
ATOM     67  C   UNL A   1      43.548  30.954  31.989  1.00  0.00     0.049 A 
ATOM     68  H   UNL A   1      43.723  32.888  31.171  1.00  0.00     0.167 HD
ATOM     69  C   UNL A   1      41.140  31.562  31.947  1.00  0.00     0.074 A 
ATOM     70  C   UNL A   1      41.075  32.635  30.960  1.00  0.00     0.031 C 
ATOM     71  C   UNL A   1      42.189  30.872  32.480  1.00  0.00     0.037 A 
BRANCH  58  72
ATOM     72  C   UNL A   1      44.971  33.181  28.434  1.00  0.00     0.058 A 
ATOM     73  C   UNL A   1      46.257  33.766  28.385  1.00  0.00     0.135 A 
ATOM     74  C   UNL A   1      43.894  34.090  28.321  1.00  0.00     0.135 A 
ATOM     75  F   UNL A   1      47.360  33.006  28.465  1.00  0.00    -0.206 F 
ATOM     76  C   UNL A   1      46.453  35.148  28.347  1.00  0.00     0.059 A 
ATOM     77  C   UNL A   1      44.070  35.467  28.229  1.00  0.00     0.059 A 
ATOM     78  F   UNL A   1      42.615  33.707  28.388  1.00  0.00    -0.206 F 
ATOM     79  C   UNL A   1      45.349  35.991  28.293  1.00  0.00     0.060 A 
BRANCH  79  80
ATOM     80  S   UNL A   1      45.590  37.773  28.382  1.00  0.00     0.124 S 
ATOM     81  O   UNL A   1      44.230  38.259  28.181  1.00  0.00    -0.237 OA
ATOM     82  O   UNL A   1      46.137  37.936  29.724  1.00  0.00    -0.237 OA
ATOM     83  O   UNL A   1      46.524  38.039  27.292  1.00  0.00    -0.744 OA
ENDBRANCH  79  80
ENDBRANCH  58  72
BRANCH  59  84
ATOM     84  C   UNL A   1      36.862  31.431  29.932  1.00  0.00     0.058 A 
ATOM     85  C   UNL A   1      36.124  32.076  30.944  1.00  0.00     0.135 A 
ATOM     86  C   UNL A   1      36.427  31.658  28.611  1.00  0.00     0.135 A 
ATOM     87  F   UNL A   1      36.471  31.927  32.232  1.00  0.00    -0.206 F 
ATOM     88  C   UNL A   1      35.067  32.949  30.659  1.00  0.00     0.059 A 
ATOM     89  C   UNL A   1      35.371  32.514  28.304  1.00  0.00     0.059 A 
ATOM     90  F   UNL A   1      37.081  31.129  27.567  1.00  0.00    -0.206 F 
ATOM     91  C   UNL A   1      34.716  33.182  29.332  1.00  0.00     0.060 A 
BRANCH  91  92
ATOM     92  S   UNL A   1      33.485  34.452  28.951  1.00  0.00     0.124 S 
ATOM     93  O   UNL A   1      32.912  34.724  30.266  1.00  0.00    -0.237 OA
ATOM     94  O   UNL A   1      34.307  35.515  28.381  1.00  0.00    -0.237 OA
ATOM     95  O   UNL A   1      32.591  33.787  28.007  1.00  0.00    -0.744 OA
ENDBRANCH  91  92
ENDBRANCH  59  84
BRANCH  71  96
ATOM     96  C   UNL A   1      41.897  29.778  33.474  1.00  0.00     0.058 A 
ATOM     97  C   UNL A   1      41.587  28.449  33.133  1.00  0.00     0.135 A 
ATOM     98  C   UNL A   1      42.103  30.058  34.835  1.00  0.00     0.135 A 
ATOM     99  F   UNL A   1      41.467  28.076  31.851  1.00  0.00    -0.206 F 
ATOM    100  C   UNL A   1      41.469  27.452  34.103  1.00  0.00     0.059 A 
ATOM    101  C   UNL A   1      42.021  29.072  35.815  1.00  0.00     0.059 A 
ATOM    102  F   UNL A   1      42.452  31.296  35.221  1.00  0.00    -0.206 F 
ATOM    103  C   UNL A   1      41.698  27.770  35.442  1.00  0.00     0.060 A 
BRANCH 103 104
ATOM    104  S   UNL A   1      41.664  26.457  36.682  1.00  0.00     0.124 S 
ATOM    105  O   UNL A   1      42.884  26.720  37.442  1.00  0.00    -0.237 OA
ATOM    106  O   UNL A   1      40.411  26.725  37.389  1.00  0.00    -0.237 OA
ATOM    107  O   UNL A   1      41.671  25.235  35.892  1.00  0.00    -0.744 OA
ENDBRANCH 103 104
ENDBRANCH  71  96
ENDBRANCH  45  46
ENDBRANCH  37  40
ENDBRANCH  35  36
ENDBRANCH  34  35
ENDBRANCH  33  34
ENDBRANCH  32  33
ENDBRANCH   1  32
TORSDOF 21
ENDMDL
MODEL 2
REMARK VINA RESULT:     -12.7      2.119      2.779
REMARK SMILES C[C@@H]1CCCN(C(=O)CSc2nnc3c4ccccc4n(CC(=O)NCCCCCCNC(=O)c4ccc(-c5c6nc(c(-c7c(F)cc(S(=O)(=O)[O-])cc7F)c7ccc([nH]7)c(-c7c(F)cc(S(=O)(=O)[O-])cc7F)c7nc(c(-c8c(F)cc(S(=O)(=O)[O-])cc8F)c8ccc5[nH]8)C=C7)C=C6)cc4)c3n2)C1
REMARK SMILES IDX 27 1 26 2 25 3 23 4 24 5 22 7 21 8 11 9 12 10 102 11 13 12
REMARK SMILES IDX 101 13 14 14 15 15 20 16 16 17 19 18 17 19 18 20 10 21 9 22
REMARK SMILES IDX 7 23 8 24 6 25 1 26 2 27 3 28 103 29 4 30 5 31 28 32 29 33
REMARK SMILES IDX 30 34 31 35 32 36 33 37 34 39 35 40 36 41 100 42 37 43 99 44
REMARK SMILES IDX 38 45 39 46 40 47 93 48 41 49 98 50 92 51 94 52 42 53 97 54
REMARK SMILES IDX 91 55 90 56 43 58 77 59 56 60 76 61 57 62 60 63 75 64 95 65
REMARK SMILES IDX 58 66 59 67 74 69 96 70 61 71 44 72 45 73 54 74 46 75 47 76
REMARK SMILES IDX 53 77 55 78 48 79 49 80 50 81 51 82 52 83 78 84 79 85 88 86
REMARK SMILES IDX 80 87 81 88 87 89 89 90 82 91 83 92 84 93 85 94 86 95 62 96
REMARK SMILES IDX 63 97 72 98 64 99 65 100 71 101 73 102 66 103 67 104 68 105
REMARK SMILES IDX 69 106 70 107
REMARK H PARENT 25 6 32 38 94 57 60 68
REMARK Flexibility Score: inf
ROOT
ATOM      1  C   UNL A   1      40.222  22.282  26.460  1.00  0.00     0.021 C 
ENDROOT
BRANCH   1   2
ATOM      2  C   UNL A   1      38.762  22.736  26.484  1.00  0.00     0.116 C 
BRANCH   2   3
ATOM      3  N   UNL A   1      38.178  22.694  25.156  1.00  0.00    -0.355 N 
ATOM      4  C   UNL A   1      37.056  22.049  24.725  1.00  0.00     0.240 C 
ATOM      5  O   UNL A   1      36.774  22.105  23.524  1.00  0.00    -0.273 OA
ATOM      6  H   UNL A   1      38.659  23.205  24.467  1.00  0.00     0.163 HD
BRANCH   4   7
ATOM      7  C   UNL A   1      36.147  21.327  25.699  1.00  0.00     0.224 C 
BRANCH   7   8
ATOM      8  N   UNL A   1      34.849  20.970  25.145  1.00  0.00    -0.314 N 
ATOM      9  C   UNL A   1      32.533  23.641  25.382  1.00  0.00     0.211 A 
ATOM     10  N   UNL A   1      31.434  23.018  24.881  1.00  0.00    -0.122 NA
ATOM     11  N   UNL A   1      33.772  23.117  25.478  1.00  0.00    -0.201 NA
ATOM     12  N   UNL A   1      31.505  21.761  24.432  1.00  0.00    -0.144 NA
ATOM     13  C   UNL A   1      33.791  21.839  25.061  1.00  0.00     0.165 A 
ATOM     14  C   UNL A   1      32.707  21.144  24.558  1.00  0.00     0.138 A 
ATOM     15  C   UNL A   1      33.122  19.811  24.307  1.00  0.00     0.030 A 
ATOM     16  C   UNL A   1      34.477  19.726  24.665  1.00  0.00     0.053 A 
ATOM     17  C   UNL A   1      32.467  18.654  23.837  1.00  0.00     0.013 A 
ATOM     18  C   UNL A   1      35.199  18.528  24.544  1.00  0.00     0.027 A 
ATOM     19  C   UNL A   1      33.176  17.454  23.733  1.00  0.00     0.001 A 
ATOM     20  C   UNL A   1      34.522  17.396  24.079  1.00  0.00     0.002 A 
BRANCH   9  21
ATOM     21  S   UNL A   1      32.294  25.158  26.273  1.00  0.00    -0.074 SA
BRANCH  21  22
ATOM     22  C   UNL A   1      33.831  26.018  25.859  1.00  0.00     0.178 C 
BRANCH  22  23
ATOM     23  C   UNL A   1      33.618  27.488  25.538  1.00  0.00     0.233 C 
ATOM     24  O   UNL A   1      34.220  28.337  26.203  1.00  0.00    -0.274 OA
BRANCH  23  25
ATOM     25  N   UNL A   1      32.793  27.843  24.475  1.00  0.00    -0.342 N 
ATOM     26  C   UNL A   1      31.767  26.061  21.254  1.00  0.00     0.009 C 
ATOM     27  C   UNL A   1      31.593  26.766  22.596  1.00  0.00     0.005 C 
ATOM     28  C   UNL A   1      30.721  28.018  22.449  1.00  0.00     0.007 C 
ATOM     29  C   UNL A   1      32.952  27.136  23.203  1.00  0.00     0.122 C 
ATOM     30  C   UNL A   1      30.570  28.721  23.796  1.00  0.00     0.022 C 
ATOM     31  C   UNL A   1      31.923  29.025  24.433  1.00  0.00     0.119 C 
ENDBRANCH  23  25
ENDBRANCH  22  23
ENDBRANCH  21  22
ENDBRANCH   9  21
ENDBRANCH   7   8
ENDBRANCH   4   7
ENDBRANCH   2   3
ENDBRANCH   1   2
BRANCH   1  32
ATOM     32  C   UNL A   1      40.397  20.758  26.493  1.00  0.00     0.002 C 
BRANCH  32  33
ATOM     33  C   UNL A   1      41.396  20.238  27.532  1.00  0.00     0.002 C 
BRANCH  33  34
ATOM     34  C   UNL A   1      42.423  19.227  27.012  1.00  0.00     0.021 C 
BRANCH  34  35
ATOM     35  C   UNL A   1      42.495  19.120  25.487  1.00  0.00     0.116 C 
BRANCH  35  36
ATOM     36  N   UNL A   1      43.776  19.505  24.932  1.00  0.00    -0.352 N 
ATOM     37  C   UNL A   1      44.550  20.633  24.982  1.00  0.00     0.251 C 
ATOM     38  H   UNL A   1      44.186  18.789  24.393  1.00  0.00     0.163 HD
ATOM     39  O   UNL A   1      45.673  20.537  24.478  1.00  0.00    -0.269 OA
BRANCH  37  40
ATOM     40  C   UNL A   1      44.123  21.951  25.534  1.00  0.00     0.039 A 
ATOM     41  C   UNL A   1      43.377  22.911  24.853  1.00  0.00     0.014 A 
ATOM     42  C   UNL A   1      44.563  22.251  26.839  1.00  0.00     0.014 A 
ATOM     43  C   UNL A   1      43.164  24.166  25.417  1.00  0.00     0.010 A 
ATOM     44  C   UNL A   1      44.331  23.497  27.418  1.00  0.00     0.010 A 
ATOM     45  C   UNL A   1      43.664  24.471  26.687  1.00  0.00    -0.014 A 
BRANCH  45  46
ATOM     46  C   UNL A   1      43.338  25.787  27.233  1.00  0.00     0.031 A 
ATOM     47  C   UNL A   1      44.361  26.834  26.960  1.00  0.00     0.074 A 
ATOM     48  C   UNL A   1      42.198  26.100  27.881  1.00  0.00     0.049 A 
ATOM     49  N   UNL A   1      45.156  27.413  27.800  1.00  0.00    -0.248 NA
ATOM     50  C   UNL A   1      44.622  27.178  25.555  1.00  0.00     0.031 C 
ATOM     51  C   UNL A   1      40.974  25.307  28.003  1.00  0.00     0.029 A 
ATOM     52  N   UNL A   1      41.876  27.263  28.521  1.00  0.00    -0.354 N 
ATOM     53  C   UNL A   1      45.879  28.348  27.062  1.00  0.00     0.074 A 
ATOM     54  C   UNL A   1      45.628  28.044  25.679  1.00  0.00     0.031 C 
ATOM     55  C   UNL A   1      39.984  26.085  28.501  1.00  0.00     0.029 A 
ATOM     56  C   UNL A   1      40.535  27.379  28.867  1.00  0.00     0.049 A 
ATOM     57  H   UNL A   1      42.540  27.962  28.723  1.00  0.00     0.167 HD
ATOM     58  C   UNL A   1      46.456  29.432  27.655  1.00  0.00     0.037 A 
ATOM     59  C   UNL A   1      39.920  28.474  29.383  1.00  0.00     0.037 A 
ATOM     60  C   UNL A   1      46.611  29.222  29.074  1.00  0.00     0.049 A 
ATOM     61  C   UNL A   1      40.971  29.310  30.016  1.00  0.00     0.074 A 
ATOM     62  C   UNL A   1      47.287  28.310  29.861  1.00  0.00     0.029 A 
ATOM     63  N   UNL A   1      45.722  29.848  29.912  1.00  0.00    -0.354 N 
ATOM     64  N   UNL A   1      41.641  28.965  31.080  1.00  0.00    -0.248 NA
ATOM     65  C   UNL A   1      41.555  30.387  29.235  1.00  0.00     0.031 C 
ATOM     66  C   UNL A   1      46.453  28.108  31.000  1.00  0.00     0.029 A 
ATOM     67  C   UNL A   1      45.342  28.942  30.867  1.00  0.00     0.049 A 
ATOM     68  H   UNL A   1      45.413  30.781  29.841  1.00  0.00     0.167 HD
ATOM     69  C   UNL A   1      42.915  29.472  30.878  1.00  0.00     0.074 A 
ATOM     70  C   UNL A   1      42.769  30.431  29.787  1.00  0.00     0.031 C 
ATOM     71  C   UNL A   1      44.010  28.873  31.430  1.00  0.00     0.037 A 
BRANCH  58  72
ATOM     72  C   UNL A   1      46.526  30.813  27.031  1.00  0.00     0.058 A 
ATOM     73  C   UNL A   1      47.762  31.500  27.017  1.00  0.00     0.135 A 
ATOM     74  C   UNL A   1      45.397  31.606  26.724  1.00  0.00     0.135 A 
ATOM     75  F   UNL A   1      48.909  30.853  27.276  1.00  0.00    -0.206 F 
ATOM     76  C   UNL A   1      47.853  32.880  26.829  1.00  0.00     0.059 A 
ATOM     77  C   UNL A   1      45.473  32.974  26.481  1.00  0.00     0.059 A 
ATOM     78  F   UNL A   1      44.151  31.123  26.732  1.00  0.00    -0.206 F 
ATOM     79  C   UNL A   1      46.696  33.612  26.585  1.00  0.00     0.060 A 
BRANCH  79  80
ATOM     80  S   UNL A   1      46.789  35.407  26.479  1.00  0.00     0.124 S 
ATOM     81  O   UNL A   1      45.384  35.760  26.315  1.00  0.00    -0.237 OA
ATOM     82  O   UNL A   1      47.391  35.753  27.762  1.00  0.00    -0.237 OA
ATOM     83  O   UNL A   1      47.639  35.629  25.313  1.00  0.00    -0.744 OA
ENDBRANCH  79  80
ENDBRANCH  58  72
BRANCH  59  84
ATOM     84  C   UNL A   1      38.557  29.002  29.098  1.00  0.00     0.058 A 
ATOM     85  C   UNL A   1      37.634  29.223  30.140  1.00  0.00     0.135 A 
ATOM     86  C   UNL A   1      38.239  29.587  27.857  1.00  0.00     0.135 A 
ATOM     87  F   UNL A   1      37.858  28.714  31.361  1.00  0.00    -0.206 F 
ATOM     88  C   UNL A   1      36.504  30.034  29.978  1.00  0.00     0.059 A 
ATOM     89  C   UNL A   1      37.114  30.389  27.670  1.00  0.00     0.059 A 
ATOM     90  F   UNL A   1      39.067  29.476  26.808  1.00  0.00    -0.206 F 
ATOM     91  C   UNL A   1      36.268  30.635  28.745  1.00  0.00     0.060 A 
BRANCH  91  92
ATOM     92  S   UNL A   1      34.923  31.835  28.586  1.00  0.00     0.124 S 
ATOM     93  O   UNL A   1      33.859  31.022  28.006  1.00  0.00    -0.237 OA
ATOM     94  O   UNL A   1      34.722  32.256  29.968  1.00  0.00    -0.237 OA
ATOM     95  O   UNL A   1      35.480  32.855  27.701  1.00  0.00    -0.744 OA
ENDBRANCH  91  92
ENDBRANCH  59  84
BRANCH  71  96
ATOM     96  C   UNL A   1      43.800  27.884  32.547  1.00  0.00     0.058 A 
ATOM     97  C   UNL A   1      43.752  26.489  32.381  1.00  0.00     0.135 A 
ATOM     98  C   UNL A   1      43.813  28.373  33.864  1.00  0.00     0.135 A 
ATOM     99  F   UNL A   1      43.828  25.936  31.163  1.00  0.00    -0.206 F 
ATOM    100  C   UNL A   1      43.698  25.622  33.475  1.00  0.00     0.059 A 
ATOM    101  C   UNL A   1      43.793  27.525  34.969  1.00  0.00     0.059 A 
ATOM    102  F   UNL A   1      43.912  29.693  34.091  1.00  0.00    -0.206 F 
ATOM    103  C   UNL A   1      43.731  26.148  34.766  1.00  0.00     0.060 A 
BRANCH 103 104
ATOM    104  S   UNL A   1      43.785  25.024  36.179  1.00  0.00     0.124 S 
ATOM    105  O   UNL A   1      42.418  25.107  36.691  1.00  0.00    -0.237 OA
ATOM    106  O   UNL A   1      44.146  23.751  35.554  1.00  0.00    -0.237 OA
ATOM    107  O   UNL A   1      44.810  25.597  37.038  1.00  0.00    -0.744 OA
ENDBRANCH 103 104
ENDBRANCH  71  96
ENDBRANCH  45  46
ENDBRANCH  37  40
ENDBRANCH  35  36
ENDBRANCH  34  35
ENDBRANCH  33  34
ENDBRANCH  32  33
ENDBRANCH   1  32
TORSDOF 21
ENDMDL
MODEL 3
REMARK VINA RESULT:     -11.4      1.354      2.032
REMARK SMILES C[C@@H]1CCCN(C(=O)CSc2nnc3c4ccccc4n(CC(=O)NCCCCCCNC(=O)c4ccc(-c5c6nc(c(-c7c(F)cc(S(=O)(=O)[O-])cc7F)c7ccc([nH]7)c(-c7c(F)cc(S(=O)(=O)[O-])cc7F)c7nc(c(-c8c(F)cc(S(=O)(=O)[O-])cc8F)c8ccc5[nH]8)C=C7)C=C6)cc4)c3n2)C1
REMARK SMILES IDX 27 1 26 2 25 3 23 4 24 5 22 7 21 8 11 9 12 10 102 11 13 12
REMARK SMILES IDX 101 13 14 14 15 15 20 16 16 17 19 18 17 19 18 20 10 21 9 22
REMARK SMILES IDX 7 23 8 24 6 25 1 26 2 27 3 28 103 29 4 30 5 31 28 32 29 33
REMARK SMILES IDX 30 34 31 35 32 36 33 37 34 39 35 40 36 41 100 42 37 43 99 44
REMARK SMILES IDX 38 45 39 46 40 47 93 48 41 49 98 50 92 51 94 52 42 53 97 54
REMARK SMILES IDX 91 55 90 56 43 58 77 59 56 60 76 61 57 62 60 63 75 64 95 65
REMARK SMILES IDX 58 66 59 67 74 69 96 70 61 71 44 72 45 73 54 74 46 75 47 76
REMARK SMILES IDX 53 77 55 78 48 79 49 80 50 81 51 82 52 83 78 84 79 85 88 86
REMARK SMILES IDX 80 87 81 88 87 89 89 90 82 91 83 92 84 93 85 94 86 95 62 96
REMARK SMILES IDX 63 97 72 98 64 99 65 100 71 101 73 102 66 103 67 104 68 105
REMARK SMILES IDX 69 106 70 107
REMARK H PARENT 25 6 32 38 94 57 60 68
REMARK Flexibility Score: inf
ROOT
ATOM      1  C   UNL A   1      38.373  23.737  27.260  1.00  0.00     0.021 C 
ENDROOT
BRANCH   1   2
ATOM      2  C   UNL A   1      37.595  23.754  25.943  1.00  0.00     0.116 C 
BRANCH   2   3
ATOM      3  N   UNL A   1      37.891  22.579  25.144  1.00  0.00    -0.355 N 
ATOM      4  C   UNL A   1      37.270  21.365  25.128  1.00  0.00     0.240 C 
ATOM      5  O   UNL A   1      37.733  20.481  24.400  1.00  0.00    -0.273 OA
ATOM      6  H   UNL A   1      38.649  22.671  24.523  1.00  0.00     0.163 HD
BRANCH   4   7
ATOM      7  C   UNL A   1      36.014  21.119  25.939  1.00  0.00     0.224 C 
BRANCH   7   8
ATOM      8  N   UNL A   1      34.810  20.969  25.135  1.00  0.00    -0.314 N 
ATOM      9  C   UNL A   1      32.973  23.991  24.932  1.00  0.00     0.211 A 
ATOM     10  N   UNL A   1      31.905  23.547  24.217  1.00  0.00    -0.122 NA
ATOM     11  N   UNL A   1      34.063  23.272  25.267  1.00  0.00    -0.201 NA
ATOM     12  N   UNL A   1      31.852  22.285  23.780  1.00  0.00    -0.144 NA
ATOM     13  C   UNL A   1      33.949  21.998  24.851  1.00  0.00     0.165 A 
ATOM     14  C   UNL A   1      32.886  21.481  24.137  1.00  0.00     0.138 A 
ATOM     15  C   UNL A   1      33.113  20.091  23.961  1.00  0.00     0.030 A 
ATOM     16  C   UNL A   1      34.337  19.792  24.580  1.00  0.00     0.053 A 
ATOM     17  C   UNL A   1      32.380  19.048  23.360  1.00  0.00     0.013 A 
ATOM     18  C   UNL A   1      34.858  18.488  24.595  1.00  0.00     0.027 A 
ATOM     19  C   UNL A   1      32.884  17.745  23.390  1.00  0.00     0.001 A 
ATOM     20  C   UNL A   1      34.107  17.473  23.995  1.00  0.00     0.002 A 
BRANCH   9  21
ATOM     21  S   UNL A   1      32.820  25.549  25.770  1.00  0.00    -0.074 SA
BRANCH  21  22
ATOM     22  C   UNL A   1      33.931  26.563  24.766  1.00  0.00     0.178 C 
BRANCH  22  23
ATOM     23  C   UNL A   1      33.243  27.175  23.557  1.00  0.00     0.233 C 
ATOM     24  O   UNL A   1      33.353  26.615  22.462  1.00  0.00    -0.274 OA
BRANCH  23  25
ATOM     25  N   UNL A   1      32.465  28.317  23.718  1.00  0.00    -0.342 N 
ATOM     26  C   UNL A   1      29.038  29.354  22.381  1.00  0.00     0.009 C 
ATOM     27  C   UNL A   1      30.115  29.039  23.415  1.00  0.00     0.005 C 
ATOM     28  C   UNL A   1      30.383  30.249  24.315  1.00  0.00     0.007 C 
ATOM     29  C   UNL A   1      31.414  28.588  22.735  1.00  0.00     0.122 C 
ATOM     30  C   UNL A   1      31.474  29.926  25.332  1.00  0.00     0.022 C 
ATOM     31  C   UNL A   1      32.742  29.409  24.658  1.00  0.00     0.119 C 
ENDBRANCH  23  25
ENDBRANCH  22  23
ENDBRANCH  21  22
ENDBRANCH   9  21
ENDBRANCH   7   8
ENDBRANCH   4   7
ENDBRANCH   2   3
ENDBRANCH   1   2
BRANCH   1  32
ATOM     32  C   UNL A   1      39.893  23.853  27.081  1.00  0.00     0.002 C 
BRANCH  32  33
ATOM     33  C   UNL A   1      40.726  22.922  27.970  1.00  0.00     0.002 C 
BRANCH  33  34
ATOM     34  C   UNL A   1      41.811  22.118  27.247  1.00  0.00     0.021 C 
BRANCH  34  35
ATOM     35  C   UNL A   1      41.626  22.018  25.731  1.00  0.00     0.116 C 
BRANCH  35  36
ATOM     36  N   UNL A   1      42.706  22.611  24.968  1.00  0.00    -0.352 N 
ATOM     37  C   UNL A   1      43.406  23.785  25.037  1.00  0.00     0.251 C 
ATOM     38  H   UNL A   1      43.007  22.034  24.228  1.00  0.00     0.163 HD
ATOM     39  O   UNL A   1      44.372  23.881  24.275  1.00  0.00    -0.269 OA
BRANCH  37  40
ATOM     40  C   UNL A   1      43.058  24.949  25.902  1.00  0.00     0.039 A 
ATOM     41  C   UNL A   1      42.202  25.992  25.553  1.00  0.00     0.014 A 
ATOM     42  C   UNL A   1      43.698  25.004  27.157  1.00  0.00     0.014 A 
ATOM     43  C   UNL A   1      42.067  27.100  26.384  1.00  0.00     0.010 A 
ATOM     44  C   UNL A   1      43.548  26.101  28.004  1.00  0.00     0.010 A 
ATOM     45  C   UNL A   1      42.762  27.171  27.596  1.00  0.00    -0.014 A 
BRANCH  45  46
ATOM     46  C   UNL A   1      42.513  28.338  28.440  1.00  0.00     0.031 A 
ATOM     47  C   UNL A   1      43.574  29.380  28.372  1.00  0.00     0.074 A 
ATOM     48  C   UNL A   1      41.408  28.537  29.187  1.00  0.00     0.049 A 
ATOM     49  N   UNL A   1      44.420  29.720  29.289  1.00  0.00    -0.248 NA
ATOM     50  C   UNL A   1      43.809  30.026  27.073  1.00  0.00     0.031 C 
ATOM     51  C   UNL A   1      40.154  27.784  29.174  1.00  0.00     0.029 A 
ATOM     52  N   UNL A   1      41.160  29.534  30.087  1.00  0.00    -0.354 N 
ATOM     53  C   UNL A   1      45.162  30.772  28.756  1.00  0.00     0.074 A 
ATOM     54  C   UNL A   1      44.857  30.803  27.351  1.00  0.00     0.031 C 
ATOM     55  C   UNL A   1      39.216  28.464  29.874  1.00  0.00     0.029 A 
ATOM     56  C   UNL A   1      39.836  29.618  30.503  1.00  0.00     0.049 A 
ATOM     57  H   UNL A   1      41.861  30.142  30.416  1.00  0.00     0.167 HD
ATOM     58  C   UNL A   1      45.806  31.668  29.557  1.00  0.00     0.037 A 
ATOM     59  C   UNL A   1      39.288  30.589  31.278  1.00  0.00     0.037 A 
ATOM     60  C   UNL A   1      45.994  31.134  30.884  1.00  0.00     0.049 A 
ATOM     61  C   UNL A   1      40.394  31.216  32.043  1.00  0.00     0.074 A 
ATOM     62  C   UNL A   1      46.651  30.040  31.415  1.00  0.00     0.029 A 
ATOM     63  N   UNL A   1      45.160  31.584  31.877  1.00  0.00    -0.354 N 
ATOM     64  N   UNL A   1      41.080  30.612  32.974  1.00  0.00    -0.248 NA
ATOM     65  C   UNL A   1      41.004  32.421  31.505  1.00  0.00     0.031 C 
ATOM     66  C   UNL A   1      45.843  29.615  32.510  1.00  0.00     0.029 A 
ATOM     67  C   UNL A   1      44.767  30.498  32.614  1.00  0.00     0.049 A 
ATOM     68  H   UNL A   1      44.892  32.519  32.032  1.00  0.00     0.167 HD
ATOM     69  C   UNL A   1      42.368  31.103  32.842  1.00  0.00     0.074 A 
ATOM     70  C   UNL A   1      42.235  32.291  32.004  1.00  0.00     0.031 C 
ATOM     71  C   UNL A   1      43.451  30.353  33.199  1.00  0.00     0.037 A 
BRANCH  58  72
ATOM     72  C   UNL A   1      45.921  33.152  29.261  1.00  0.00     0.058 A 
ATOM     73  C   UNL A   1      44.758  33.878  28.917  1.00  0.00     0.135 A 
ATOM     74  C   UNL A   1      47.141  33.821  29.009  1.00  0.00     0.135 A 
ATOM     75  F   UNL A   1      43.539  33.357  29.123  1.00  0.00    -0.206 F 
ATOM     76  C   UNL A   1      44.807  35.114  28.268  1.00  0.00     0.059 A 
ATOM     77  C   UNL A   1      47.210  35.076  28.412  1.00  0.00     0.059 A 
ATOM     78  F   UNL A   1      48.333  33.261  29.240  1.00  0.00    -0.206 F 
ATOM     79  C   UNL A   1      46.043  35.693  27.999  1.00  0.00     0.060 A 
BRANCH  79  80
ATOM     80  S   UNL A   1      46.117  37.216  27.043  1.00  0.00     0.124 S 
ATOM     81  O   UNL A   1      44.716  37.621  27.035  1.00  0.00    -0.237 OA
ATOM     82  O   UNL A   1      47.015  38.034  27.850  1.00  0.00    -0.237 OA
ATOM     83  O   UNL A   1      46.658  36.779  25.759  1.00  0.00    -0.744 OA
ENDBRANCH  79  80
ENDBRANCH  58  72
BRANCH  59  84
ATOM     84  C   UNL A   1      37.942  31.219  31.176  1.00  0.00     0.058 A 
ATOM     85  C   UNL A   1      36.971  31.019  32.177  1.00  0.00     0.135 A 
ATOM     86  C   UNL A   1      37.688  32.265  30.268  1.00  0.00     0.135 A 
ATOM     87  F   UNL A   1      37.133  30.053  33.093  1.00  0.00    -0.206 F 
ATOM     88  C   UNL A   1      35.854  31.852  32.312  1.00  0.00     0.059 A 
ATOM     89  C   UNL A   1      36.576  33.101  30.376  1.00  0.00     0.059 A 
ATOM     90  F   UNL A   1      38.565  32.571  29.302  1.00  0.00    -0.206 F 
ATOM     91  C   UNL A   1      35.680  32.909  31.421  1.00  0.00     0.060 A 
BRANCH  91  92
ATOM     92  S   UNL A   1      34.350  34.101  31.707  1.00  0.00     0.124 S 
ATOM     93  O   UNL A   1      33.684  34.128  30.409  1.00  0.00    -0.237 OA
ATOM     94  O   UNL A   1      33.605  33.474  32.794  1.00  0.00    -0.237 OA
ATOM     95  O   UNL A   1      35.062  35.324  32.068  1.00  0.00    -0.744 OA
ENDBRANCH  91  92
ENDBRANCH  59  84
BRANCH  71  96
ATOM     96  C   UNL A   1      43.230  29.143  34.069  1.00  0.00     0.058 A 
ATOM     97  C   UNL A   1      43.141  29.173  35.472  1.00  0.00     0.135 A 
ATOM     98  C   UNL A   1      42.933  27.926  33.434  1.00  0.00     0.135 A 
ATOM     99  F   UNL A   1      43.316  30.315  36.151  1.00  0.00    -0.206 F 
ATOM    100  C   UNL A   1      42.792  28.039  36.209  1.00  0.00     0.059 A 
ATOM    101  C   UNL A   1      42.553  26.792  34.147  1.00  0.00     0.059 A 
ATOM    102  F   UNL A   1      42.950  27.845  32.093  1.00  0.00    -0.206 F 
ATOM    103  C   UNL A   1      42.489  26.854  35.537  1.00  0.00     0.060 A 
BRANCH 103 104
ATOM    104  S   UNL A   1      41.921  25.423  36.481  1.00  0.00     0.124 S 
ATOM    105  O   UNL A   1      42.717  24.339  35.906  1.00  0.00    -0.237 OA
ATOM    106  O   UNL A   1      42.264  25.795  37.854  1.00  0.00    -0.237 OA
ATOM    107  O   UNL A   1      40.495  25.366  36.200  1.00  0.00    -0.744 OA
ENDBRANCH 103 104
ENDBRANCH  71  96
ENDBRANCH  45  46
ENDBRANCH  37  40
ENDBRANCH  35  36
ENDBRANCH  34  35
ENDBRANCH  33  34
ENDBRANCH  32  33
ENDBRANCH   1  32
TORSDOF 21
ENDMDL
