MODEL 1
REMARK VINA RESULT:     -11.6      0.000      0.000
REMARK SMILES C[C@H](NC(=O)c1cc(Br)nn1-c1ncccc1Cl)C(=O)NCCCCCCNC(=O)c1ccc(-c2c3nc(c(-c4c(F)cc(S(=O)(=O)[O-])cc4F)c4ccc([nH]4)c(-c4c(F)cc(S(=O)(=O)[O-])cc4F)c4nc(c(-c5c(F)cc(S(=O)(=O)[O-])cc5F)c5ccc2[nH]5)C=C4)C=C3)cc1
REMARK SMILES IDX 24 1 23 2 22 3 21 4 19 5 20 6 2 8 1 9 3 10 4 11 5 13 6 14
REMARK SMILES IDX 7 15 11 16 8 17 10 18 9 19 12 20 13 21 17 22 14 23 16 24
REMARK SMILES IDX 18 25 15 26 25 27 26 28 27 29 28 30 29 31 30 33 31 34 32 35
REMARK SMILES IDX 96 36 33 37 95 38 34 39 35 40 36 41 89 42 37 43 94 44 88 45
REMARK SMILES IDX 90 46 38 47 93 48 87 49 86 50 39 52 73 53 52 54 72 55 53 56
REMARK SMILES IDX 56 57 71 58 91 59 54 60 55 61 70 63 92 64 57 65 40 66 41 67
REMARK SMILES IDX 50 68 42 69 43 70 49 71 51 72 44 73 45 74 46 75 47 76 48 77
REMARK SMILES IDX 74 78 75 79 84 80 76 81 77 82 83 83 85 84 78 85 79 86 80 87
REMARK SMILES IDX 81 88 82 89 58 90 59 91 68 92 60 93 61 94 67 95 69 96 62 97
REMARK SMILES IDX 63 98 64 99 65 100 66 101
REMARK H PARENT 21 7 3 12 28 32 90 51 56 62
REMARK Flexibility Score: inf
ROOT
ATOM      1  C   UNL A   1      40.776  20.652  26.768  1.00  0.00     0.002 C 
ENDROOT
BRANCH   1   2
ATOM      2  C   UNL A   1      39.725  20.003  25.844  1.00  0.00     0.021 C 
BRANCH   2   3
ATOM      3  C   UNL A   1      38.585  20.885  25.325  1.00  0.00     0.116 C 
BRANCH   3   4
ATOM      4  N   UNL A   1      38.675  22.273  25.719  1.00  0.00    -0.354 N 
ATOM      5  C   UNL A   1      37.675  23.199  25.842  1.00  0.00     0.242 C 
ATOM      6  O   UNL A   1      37.956  24.241  26.445  1.00  0.00    -0.273 OA
ATOM      7  H   UNL A   1      39.580  22.597  25.929  1.00  0.00     0.163 HD
BRANCH   5   8
ATOM      8  C   UNL A   1      36.190  22.904  25.443  1.00  0.00     0.168 C 
ATOM      9  C   UNL A   1      35.672  24.089  24.650  1.00  0.00     0.041 C 
BRANCH   8  10
ATOM     10  N   UNL A   1      35.373  22.366  26.548  1.00  0.00    -0.339 N 
ATOM     11  C   UNL A   1      34.288  21.560  26.779  1.00  0.00     0.270 C 
ATOM     12  H   UNL A   1      35.724  22.697  27.406  1.00  0.00     0.164 HD
ATOM     13  O   UNL A   1      33.882  21.594  27.941  1.00  0.00    -0.267 OA
BRANCH  11  14
ATOM     14  C   UNL A   1      33.613  20.758  25.783  1.00  0.00     0.135 A 
ATOM     15  C   UNL A   1      33.899  19.523  25.232  1.00  0.00     0.072 A 
ATOM     16  N   UNL A   1      32.337  21.077  25.275  1.00  0.00    -0.207 N 
ATOM     17  C   UNL A   1      32.893  19.293  24.289  1.00  0.00     0.129 A 
ATOM     18  N   UNL A   1      31.921  20.191  24.329  1.00  0.00    -0.159 NA
ATOM     19  Br  UNL A   1      32.941  17.892  23.040  1.00  0.00    -0.027 Br
BRANCH  16  20
ATOM     20  C   UNL A   1      31.654  22.319  25.384  1.00  0.00     0.173 A 
ATOM     21  N   UNL A   1      30.699  22.489  26.336  1.00  0.00    -0.236 NA
ATOM     22  C   UNL A   1      32.024  23.321  24.502  1.00  0.00     0.085 A 
ATOM     23  C   UNL A   1      30.238  23.751  26.504  1.00  0.00     0.113 A 
ATOM     24  C   UNL A   1      31.635  24.620  24.780  1.00  0.00     0.026 A 
ATOM     25  Cl  UNL A   1      32.644  22.918  22.944  1.00  0.00    -0.080 Cl
ATOM     26  C   UNL A   1      30.730  24.843  25.804  1.00  0.00     0.022 A 
ENDBRANCH  16  20
ENDBRANCH  11  14
ENDBRANCH   8  10
ENDBRANCH   5   8
ENDBRANCH   3   4
ENDBRANCH   2   3
ENDBRANCH   1   2
BRANCH   1  27
ATOM     27  C   UNL A   1      42.157  19.997  27.016  1.00  0.00     0.002 C 
BRANCH  27  28
ATOM     28  C   UNL A   1      42.665  18.804  26.183  1.00  0.00     0.021 C 
BRANCH  28  29
ATOM     29  C   UNL A   1      44.165  18.578  26.113  1.00  0.00     0.116 C 
BRANCH  29  30
ATOM     30  N   UNL A   1      44.752  18.679  24.781  1.00  0.00    -0.352 N 
ATOM     31  C   UNL A   1      44.814  19.810  23.979  1.00  0.00     0.251 C 
ATOM     32  H   UNL A   1      45.148  17.857  24.412  1.00  0.00     0.163 HD
ATOM     33  O   UNL A   1      44.974  19.697  22.761  1.00  0.00    -0.269 OA
BRANCH  31  34
ATOM     34  C   UNL A   1      44.674  21.151  24.591  1.00  0.00     0.039 A 
ATOM     35  C   UNL A   1      43.599  22.003  24.316  1.00  0.00     0.014 A 
ATOM     36  C   UNL A   1      45.660  21.560  25.480  1.00  0.00     0.014 A 
ATOM     37  C   UNL A   1      43.506  23.225  24.993  1.00  0.00     0.010 A 
ATOM     38  C   UNL A   1      45.453  22.637  26.297  1.00  0.00     0.010 A 
ATOM     39  C   UNL A   1      44.437  23.532  25.999  1.00  0.00    -0.014 A 
BRANCH  39  40
ATOM     40  C   UNL A   1      44.348  24.746  26.812  1.00  0.00     0.031 A 
ATOM     41  C   UNL A   1      45.426  25.742  26.573  1.00  0.00     0.074 A 
ATOM     42  C   UNL A   1      43.249  25.059  27.540  1.00  0.00     0.049 A 
ATOM     43  N   UNL A   1      46.400  26.065  27.355  1.00  0.00    -0.248 NA
ATOM     44  C   UNL A   1      45.528  26.350  25.240  1.00  0.00     0.031 C 
ATOM     45  C   UNL A   1      41.983  24.318  27.656  1.00  0.00     0.029 A 
ATOM     46  N   UNL A   1      42.984  26.188  28.252  1.00  0.00    -0.354 N 
ATOM     47  C   UNL A   1      47.077  27.101  26.711  1.00  0.00     0.074 A 
ATOM     48  C   UNL A   1      46.647  27.066  25.341  1.00  0.00     0.031 C 
ATOM     49  C   UNL A   1      41.029  25.119  28.176  1.00  0.00     0.029 A 
ATOM     50  C   UNL A   1      41.645  26.362  28.597  1.00  0.00     0.049 A 
ATOM     51  H   UNL A   1      43.685  26.833  28.504  1.00  0.00     0.167 HD
ATOM     52  C   UNL A   1      47.721  28.073  27.414  1.00  0.00     0.037 A 
ATOM     53  C   UNL A   1      41.079  27.450  29.181  1.00  0.00     0.037 A 
ATOM     54  C   UNL A   1      47.869  27.691  28.797  1.00  0.00     0.049 A 
ATOM     55  C   UNL A   1      42.180  28.194  29.845  1.00  0.00     0.074 A 
ATOM     56  C   UNL A   1      48.427  26.604  29.444  1.00  0.00     0.029 A 
ATOM     57  N   UNL A   1      47.029  28.280  29.714  1.00  0.00    -0.354 N 
ATOM     58  N   UNL A   1      42.844  27.732  30.870  1.00  0.00    -0.248 NA
ATOM     59  C   UNL A   1      42.862  29.228  29.080  1.00  0.00     0.031 C 
ATOM     60  C   UNL A   1      47.522  26.308  30.505  1.00  0.00     0.029 A 
ATOM     61  C   UNL A   1      46.521  27.280  30.503  1.00  0.00     0.049 A 
ATOM     62  H   UNL A   1      46.829  29.241  29.789  1.00  0.00     0.167 HD
ATOM     63  C   UNL A   1      44.166  28.071  30.618  1.00  0.00     0.074 A 
ATOM     64  C   UNL A   1      44.102  29.075  29.555  1.00  0.00     0.031 C 
ATOM     65  C   UNL A   1      45.195  27.301  31.082  1.00  0.00     0.037 A 
BRANCH  52  66
ATOM     66  C   UNL A   1      47.877  29.508  26.962  1.00  0.00     0.058 A 
ATOM     67  C   UNL A   1      49.150  30.110  27.048  1.00  0.00     0.135 A 
ATOM     68  C   UNL A   1      46.801  30.391  26.722  1.00  0.00     0.135 A 
ATOM     69  F   UNL A   1      50.245  29.366  27.271  1.00  0.00    -0.206 F 
ATOM     70  C   UNL A   1      49.327  31.492  26.993  1.00  0.00     0.059 A 
ATOM     71  C   UNL A   1      46.964  31.767  26.605  1.00  0.00     0.059 A 
ATOM     72  F   UNL A   1      45.527  29.980  26.690  1.00  0.00    -0.206 F 
ATOM     73  C   UNL A   1      48.223  32.313  26.790  1.00  0.00     0.060 A 
BRANCH  73  74
ATOM     74  S   UNL A   1      48.433  34.100  26.842  1.00  0.00     0.124 S 
ATOM     75  O   UNL A   1      48.940  34.368  25.502  1.00  0.00    -0.237 OA
ATOM     76  O   UNL A   1      47.074  34.555  27.115  1.00  0.00    -0.237 OA
ATOM     77  O   UNL A   1      49.385  34.295  27.931  1.00  0.00    -0.744 OA
ENDBRANCH  73  74
ENDBRANCH  52  66
BRANCH  53  78
ATOM     78  C   UNL A   1      39.718  28.021  28.980  1.00  0.00     0.058 A 
ATOM     79  C   UNL A   1      38.775  28.051  30.025  1.00  0.00     0.135 A 
ATOM     80  C   UNL A   1      39.407  28.804  27.850  1.00  0.00     0.135 A 
ATOM     81  F   UNL A   1      38.987  27.347  31.147  1.00  0.00    -0.206 F 
ATOM     82  C   UNL A   1      37.629  28.856  29.980  1.00  0.00     0.059 A 
ATOM     83  C   UNL A   1      38.267  29.606  27.777  1.00  0.00     0.059 A 
ATOM     84  F   UNL A   1      40.252  28.888  26.812  1.00  0.00    -0.206 F 
ATOM     85  C   UNL A   1      37.397  29.652  28.859  1.00  0.00     0.060 A 
BRANCH  85  86
ATOM     86  S   UNL A   1      36.033  30.842  28.873  1.00  0.00     0.124 S 
ATOM     87  O   UNL A   1      34.998  30.126  28.136  1.00  0.00    -0.237 OA
ATOM     88  O   UNL A   1      35.792  31.020  30.301  1.00  0.00    -0.237 OA
ATOM     89  O   UNL A   1      36.592  32.007  28.190  1.00  0.00    -0.744 OA
ENDBRANCH  85  86
ENDBRANCH  53  78
BRANCH  65  90
ATOM     90  C   UNL A   1      44.890  26.244  32.115  1.00  0.00     0.058 A 
ATOM     91  C   UNL A   1      44.553  24.910  31.822  1.00  0.00     0.135 A 
ATOM     92  C   UNL A   1      45.095  26.564  33.466  1.00  0.00     0.135 A 
ATOM     93  F   UNL A   1      44.450  24.484  30.556  1.00  0.00    -0.206 F 
ATOM     94  C   UNL A   1      44.375  23.956  32.825  1.00  0.00     0.059 A 
ATOM     95  C   UNL A   1      44.957  25.621  34.481  1.00  0.00     0.059 A 
ATOM     96  F   UNL A   1      45.486  27.802  33.811  1.00  0.00    -0.206 F 
ATOM     97  C   UNL A   1      44.577  24.321  34.154  1.00  0.00     0.060 A 
BRANCH  97  98
ATOM     98  S   UNL A   1      44.397  23.075  35.447  1.00  0.00     0.124 S 
ATOM     99  O   UNL A   1      45.640  23.227  36.194  1.00  0.00    -0.237 OA
ATOM    100  O   UNL A   1      43.185  23.506  36.139  1.00  0.00    -0.237 OA
ATOM    101  O   UNL A   1      44.265  21.825  34.702  1.00  0.00    -0.744 OA
ENDBRANCH  97  98
ENDBRANCH  65  90
ENDBRANCH  39  40
ENDBRANCH  31  34
ENDBRANCH  29  30
ENDBRANCH  28  29
ENDBRANCH  27  28
ENDBRANCH   1  27
TORSDOF 19
ENDMDL
MODEL 2
REMARK VINA RESULT:     -11.6      1.979      2.576
REMARK SMILES C[C@H](NC(=O)c1cc(Br)nn1-c1ncccc1Cl)C(=O)NCCCCCCNC(=O)c1ccc(-c2c3nc(c(-c4c(F)cc(S(=O)(=O)[O-])cc4F)c4ccc([nH]4)c(-c4c(F)cc(S(=O)(=O)[O-])cc4F)c4nc(c(-c5c(F)cc(S(=O)(=O)[O-])cc5F)c5ccc2[nH]5)C=C4)C=C3)cc1
REMARK SMILES IDX 24 1 23 2 22 3 21 4 19 5 20 6 2 8 1 9 3 10 4 11 5 13 6 14
REMARK SMILES IDX 7 15 11 16 8 17 10 18 9 19 12 20 13 21 17 22 14 23 16 24
REMARK SMILES IDX 18 25 15 26 25 27 26 28 27 29 28 30 29 31 30 33 31 34 32 35
REMARK SMILES IDX 96 36 33 37 95 38 34 39 35 40 36 41 89 42 37 43 94 44 88 45
REMARK SMILES IDX 90 46 38 47 93 48 87 49 86 50 39 52 73 53 52 54 72 55 53 56
REMARK SMILES IDX 56 57 71 58 91 59 54 60 55 61 70 63 92 64 57 65 40 66 41 67
REMARK SMILES IDX 50 68 42 69 43 70 49 71 51 72 44 73 45 74 46 75 47 76 48 77
REMARK SMILES IDX 74 78 75 79 84 80 76 81 77 82 83 83 85 84 78 85 79 86 80 87
REMARK SMILES IDX 81 88 82 89 58 90 59 91 68 92 60 93 61 94 67 95 69 96 62 97
REMARK SMILES IDX 63 98 64 99 65 100 66 101
REMARK H PARENT 21 7 3 12 28 32 90 51 56 62
REMARK Flexibility Score: inf
ROOT
ATOM      1  C   UNL A   1      39.954  22.281  26.457  1.00  0.00     0.002 C 
ENDROOT
BRANCH   1   2
ATOM      2  C   UNL A   1      38.442  22.302  26.149  1.00  0.00     0.021 C 
BRANCH   2   3
ATOM      3  C   UNL A   1      37.932  21.421  25.004  1.00  0.00     0.116 C 
BRANCH   3   4
ATOM      4  N   UNL A   1      36.578  20.944  25.173  1.00  0.00    -0.354 N 
ATOM      5  C   UNL A   1      35.400  21.623  25.014  1.00  0.00     0.242 C 
ATOM      6  O   UNL A   1      34.371  20.940  24.955  1.00  0.00    -0.273 OA
ATOM      7  H   UNL A   1      36.490  20.000  25.439  1.00  0.00     0.163 HD
BRANCH   5   8
ATOM      8  C   UNL A   1      35.339  23.157  24.706  1.00  0.00     0.168 C 
ATOM      9  C   UNL A   1      35.422  23.904  26.024  1.00  0.00     0.041 C 
BRANCH   8  10
ATOM     10  N   UNL A   1      34.292  23.527  23.735  1.00  0.00    -0.339 N 
ATOM     11  C   UNL A   1      32.939  23.733  23.650  1.00  0.00     0.270 C 
ATOM     12  H   UNL A   1      34.702  23.677  22.852  1.00  0.00     0.164 HD
ATOM     13  O   UNL A   1      32.526  23.849  22.496  1.00  0.00    -0.267 OA
BRANCH  11  14
ATOM     14  C   UNL A   1      32.026  23.775  24.770  1.00  0.00     0.135 A 
ATOM     15  C   UNL A   1      31.288  22.795  25.407  1.00  0.00     0.072 A 
ATOM     16  N   UNL A   1      31.847  24.921  25.573  1.00  0.00    -0.207 N 
ATOM     17  C   UNL A   1      30.564  23.460  26.401  1.00  0.00     0.129 A 
ATOM     18  N   UNL A   1      30.917  24.728  26.548  1.00  0.00    -0.159 NA
ATOM     19  Br  UNL A   1      29.181  22.661  27.387  1.00  0.00    -0.027 Br
BRANCH  16  20
ATOM     20  C   UNL A   1      32.243  26.252  25.272  1.00  0.00     0.173 A 
ATOM     21  N   UNL A   1      33.313  26.803  25.906  1.00  0.00    -0.236 NA
ATOM     22  C   UNL A   1      31.510  26.925  24.308  1.00  0.00     0.085 A 
ATOM     23  C   UNL A   1      33.745  27.993  25.427  1.00  0.00     0.113 A 
ATOM     24  C   UNL A   1      32.050  28.073  23.754  1.00  0.00     0.026 A 
ATOM     25  Cl  UNL A   1      29.847  26.544  24.062  1.00  0.00    -0.080 Cl
ATOM     26  C   UNL A   1      33.192  28.616  24.318  1.00  0.00     0.022 A 
ENDBRANCH  16  20
ENDBRANCH  11  14
ENDBRANCH   8  10
ENDBRANCH   5   8
ENDBRANCH   3   4
ENDBRANCH   2   3
ENDBRANCH   1   2
BRANCH   1  27
ATOM     27  C   UNL A   1      40.617  21.091  27.193  1.00  0.00     0.002 C 
BRANCH  27  28
ATOM     28  C   UNL A   1      41.287  19.926  26.438  1.00  0.00     0.021 C 
BRANCH  28  29
ATOM     29  C   UNL A   1      42.681  19.509  26.874  1.00  0.00     0.116 C 
BRANCH  29  30
ATOM     30  N   UNL A   1      43.669  19.415  25.804  1.00  0.00    -0.352 N 
ATOM     31  C   UNL A   1      44.144  20.451  25.012  1.00  0.00     0.251 C 
ATOM     32  H   UNL A   1      44.039  18.521  25.624  1.00  0.00     0.163 HD
ATOM     33  O   UNL A   1      44.664  20.208  23.921  1.00  0.00    -0.269 OA
BRANCH  31  34
ATOM     34  C   UNL A   1      44.011  21.850  25.479  1.00  0.00     0.039 A 
ATOM     35  C   UNL A   1      43.170  22.781  24.858  1.00  0.00     0.014 A 
ATOM     36  C   UNL A   1      44.756  22.234  26.586  1.00  0.00     0.014 A 
ATOM     37  C   UNL A   1      43.049  24.063  25.408  1.00  0.00     0.010 A 
ATOM     38  C   UNL A   1      44.469  23.398  27.245  1.00  0.00     0.010 A 
ATOM     39  C   UNL A   1      43.697  24.363  26.617  1.00  0.00    -0.014 A 
BRANCH  39  40
ATOM     40  C   UNL A   1      43.541  25.649  27.299  1.00  0.00     0.031 A 
ATOM     41  C   UNL A   1      44.579  26.662  26.973  1.00  0.00     0.074 A 
ATOM     42  C   UNL A   1      42.416  25.986  27.974  1.00  0.00     0.049 A 
ATOM     43  N   UNL A   1      45.523  27.108  27.731  1.00  0.00    -0.248 NA
ATOM     44  C   UNL A   1      44.680  27.133  25.586  1.00  0.00     0.031 C 
ATOM     45  C   UNL A   1      41.181  25.206  28.149  1.00  0.00     0.029 A 
ATOM     46  N   UNL A   1      42.089  27.170  28.561  1.00  0.00    -0.354 N 
ATOM     47  C   UNL A   1      46.167  28.101  26.993  1.00  0.00     0.074 A 
ATOM     48  C   UNL A   1      45.765  27.905  25.628  1.00  0.00     0.031 C 
ATOM     49  C   UNL A   1      40.183  26.012  28.569  1.00  0.00     0.029 A 
ATOM     50  C   UNL A   1      40.738  27.318  28.867  1.00  0.00     0.049 A 
ATOM     51  H   UNL A   1      42.756  27.868  28.754  1.00  0.00     0.167 HD
ATOM     52  C   UNL A   1      46.756  29.167  27.600  1.00  0.00     0.037 A 
ATOM     53  C   UNL A   1      40.114  28.434  29.326  1.00  0.00     0.037 A 
ATOM     54  C   UNL A   1      46.893  28.938  29.017  1.00  0.00     0.049 A 
ATOM     55  C   UNL A   1      41.170  29.292  29.926  1.00  0.00     0.074 A 
ATOM     56  C   UNL A   1      47.485  27.949  29.781  1.00  0.00     0.029 A 
ATOM     57  N   UNL A   1      46.012  29.580  29.856  1.00  0.00    -0.354 N 
ATOM     58  N   UNL A   1      41.833  28.967  31.002  1.00  0.00    -0.248 NA
ATOM     59  C   UNL A   1      41.820  30.271  29.067  1.00  0.00     0.031 C 
ATOM     60  C   UNL A   1      46.574  27.724  30.855  1.00  0.00     0.029 A 
ATOM     61  C   UNL A   1      45.532  28.645  30.737  1.00  0.00     0.049 A 
ATOM     62  H   UNL A   1      45.769  30.534  29.828  1.00  0.00     0.167 HD
ATOM     63  C   UNL A   1      43.144  29.337  30.735  1.00  0.00     0.074 A 
ATOM     64  C   UNL A   1      43.057  30.222  29.573  1.00  0.00     0.031 C 
ATOM     65  C   UNL A   1      44.196  28.666  31.292  1.00  0.00     0.037 A 
BRANCH  52  66
ATOM     66  C   UNL A   1      46.859  30.553  27.003  1.00  0.00     0.058 A 
ATOM     67  C   UNL A   1      48.106  31.211  27.028  1.00  0.00     0.135 A 
ATOM     68  C   UNL A   1      45.750  31.365  26.673  1.00  0.00     0.135 A 
ATOM     69  F   UNL A   1      49.229  30.536  27.327  1.00  0.00    -0.206 F 
ATOM     70  C   UNL A   1      48.231  32.585  26.832  1.00  0.00     0.059 A 
ATOM     71  C   UNL A   1      45.860  32.728  26.416  1.00  0.00     0.059 A 
ATOM     72  F   UNL A   1      44.494  30.905  26.683  1.00  0.00    -0.206 F 
ATOM     73  C   UNL A   1      47.097  33.338  26.545  1.00  0.00     0.060 A 
BRANCH  73  74
ATOM     74  S   UNL A   1      47.237  35.127  26.414  1.00  0.00     0.124 S 
ATOM     75  O   UNL A   1      48.338  35.260  25.468  1.00  0.00    -0.237 OA
ATOM     76  O   UNL A   1      45.917  35.497  25.916  1.00  0.00    -0.237 OA
ATOM     77  O   UNL A   1      47.525  35.543  27.784  1.00  0.00    -0.744 OA
ENDBRANCH  73  74
ENDBRANCH  52  66
BRANCH  53  78
ATOM     78  C   UNL A   1      38.734  28.920  29.048  1.00  0.00     0.058 A 
ATOM     79  C   UNL A   1      37.815  29.152  30.089  1.00  0.00     0.135 A 
ATOM     80  C   UNL A   1      38.376  29.437  27.786  1.00  0.00     0.135 A 
ATOM     81  F   UNL A   1      38.073  28.709  31.329  1.00  0.00    -0.206 F 
ATOM     82  C   UNL A   1      36.647  29.905  29.906  1.00  0.00     0.059 A 
ATOM     83  C   UNL A   1      37.213  30.180  27.577  1.00  0.00     0.059 A 
ATOM     84  F   UNL A   1      39.193  29.315  26.730  1.00  0.00    -0.206 F 
ATOM     85  C   UNL A   1      36.367  30.438  28.649  1.00  0.00     0.060 A 
BRANCH  85  86
ATOM     86  S   UNL A   1      34.973  31.574  28.448  1.00  0.00     0.124 S 
ATOM     87  O   UNL A   1      35.543  32.607  27.591  1.00  0.00    -0.237 OA
ATOM     88  O   UNL A   1      33.964  30.719  27.831  1.00  0.00    -0.237 OA
ATOM     89  O   UNL A   1      34.677  31.993  29.816  1.00  0.00    -0.744 OA
ENDBRANCH  85  86
ENDBRANCH  53  78
BRANCH  65  90
ATOM     90  C   UNL A   1      43.917  27.709  32.424  1.00  0.00     0.058 A 
ATOM     91  C   UNL A   1      43.806  26.313  32.287  1.00  0.00     0.135 A 
ATOM     92  C   UNL A   1      43.911  28.219  33.732  1.00  0.00     0.135 A 
ATOM     93  F   UNL A   1      43.917  25.726  31.088  1.00  0.00    -0.206 F 
ATOM     94  C   UNL A   1      43.641  25.473  33.388  1.00  0.00     0.059 A 
ATOM     95  C   UNL A   1      43.782  27.397  34.848  1.00  0.00     0.059 A 
ATOM     96  F   UNL A   1      44.082  29.535  33.941  1.00  0.00    -0.206 F 
ATOM     97  C   UNL A   1      43.628  26.024  34.667  1.00  0.00     0.060 A 
BRANCH  97  98
ATOM     98  S   UNL A   1      43.467  24.932  36.096  1.00  0.00     0.124 S 
ATOM     99  O   UNL A   1      42.740  23.800  35.534  1.00  0.00    -0.237 OA
ATOM    100  O   UNL A   1      44.858  24.675  36.459  1.00  0.00    -0.237 OA
ATOM    101  O   UNL A   1      42.721  25.739  37.059  1.00  0.00    -0.744 OA
ENDBRANCH  97  98
ENDBRANCH  65  90
ENDBRANCH  39  40
ENDBRANCH  31  34
ENDBRANCH  29  30
ENDBRANCH  28  29
ENDBRANCH  27  28
ENDBRANCH   1  27
TORSDOF 19
ENDMDL
MODEL 3
REMARK VINA RESULT:     -11.4      3.039      9.481
REMARK SMILES C[C@H](NC(=O)c1cc(Br)nn1-c1ncccc1Cl)C(=O)NCCCCCCNC(=O)c1ccc(-c2c3nc(c(-c4c(F)cc(S(=O)(=O)[O-])cc4F)c4ccc([nH]4)c(-c4c(F)cc(S(=O)(=O)[O-])cc4F)c4nc(c(-c5c(F)cc(S(=O)(=O)[O-])cc5F)c5ccc2[nH]5)C=C4)C=C3)cc1
REMARK SMILES IDX 24 1 23 2 22 3 21 4 19 5 20 6 2 8 1 9 3 10 4 11 5 13 6 14
REMARK SMILES IDX 7 15 11 16 8 17 10 18 9 19 12 20 13 21 17 22 14 23 16 24
REMARK SMILES IDX 18 25 15 26 25 27 26 28 27 29 28 30 29 31 30 33 31 34 32 35
REMARK SMILES IDX 96 36 33 37 95 38 34 39 35 40 36 41 89 42 37 43 94 44 88 45
REMARK SMILES IDX 90 46 38 47 93 48 87 49 86 50 39 52 73 53 52 54 72 55 53 56
REMARK SMILES IDX 56 57 71 58 91 59 54 60 55 61 70 63 92 64 57 65 40 66 41 67
REMARK SMILES IDX 50 68 42 69 43 70 49 71 51 72 44 73 45 74 46 75 47 76 48 77
REMARK SMILES IDX 74 78 75 79 84 80 76 81 77 82 83 83 85 84 78 85 79 86 80 87
REMARK SMILES IDX 81 88 82 89 58 90 59 91 68 92 60 93 61 94 67 95 69 96 62 97
REMARK SMILES IDX 63 98 64 99 65 100 66 101
REMARK H PARENT 21 7 3 12 28 32 90 51 56 62
REMARK Flexibility Score: inf
ROOT
ATOM      1  C   UNL A   1      30.833  29.141  24.112  1.00  0.00     0.002 C 
ENDROOT
BRANCH   1   2
ATOM      2  C   UNL A   1      31.031  27.686  23.642  1.00  0.00     0.021 C 
BRANCH   2   3
ATOM      3  C   UNL A   1      30.282  26.581  24.395  1.00  0.00     0.116 C 
BRANCH   3   4
ATOM      4  N   UNL A   1      30.969  26.084  25.566  1.00  0.00    -0.354 N 
ATOM      5  C   UNL A   1      31.302  24.796  25.886  1.00  0.00     0.242 C 
ATOM      6  O   UNL A   1      32.116  24.646  26.806  1.00  0.00    -0.273 OA
ATOM      7  H   UNL A   1      31.235  26.766  26.225  1.00  0.00     0.163 HD
BRANCH   5   8
ATOM      8  C   UNL A   1      30.865  23.566  25.022  1.00  0.00     0.168 C 
ATOM      9  C   UNL A   1      30.621  22.397  25.959  1.00  0.00     0.041 C 
BRANCH   8  10
ATOM     10  N   UNL A   1      31.691  23.361  23.817  1.00  0.00    -0.339 N 
ATOM     11  C   UNL A   1      32.592  22.479  23.277  1.00  0.00     0.270 C 
ATOM     12  H   UNL A   1      31.548  24.107  23.191  1.00  0.00     0.164 HD
ATOM     13  O   UNL A   1      33.156  22.901  22.267  1.00  0.00    -0.267 OA
BRANCH  11  14
ATOM     14  C   UNL A   1      32.923  21.181  23.822  1.00  0.00     0.135 A 
ATOM     15  C   UNL A   1      32.280  19.959  23.773  1.00  0.00     0.072 A 
ATOM     16  N   UNL A   1      34.166  20.896  24.424  1.00  0.00    -0.207 N 
ATOM     17  C   UNL A   1      33.076  19.088  24.523  1.00  0.00     0.129 A 
ATOM     18  N   UNL A   1      34.234  19.617  24.886  1.00  0.00    -0.159 NA
ATOM     19  Br  UNL A   1      32.535  17.363  25.029  1.00  0.00    -0.027 Br
BRANCH  16  20
ATOM     20  C   UNL A   1      35.138  21.829  24.875  1.00  0.00     0.173 A 
ATOM     21  N   UNL A   1      36.252  22.064  24.132  1.00  0.00    -0.236 NA
ATOM     22  C   UNL A   1      34.879  22.481  26.070  1.00  0.00     0.085 A 
ATOM     23  C   UNL A   1      37.027  23.101  24.526  1.00  0.00     0.113 A 
ATOM     24  C   UNL A   1      35.613  23.614  26.374  1.00  0.00     0.026 A 
ATOM     25  Cl  UNL A   1      33.926  21.714  27.285  1.00  0.00    -0.080 Cl
ATOM     26  C   UNL A   1      36.704  23.937  25.585  1.00  0.00     0.022 A 
ENDBRANCH  16  20
ENDBRANCH  11  14
ENDBRANCH   8  10
ENDBRANCH   5   8
ENDBRANCH   3   4
ENDBRANCH   2   3
ENDBRANCH   1   2
BRANCH   1  27
ATOM     27  C   UNL A   1      31.641  29.732  25.293  1.00  0.00     0.002 C 
BRANCH  27  28
ATOM     28  C   UNL A   1      32.733  28.930  26.027  1.00  0.00     0.021 C 
BRANCH  28  29
ATOM     29  C   UNL A   1      33.363  29.556  27.259  1.00  0.00     0.116 C 
BRANCH  29  30
ATOM     30  N   UNL A   1      33.572  30.999  27.190  1.00  0.00    -0.352 N 
ATOM     31  C   UNL A   1      34.591  31.726  27.789  1.00  0.00     0.251 C 
ATOM     32  H   UNL A   1      32.919  31.512  26.662  1.00  0.00     0.163 HD
ATOM     33  O   UNL A   1      34.456  32.936  27.985  1.00  0.00    -0.269 OA
BRANCH  31  34
ATOM     34  C   UNL A   1      35.835  31.038  28.203  1.00  0.00     0.039 A 
ATOM     35  C   UNL A   1      36.038  29.664  28.024  1.00  0.00     0.014 A 
ATOM     36  C   UNL A   1      36.834  31.806  28.786  1.00  0.00     0.014 A 
ATOM     37  C   UNL A   1      37.273  29.106  28.378  1.00  0.00     0.010 A 
ATOM     38  C   UNL A   1      38.102  31.309  28.920  1.00  0.00     0.010 A 
ATOM     39  C   UNL A   1      38.312  29.942  28.817  1.00  0.00    -0.014 A 
BRANCH  39  40
ATOM     40  C   UNL A   1      39.655  29.443  29.114  1.00  0.00     0.031 A 
ATOM     41  C   UNL A   1      39.968  29.307  30.561  1.00  0.00     0.074 A 
ATOM     42  C   UNL A   1      40.463  28.910  28.166  1.00  0.00     0.049 A 
ATOM     43  N   UNL A   1      40.776  30.018  31.272  1.00  0.00    -0.248 NA
ATOM     44  C   UNL A   1      39.176  28.362  31.359  1.00  0.00     0.031 C 
ATOM     45  C   UNL A   1      40.190  28.709  26.734  1.00  0.00     0.029 A 
ATOM     46  N   UNL A   1      41.679  28.317  28.309  1.00  0.00    -0.354 N 
ATOM     47  C   UNL A   1      40.781  29.436  32.540  1.00  0.00     0.074 A 
ATOM     48  C   UNL A   1      39.622  28.590  32.593  1.00  0.00     0.031 C 
ATOM     49  C   UNL A   1      41.084  27.841  26.214  1.00  0.00     0.029 A 
ATOM     50  C   UNL A   1      42.096  27.564  27.214  1.00  0.00     0.049 A 
ATOM     51  H   UNL A   1      42.223  28.413  29.125  1.00  0.00     0.167 HD
ATOM     52  C   UNL A   1      41.882  29.483  33.338  1.00  0.00     0.037 A 
ATOM     53  C   UNL A   1      43.190  26.762  27.132  1.00  0.00     0.037 A 
ATOM     54  C   UNL A   1      42.834  30.447  32.842  1.00  0.00     0.049 A 
ATOM     55  C   UNL A   1      44.125  27.214  28.195  1.00  0.00     0.074 A 
ATOM     56  C   UNL A   1      42.774  31.795  32.542  1.00  0.00     0.029 A 
ATOM     57  N   UNL A   1      43.943  29.968  32.185  1.00  0.00    -0.354 N 
ATOM     58  N   UNL A   1      44.719  28.378  28.183  1.00  0.00    -0.248 NA
ATOM     59  C   UNL A   1      44.027  26.582  29.502  1.00  0.00     0.031 C 
ATOM     60  C   UNL A   1      43.526  31.935  31.340  1.00  0.00     0.029 A 
ATOM     61  C   UNL A   1      44.076  30.691  31.027  1.00  0.00     0.049 A 
ATOM     62  H   UNL A   1      44.533  29.240  32.489  1.00  0.00     0.167 HD
ATOM     63  C   UNL A   1      44.658  28.819  29.497  1.00  0.00     0.074 A 
ATOM     64  C   UNL A   1      44.312  27.632  30.279  1.00  0.00     0.031 C 
ATOM     65  C   UNL A   1      44.606  30.152  29.793  1.00  0.00     0.037 A 
BRANCH  52  66
ATOM     66  C   UNL A   1      42.277  28.412  34.331  1.00  0.00     0.058 A 
ATOM     67  C   UNL A   1      42.258  28.723  35.706  1.00  0.00     0.135 A 
ATOM     68  C   UNL A   1      42.934  27.209  33.988  1.00  0.00     0.135 A 
ATOM     69  F   UNL A   1      41.658  29.841  36.146  1.00  0.00    -0.206 F 
ATOM     70  C   UNL A   1      42.920  27.947  36.657  1.00  0.00     0.059 A 
ATOM     71  C   UNL A   1      43.551  26.390  34.928  1.00  0.00     0.059 A 
ATOM     72  F   UNL A   1      43.102  26.817  32.719  1.00  0.00    -0.206 F 
ATOM     73  C   UNL A   1      43.581  26.792  36.253  1.00  0.00     0.060 A 
BRANCH  73  74
ATOM     74  S   UNL A   1      44.538  25.858  37.457  1.00  0.00     0.124 S 
ATOM     75  O   UNL A   1      45.888  26.333  37.181  1.00  0.00    -0.237 OA
ATOM     76  O   UNL A   1      43.949  26.299  38.717  1.00  0.00    -0.237 OA
ATOM     77  O   UNL A   1      44.268  24.469  37.096  1.00  0.00    -0.744 OA
ENDBRANCH  73  74
ENDBRANCH  52  66
BRANCH  53  78
ATOM     78  C   UNL A   1      43.364  25.485  26.387  1.00  0.00     0.058 A 
ATOM     79  C   UNL A   1      44.375  25.334  25.419  1.00  0.00     0.135 A 
ATOM     80  C   UNL A   1      42.730  24.296  26.804  1.00  0.00     0.135 A 
ATOM     81  F   UNL A   1      45.044  26.405  24.967  1.00  0.00    -0.206 F 
ATOM     82  C   UNL A   1      44.778  24.078  24.943  1.00  0.00     0.059 A 
ATOM     83  C   UNL A   1      43.106  23.036  26.337  1.00  0.00     0.059 A 
ATOM     84  F   UNL A   1      41.783  24.313  27.753  1.00  0.00    -0.206 F 
ATOM     85  C   UNL A   1      44.153  22.930  25.429  1.00  0.00     0.060 A 
BRANCH  85  86
ATOM     86  S   UNL A   1      44.796  21.300  24.975  1.00  0.00     0.124 S 
ATOM     87  O   UNL A   1      44.614  21.294  23.528  1.00  0.00    -0.237 OA
ATOM     88  O   UNL A   1      46.176  21.371  25.444  1.00  0.00    -0.237 OA
ATOM     89  O   UNL A   1      43.937  20.379  25.716  1.00  0.00    -0.744 OA
ENDBRANCH  85  86
ENDBRANCH  53  78
BRANCH  65  90
ATOM     90  C   UNL A   1      44.908  31.143  28.696  1.00  0.00     0.058 A 
ATOM     91  C   UNL A   1      44.004  31.524  27.688  1.00  0.00     0.135 A 
ATOM     92  C   UNL A   1      46.119  31.849  28.760  1.00  0.00     0.135 A 
ATOM     93  F   UNL A   1      42.778  30.987  27.619  1.00  0.00    -0.206 F 
ATOM     94  C   UNL A   1      44.311  32.517  26.756  1.00  0.00     0.059 A 
ATOM     95  C   UNL A   1      46.433  32.867  27.864  1.00  0.00     0.059 A 
ATOM     96  F   UNL A   1      47.000  31.585  29.740  1.00  0.00    -0.206 F 
ATOM     97  C   UNL A   1      45.531  33.182  26.851  1.00  0.00     0.060 A 
BRANCH  97  98
ATOM     98  S   UNL A   1      45.907  34.502  25.678  1.00  0.00     0.124 S 
ATOM     99  O   UNL A   1      47.335  34.315  25.454  1.00  0.00    -0.237 OA
ATOM    100  O   UNL A   1      45.040  34.181  24.547  1.00  0.00    -0.237 OA
ATOM    101  O   UNL A   1      45.541  35.717  26.403  1.00  0.00    -0.744 OA
ENDBRANCH  97  98
ENDBRANCH  65  90
ENDBRANCH  39  40
ENDBRANCH  31  34
ENDBRANCH  29  30
ENDBRANCH  28  29
ENDBRANCH  27  28
ENDBRANCH   1  27
TORSDOF 19
ENDMDL
