MODEL 1
REMARK VINA RESULT:     -11.0      0.000      0.000
REMARK SMILES C=CCN(CC(=O)NCCCCCCNC(=O)c1ccc(-c2c3nc(c(-c4c(F)cc(S(=O)(=O)[O-])cc4F)c4ccc([nH]4)c(-c4c(F)cc(S(=O)(=O)[O-])cc4F)c4nc(c(-c5c(F)cc(S(=O)(=O)[O-])cc5F)c5ccc2[nH]5)C=C4)C=C3)cc1)C(=O)[C@@H]1Oc2ccccc2O[C@H]1C
REMARK SMILES IDX 11 1 10 2 9 3 8 4 6 5 7 6 5 8 4 9 3 10 2 11 1 12 84 13 85 14
REMARK SMILES IDX 86 15 87 16 95 17 88 18 94 19 96 20 89 21 93 22 90 23 92 24
REMARK SMILES IDX 91 25 12 26 13 27 14 28 15 29 16 30 17 32 18 33 19 34 83 35
REMARK SMILES IDX 20 36 82 37 21 38 22 39 23 40 76 41 24 42 81 43 75 44 77 45
REMARK SMILES IDX 25 46 80 47 74 48 73 49 26 51 60 52 39 53 59 54 40 55 43 56
REMARK SMILES IDX 58 57 78 58 41 59 42 60 57 62 79 63 44 64 27 65 28 66 37 67
REMARK SMILES IDX 29 68 30 69 36 70 38 71 31 72 32 73 33 74 34 75 35 76 61 77
REMARK SMILES IDX 62 78 71 79 63 80 64 81 70 82 72 83 65 84 66 85 67 86 68 87
REMARK SMILES IDX 69 88 45 89 46 90 55 91 47 92 48 93 54 94 56 95 49 96 50 97
REMARK SMILES IDX 51 98 52 99 53 100
REMARK H PARENT 8 7 15 31 77 50 43 61
REMARK Flexibility Score: inf
ROOT
ATOM      1  C   UNL A   1      33.587  28.584  27.185  1.00  0.00     0.002 C 
ENDROOT
BRANCH   1   2
ATOM      2  C   UNL A   1      32.491  29.401  26.485  1.00  0.00     0.021 C 
BRANCH   2   3
ATOM      3  C   UNL A   1      32.730  29.643  24.994  1.00  0.00     0.116 C 
BRANCH   3   4
ATOM      4  N   UNL A   1      31.576  29.268  24.196  1.00  0.00    -0.355 N 
ATOM      5  C   UNL A   1      31.242  28.078  23.617  1.00  0.00     0.239 C 
ATOM      6  O   UNL A   1      30.234  28.059  22.904  1.00  0.00    -0.273 OA
ATOM      7  H   UNL A   1      30.927  29.994  24.047  1.00  0.00     0.163 HD
BRANCH   5   8
ATOM      8  C   UNL A   1      32.117  26.823  23.789  1.00  0.00     0.219 C 
BRANCH   8   9
ATOM      9  N   UNL A   1      31.316  25.637  24.100  1.00  0.00    -0.326 N 
BRANCH   9  10
ATOM     10  C   UNL A   1      31.279  24.562  23.110  1.00  0.00     0.147 C 
BRANCH  10  11
ATOM     11  C   UNL A   1      32.622  24.349  22.482  1.00  0.00    -0.014 C 
ATOM     12  C   UNL A   1      33.080  23.148  22.105  1.00  0.00     0.006 C 
ENDBRANCH  10  11
ENDBRANCH   9  10
BRANCH   9  13
ATOM     13  C   UNL A   1      30.930  25.445  25.427  1.00  0.00     0.268 C 
ATOM     14  O   UNL A   1      29.828  25.832  25.827  1.00  0.00    -0.270 OA
BRANCH  13  15
ATOM     15  C   UNL A   1      31.826  24.566  26.329  1.00  0.00     0.302 C 
ATOM     16  O   UNL A   1      33.187  24.943  26.125  1.00  0.00    -0.473 OA
ATOM     17  C   UNL A   1      31.479  23.081  26.079  1.00  0.00     0.221 C 
ATOM     18  C   UNL A   1      34.015  23.923  25.766  1.00  0.00     0.162 A 
ATOM     19  O   UNL A   1      32.522  22.191  26.507  1.00  0.00    -0.482 OA
ATOM     20  C   UNL A   1      30.200  22.654  26.799  1.00  0.00     0.057 C 
ATOM     21  C   UNL A   1      35.214  24.290  25.161  1.00  0.00     0.050 A 
ATOM     22  C   UNL A   1      33.694  22.579  25.923  1.00  0.00     0.161 A 
ATOM     23  C   UNL A   1      36.057  23.310  24.644  1.00  0.00     0.004 A 
ATOM     24  C   UNL A   1      34.557  21.593  25.456  1.00  0.00     0.050 A 
ATOM     25  C   UNL A   1      35.728  21.961  24.790  1.00  0.00     0.004 A 
ENDBRANCH  13  15
ENDBRANCH   9  13
ENDBRANCH   8   9
ENDBRANCH   5   8
ENDBRANCH   3   4
ENDBRANCH   2   3
ENDBRANCH   1   2
BRANCH   1  26
ATOM     26  C   UNL A   1      34.880  29.342  27.496  1.00  0.00     0.002 C 
BRANCH  26  27
ATOM     27  C   UNL A   1      34.724  30.851  27.710  1.00  0.00     0.021 C 
BRANCH  27  28
ATOM     28  C   UNL A   1      35.762  31.491  28.630  1.00  0.00     0.116 C 
BRANCH  28  29
ATOM     29  N   UNL A   1      35.636  31.045  30.009  1.00  0.00    -0.352 N 
ATOM     30  C   UNL A   1      36.541  30.367  30.796  1.00  0.00     0.251 C 
ATOM     31  H   UNL A   1      34.778  31.259  30.443  1.00  0.00     0.163 HD
ATOM     32  O   UNL A   1      36.195  29.910  31.877  1.00  0.00    -0.269 OA
BRANCH  30  33
ATOM     33  C   UNL A   1      37.928  30.174  30.316  1.00  0.00     0.039 A 
ATOM     34  C   UNL A   1      38.963  30.077  31.250  1.00  0.00     0.014 A 
ATOM     35  C   UNL A   1      38.203  30.076  28.950  1.00  0.00     0.014 A 
ATOM     36  C   UNL A   1      40.263  29.799  30.816  1.00  0.00     0.010 A 
ATOM     37  C   UNL A   1      39.485  29.730  28.526  1.00  0.00     0.010 A 
ATOM     38  C   UNL A   1      40.526  29.579  29.454  1.00  0.00    -0.014 A 
BRANCH  38  39
ATOM     39  C   UNL A   1      41.877  29.168  28.984  1.00  0.00     0.031 A 
ATOM     40  C   UNL A   1      42.996  30.172  28.908  1.00  0.00     0.074 A 
ATOM     41  C   UNL A   1      42.078  27.904  28.560  1.00  0.00     0.049 A 
ATOM     42  N   UNL A   1      44.217  30.017  28.465  1.00  0.00    -0.248 NA
ATOM     43  C   UNL A   1      42.693  31.536  29.368  1.00  0.00     0.031 C 
ATOM     44  C   UNL A   1      41.067  26.845  28.549  1.00  0.00     0.029 A 
ATOM     45  N   UNL A   1      43.199  27.296  28.050  1.00  0.00    -0.354 N 
ATOM     46  C   UNL A   1      44.825  31.260  28.585  1.00  0.00     0.074 A 
ATOM     47  C   UNL A   1      43.820  32.172  29.086  1.00  0.00     0.031 C 
ATOM     48  C   UNL A   1      41.620  25.712  28.086  1.00  0.00     0.029 A 
ATOM     49  C   UNL A   1      43.010  25.972  27.725  1.00  0.00     0.049 A 
ATOM     50  H   UNL A   1      44.057  27.763  27.927  1.00  0.00     0.167 HD
ATOM     51  C   UNL A   1      46.110  31.607  28.324  1.00  0.00     0.037 A 
ATOM     52  C   UNL A   1      43.858  25.071  27.192  1.00  0.00     0.037 A 
ATOM     53  C   UNL A   1      47.108  30.692  27.832  1.00  0.00     0.049 A 
ATOM     54  C   UNL A   1      45.269  25.488  26.871  1.00  0.00     0.074 A 
ATOM     55  C   UNL A   1      48.448  30.933  27.583  1.00  0.00     0.029 A 
ATOM     56  N   UNL A   1      46.876  29.362  27.506  1.00  0.00    -0.354 N 
ATOM     57  N   UNL A   1      45.845  26.653  27.050  1.00  0.00    -0.248 NA
ATOM     58  C   UNL A   1      46.145  24.469  26.277  1.00  0.00     0.031 C 
ATOM     59  C   UNL A   1      49.012  29.766  27.054  1.00  0.00     0.029 A 
ATOM     60  C   UNL A   1      48.039  28.780  27.030  1.00  0.00     0.049 A 
ATOM     61  H   UNL A   1      46.011  28.902  27.601  1.00  0.00     0.167 HD
ATOM     62  C   UNL A   1      47.159  26.497  26.622  1.00  0.00     0.074 A 
ATOM     63  C   UNL A   1      47.294  25.123  26.183  1.00  0.00     0.031 C 
ATOM     64  C   UNL A   1      48.164  27.408  26.600  1.00  0.00     0.037 A 
BRANCH  51  65
ATOM     65  C   UNL A   1      46.502  33.042  28.558  1.00  0.00     0.058 A 
ATOM     66  C   UNL A   1      47.007  33.477  29.795  1.00  0.00     0.135 A 
ATOM     67  C   UNL A   1      46.385  33.993  27.531  1.00  0.00     0.135 A 
ATOM     68  F   UNL A   1      47.130  32.615  30.816  1.00  0.00    -0.206 F 
ATOM     69  C   UNL A   1      47.333  34.810  30.020  1.00  0.00     0.059 A 
ATOM     70  C   UNL A   1      46.738  35.326  27.723  1.00  0.00     0.059 A 
ATOM     71  F   UNL A   1      45.914  33.634  26.326  1.00  0.00    -0.206 F 
ATOM     72  C   UNL A   1      47.191  35.729  28.979  1.00  0.00     0.060 A 
BRANCH  72  73
ATOM     73  S   UNL A   1      47.593  37.460  29.296  1.00  0.00     0.124 S 
ATOM     74  O   UNL A   1      48.782  37.331  30.132  1.00  0.00    -0.237 OA
ATOM     75  O   UNL A   1      47.818  37.979  27.951  1.00  0.00    -0.237 OA
ATOM     76  O   UNL A   1      46.403  37.967  29.970  1.00  0.00    -0.744 OA
ENDBRANCH  72  73
ENDBRANCH  51  65
BRANCH  52  77
ATOM     77  C   UNL A   1      43.407  23.673  26.956  1.00  0.00     0.058 A 
ATOM     78  C   UNL A   1      43.164  22.806  28.032  1.00  0.00     0.135 A 
ATOM     79  C   UNL A   1      43.195  23.179  25.659  1.00  0.00     0.135 A 
ATOM     80  F   UNL A   1      43.359  23.229  29.290  1.00  0.00    -0.206 F 
ATOM     81  C   UNL A   1      42.740  21.496  27.834  1.00  0.00     0.059 A 
ATOM     82  C   UNL A   1      42.746  21.881  25.435  1.00  0.00     0.059 A 
ATOM     83  F   UNL A   1      43.398  23.970  24.595  1.00  0.00    -0.206 F 
ATOM     84  C   UNL A   1      42.529  21.044  26.530  1.00  0.00     0.060 A 
BRANCH  84  85
ATOM     85  S   UNL A   1      41.925  19.359  26.287  1.00  0.00     0.124 S 
ATOM     86  O   UNL A   1      42.576  18.992  25.035  1.00  0.00    -0.237 OA
ATOM     87  O   UNL A   1      42.415  18.684  27.484  1.00  0.00    -0.237 OA
ATOM     88  O   UNL A   1      40.477  19.529  26.219  1.00  0.00    -0.744 OA
ENDBRANCH  84  85
ENDBRANCH  52  77
BRANCH  64  89
ATOM     89  C   UNL A   1      49.512  26.946  26.118  1.00  0.00     0.058 A 
ATOM     90  C   UNL A   1      49.880  27.019  24.765  1.00  0.00     0.135 A 
ATOM     91  C   UNL A   1      50.470  26.477  27.033  1.00  0.00     0.135 A 
ATOM     92  F   UNL A   1      49.001  27.450  23.847  1.00  0.00    -0.206 F 
ATOM     93  C   UNL A   1      51.143  26.624  24.334  1.00  0.00     0.059 A 
ATOM     94  C   UNL A   1      51.747  26.105  26.627  1.00  0.00     0.059 A 
ATOM     95  F   UNL A   1      50.173  26.394  28.339  1.00  0.00    -0.206 F 
ATOM     96  C   UNL A   1      52.072  26.174  25.273  1.00  0.00     0.060 A 
BRANCH  96  97
ATOM     97  S   UNL A   1      53.722  25.709  24.705  1.00  0.00     0.124 S 
ATOM     98  O   UNL A   1      53.689  24.258  24.861  1.00  0.00    -0.237 OA
ATOM     99  O   UNL A   1      53.727  26.198  23.329  1.00  0.00    -0.237 OA
ATOM    100  O   UNL A   1      54.611  26.418  25.620  1.00  0.00    -0.744 OA
ENDBRANCH  96  97
ENDBRANCH  64  89
ENDBRANCH  38  39
ENDBRANCH  30  33
ENDBRANCH  28  29
ENDBRANCH  27  28
ENDBRANCH  26  27
ENDBRANCH   1  26
TORSDOF 21
ENDMDL
MODEL 2
REMARK VINA RESULT:     -10.9      1.246      8.251
REMARK SMILES C=CCN(CC(=O)NCCCCCCNC(=O)c1ccc(-c2c3nc(c(-c4c(F)cc(S(=O)(=O)[O-])cc4F)c4ccc([nH]4)c(-c4c(F)cc(S(=O)(=O)[O-])cc4F)c4nc(c(-c5c(F)cc(S(=O)(=O)[O-])cc5F)c5ccc2[nH]5)C=C4)C=C3)cc1)C(=O)[C@@H]1Oc2ccccc2O[C@H]1C
REMARK SMILES IDX 11 1 10 2 9 3 8 4 6 5 7 6 5 8 4 9 3 10 2 11 1 12 84 13 85 14
REMARK SMILES IDX 86 15 87 16 95 17 88 18 94 19 96 20 89 21 93 22 90 23 92 24
REMARK SMILES IDX 91 25 12 26 13 27 14 28 15 29 16 30 17 32 18 33 19 34 83 35
REMARK SMILES IDX 20 36 82 37 21 38 22 39 23 40 76 41 24 42 81 43 75 44 77 45
REMARK SMILES IDX 25 46 80 47 74 48 73 49 26 51 60 52 39 53 59 54 40 55 43 56
REMARK SMILES IDX 58 57 78 58 41 59 42 60 57 62 79 63 44 64 27 65 28 66 37 67
REMARK SMILES IDX 29 68 30 69 36 70 38 71 31 72 32 73 33 74 34 75 35 76 61 77
REMARK SMILES IDX 62 78 71 79 63 80 64 81 70 82 72 83 65 84 66 85 67 86 68 87
REMARK SMILES IDX 69 88 45 89 46 90 55 91 47 92 48 93 54 94 56 95 49 96 50 97
REMARK SMILES IDX 51 98 52 99 53 100
REMARK H PARENT 8 7 15 31 77 50 43 61
REMARK Flexibility Score: inf
ROOT
ATOM      1  C   UNL A   1      35.212  31.023  27.765  1.00  0.00     0.002 C 
ENDROOT
BRANCH   1   2
ATOM      2  C   UNL A   1      33.723  30.993  27.389  1.00  0.00     0.021 C 
BRANCH   2   3
ATOM      3  C   UNL A   1      33.246  29.674  26.777  1.00  0.00     0.116 C 
BRANCH   3   4
ATOM      4  N   UNL A   1      33.551  29.598  25.359  1.00  0.00    -0.355 N 
ATOM      5  C   UNL A   1      33.691  28.519  24.535  1.00  0.00     0.239 C 
ATOM      6  O   UNL A   1      34.050  28.738  23.373  1.00  0.00    -0.273 OA
ATOM      7  H   UNL A   1      33.679  30.470  24.919  1.00  0.00     0.163 HD
BRANCH   5   8
ATOM      8  C   UNL A   1      33.477  27.082  25.042  1.00  0.00     0.219 C 
BRANCH   8   9
ATOM      9  N   UNL A   1      32.746  26.264  24.073  1.00  0.00    -0.326 N 
BRANCH   9  10
ATOM     10  C   UNL A   1      31.548  26.838  23.464  1.00  0.00     0.147 C 
BRANCH  10  11
ATOM     11  C   UNL A   1      30.359  26.709  24.365  1.00  0.00    -0.014 C 
ATOM     12  C   UNL A   1      29.106  26.544  23.918  1.00  0.00     0.006 C 
ENDBRANCH  10  11
ENDBRANCH   9  10
BRANCH   9  13
ATOM     13  C   UNL A   1      33.403  25.158  23.531  1.00  0.00     0.268 C 
ATOM     14  O   UNL A   1      33.938  25.222  22.421  1.00  0.00    -0.270 OA
BRANCH  13  15
ATOM     15  C   UNL A   1      33.614  23.920  24.432  1.00  0.00     0.302 C 
ATOM     16  O   UNL A   1      34.665  24.202  25.356  1.00  0.00    -0.473 OA
ATOM     17  C   UNL A   1      33.805  22.678  23.533  1.00  0.00     0.221 C 
ATOM     18  C   UNL A   1      35.691  23.308  25.345  1.00  0.00     0.162 A 
ATOM     19  O   UNL A   1      34.439  21.589  24.223  1.00  0.00    -0.482 OA
ATOM     20  C   UNL A   1      32.479  22.149  22.983  1.00  0.00     0.057 C 
ATOM     21  C   UNL A   1      36.893  23.746  25.894  1.00  0.00     0.050 A 
ATOM     22  C   UNL A   1      35.604  22.042  24.774  1.00  0.00     0.161 A 
ATOM     23  C   UNL A   1      38.028  22.944  25.805  1.00  0.00     0.004 A 
ATOM     24  C   UNL A   1      36.721  21.215  24.729  1.00  0.00     0.050 A 
ATOM     25  C   UNL A   1      37.944  21.680  25.220  1.00  0.00     0.004 A 
ENDBRANCH  13  15
ENDBRANCH   9  13
ENDBRANCH   8   9
ENDBRANCH   5   8
ENDBRANCH   3   4
ENDBRANCH   2   3
ENDBRANCH   1   2
BRANCH   1  26
ATOM     26  C   UNL A   1      35.816  32.416  27.962  1.00  0.00     0.002 C 
BRANCH  26  27
ATOM     27  C   UNL A   1      35.548  33.065  29.324  1.00  0.00     0.021 C 
BRANCH  27  28
ATOM     28  C   UNL A   1      36.573  32.748  30.411  1.00  0.00     0.116 C 
BRANCH  28  29
ATOM     29  N   UNL A   1      36.236  31.550  31.165  1.00  0.00    -0.352 N 
ATOM     30  C   UNL A   1      36.900  30.345  31.237  1.00  0.00     0.251 C 
ATOM     31  H   UNL A   1      35.412  31.609  31.701  1.00  0.00     0.163 HD
ATOM     32  O   UNL A   1      36.372  29.383  31.778  1.00  0.00    -0.269 OA
BRANCH  30  33
ATOM     33  C   UNL A   1      38.247  30.215  30.636  1.00  0.00     0.039 A 
ATOM     34  C   UNL A   1      39.365  30.183  31.474  1.00  0.00     0.014 A 
ATOM     35  C   UNL A   1      38.403  30.110  29.251  1.00  0.00     0.014 A 
ATOM     36  C   UNL A   1      40.633  29.964  30.927  1.00  0.00     0.010 A 
ATOM     37  C   UNL A   1      39.658  29.822  28.717  1.00  0.00     0.010 A 
ATOM     38  C   UNL A   1      40.784  29.738  29.550  1.00  0.00    -0.014 A 
BRANCH  38  39
ATOM     39  C   UNL A   1      42.107  29.386  28.964  1.00  0.00     0.031 A 
ATOM     40  C   UNL A   1      42.380  27.986  28.486  1.00  0.00     0.074 A 
ATOM     41  C   UNL A   1      43.086  30.312  28.927  1.00  0.00     0.049 A 
ATOM     42  N   UNL A   1      43.487  27.476  28.008  1.00  0.00    -0.248 NA
ATOM     43  C   UNL A   1      41.269  27.026  28.579  1.00  0.00     0.031 C 
ATOM     44  C   UNL A   1      42.960  31.695  29.393  1.00  0.00     0.029 A 
ATOM     45  N   UNL A   1      44.383  30.230  28.484  1.00  0.00    -0.354 N 
ATOM     46  C   UNL A   1      43.210  26.139  27.753  1.00  0.00     0.074 A 
ATOM     47  C   UNL A   1      41.849  25.902  28.183  1.00  0.00     0.031 C 
ATOM     48  C   UNL A   1      44.120  32.338  29.182  1.00  0.00     0.029 A 
ATOM     49  C   UNL A   1      45.086  31.406  28.610  1.00  0.00     0.049 A 
ATOM     50  H   UNL A   1      44.774  29.407  28.111  1.00  0.00     0.167 HD
ATOM     51  C   UNL A   1      44.007  25.198  27.189  1.00  0.00     0.037 A 
ATOM     52  C   UNL A   1      46.366  31.700  28.306  1.00  0.00     0.037 A 
ATOM     53  C   UNL A   1      45.360  25.442  26.755  1.00  0.00     0.049 A 
ATOM     54  C   UNL A   1      47.246  30.629  27.719  1.00  0.00     0.074 A 
ATOM     55  C   UNL A   1      46.232  24.571  26.128  1.00  0.00     0.029 A 
ATOM     56  N   UNL A   1      46.039  26.643  26.909  1.00  0.00    -0.354 N 
ATOM     57  N   UNL A   1      46.948  29.385  27.425  1.00  0.00    -0.248 NA
ATOM     58  C   UNL A   1      48.637  31.000  27.421  1.00  0.00     0.031 C 
ATOM     59  C   UNL A   1      47.456  25.226  25.954  1.00  0.00     0.029 A 
ATOM     60  C   UNL A   1      47.329  26.526  26.418  1.00  0.00     0.049 A 
ATOM     61  H   UNL A   1      45.659  27.459  27.309  1.00  0.00     0.167 HD
ATOM     62  C   UNL A   1      48.103  28.837  26.877  1.00  0.00     0.074 A 
ATOM     63  C   UNL A   1      49.102  29.886  26.874  1.00  0.00     0.031 C 
ATOM     64  C   UNL A   1      48.315  27.579  26.415  1.00  0.00     0.037 A 
BRANCH  51  65
ATOM     65  C   UNL A   1      43.436  23.816  27.020  1.00  0.00     0.058 A 
ATOM     66  C   UNL A   1      43.390  22.900  28.085  1.00  0.00     0.135 A 
ATOM     67  C   UNL A   1      42.916  23.402  25.782  1.00  0.00     0.135 A 
ATOM     68  F   UNL A   1      43.882  23.237  29.287  1.00  0.00    -0.206 F 
ATOM     69  C   UNL A   1      42.896  21.611  27.917  1.00  0.00     0.059 A 
ATOM     70  C   UNL A   1      42.386  22.127  25.599  1.00  0.00     0.059 A 
ATOM     71  F   UNL A   1      42.929  24.235  24.730  1.00  0.00    -0.206 F 
ATOM     72  C   UNL A   1      42.401  21.232  26.668  1.00  0.00     0.060 A 
BRANCH  72  73
ATOM     73  S   UNL A   1      41.789  19.546  26.459  1.00  0.00     0.124 S 
ATOM     74  O   UNL A   1      42.306  18.901  27.662  1.00  0.00    -0.237 OA
ATOM     75  O   UNL A   1      40.344  19.742  26.416  1.00  0.00    -0.237 OA
ATOM     76  O   UNL A   1      42.399  19.116  25.205  1.00  0.00    -0.744 OA
ENDBRANCH  72  73
ENDBRANCH  51  65
BRANCH  52  77
ATOM     77  C   UNL A   1      46.885  33.077  28.521  1.00  0.00     0.058 A 
ATOM     78  C   UNL A   1      46.793  34.045  27.509  1.00  0.00     0.135 A 
ATOM     79  C   UNL A   1      47.468  33.460  29.739  1.00  0.00     0.135 A 
ATOM     80  F   UNL A   1      46.250  33.725  26.325  1.00  0.00    -0.206 F 
ATOM     81  C   UNL A   1      47.270  35.338  27.690  1.00  0.00     0.059 A 
ATOM     82  C   UNL A   1      47.930  34.756  29.954  1.00  0.00     0.059 A 
ATOM     83  F   UNL A   1      47.568  32.578  30.745  1.00  0.00    -0.206 F 
ATOM     84  C   UNL A   1      47.833  35.686  28.919  1.00  0.00     0.060 A 
BRANCH  84  85
ATOM     85  S   UNL A   1      48.400  37.384  29.162  1.00  0.00     0.124 S 
ATOM     86  O   UNL A   1      49.845  37.205  29.222  1.00  0.00    -0.237 OA
ATOM     87  O   UNL A   1      47.886  38.049  27.969  1.00  0.00    -0.237 OA
ATOM     88  O   UNL A   1      47.759  37.774  30.413  1.00  0.00    -0.744 OA
ENDBRANCH  84  85
ENDBRANCH  52  77
BRANCH  64  89
ATOM     89  C   UNL A   1      49.667  27.271  25.830  1.00  0.00     0.058 A 
ATOM     90  C   UNL A   1      50.741  26.850  26.631  1.00  0.00     0.135 A 
ATOM     91  C   UNL A   1      49.873  27.343  24.443  1.00  0.00     0.135 A 
ATOM     92  F   UNL A   1      50.602  26.773  27.964  1.00  0.00    -0.206 F 
ATOM     93  C   UNL A   1      51.977  26.530  26.078  1.00  0.00     0.059 A 
ATOM     94  C   UNL A   1      51.091  26.999  23.866  1.00  0.00     0.059 A 
ATOM     95  F   UNL A   1      48.878  27.731  23.630  1.00  0.00    -0.206 F 
ATOM     96  C   UNL A   1      52.141  26.603  24.693  1.00  0.00     0.060 A 
BRANCH  96  97
ATOM     97  S   UNL A   1      53.737  26.141  23.986  1.00  0.00     0.124 S 
ATOM     98  O   UNL A   1      53.419  26.067  22.564  1.00  0.00    -0.237 OA
ATOM     99  O   UNL A   1      54.590  27.257  24.387  1.00  0.00    -0.237 OA
ATOM    100  O   UNL A   1      54.040  24.866  24.629  1.00  0.00    -0.744 OA
ENDBRANCH  96  97
ENDBRANCH  64  89
ENDBRANCH  38  39
ENDBRANCH  30  33
ENDBRANCH  28  29
ENDBRANCH  27  28
ENDBRANCH  26  27
ENDBRANCH   1  26
TORSDOF 21
ENDMDL
MODEL 3
REMARK VINA RESULT:     -10.7      1.213      8.629
REMARK SMILES C=CCN(CC(=O)NCCCCCCNC(=O)c1ccc(-c2c3nc(c(-c4c(F)cc(S(=O)(=O)[O-])cc4F)c4ccc([nH]4)c(-c4c(F)cc(S(=O)(=O)[O-])cc4F)c4nc(c(-c5c(F)cc(S(=O)(=O)[O-])cc5F)c5ccc2[nH]5)C=C4)C=C3)cc1)C(=O)[C@@H]1Oc2ccccc2O[C@H]1C
REMARK SMILES IDX 11 1 10 2 9 3 8 4 6 5 7 6 5 8 4 9 3 10 2 11 1 12 84 13 85 14
REMARK SMILES IDX 86 15 87 16 95 17 88 18 94 19 96 20 89 21 93 22 90 23 92 24
REMARK SMILES IDX 91 25 12 26 13 27 14 28 15 29 16 30 17 32 18 33 19 34 83 35
REMARK SMILES IDX 20 36 82 37 21 38 22 39 23 40 76 41 24 42 81 43 75 44 77 45
REMARK SMILES IDX 25 46 80 47 74 48 73 49 26 51 60 52 39 53 59 54 40 55 43 56
REMARK SMILES IDX 58 57 78 58 41 59 42 60 57 62 79 63 44 64 27 65 28 66 37 67
REMARK SMILES IDX 29 68 30 69 36 70 38 71 31 72 32 73 33 74 34 75 35 76 61 77
REMARK SMILES IDX 62 78 71 79 63 80 64 81 70 82 72 83 65 84 66 85 67 86 68 87
REMARK SMILES IDX 69 88 45 89 46 90 55 91 47 92 48 93 54 94 56 95 49 96 50 97
REMARK SMILES IDX 51 98 52 99 53 100
REMARK H PARENT 8 7 15 31 77 50 43 61
REMARK Flexibility Score: inf
ROOT
ATOM      1  C   UNL A   1      32.736  30.120  26.125  1.00  0.00     0.002 C 
ENDROOT
BRANCH   1   2
ATOM      2  C   UNL A   1      31.755  28.979  26.427  1.00  0.00     0.021 C 
BRANCH   2   3
ATOM      3  C   UNL A   1      32.408  27.696  26.946  1.00  0.00     0.116 C 
BRANCH   3   4
ATOM      4  N   UNL A   1      31.451  26.609  27.049  1.00  0.00    -0.355 N 
ATOM      5  C   UNL A   1      31.409  25.398  26.421  1.00  0.00     0.239 C 
ATOM      6  O   UNL A   1      30.418  24.689  26.625  1.00  0.00    -0.273 OA
ATOM      7  H   UNL A   1      30.710  26.772  27.676  1.00  0.00     0.163 HD
BRANCH   5   8
ATOM      8  C   UNL A   1      32.514  24.955  25.445  1.00  0.00     0.219 C 
BRANCH   8   9
ATOM      9  N   UNL A   1      31.966  24.530  24.155  1.00  0.00    -0.326 N 
BRANCH   9  10
ATOM     10  C   UNL A   1      31.264  23.250  24.103  1.00  0.00     0.147 C 
BRANCH  10  11
ATOM     11  C   UNL A   1      32.109  22.186  23.471  1.00  0.00    -0.014 C 
ATOM     12  C   UNL A   1      32.455  21.050  24.092  1.00  0.00     0.006 C 
ENDBRANCH  10  11
ENDBRANCH   9  10
BRANCH   9  13
ATOM     13  C   UNL A   1      31.834  25.496  23.157  1.00  0.00     0.268 C 
ATOM     14  O   UNL A   1      31.686  25.168  21.976  1.00  0.00    -0.270 OA
BRANCH  13  15
ATOM     15  C   UNL A   1      31.679  26.973  23.585  1.00  0.00     0.302 C 
ATOM     16  O   UNL A   1      30.318  27.203  23.947  1.00  0.00    -0.473 OA
ATOM     17  C   UNL A   1      32.256  27.876  22.472  1.00  0.00     0.221 C 
ATOM     18  C   UNL A   1      29.713  28.223  23.278  1.00  0.00     0.162 A 
ATOM     19  O   UNL A   1      31.773  29.227  22.551  1.00  0.00    -0.482 OA
ATOM     20  C   UNL A   1      33.784  27.943  22.512  1.00  0.00     0.057 C 
ATOM     21  C   UNL A   1      28.322  28.217  23.278  1.00  0.00     0.050 A 
ATOM     22  C   UNL A   1      30.408  29.201  22.573  1.00  0.00     0.161 A 
ATOM     23  C   UNL A   1      27.625  29.147  22.510  1.00  0.00     0.004 A 
ATOM     24  C   UNL A   1      29.718  30.165  21.846  1.00  0.00     0.050 A 
ATOM     25  C   UNL A   1      28.322  30.119  21.792  1.00  0.00     0.004 A 
ENDBRANCH  13  15
ENDBRANCH   9  13
ENDBRANCH   8   9
ENDBRANCH   5   8
ENDBRANCH   3   4
ENDBRANCH   2   3
ENDBRANCH   1   2
BRANCH   1  26
ATOM     26  C   UNL A   1      33.380  30.781  27.347  1.00  0.00     0.002 C 
BRANCH  26  27
ATOM     27  C   UNL A   1      34.911  30.826  27.342  1.00  0.00     0.021 C 
BRANCH  27  28
ATOM     28  C   UNL A   1      35.600  29.691  28.097  1.00  0.00     0.116 C 
BRANCH  28  29
ATOM     29  N   UNL A   1      35.542  29.863  29.540  1.00  0.00    -0.352 N 
ATOM     30  C   UNL A   1      36.552  29.781  30.473  1.00  0.00     0.251 C 
ATOM     31  H   UNL A   1      34.649  30.067  29.903  1.00  0.00     0.163 HD
ATOM     32  O   UNL A   1      36.287  29.772  31.667  1.00  0.00    -0.269 OA
BRANCH  30  33
ATOM     33  C   UNL A   1      37.959  29.681  30.023  1.00  0.00     0.039 A 
ATOM     34  C   UNL A   1      38.948  29.345  30.951  1.00  0.00     0.014 A 
ATOM     35  C   UNL A   1      38.297  29.905  28.686  1.00  0.00     0.014 A 
ATOM     36  C   UNL A   1      40.264  29.153  30.520  1.00  0.00     0.010 A 
ATOM     37  C   UNL A   1      39.594  29.646  28.248  1.00  0.00     0.010 A 
ATOM     38  C   UNL A   1      40.590  29.258  29.158  1.00  0.00    -0.014 A 
BRANCH  38  39
ATOM     39  C   UNL A   1      41.958  28.944  28.663  1.00  0.00     0.031 A 
ATOM     40  C   UNL A   1      42.304  27.549  28.218  1.00  0.00     0.074 A 
ATOM     41  C   UNL A   1      42.908  29.899  28.681  1.00  0.00     0.049 A 
ATOM     42  N   UNL A   1      43.454  27.070  27.818  1.00  0.00    -0.248 NA
ATOM     43  C   UNL A   1      41.218  26.555  28.248  1.00  0.00     0.031 C 
ATOM     44  C   UNL A   1      42.710  31.281  29.124  1.00  0.00     0.029 A 
ATOM     45  N   UNL A   1      44.233  29.854  28.323  1.00  0.00    -0.354 N 
ATOM     46  C   UNL A   1      43.235  25.723  27.558  1.00  0.00     0.074 A 
ATOM     47  C   UNL A   1      41.857  25.447  27.902  1.00  0.00     0.031 C 
ATOM     48  C   UNL A   1      43.862  31.958  28.983  1.00  0.00     0.029 A 
ATOM     49  C   UNL A   1      44.891  31.052  28.484  1.00  0.00     0.049 A 
ATOM     50  H   UNL A   1      44.672  29.040  27.984  1.00  0.00     0.167 HD
ATOM     51  C   UNL A   1      44.095  24.803  27.056  1.00  0.00     0.037 A 
ATOM     52  C   UNL A   1      46.178  31.382  28.260  1.00  0.00     0.037 A 
ATOM     53  C   UNL A   1      45.465  25.085  26.708  1.00  0.00     0.049 A 
ATOM     54  C   UNL A   1      47.127  30.335  27.742  1.00  0.00     0.074 A 
ATOM     55  C   UNL A   1      46.403  24.236  26.148  1.00  0.00     0.029 A 
ATOM     56  N   UNL A   1      46.096  26.308  26.895  1.00  0.00    -0.354 N 
ATOM     57  N   UNL A   1      46.887  29.081  27.442  1.00  0.00    -0.248 NA
ATOM     58  C   UNL A   1      48.522  30.747  27.531  1.00  0.00     0.031 C 
ATOM     59  C   UNL A   1      47.615  24.927  26.048  1.00  0.00     0.029 A 
ATOM     60  C   UNL A   1      47.419  26.226  26.489  1.00  0.00     0.049 A 
ATOM     61  H   UNL A   1      45.666  27.114  27.261  1.00  0.00     0.167 HD
ATOM     62  C   UNL A   1      48.091  28.564  26.975  1.00  0.00     0.074 A 
ATOM     63  C   UNL A   1      49.055  29.643  27.027  1.00  0.00     0.031 C 
ATOM     64  C   UNL A   1      48.370  27.310  26.540  1.00  0.00     0.037 A 
BRANCH  51  65
ATOM     65  C   UNL A   1      43.579  23.402  26.864  1.00  0.00     0.058 A 
ATOM     66  C   UNL A   1      43.383  22.531  27.950  1.00  0.00     0.135 A 
ATOM     67  C   UNL A   1      43.263  22.925  25.581  1.00  0.00     0.135 A 
ATOM     68  F   UNL A   1      43.678  22.929  29.197  1.00  0.00    -0.206 F 
ATOM     69  C   UNL A   1      42.941  21.225  27.766  1.00  0.00     0.059 A 
ATOM     70  C   UNL A   1      42.788  21.632  25.377  1.00  0.00     0.059 A 
ATOM     71  F   UNL A   1      43.426  23.713  24.507  1.00  0.00    -0.206 F 
ATOM     72  C   UNL A   1      42.651  20.783  26.474  1.00  0.00     0.060 A 
BRANCH  72  73
ATOM     73  S   UNL A   1      42.105  19.077  26.251  1.00  0.00     0.124 S 
ATOM     74  O   UNL A   1      40.722  19.269  25.827  1.00  0.00    -0.237 OA
ATOM     75  O   UNL A   1      43.020  18.589  25.224  1.00  0.00    -0.237 OA
ATOM     76  O   UNL A   1      42.280  18.487  27.574  1.00  0.00    -0.744 OA
ENDBRANCH  72  73
ENDBRANCH  51  65
BRANCH  52  77
ATOM     77  C   UNL A   1      46.640  32.777  28.495  1.00  0.00     0.058 A 
ATOM     78  C   UNL A   1      46.611  33.726  27.462  1.00  0.00     0.135 A 
ATOM     79  C   UNL A   1      47.104  33.195  29.752  1.00  0.00     0.135 A 
ATOM     80  F   UNL A   1      46.182  33.373  26.241  1.00  0.00    -0.206 F 
ATOM     81  C   UNL A   1      47.036  35.035  27.660  1.00  0.00     0.059 A 
ATOM     82  C   UNL A   1      47.511  34.506  29.983  1.00  0.00     0.059 A 
ATOM     83  F   UNL A   1      47.139  32.331  30.779  1.00  0.00    -0.206 F 
ATOM     84  C   UNL A   1      47.481  35.417  28.928  1.00  0.00     0.060 A 
BRANCH  84  85
ATOM     85  S   UNL A   1      47.979  37.134  29.188  1.00  0.00     0.124 S 
ATOM     86  O   UNL A   1      47.645  37.325  30.594  1.00  0.00    -0.237 OA
ATOM     87  O   UNL A   1      49.402  37.089  28.869  1.00  0.00    -0.237 OA
ATOM     88  O   UNL A   1      47.153  37.869  28.237  1.00  0.00    -0.744 OA
ENDBRANCH  84  85
ENDBRANCH  52  77
BRANCH  64  89
ATOM     89  C   UNL A   1      49.766  27.039  26.047  1.00  0.00     0.058 A 
ATOM     90  C   UNL A   1      50.788  26.618  26.914  1.00  0.00     0.135 A 
ATOM     91  C   UNL A   1      50.069  27.147  24.680  1.00  0.00     0.135 A 
ATOM     92  F   UNL A   1      50.556  26.507  28.231  1.00  0.00    -0.206 F 
ATOM     93  C   UNL A   1      52.066  26.333  26.444  1.00  0.00     0.059 A 
ATOM     94  C   UNL A   1      51.332  26.838  24.185  1.00  0.00     0.059 A 
ATOM     95  F   UNL A   1      49.127  27.537  23.807  1.00  0.00    -0.206 F 
ATOM     96  C   UNL A   1      52.328  26.441  25.076  1.00  0.00     0.060 A 
BRANCH  96  97
ATOM     97  S   UNL A   1      53.979  26.024  24.475  1.00  0.00     0.124 S 
ATOM     98  O   UNL A   1      54.814  26.935  25.251  1.00  0.00    -0.237 OA
ATOM     99  O   UNL A   1      54.089  24.610  24.824  1.00  0.00    -0.237 OA
ATOM    100  O   UNL A   1      53.902  26.306  23.045  1.00  0.00    -0.744 OA
ENDBRANCH  96  97
ENDBRANCH  64  89
ENDBRANCH  38  39
ENDBRANCH  30  33
ENDBRANCH  28  29
ENDBRANCH  27  28
ENDBRANCH  26  27
ENDBRANCH   1  26
TORSDOF 21
ENDMDL
