MODEL 1
REMARK VINA RESULT:     -11.0      0.000      0.000
REMARK SMILES CCC[C@@H](CNC(=O)NCc1c(C)nn(C)c1C)C(=O)NCCCCCCNC(=O)c1ccc(-c2c3nc(c(-c4c(F)cc(S(=O)(=O)[O-])cc4F)c4ccc([nH]4)c(-c4c(F)cc(S(=O)(=O)[O-])cc4F)c4nc(c(-c5c(F)cc(S(=O)(=O)[O-])cc5F)c5ccc2[nH]5)C=C4)C=C3)cc1
REMARK SMILES IDX 24 1 23 2 22 3 21 4 19 5 20 6 4 8 3 9 2 10 1 11 5 12 6 13
REMARK SMILES IDX 7 14 8 16 9 17 10 19 11 20 12 21 17 22 13 23 14 24 15 25
REMARK SMILES IDX 18 26 16 27 25 28 26 29 27 30 28 31 29 32 30 34 31 35 32 36
REMARK SMILES IDX 96 37 33 38 95 39 34 40 35 41 36 42 89 43 37 44 94 45 88 46
REMARK SMILES IDX 90 47 38 48 93 49 87 50 86 51 39 53 73 54 52 55 72 56 53 57
REMARK SMILES IDX 56 58 71 59 91 60 54 61 55 62 70 64 92 65 57 66 40 67 41 68
REMARK SMILES IDX 50 69 42 70 43 71 49 72 51 73 44 74 45 75 46 76 47 77 48 78
REMARK SMILES IDX 74 79 75 80 84 81 76 82 77 83 83 84 85 85 78 86 79 87 80 88
REMARK SMILES IDX 81 89 82 90 58 91 59 92 68 93 60 94 61 95 67 96 69 97 62 98
REMARK SMILES IDX 63 99 64 100 65 101 66 102
REMARK H PARENT 21 7 6 15 9 18 28 33 90 52 56 63
REMARK Flexibility Score: inf
ROOT
ATOM      1  C   UNL A   1      33.871  30.861  27.279  1.00  0.00     0.002 C 
ENDROOT
BRANCH   1   2
ATOM      2  C   UNL A   1      32.410  30.839  26.819  1.00  0.00     0.021 C 
BRANCH   2   3
ATOM      3  C   UNL A   1      32.010  29.557  26.105  1.00  0.00     0.116 C 
BRANCH   3   4
ATOM      4  N   UNL A   1      32.487  29.512  24.738  1.00  0.00    -0.356 N 
ATOM      5  C   UNL A   1      31.918  28.978  23.627  1.00  0.00     0.224 C 
ATOM      6  O   UNL A   1      32.431  29.253  22.536  1.00  0.00    -0.275 OA
ATOM      7  H   UNL A   1      33.363  29.937  24.591  1.00  0.00     0.163 HD
BRANCH   5   8
ATOM      8  C   UNL A   1      30.695  28.065  23.680  1.00  0.00     0.097 C 
BRANCH   8   9
ATOM      9  C   UNL A   1      29.375  28.782  23.329  1.00  0.00     0.015 C 
BRANCH   9  10
ATOM     10  C   UNL A   1      29.425  30.314  23.346  1.00  0.00    -0.003 C 
ATOM     11  C   UNL A   1      28.141  30.980  22.876  1.00  0.00     0.004 C 
ENDBRANCH   9  10
ENDBRANCH   8   9
BRANCH   8  12
ATOM     12  C   UNL A   1      30.921  26.670  23.075  1.00  0.00     0.131 C 
BRANCH  12  13
ATOM     13  N   UNL A   1      31.682  26.576  21.854  1.00  0.00    -0.337 N 
ATOM     14  C   UNL A   1      32.440  25.620  21.306  1.00  0.00     0.315 C 
ATOM     15  H   UNL A   1      31.632  27.392  21.304  1.00  0.00     0.165 HD
ATOM     16  O   UNL A   1      33.076  25.915  20.292  1.00  0.00    -0.249 OA
ATOM     17  N   UNL A   1      32.591  24.391  21.795  1.00  0.00    -0.334 N 
ATOM     18  H   UNL A   1      33.328  23.910  21.353  1.00  0.00     0.165 HD
BRANCH  17  19
ATOM     19  C   UNL A   1      31.949  23.581  22.809  1.00  0.00     0.157 C 
BRANCH  19  20
ATOM     20  C   UNL A   1      32.999  22.898  23.625  1.00  0.00     0.015 A 
ATOM     21  C   UNL A   1      34.070  23.467  24.378  1.00  0.00     0.065 A 
ATOM     22  C   UNL A   1      33.156  21.525  23.801  1.00  0.00     0.040 A 
ATOM     23  C   UNL A   1      34.437  24.888  24.605  1.00  0.00     0.069 C 
ATOM     24  N   UNL A   1      34.832  22.530  24.947  1.00  0.00    -0.178 NA
ATOM     25  N   UNL A   1      34.259  21.370  24.597  1.00  0.00    -0.272 N 
ATOM     26  C   UNL A   1      32.359  20.378  23.294  1.00  0.00     0.067 C 
ATOM     27  C   UNL A   1      34.878  20.147  25.050  1.00  0.00     0.174 C 
ENDBRANCH  19  20
ENDBRANCH  17  19
ENDBRANCH  12  13
ENDBRANCH   8  12
ENDBRANCH   5   8
ENDBRANCH   3   4
ENDBRANCH   2   3
ENDBRANCH   1   2
BRANCH   1  28
ATOM     28  C   UNL A   1      34.258  32.037  28.185  1.00  0.00     0.002 C 
BRANCH  28  29
ATOM     29  C   UNL A   1      35.577  32.734  27.833  1.00  0.00     0.021 C 
BRANCH  29  30
ATOM     30  C   UNL A   1      36.619  32.723  28.944  1.00  0.00     0.116 C 
BRANCH  30  31
ATOM     31  N   UNL A   1      36.143  32.036  30.134  1.00  0.00    -0.352 N 
ATOM     32  C   UNL A   1      36.628  30.900  30.734  1.00  0.00     0.251 C 
ATOM     33  H   UNL A   1      35.361  32.444  30.571  1.00  0.00     0.163 HD
ATOM     34  O   UNL A   1      35.984  30.350  31.618  1.00  0.00    -0.269 OA
BRANCH  32  35
ATOM     35  C   UNL A   1      37.922  30.340  30.290  1.00  0.00     0.039 A 
ATOM     36  C   UNL A   1      38.124  30.104  28.929  1.00  0.00     0.014 A 
ATOM     37  C   UNL A   1      38.934  30.060  31.213  1.00  0.00     0.014 A 
ATOM     38  C   UNL A   1      39.364  29.643  28.486  1.00  0.00     0.010 A 
ATOM     39  C   UNL A   1      40.192  29.672  30.763  1.00  0.00     0.010 A 
ATOM     40  C   UNL A   1      40.420  29.458  29.395  1.00  0.00    -0.014 A 
BRANCH  40  41
ATOM     41  C   UNL A   1      41.773  29.057  28.932  1.00  0.00     0.031 A 
ATOM     42  C   UNL A   1      42.872  30.079  28.833  1.00  0.00     0.074 A 
ATOM     43  C   UNL A   1      41.990  27.786  28.538  1.00  0.00     0.049 A 
ATOM     44  N   UNL A   1      44.092  29.938  28.382  1.00  0.00    -0.248 NA
ATOM     45  C   UNL A   1      42.551  31.446  29.276  1.00  0.00     0.031 C 
ATOM     46  C   UNL A   1      40.989  26.717  28.547  1.00  0.00     0.029 A 
ATOM     47  N   UNL A   1      43.117  27.179  28.044  1.00  0.00    -0.354 N 
ATOM     48  C   UNL A   1      44.679  31.194  28.476  1.00  0.00     0.074 A 
ATOM     49  C   UNL A   1      43.665  32.098  28.976  1.00  0.00     0.031 C 
ATOM     50  C   UNL A   1      41.552  25.582  28.100  1.00  0.00     0.029 A 
ATOM     51  C   UNL A   1      42.938  25.852  27.729  1.00  0.00     0.049 A 
ATOM     52  H   UNL A   1      43.974  27.650  27.924  1.00  0.00     0.167 HD
ATOM     53  C   UNL A   1      45.953  31.555  28.193  1.00  0.00     0.037 A 
ATOM     54  C   UNL A   1      43.788  24.958  27.188  1.00  0.00     0.037 A 
ATOM     55  C   UNL A   1      46.960  30.644  27.711  1.00  0.00     0.049 A 
ATOM     56  C   UNL A   1      45.191  25.389  26.859  1.00  0.00     0.074 A 
ATOM     57  C   UNL A   1      48.293  30.898  27.447  1.00  0.00     0.029 A 
ATOM     58  N   UNL A   1      46.742  29.306  27.413  1.00  0.00    -0.354 N 
ATOM     59  N   UNL A   1      45.750  26.565  27.019  1.00  0.00    -0.248 NA
ATOM     60  C   UNL A   1      46.082  24.374  26.279  1.00  0.00     0.031 C 
ATOM     61  C   UNL A   1      48.868  29.731  26.937  1.00  0.00     0.029 A 
ATOM     62  C   UNL A   1      47.909  28.730  26.941  1.00  0.00     0.049 A 
ATOM     63  H   UNL A   1      45.883  28.835  27.522  1.00  0.00     0.167 HD
ATOM     64  C   UNL A   1      47.064  26.425  26.586  1.00  0.00     0.074 A 
ATOM     65  C   UNL A   1      47.220  25.046  26.170  1.00  0.00     0.031 C 
ATOM     66  C   UNL A   1      48.051  27.352  26.536  1.00  0.00     0.037 A 
BRANCH  53  67
ATOM     67  C   UNL A   1      46.335  32.997  28.395  1.00  0.00     0.058 A 
ATOM     68  C   UNL A   1      46.843  33.462  29.619  1.00  0.00     0.135 A 
ATOM     69  C   UNL A   1      46.236  33.918  27.339  1.00  0.00     0.135 A 
ATOM     70  F   UNL A   1      46.947  32.631  30.668  1.00  0.00    -0.206 F 
ATOM     71  C   UNL A   1      47.212  34.793  29.797  1.00  0.00     0.059 A 
ATOM     72  C   UNL A   1      46.629  35.245  27.485  1.00  0.00     0.059 A 
ATOM     73  F   UNL A   1      45.757  33.530  26.146  1.00  0.00    -0.206 F 
ATOM     74  C   UNL A   1      47.102  35.676  28.722  1.00  0.00     0.060 A 
BRANCH  74  75
ATOM     75  S   UNL A   1      47.597  37.394  28.968  1.00  0.00     0.124 S 
ATOM     76  O   UNL A   1      46.392  37.961  29.568  1.00  0.00    -0.237 OA
ATOM     77  O   UNL A   1      48.746  37.263  29.859  1.00  0.00    -0.237 OA
ATOM     78  O   UNL A   1      47.901  37.859  27.619  1.00  0.00    -0.744 OA
ENDBRANCH  74  75
ENDBRANCH  53  67
BRANCH  54  79
ATOM     79  C   UNL A   1      43.337  23.561  26.932  1.00  0.00     0.058 A 
ATOM     80  C   UNL A   1      43.023  23.128  25.636  1.00  0.00     0.135 A 
ATOM     81  C   UNL A   1      43.218  22.631  27.976  1.00  0.00     0.135 A 
ATOM     82  F   UNL A   1      43.114  23.982  24.604  1.00  0.00    -0.206 F 
ATOM     83  C   UNL A   1      42.591  21.831  25.384  1.00  0.00     0.059 A 
ATOM     84  C   UNL A   1      42.816  21.318  27.747  1.00  0.00     0.059 A 
ATOM     85  F   UNL A   1      43.521  22.988  29.235  1.00  0.00    -0.206 F 
ATOM     86  C   UNL A   1      42.493  20.931  26.447  1.00  0.00     0.060 A 
BRANCH  86  87
ATOM     87  S   UNL A   1      41.970  19.238  26.102  1.00  0.00     0.124 S 
ATOM     88  O   UNL A   1      42.840  18.883  24.987  1.00  0.00    -0.237 OA
ATOM     89  O   UNL A   1      42.250  18.567  27.368  1.00  0.00    -0.237 OA
ATOM     90  O   UNL A   1      40.554  19.382  25.777  1.00  0.00    -0.744 OA
ENDBRANCH  86  87
ENDBRANCH  54  79
BRANCH  66  91
ATOM     91  C   UNL A   1      49.402  26.908  26.045  1.00  0.00     0.058 A 
ATOM     92  C   UNL A   1      49.803  27.095  24.712  1.00  0.00     0.135 A 
ATOM     93  C   UNL A   1      50.332  26.346  26.935  1.00  0.00     0.135 A 
ATOM     94  F   UNL A   1      48.951  27.620  23.817  1.00  0.00    -0.206 F 
ATOM     95  C   UNL A   1      51.072  26.726  24.277  1.00  0.00     0.059 A 
ATOM     96  C   UNL A   1      51.616  25.998  26.529  1.00  0.00     0.059 A 
ATOM     97  F   UNL A   1      50.003  26.152  28.222  1.00  0.00    -0.206 F 
ATOM     98  C   UNL A   1      51.974  26.184  25.195  1.00  0.00     0.060 A 
BRANCH  98  99
ATOM     99  S   UNL A   1      53.633  25.756  24.626  1.00  0.00     0.124 S 
ATOM    100  O   UNL A   1      53.551  26.085  23.207  1.00  0.00    -0.237 OA
ATOM    101  O   UNL A   1      54.474  26.635  25.433  1.00  0.00    -0.237 OA
ATOM    102  O   UNL A   1      53.743  24.334  24.935  1.00  0.00    -0.744 OA
ENDBRANCH  98  99
ENDBRANCH  66  91
ENDBRANCH  40  41
ENDBRANCH  32  35
ENDBRANCH  30  31
ENDBRANCH  29  30
ENDBRANCH  28  29
ENDBRANCH   1  28
TORSDOF 22
ENDMDL
MODEL 2
REMARK VINA RESULT:     -11.0      0.953      8.129
REMARK SMILES CCC[C@@H](CNC(=O)NCc1c(C)nn(C)c1C)C(=O)NCCCCCCNC(=O)c1ccc(-c2c3nc(c(-c4c(F)cc(S(=O)(=O)[O-])cc4F)c4ccc([nH]4)c(-c4c(F)cc(S(=O)(=O)[O-])cc4F)c4nc(c(-c5c(F)cc(S(=O)(=O)[O-])cc5F)c5ccc2[nH]5)C=C4)C=C3)cc1
REMARK SMILES IDX 24 1 23 2 22 3 21 4 19 5 20 6 4 8 3 9 2 10 1 11 5 12 6 13
REMARK SMILES IDX 7 14 8 16 9 17 10 19 11 20 12 21 17 22 13 23 14 24 15 25
REMARK SMILES IDX 18 26 16 27 25 28 26 29 27 30 28 31 29 32 30 34 31 35 32 36
REMARK SMILES IDX 96 37 33 38 95 39 34 40 35 41 36 42 89 43 37 44 94 45 88 46
REMARK SMILES IDX 90 47 38 48 93 49 87 50 86 51 39 53 73 54 52 55 72 56 53 57
REMARK SMILES IDX 56 58 71 59 91 60 54 61 55 62 70 64 92 65 57 66 40 67 41 68
REMARK SMILES IDX 50 69 42 70 43 71 49 72 51 73 44 74 45 75 46 76 47 77 48 78
REMARK SMILES IDX 74 79 75 80 84 81 76 82 77 83 83 84 85 85 78 86 79 87 80 88
REMARK SMILES IDX 81 89 82 90 58 91 59 92 68 93 60 94 61 95 67 96 69 97 62 98
REMARK SMILES IDX 63 99 64 100 65 101 66 102
REMARK H PARENT 21 7 6 15 9 18 28 33 90 52 56 63
REMARK Flexibility Score: inf
ROOT
ATOM      1  C   UNL A   1      33.959  30.797  27.269  1.00  0.00     0.002 C 
ENDROOT
BRANCH   1   2
ATOM      2  C   UNL A   1      32.512  30.859  26.769  1.00  0.00     0.021 C 
BRANCH   2   3
ATOM      3  C   UNL A   1      32.049  29.589  26.071  1.00  0.00     0.116 C 
BRANCH   3   4
ATOM      4  N   UNL A   1      32.783  29.328  24.850  1.00  0.00    -0.356 N 
ATOM      5  C   UNL A   1      32.335  29.071  23.595  1.00  0.00     0.224 C 
ATOM      6  O   UNL A   1      33.166  29.088  22.679  1.00  0.00    -0.275 OA
ATOM      7  H   UNL A   1      33.764  29.340  24.946  1.00  0.00     0.163 HD
BRANCH   5   8
ATOM      8  C   UNL A   1      30.872  28.763  23.285  1.00  0.00     0.097 C 
BRANCH   8   9
ATOM      9  C   UNL A   1      30.117  29.945  22.641  1.00  0.00     0.015 C 
BRANCH   9  10
ATOM     10  C   UNL A   1      28.589  29.895  22.743  1.00  0.00    -0.003 C 
ATOM     11  C   UNL A   1      27.987  31.019  23.572  1.00  0.00     0.004 C 
ENDBRANCH   9  10
ENDBRANCH   8   9
BRANCH   8  12
ATOM     12  C   UNL A   1      30.633  27.366  22.688  1.00  0.00     0.131 C 
BRANCH  12  13
ATOM     13  N   UNL A   1      31.636  26.825  21.807  1.00  0.00    -0.337 N 
ATOM     14  C   UNL A   1      32.193  25.617  21.668  1.00  0.00     0.315 C 
ATOM     15  H   UNL A   1      31.988  27.488  21.168  1.00  0.00     0.165 HD
ATOM     16  O   UNL A   1      33.143  25.517  20.888  1.00  0.00    -0.249 OA
ATOM     17  N   UNL A   1      31.826  24.525  22.337  1.00  0.00    -0.334 N 
ATOM     18  H   UNL A   1      32.476  23.794  22.228  1.00  0.00     0.165 HD
BRANCH  17  19
ATOM     19  C   UNL A   1      30.716  24.139  23.183  1.00  0.00     0.157 C 
BRANCH  19  20
ATOM     20  C   UNL A   1      31.202  23.998  24.589  1.00  0.00     0.015 A 
ATOM     21  C   UNL A   1      30.869  24.772  25.742  1.00  0.00     0.065 A 
ATOM     22  C   UNL A   1      32.119  23.063  25.065  1.00  0.00     0.040 A 
ATOM     23  C   UNL A   1      29.928  25.909  25.897  1.00  0.00     0.069 C 
ATOM     24  N   UNL A   1      31.538  24.367  26.825  1.00  0.00    -0.178 NA
ATOM     25  N   UNL A   1      32.276  23.332  26.398  1.00  0.00    -0.272 N 
ATOM     26  C   UNL A   1      32.835  21.959  24.375  1.00  0.00     0.067 C 
ATOM     27  C   UNL A   1      33.143  22.683  27.353  1.00  0.00     0.174 C 
ENDBRANCH  19  20
ENDBRANCH  17  19
ENDBRANCH  12  13
ENDBRANCH   8  12
ENDBRANCH   5   8
ENDBRANCH   3   4
ENDBRANCH   2   3
ENDBRANCH   1   2
BRANCH   1  28
ATOM     28  C   UNL A   1      34.343  31.859  28.307  1.00  0.00     0.002 C 
BRANCH  28  29
ATOM     29  C   UNL A   1      35.615  32.655  27.996  1.00  0.00     0.021 C 
BRANCH  29  30
ATOM     30  C   UNL A   1      36.726  32.509  29.028  1.00  0.00     0.116 C 
BRANCH  30  31
ATOM     31  N   UNL A   1      36.303  31.731  30.181  1.00  0.00    -0.352 N 
ATOM     32  C   UNL A   1      36.835  30.572  30.689  1.00  0.00     0.251 C 
ATOM     33  H   UNL A   1      35.523  32.085  30.666  1.00  0.00     0.163 HD
ATOM     34  O   UNL A   1      36.232  29.945  31.550  1.00  0.00    -0.269 OA
BRANCH  32  35
ATOM     35  C   UNL A   1      38.131  30.081  30.174  1.00  0.00     0.039 A 
ATOM     36  C   UNL A   1      38.287  29.903  28.797  1.00  0.00     0.014 A 
ATOM     37  C   UNL A   1      39.189  29.806  31.045  1.00  0.00     0.014 A 
ATOM     38  C   UNL A   1      39.525  29.509  28.289  1.00  0.00     0.010 A 
ATOM     39  C   UNL A   1      40.442  29.486  30.531  1.00  0.00     0.010 A 
ATOM     40  C   UNL A   1      40.622  29.333  29.148  1.00  0.00    -0.014 A 
BRANCH  40  41
ATOM     41  C   UNL A   1      41.970  29.003  28.618  1.00  0.00     0.031 A 
ATOM     42  C   UNL A   1      42.287  27.602  28.175  1.00  0.00     0.074 A 
ATOM     43  C   UNL A   1      42.927  29.954  28.600  1.00  0.00     0.049 A 
ATOM     44  N   UNL A   1      43.422  27.105  27.757  1.00  0.00    -0.248 NA
ATOM     45  C   UNL A   1      41.189  26.622  28.232  1.00  0.00     0.031 C 
ATOM     46  C   UNL A   1      42.752  31.337  29.047  1.00  0.00     0.029 A 
ATOM     47  N   UNL A   1      44.239  29.899  28.203  1.00  0.00    -0.354 N 
ATOM     48  C   UNL A   1      43.180  25.758  27.512  1.00  0.00     0.074 A 
ATOM     49  C   UNL A   1      41.804  25.503  27.880  1.00  0.00     0.031 C 
ATOM     50  C   UNL A   1      43.904  32.005  28.879  1.00  0.00     0.029 A 
ATOM     51  C   UNL A   1      44.914  31.087  28.358  1.00  0.00     0.049 A 
ATOM     52  H   UNL A   1      44.659  29.085  27.841  1.00  0.00     0.167 HD
ATOM     53  C   UNL A   1      44.021  24.826  27.005  1.00  0.00     0.037 A 
ATOM     54  C   UNL A   1      46.203  31.400  28.124  1.00  0.00     0.037 A 
ATOM     55  C   UNL A   1      45.386  25.095  26.626  1.00  0.00     0.049 A 
ATOM     56  C   UNL A   1      47.126  30.341  27.584  1.00  0.00     0.074 A 
ATOM     57  C   UNL A   1      46.303  24.234  26.051  1.00  0.00     0.029 A 
ATOM     58  N   UNL A   1      46.030  26.313  26.790  1.00  0.00    -0.354 N 
ATOM     59  N   UNL A   1      46.861  29.089  27.293  1.00  0.00    -0.248 NA
ATOM     60  C   UNL A   1      48.520  30.734  27.336  1.00  0.00     0.031 C 
ATOM     61  C   UNL A   1      47.517  24.913  25.920  1.00  0.00     0.029 A 
ATOM     62  C   UNL A   1      47.341  26.217  26.355  1.00  0.00     0.049 A 
ATOM     63  H   UNL A   1      45.615  27.126  27.161  1.00  0.00     0.167 HD
ATOM     64  C   UNL A   1      48.047  28.553  26.803  1.00  0.00     0.074 A 
ATOM     65  C   UNL A   1      49.027  29.621  26.824  1.00  0.00     0.031 C 
ATOM     66  C   UNL A   1      48.303  27.292  26.376  1.00  0.00     0.037 A 
BRANCH  53  67
ATOM     67  C   UNL A   1      43.496  23.427  26.830  1.00  0.00     0.058 A 
ATOM     68  C   UNL A   1      43.221  22.894  25.560  1.00  0.00     0.135 A 
ATOM     69  C   UNL A   1      43.307  22.590  27.942  1.00  0.00     0.135 A 
ATOM     70  F   UNL A   1      43.369  23.653  24.461  1.00  0.00    -0.206 F 
ATOM     71  C   UNL A   1      42.751  21.593  25.400  1.00  0.00     0.059 A 
ATOM     72  C   UNL A   1      42.869  21.275  27.804  1.00  0.00     0.059 A 
ATOM     73  F   UNL A   1      43.553  23.045  29.181  1.00  0.00    -0.206 F 
ATOM     74  C   UNL A   1      42.580  20.791  26.529  1.00  0.00     0.060 A 
BRANCH  74  75
ATOM     75  S   UNL A   1      41.982  19.104  26.302  1.00  0.00     0.124 S 
ATOM     76  O   UNL A   1      42.864  18.622  25.243  1.00  0.00    -0.237 OA
ATOM     77  O   UNL A   1      42.197  18.517  27.621  1.00  0.00    -0.237 OA
ATOM     78  O   UNL A   1      40.585  19.285  25.919  1.00  0.00    -0.744 OA
ENDBRANCH  74  75
ENDBRANCH  53  67
BRANCH  54  79
ATOM     79  C   UNL A   1      46.696  32.780  28.389  1.00  0.00     0.058 A 
ATOM     80  C   UNL A   1      46.696  33.755  27.381  1.00  0.00     0.135 A 
ATOM     81  C   UNL A   1      47.167  33.155  29.657  1.00  0.00     0.135 A 
ATOM     82  F   UNL A   1      46.262  33.445  26.149  1.00  0.00    -0.206 F 
ATOM     83  C   UNL A   1      47.163  35.044  27.612  1.00  0.00     0.059 A 
ATOM     84  C   UNL A   1      47.612  34.447  29.922  1.00  0.00     0.059 A 
ATOM     85  F   UNL A   1      47.174  32.266  30.663  1.00  0.00    -0.206 F 
ATOM     86  C   UNL A   1      47.617  35.382  28.888  1.00  0.00     0.060 A 
BRANCH  86  87
ATOM     87  S   UNL A   1      48.182  37.071  29.186  1.00  0.00     0.124 S 
ATOM     88  O   UNL A   1      48.473  37.527  27.831  1.00  0.00    -0.237 OA
ATOM     89  O   UNL A   1      47.017  37.675  29.826  1.00  0.00    -0.237 OA
ATOM     90  O   UNL A   1      49.342  36.890  30.053  1.00  0.00    -0.744 OA
ENDBRANCH  86  87
ENDBRANCH  54  79
BRANCH  66  91
ATOM     91  C   UNL A   1      49.687  26.997  25.863  1.00  0.00     0.058 A 
ATOM     92  C   UNL A   1      50.019  27.140  24.506  1.00  0.00     0.135 A 
ATOM     93  C   UNL A   1      50.709  26.629  26.752  1.00  0.00     0.135 A 
ATOM     94  F   UNL A   1      49.078  27.482  23.612  1.00  0.00    -0.206 F 
ATOM     95  C   UNL A   1      51.313  26.913  24.048  1.00  0.00     0.059 A 
ATOM     96  C   UNL A   1      52.017  26.427  26.321  1.00  0.00     0.059 A 
ATOM     97  F   UNL A   1      50.448  26.486  28.061  1.00  0.00    -0.206 F 
ATOM     98  C   UNL A   1      52.307  26.563  24.964  1.00  0.00     0.060 A 
BRANCH  98  99
ATOM     99  S   UNL A   1      53.991  26.320  24.362  1.00  0.00     0.124 S 
ATOM    100  O   UNL A   1      54.697  27.421  25.009  1.00  0.00    -0.237 OA
ATOM    101  O   UNL A   1      54.309  24.984  24.857  1.00  0.00    -0.237 OA
ATOM    102  O   UNL A   1      53.853  26.429  22.913  1.00  0.00    -0.744 OA
ENDBRANCH  98  99
ENDBRANCH  66  91
ENDBRANCH  40  41
ENDBRANCH  32  35
ENDBRANCH  30  31
ENDBRANCH  29  30
ENDBRANCH  28  29
ENDBRANCH   1  28
TORSDOF 22
ENDMDL
MODEL 3
REMARK VINA RESULT:     -10.9      6.215     10.857
REMARK SMILES CCC[C@@H](CNC(=O)NCc1c(C)nn(C)c1C)C(=O)NCCCCCCNC(=O)c1ccc(-c2c3nc(c(-c4c(F)cc(S(=O)(=O)[O-])cc4F)c4ccc([nH]4)c(-c4c(F)cc(S(=O)(=O)[O-])cc4F)c4nc(c(-c5c(F)cc(S(=O)(=O)[O-])cc5F)c5ccc2[nH]5)C=C4)C=C3)cc1
REMARK SMILES IDX 24 1 23 2 22 3 21 4 19 5 20 6 4 8 3 9 2 10 1 11 5 12 6 13
REMARK SMILES IDX 7 14 8 16 9 17 10 19 11 20 12 21 17 22 13 23 14 24 15 25
REMARK SMILES IDX 18 26 16 27 25 28 26 29 27 30 28 31 29 32 30 34 31 35 32 36
REMARK SMILES IDX 96 37 33 38 95 39 34 40 35 41 36 42 89 43 37 44 94 45 88 46
REMARK SMILES IDX 90 47 38 48 93 49 87 50 86 51 39 53 73 54 52 55 72 56 53 57
REMARK SMILES IDX 56 58 71 59 91 60 54 61 55 62 70 64 92 65 57 66 40 67 41 68
REMARK SMILES IDX 50 69 42 70 43 71 49 72 51 73 44 74 45 75 46 76 47 77 48 78
REMARK SMILES IDX 74 79 75 80 84 81 76 82 77 83 83 84 85 85 78 86 79 87 80 88
REMARK SMILES IDX 81 89 82 90 58 91 59 92 68 93 60 94 61 95 67 96 69 97 62 98
REMARK SMILES IDX 63 99 64 100 65 101 66 102
REMARK H PARENT 21 7 6 15 9 18 28 33 90 52 56 63
REMARK Flexibility Score: inf
ROOT
ATOM      1  C   UNL A   1      34.755  29.862  27.323  1.00  0.00     0.002 C 
ENDROOT
BRANCH   1   2
ATOM      2  C   UNL A   1      33.389  29.207  27.092  1.00  0.00     0.021 C 
BRANCH   2   3
ATOM      3  C   UNL A   1      32.722  29.624  25.790  1.00  0.00     0.116 C 
BRANCH   3   4
ATOM      4  N   UNL A   1      33.534  29.320  24.629  1.00  0.00    -0.356 N 
ATOM      5  C   UNL A   1      33.514  28.244  23.802  1.00  0.00     0.224 C 
ATOM      6  O   UNL A   1      34.170  28.318  22.756  1.00  0.00    -0.275 OA
ATOM      7  H   UNL A   1      34.208  30.003  24.405  1.00  0.00     0.163 HD
BRANCH   5   8
ATOM      8  C   UNL A   1      32.728  26.973  24.115  1.00  0.00     0.097 C 
BRANCH   8   9
ATOM      9  C   UNL A   1      31.922  26.436  22.913  1.00  0.00     0.015 C 
BRANCH   9  10
ATOM     10  C   UNL A   1      30.817  27.358  22.387  1.00  0.00    -0.003 C 
ATOM     11  C   UNL A   1      29.594  27.434  23.288  1.00  0.00     0.004 C 
ENDBRANCH   9  10
ENDBRANCH   8   9
BRANCH   8  12
ATOM     12  C   UNL A   1      33.499  25.946  24.961  1.00  0.00     0.131 C 
BRANCH  12  13
ATOM     13  N   UNL A   1      32.816  25.335  26.073  1.00  0.00    -0.337 N 
ATOM     14  C   UNL A   1      32.193  24.164  26.247  1.00  0.00     0.315 C 
ATOM     15  H   UNL A   1      32.805  25.902  26.879  1.00  0.00     0.165 HD
ATOM     16  O   UNL A   1      31.581  24.001  27.305  1.00  0.00    -0.249 OA
ATOM     17  N   UNL A   1      32.151  23.181  25.351  1.00  0.00    -0.334 N 
ATOM     18  H   UNL A   1      31.494  22.490  25.596  1.00  0.00     0.165 HD
BRANCH  17  19
ATOM     19  C   UNL A   1      32.825  22.867  24.108  1.00  0.00     0.157 C 
BRANCH  19  20
ATOM     20  C   UNL A   1      33.941  21.912  24.386  1.00  0.00     0.015 A 
ATOM     21  C   UNL A   1      33.881  20.522  24.703  1.00  0.00     0.065 A 
ATOM     22  C   UNL A   1      35.303  22.205  24.409  1.00  0.00     0.040 A 
ATOM     23  C   UNL A   1      32.715  19.610  24.814  1.00  0.00     0.069 C 
ATOM     24  N   UNL A   1      35.095  20.009  24.925  1.00  0.00    -0.178 NA
ATOM     25  N   UNL A   1      35.936  21.035  24.733  1.00  0.00    -0.272 N 
ATOM     26  C   UNL A   1      36.033  23.472  24.148  1.00  0.00     0.067 C 
ATOM     27  C   UNL A   1      37.346  20.797  24.926  1.00  0.00     0.174 C 
ENDBRANCH  19  20
ENDBRANCH  17  19
ENDBRANCH  12  13
ENDBRANCH   8  12
ENDBRANCH   5   8
ENDBRANCH   3   4
ENDBRANCH   2   3
ENDBRANCH   1   2
BRANCH   1  28
ATOM     28  C   UNL A   1      34.746  31.106  28.221  1.00  0.00     0.002 C 
BRANCH  28  29
ATOM     29  C   UNL A   1      34.321  32.409  27.536  1.00  0.00     0.021 C 
BRANCH  29  30
ATOM     30  C   UNL A   1      32.863  32.795  27.750  1.00  0.00     0.116 C 
BRANCH  30  31
ATOM     31  N   UNL A   1      32.696  34.228  27.930  1.00  0.00    -0.352 N 
ATOM     32  C   UNL A   1      33.307  35.067  28.829  1.00  0.00     0.251 C 
ATOM     33  H   UNL A   1      32.054  34.657  27.320  1.00  0.00     0.163 HD
ATOM     34  O   UNL A   1      32.902  36.213  28.972  1.00  0.00    -0.269 OA
BRANCH  32  35
ATOM     35  C   UNL A   1      34.443  34.567  29.633  1.00  0.00     0.039 A 
ATOM     36  C   UNL A   1      34.178  33.874  30.816  1.00  0.00     0.014 A 
ATOM     37  C   UNL A   1      35.760  34.775  29.216  1.00  0.00     0.014 A 
ATOM     38  C   UNL A   1      35.236  33.335  31.549  1.00  0.00     0.010 A 
ATOM     39  C   UNL A   1      36.807  34.173  29.907  1.00  0.00     0.010 A 
ATOM     40  C   UNL A   1      36.556  33.448  31.082  1.00  0.00    -0.014 A 
BRANCH  40  41
ATOM     41  C   UNL A   1      37.685  32.802  31.799  1.00  0.00     0.031 A 
ATOM     42  C   UNL A   1      38.349  31.583  31.221  1.00  0.00     0.074 A 
ATOM     43  C   UNL A   1      38.065  33.276  33.003  1.00  0.00     0.049 A 
ATOM     44  N   UNL A   1      39.296  30.839  31.732  1.00  0.00    -0.248 NA
ATOM     45  C   UNL A   1      37.871  31.126  29.906  1.00  0.00     0.031 C 
ATOM     46  C   UNL A   1      37.465  34.425  33.686  1.00  0.00     0.029 A 
ATOM     47  N   UNL A   1      39.035  32.846  33.871  1.00  0.00    -0.354 N 
ATOM     48  C   UNL A   1      39.519  29.822  30.811  1.00  0.00     0.074 A 
ATOM     49  C   UNL A   1      38.572  30.014  29.733  1.00  0.00     0.031 C 
ATOM     50  C   UNL A   1      38.094  34.621  34.855  1.00  0.00     0.029 A 
ATOM     51  C   UNL A   1      39.109  33.586  35.029  1.00  0.00     0.049 A 
ATOM     52  H   UNL A   1      39.625  32.079  33.685  1.00  0.00     0.167 HD
ATOM     53  C   UNL A   1      40.444  28.834  30.849  1.00  0.00     0.037 A 
ATOM     54  C   UNL A   1      39.893  33.438  36.115  1.00  0.00     0.037 A 
ATOM     55  C   UNL A   1      41.394  28.662  31.919  1.00  0.00     0.049 A 
ATOM     56  C   UNL A   1      40.897  32.317  36.145  1.00  0.00     0.074 A 
ATOM     57  C   UNL A   1      42.407  27.727  32.025  1.00  0.00     0.029 A 
ATOM     58  N   UNL A   1      41.443  29.437  33.070  1.00  0.00    -0.354 N 
ATOM     59  N   UNL A   1      41.141  31.406  35.233  1.00  0.00    -0.248 NA
ATOM     60  C   UNL A   1      41.734  32.204  37.347  1.00  0.00     0.031 C 
ATOM     61  C   UNL A   1      43.032  27.899  33.264  1.00  0.00     0.029 A 
ATOM     62  C   UNL A   1      42.449  28.982  33.904  1.00  0.00     0.049 A 
ATOM     63  H   UNL A   1      40.848  30.198  33.263  1.00  0.00     0.167 HD
ATOM     64  C   UNL A   1      42.177  30.629  35.739  1.00  0.00     0.074 A 
ATOM     65  C   UNL A   1      42.523  31.186  37.031  1.00  0.00     0.031 C 
ATOM     66  C   UNL A   1      42.787  29.552  35.186  1.00  0.00     0.037 A 
BRANCH  53  67
ATOM     67  C   UNL A   1      40.477  27.859  29.703  1.00  0.00     0.058 A 
ATOM     68  C   UNL A   1      41.442  27.946  28.686  1.00  0.00     0.135 A 
ATOM     69  C   UNL A   1      39.562  26.795  29.643  1.00  0.00     0.135 A 
ATOM     70  F   UNL A   1      42.333  28.951  28.683  1.00  0.00    -0.206 F 
ATOM     71  C   UNL A   1      41.480  27.032  27.637  1.00  0.00     0.059 A 
ATOM     72  C   UNL A   1      39.601  25.851  28.621  1.00  0.00     0.059 A 
ATOM     73  F   UNL A   1      38.617  26.662  30.588  1.00  0.00    -0.206 F 
ATOM     74  C   UNL A   1      40.556  25.987  27.614  1.00  0.00     0.060 A 
BRANCH  74  75
ATOM     75  S   UNL A   1      40.628  24.804  26.253  1.00  0.00     0.124 S 
ATOM     76  O   UNL A   1      41.257  25.604  25.206  1.00  0.00    -0.237 OA
ATOM     77  O   UNL A   1      41.450  23.736  26.812  1.00  0.00    -0.237 OA
ATOM     78  O   UNL A   1      39.229  24.461  26.023  1.00  0.00    -0.744 OA
ENDBRANCH  74  75
ENDBRANCH  53  67
BRANCH  54  79
ATOM     79  C   UNL A   1      39.767  34.382  37.259  1.00  0.00     0.058 A 
ATOM     80  C   UNL A   1      38.952  34.081  38.360  1.00  0.00     0.135 A 
ATOM     81  C   UNL A   1      40.464  35.600  37.280  1.00  0.00     0.135 A 
ATOM     82  F   UNL A   1      38.259  32.931  38.386  1.00  0.00    -0.206 F 
ATOM     83  C   UNL A   1      38.816  34.958  39.431  1.00  0.00     0.059 A 
ATOM     84  C   UNL A   1      40.369  36.482  38.352  1.00  0.00     0.059 A 
ATOM     85  F   UNL A   1      41.271  35.933  36.259  1.00  0.00    -0.206 F 
ATOM     86  C   UNL A   1      39.532  36.157  39.419  1.00  0.00     0.060 A 
BRANCH  86  87
ATOM     87  S   UNL A   1      39.379  37.269  40.833  1.00  0.00     0.124 S 
ATOM     88  O   UNL A   1      38.805  36.385  41.841  1.00  0.00    -0.237 OA
ATOM     89  O   UNL A   1      40.764  37.674  41.054  1.00  0.00    -0.237 OA
ATOM     90  O   UNL A   1      38.496  38.321  40.340  1.00  0.00    -0.744 OA
ENDBRANCH  86  87
ENDBRANCH  54  79
BRANCH  66  91
ATOM     91  C   UNL A   1      43.915  28.917  35.954  1.00  0.00     0.058 A 
ATOM     92  C   UNL A   1      43.711  27.798  36.777  1.00  0.00     0.135 A 
ATOM     93  C   UNL A   1      45.227  29.397  35.813  1.00  0.00     0.135 A 
ATOM     94  F   UNL A   1      42.476  27.304  36.952  1.00  0.00    -0.206 F 
ATOM     95  C   UNL A   1      44.767  27.187  37.444  1.00  0.00     0.059 A 
ATOM     96  C   UNL A   1      46.302  28.783  36.448  1.00  0.00     0.059 A 
ATOM     97  F   UNL A   1      45.479  30.460  35.033  1.00  0.00    -0.206 F 
ATOM     98  C   UNL A   1      46.061  27.683  37.269  1.00  0.00     0.060 A 
BRANCH  98  99
ATOM     99  S   UNL A   1      47.427  26.848  38.103  1.00  0.00     0.124 S 
ATOM    100  O   UNL A   1      47.502  25.594  37.362  1.00  0.00    -0.237 OA
ATOM    101  O   UNL A   1      48.533  27.776  37.892  1.00  0.00    -0.237 OA
ATOM    102  O   UNL A   1      46.965  26.735  39.483  1.00  0.00    -0.744 OA
ENDBRANCH  98  99
ENDBRANCH  66  91
ENDBRANCH  40  41
ENDBRANCH  32  35
ENDBRANCH  30  31
ENDBRANCH  29  30
ENDBRANCH  28  29
ENDBRANCH   1  28
TORSDOF 22
ENDMDL
