MODEL 1
REMARK VINA RESULT:     -10.0      0.000      0.000
REMARK SMILES C#CC[NH2+]CC(=O)N1CC[C@](CCC)(C(=O)NCCCCCCNC(=O)c2ccc(-c3c4nc(c(-c5c(F)cc(S(=O)(=O)[O-])cc5F)c5ccc([nH]5)c(-c5c(F)cc(S(=O)(=O)[O-])cc5F)c5nc(c(-c6c(F)cc(S(=O)(=O)[O-])cc6F)c6ccc3[nH]6)C=C5)C=C4)cc2)C1
REMARK SMILES IDX 19 1 18 2 17 3 15 4 16 5 11 7 8 8 9 9 93 10 10 11 6 12 7 13
REMARK SMILES IDX 5 14 4 15 3 18 2 19 1 20 12 21 13 22 14 23 20 24 21 25 22 26
REMARK SMILES IDX 23 27 24 28 25 29 26 31 27 32 28 33 92 34 29 35 91 36 30 37
REMARK SMILES IDX 31 38 32 39 85 40 33 41 90 42 84 43 86 44 34 45 89 46 83 47
REMARK SMILES IDX 82 48 35 50 69 51 48 52 68 53 49 54 52 55 67 56 87 57 50 58
REMARK SMILES IDX 51 59 66 61 88 62 53 63 36 64 37 65 46 66 38 67 39 68 45 69
REMARK SMILES IDX 47 70 40 71 41 72 42 73 43 74 44 75 70 76 71 77 80 78 72 79
REMARK SMILES IDX 73 80 79 81 81 82 74 83 75 84 76 85 77 86 78 87 54 88 55 89
REMARK SMILES IDX 64 90 56 91 57 92 63 93 65 94 58 95 59 96 60 97 61 98 62 99
REMARK H PARENT 17 6 4 16 4 17 24 30 86 49 52 60
REMARK Flexibility Score: inf
ROOT
ATOM      1  C   UNL A   1      38.423  22.756  26.000  1.00  0.00     0.021 C 
ENDROOT
BRANCH   1   2
ATOM      2  C   UNL A   1      36.926  22.692  25.804  1.00  0.00     0.116 C 
BRANCH   2   3
ATOM      3  N   UNL A   1      36.459  21.345  25.510  1.00  0.00    -0.356 N 
ATOM      4  C   UNL A   1      35.243  20.901  25.066  1.00  0.00     0.228 C 
ATOM      5  O   UNL A   1      35.090  19.690  24.911  1.00  0.00    -0.274 OA
ATOM      6  H   UNL A   1      37.127  20.637  25.655  1.00  0.00     0.163 HD
BRANCH   4   7
ATOM      7  C   UNL A   1      34.136  21.908  24.760  1.00  0.00     0.068 C 
ATOM      8  N   UNL A   1      32.237  22.663  26.057  1.00  0.00    -0.337 N 
ATOM      9  C   UNL A   1      31.795  21.948  24.884  1.00  0.00     0.121 C 
ATOM     10  C   UNL A   1      33.699  22.652  26.057  1.00  0.00     0.136 C 
ATOM     11  C   UNL A   1      32.898  21.066  24.474  1.00  0.00     0.040 C 
BRANCH   8  12
ATOM     12  C   UNL A   1      31.510  23.629  26.758  1.00  0.00     0.277 C 
ATOM     13  O   UNL A   1      30.469  23.333  27.352  1.00  0.00    -0.268 OA
BRANCH  12  14
ATOM     14  C   UNL A   1      31.911  25.138  26.622  1.00  0.00     0.362 C 
BRANCH  14  15
ATOM     15  N   UNL A   1      30.834  26.154  26.794  1.00  0.00    -0.328 N 
ATOM     16  H   UNL A   1      30.053  25.951  26.172  1.00  0.00     0.347 HD
ATOM     17  H   UNL A   1      30.469  26.156  27.747  1.00  0.00     0.347 HD
BRANCH  15  18
ATOM     18  C   UNL A   1      31.429  27.420  26.455  1.00  0.00     0.352 C 
BRANCH  18  19
ATOM     19  C   UNL A   1      32.534  27.509  25.414  1.00  0.00    -0.047 C 
ATOM     20  C   UNL A   1      33.481  27.585  24.522  1.00  0.00     0.010 C 
ENDBRANCH  18  19
ENDBRANCH  15  18
ENDBRANCH  14  15
ENDBRANCH  12  14
ENDBRANCH   8  12
BRANCH   7  21
ATOM     21  C   UNL A   1      34.525  22.808  23.553  1.00  0.00     0.018 C 
BRANCH  21  22
ATOM     22  C   UNL A   1      33.733  24.086  23.240  1.00  0.00    -0.002 C 
ATOM     23  C   UNL A   1      33.117  24.110  21.850  1.00  0.00     0.004 C 
ENDBRANCH  21  22
ENDBRANCH   7  21
ENDBRANCH   4   7
ENDBRANCH   2   3
ENDBRANCH   1   2
BRANCH   1  24
ATOM     24  C   UNL A   1      39.095  21.392  25.931  1.00  0.00     0.002 C 
BRANCH  24  25
ATOM     25  C   UNL A   1      40.488  21.337  26.565  1.00  0.00     0.002 C 
BRANCH  25  26
ATOM     26  C   UNL A   1      40.715  22.311  27.724  1.00  0.00     0.021 C 
BRANCH  26  27
ATOM     27  C   UNL A   1      42.046  23.053  27.682  1.00  0.00     0.116 C 
BRANCH  27  28
ATOM     28  N   UNL A   1      42.241  23.750  26.424  1.00  0.00    -0.352 N 
ATOM     29  C   UNL A   1      42.058  25.075  26.127  1.00  0.00     0.251 C 
ATOM     30  H   UNL A   1      42.550  23.189  25.676  1.00  0.00     0.163 HD
ATOM     31  O   UNL A   1      42.095  25.452  24.963  1.00  0.00    -0.269 OA
BRANCH  29  32
ATOM     32  C   UNL A   1      41.796  26.034  27.219  1.00  0.00     0.039 A 
ATOM     33  C   UNL A   1      40.645  25.868  27.992  1.00  0.00     0.014 A 
ATOM     34  C   UNL A   1      42.677  27.088  27.478  1.00  0.00     0.014 A 
ATOM     35  C   UNL A   1      40.399  26.738  29.053  1.00  0.00     0.010 A 
ATOM     36  C   UNL A   1      42.469  27.906  28.585  1.00  0.00     0.010 A 
ATOM     37  C   UNL A   1      41.323  27.748  29.375  1.00  0.00    -0.014 A 
BRANCH  37  38
ATOM     38  C   UNL A   1      41.091  28.647  30.532  1.00  0.00     0.031 A 
ATOM     39  C   UNL A   1      41.933  28.518  31.773  1.00  0.00     0.074 A 
ATOM     40  C   UNL A   1      40.094  29.552  30.479  1.00  0.00     0.049 A 
ATOM     41  N   UNL A   1      41.862  29.191  32.891  1.00  0.00    -0.248 NA
ATOM     42  C   UNL A   1      42.975  27.478  31.764  1.00  0.00     0.031 C 
ATOM     43  C   UNL A   1      39.177  29.735  29.350  1.00  0.00     0.029 A 
ATOM     44  N   UNL A   1      39.679  30.485  31.395  1.00  0.00    -0.354 N 
ATOM     45  C   UNL A   1      42.839  28.653  33.720  1.00  0.00     0.074 A 
ATOM     46  C   UNL A   1      43.449  27.558  33.000  1.00  0.00     0.031 C 
ATOM     47  C   UNL A   1      38.330  30.738  29.629  1.00  0.00     0.029 A 
ATOM     48  C   UNL A   1      38.615  31.243  30.969  1.00  0.00     0.049 A 
ATOM     49  H   UNL A   1      40.105  30.601  32.276  1.00  0.00     0.167 HD
ATOM     50  C   UNL A   1      43.211  29.054  34.960  1.00  0.00     0.037 A 
ATOM     51  C   UNL A   1      37.940  32.230  31.589  1.00  0.00     0.037 A 
ATOM     52  C   UNL A   1      42.612  30.159  35.662  1.00  0.00     0.049 A 
ATOM     53  C   UNL A   1      38.373  32.656  32.966  1.00  0.00     0.074 A 
ATOM     54  C   UNL A   1      42.952  30.679  36.898  1.00  0.00     0.029 A 
ATOM     55  N   UNL A   1      41.545  30.912  35.192  1.00  0.00    -0.354 N 
ATOM     56  N   UNL A   1      39.344  32.179  33.710  1.00  0.00    -0.248 NA
ATOM     57  C   UNL A   1      37.626  33.759  33.584  1.00  0.00     0.031 C 
ATOM     58  C   UNL A   1      42.059  31.713  37.198  1.00  0.00     0.029 A 
ATOM     59  C   UNL A   1      41.200  31.878  36.124  1.00  0.00     0.049 A 
ATOM     60  H   UNL A   1      41.099  30.780  34.325  1.00  0.00     0.167 HD
ATOM     61  C   UNL A   1      39.343  32.945  34.871  1.00  0.00     0.074 A 
ATOM     62  C   UNL A   1      38.285  33.924  34.723  1.00  0.00     0.031 C 
ATOM     63  C   UNL A   1      40.144  32.848  35.960  1.00  0.00     0.037 A 
BRANCH  50  64
ATOM     64  C   UNL A   1      44.321  28.292  35.637  1.00  0.00     0.058 A 
ATOM     65  C   UNL A   1      45.669  28.658  35.482  1.00  0.00     0.135 A 
ATOM     66  C   UNL A   1      44.032  27.206  36.478  1.00  0.00     0.135 A 
ATOM     67  F   UNL A   1      46.006  29.678  34.677  1.00  0.00    -0.206 F 
ATOM     68  C   UNL A   1      46.690  27.954  36.114  1.00  0.00     0.059 A 
ATOM     69  C   UNL A   1      45.035  26.508  37.145  1.00  0.00     0.059 A 
ATOM     70  F   UNL A   1      42.761  26.813  36.661  1.00  0.00    -0.206 F 
ATOM     71  C   UNL A   1      46.363  26.882  36.943  1.00  0.00     0.060 A 
BRANCH  71  72
ATOM     72  S   UNL A   1      47.701  25.986  37.760  1.00  0.00     0.124 S 
ATOM     73  O   UNL A   1      48.037  24.985  36.752  1.00  0.00    -0.237 OA
ATOM     74  O   UNL A   1      48.696  27.033  37.969  1.00  0.00    -0.237 OA
ATOM     75  O   UNL A   1      47.074  25.468  38.972  1.00  0.00    -0.744 OA
ENDBRANCH  71  72
ENDBRANCH  50  64
BRANCH  51  76
ATOM     76  C   UNL A   1      36.802  32.898  30.903  1.00  0.00     0.058 A 
ATOM     77  C   UNL A   1      35.475  32.613  31.255  1.00  0.00     0.135 A 
ATOM     78  C   UNL A   1      37.019  33.845  29.889  1.00  0.00     0.135 A 
ATOM     79  F   UNL A   1      35.215  31.713  32.216  1.00  0.00    -0.206 F 
ATOM     80  C   UNL A   1      34.402  33.226  30.615  1.00  0.00     0.059 A 
ATOM     81  C   UNL A   1      35.964  34.492  29.254  1.00  0.00     0.059 A 
ATOM     82  F   UNL A   1      38.270  34.169  29.527  1.00  0.00    -0.206 F 
ATOM     83  C   UNL A   1      34.658  34.166  29.617  1.00  0.00     0.060 A 
BRANCH  83  84
ATOM     84  S   UNL A   1      33.260  34.989  28.824  1.00  0.00     0.124 S 
ATOM     85  O   UNL A   1      32.443  35.356  29.974  1.00  0.00    -0.237 OA
ATOM     86  O   UNL A   1      33.912  36.092  28.125  1.00  0.00    -0.237 OA
ATOM     87  O   UNL A   1      32.705  33.951  27.960  1.00  0.00    -0.744 OA
ENDBRANCH  83  84
ENDBRANCH  51  76
BRANCH  63  88
ATOM     88  C   UNL A   1      39.935  33.850  37.064  1.00  0.00     0.058 A 
ATOM     89  C   UNL A   1      40.458  35.150  36.993  1.00  0.00     0.135 A 
ATOM     90  C   UNL A   1      39.171  33.511  38.194  1.00  0.00     0.135 A 
ATOM     91  F   UNL A   1      41.200  35.525  35.938  1.00  0.00    -0.206 F 
ATOM     92  C   UNL A   1      40.262  36.069  38.019  1.00  0.00     0.059 A 
ATOM     93  C   UNL A   1      38.934  34.424  39.215  1.00  0.00     0.059 A 
ATOM     94  F   UNL A   1      38.636  32.285  38.306  1.00  0.00    -0.206 F 
ATOM     95  C   UNL A   1      39.498  35.696  39.127  1.00  0.00     0.060 A 
BRANCH  95  96
ATOM     96  S   UNL A   1      39.238  36.902  40.445  1.00  0.00     0.124 S 
ATOM     97  O   UNL A   1      40.598  37.100  40.934  1.00  0.00    -0.237 OA
ATOM     98  O   UNL A   1      38.653  38.029  39.725  1.00  0.00    -0.237 OA
ATOM     99  O   UNL A   1      38.334  36.215  41.362  1.00  0.00    -0.744 OA
ENDBRANCH  95  96
ENDBRANCH  63  88
ENDBRANCH  37  38
ENDBRANCH  29  32
ENDBRANCH  27  28
ENDBRANCH  26  27
ENDBRANCH  25  26
ENDBRANCH  24  25
ENDBRANCH   1  24
TORSDOF 23
ENDMDL
MODEL 2
REMARK VINA RESULT:      -9.7      1.432      3.059
REMARK SMILES C#CC[NH2+]CC(=O)N1CC[C@](CCC)(C(=O)NCCCCCCNC(=O)c2ccc(-c3c4nc(c(-c5c(F)cc(S(=O)(=O)[O-])cc5F)c5ccc([nH]5)c(-c5c(F)cc(S(=O)(=O)[O-])cc5F)c5nc(c(-c6c(F)cc(S(=O)(=O)[O-])cc6F)c6ccc3[nH]6)C=C5)C=C4)cc2)C1
REMARK SMILES IDX 19 1 18 2 17 3 15 4 16 5 11 7 8 8 9 9 93 10 10 11 6 12 7 13
REMARK SMILES IDX 5 14 4 15 3 18 2 19 1 20 12 21 13 22 14 23 20 24 21 25 22 26
REMARK SMILES IDX 23 27 24 28 25 29 26 31 27 32 28 33 92 34 29 35 91 36 30 37
REMARK SMILES IDX 31 38 32 39 85 40 33 41 90 42 84 43 86 44 34 45 89 46 83 47
REMARK SMILES IDX 82 48 35 50 69 51 48 52 68 53 49 54 52 55 67 56 87 57 50 58
REMARK SMILES IDX 51 59 66 61 88 62 53 63 36 64 37 65 46 66 38 67 39 68 45 69
REMARK SMILES IDX 47 70 40 71 41 72 42 73 43 74 44 75 70 76 71 77 80 78 72 79
REMARK SMILES IDX 73 80 79 81 81 82 74 83 75 84 76 85 77 86 78 87 54 88 55 89
REMARK SMILES IDX 64 90 56 91 57 92 63 93 65 94 58 95 59 96 60 97 61 98 62 99
REMARK H PARENT 17 6 4 16 4 17 24 30 86 49 52 60
REMARK Flexibility Score: inf
ROOT
ATOM      1  C   UNL A   1      37.791  22.168  25.512  1.00  0.00     0.021 C 
ENDROOT
BRANCH   1   2
ATOM      2  C   UNL A   1      36.360  21.685  25.572  1.00  0.00     0.116 C 
BRANCH   2   3
ATOM      3  N   UNL A   1      35.677  22.117  26.783  1.00  0.00    -0.356 N 
ATOM      4  C   UNL A   1      34.408  22.596  26.968  1.00  0.00     0.228 C 
ATOM      5  O   UNL A   1      34.070  22.916  28.107  1.00  0.00    -0.274 OA
ATOM      6  H   UNL A   1      36.217  22.055  27.604  1.00  0.00     0.163 HD
BRANCH   4   7
ATOM      7  C   UNL A   1      33.458  22.696  25.777  1.00  0.00     0.068 C 
ATOM      8  N   UNL A   1      33.135  21.273  23.845  1.00  0.00    -0.337 N 
ATOM      9  C   UNL A   1      33.639  22.563  23.443  1.00  0.00     0.121 C 
ATOM     10  C   UNL A   1      33.022  21.276  25.303  1.00  0.00     0.136 C 
ATOM     11  C   UNL A   1      34.327  23.141  24.607  1.00  0.00     0.040 C 
BRANCH   8  12
ATOM     12  C   UNL A   1      32.389  20.393  23.054  1.00  0.00     0.277 C 
ATOM     13  O   UNL A   1      31.809  20.790  22.039  1.00  0.00    -0.268 OA
BRANCH  12  14
ATOM     14  C   UNL A   1      32.123  18.937  23.569  1.00  0.00     0.362 C 
BRANCH  14  15
ATOM     15  N   UNL A   1      32.461  17.811  22.653  1.00  0.00    -0.328 N 
ATOM     16  H   UNL A   1      31.649  17.213  22.512  1.00  0.00     0.347 HD
ATOM     17  H   UNL A   1      32.751  18.148  21.735  1.00  0.00     0.347 HD
BRANCH  15  18
ATOM     18  C   UNL A   1      33.516  17.079  23.304  1.00  0.00     0.352 C 
BRANCH  18  19
ATOM     19  C   UNL A   1      33.209  16.095  24.422  1.00  0.00    -0.047 C 
ATOM     20  C   UNL A   1      32.945  15.253  25.380  1.00  0.00     0.010 C 
ENDBRANCH  18  19
ENDBRANCH  15  18
ENDBRANCH  14  15
ENDBRANCH  12  14
ENDBRANCH   8  12
BRANCH   7  21
ATOM     21  C   UNL A   1      32.308  23.701  26.069  1.00  0.00     0.018 C 
BRANCH  21  22
ATOM     22  C   UNL A   1      30.920  23.511  25.440  1.00  0.00    -0.002 C 
ATOM     23  C   UNL A   1      30.655  24.403  24.237  1.00  0.00     0.004 C 
ENDBRANCH  21  22
ENDBRANCH   7  21
ENDBRANCH   4   7
ENDBRANCH   2   3
ENDBRANCH   1   2
BRANCH   1  24
ATOM     24  C   UNL A   1      38.806  21.034  25.490  1.00  0.00     0.002 C 
BRANCH  24  25
ATOM     25  C   UNL A   1      40.028  21.258  26.386  1.00  0.00     0.002 C 
BRANCH  25  26
ATOM     26  C   UNL A   1      40.005  22.548  27.209  1.00  0.00     0.021 C 
BRANCH  26  27
ATOM     27  C   UNL A   1      41.371  23.186  27.432  1.00  0.00     0.116 C 
BRANCH  27  28
ATOM     28  N   UNL A   1      41.842  23.890  26.253  1.00  0.00    -0.352 N 
ATOM     29  C   UNL A   1      41.903  25.237  26.012  1.00  0.00     0.251 C 
ATOM     30  H   UNL A   1      42.164  23.315  25.521  1.00  0.00     0.163 HD
ATOM     31  O   UNL A   1      42.158  25.646  24.886  1.00  0.00    -0.269 OA
BRANCH  29  32
ATOM     32  C   UNL A   1      41.638  26.184  27.113  1.00  0.00     0.039 A 
ATOM     33  C   UNL A   1      40.526  25.966  27.928  1.00  0.00     0.014 A 
ATOM     34  C   UNL A   1      42.478  27.279  27.339  1.00  0.00     0.014 A 
ATOM     35  C   UNL A   1      40.280  26.826  28.998  1.00  0.00     0.010 A 
ATOM     36  C   UNL A   1      42.275  28.088  28.453  1.00  0.00     0.010 A 
ATOM     37  C   UNL A   1      41.167  27.877  29.286  1.00  0.00    -0.014 A 
BRANCH  37  38
ATOM     38  C   UNL A   1      40.938  28.767  30.450  1.00  0.00     0.031 A 
ATOM     39  C   UNL A   1      41.770  28.614  31.696  1.00  0.00     0.074 A 
ATOM     40  C   UNL A   1      39.952  29.684  30.400  1.00  0.00     0.049 A 
ATOM     41  N   UNL A   1      41.698  29.276  32.821  1.00  0.00    -0.248 NA
ATOM     42  C   UNL A   1      42.799  27.562  31.684  1.00  0.00     0.031 C 
ATOM     43  C   UNL A   1      39.046  29.890  29.267  1.00  0.00     0.029 A 
ATOM     44  N   UNL A   1      39.541  30.612  31.324  1.00  0.00    -0.354 N 
ATOM     45  C   UNL A   1      42.663  28.718  33.652  1.00  0.00     0.074 A 
ATOM     46  C   UNL A   1      43.265  27.623  32.924  1.00  0.00     0.031 C 
ATOM     47  C   UNL A   1      38.208  30.900  29.551  1.00  0.00     0.029 A 
ATOM     48  C   UNL A   1      38.489  31.387  30.899  1.00  0.00     0.049 A 
ATOM     49  H   UNL A   1      39.962  30.713  32.209  1.00  0.00     0.167 HD
ATOM     50  C   UNL A   1      43.031  29.100  34.898  1.00  0.00     0.037 A 
ATOM     51  C   UNL A   1      37.821  32.375  31.525  1.00  0.00     0.037 A 
ATOM     52  C   UNL A   1      42.439  30.204  35.608  1.00  0.00     0.049 A 
ATOM     53  C   UNL A   1      38.249  32.781  32.910  1.00  0.00     0.074 A 
ATOM     54  C   UNL A   1      42.776  30.707  36.852  1.00  0.00     0.029 A 
ATOM     55  N   UNL A   1      41.384  30.976  35.139  1.00  0.00    -0.354 N 
ATOM     56  N   UNL A   1      39.209  32.285  33.655  1.00  0.00    -0.248 NA
ATOM     57  C   UNL A   1      37.511  33.886  33.534  1.00  0.00     0.031 C 
ATOM     58  C   UNL A   1      41.894  31.748  37.157  1.00  0.00     0.029 A 
ATOM     59  C   UNL A   1      41.044  31.935  36.079  1.00  0.00     0.049 A 
ATOM     60  H   UNL A   1      40.943  30.858  34.267  1.00  0.00     0.167 HD
ATOM     61  C   UNL A   1      39.209  33.037  34.825  1.00  0.00     0.074 A 
ATOM     62  C   UNL A   1      38.163  34.031  34.679  1.00  0.00     0.031 C 
ATOM     63  C   UNL A   1      40.001  32.919  35.918  1.00  0.00     0.037 A 
BRANCH  50  64
ATOM     64  C   UNL A   1      44.126  28.319  35.574  1.00  0.00     0.058 A 
ATOM     65  C   UNL A   1      43.846  27.223  36.409  1.00  0.00     0.135 A 
ATOM     66  C   UNL A   1      45.475  28.645  35.358  1.00  0.00     0.135 A 
ATOM     67  F   UNL A   1      42.575  26.874  36.665  1.00  0.00    -0.206 F 
ATOM     68  C   UNL A   1      44.862  26.500  37.026  1.00  0.00     0.059 A 
ATOM     69  C   UNL A   1      46.508  27.916  35.940  1.00  0.00     0.059 A 
ATOM     70  F   UNL A   1      45.801  29.684  34.571  1.00  0.00    -0.206 F 
ATOM     71  C   UNL A   1      46.189  26.855  36.786  1.00  0.00     0.060 A 
BRANCH  71  72
ATOM     72  S   UNL A   1      47.494  25.901  37.591  1.00  0.00     0.124 S 
ATOM     73  O   UNL A   1      48.691  26.496  37.006  1.00  0.00    -0.237 OA
ATOM     74  O   UNL A   1      47.267  26.192  39.003  1.00  0.00    -0.237 OA
ATOM     75  O   UNL A   1      47.213  24.528  37.183  1.00  0.00    -0.744 OA
ENDBRANCH  71  72
ENDBRANCH  50  64
BRANCH  51  76
ATOM     76  C   UNL A   1      36.696  33.064  30.838  1.00  0.00     0.058 A 
ATOM     77  C   UNL A   1      35.364  32.794  31.181  1.00  0.00     0.135 A 
ATOM     78  C   UNL A   1      36.931  34.016  29.833  1.00  0.00     0.135 A 
ATOM     79  F   UNL A   1      35.086  31.890  32.133  1.00  0.00    -0.206 F 
ATOM     80  C   UNL A   1      34.302  33.426  30.540  1.00  0.00     0.059 A 
ATOM     81  C   UNL A   1      35.889  34.681  29.197  1.00  0.00     0.059 A 
ATOM     82  F   UNL A   1      38.189  34.325  29.480  1.00  0.00    -0.206 F 
ATOM     83  C   UNL A   1      34.576  34.371  29.551  1.00  0.00     0.060 A 
BRANCH  83  84
ATOM     84  S   UNL A   1      33.194  35.219  28.756  1.00  0.00     0.124 S 
ATOM     85  O   UNL A   1      32.448  35.709  29.909  1.00  0.00    -0.237 OA
ATOM     86  O   UNL A   1      33.877  36.233  27.958  1.00  0.00    -0.237 OA
ATOM     87  O   UNL A   1      32.546  34.159  27.989  1.00  0.00    -0.744 OA
ENDBRANCH  83  84
ENDBRANCH  51  76
BRANCH  63  88
ATOM     88  C   UNL A   1      39.796  33.911  37.031  1.00  0.00     0.058 A 
ATOM     89  C   UNL A   1      38.999  33.617  38.148  1.00  0.00     0.135 A 
ATOM     90  C   UNL A   1      40.434  35.162  36.992  1.00  0.00     0.135 A 
ATOM     91  F   UNL A   1      38.362  32.439  38.234  1.00  0.00    -0.206 F 
ATOM     92  C   UNL A   1      38.812  34.542  39.171  1.00  0.00     0.059 A 
ATOM     93  C   UNL A   1      40.289  36.089  38.019  1.00  0.00     0.059 A 
ATOM     94  F   UNL A   1      41.218  35.490  35.953  1.00  0.00    -0.206 F 
ATOM     95  C   UNL A   1      39.462  35.776  39.097  1.00  0.00     0.060 A 
BRANCH  95  96
ATOM     96  S   UNL A   1      39.224  36.961  40.438  1.00  0.00     0.124 S 
ATOM     97  O   UNL A   1      38.472  36.166  41.403  1.00  0.00    -0.237 OA
ATOM     98  O   UNL A   1      40.596  37.285  40.815  1.00  0.00    -0.237 OA
ATOM     99  O   UNL A   1      38.482  38.047  39.804  1.00  0.00    -0.744 OA
ENDBRANCH  95  96
ENDBRANCH  63  88
ENDBRANCH  37  38
ENDBRANCH  29  32
ENDBRANCH  27  28
ENDBRANCH  26  27
ENDBRANCH  25  26
ENDBRANCH  24  25
ENDBRANCH   1  24
TORSDOF 23
ENDMDL
MODEL 3
REMARK VINA RESULT:      -9.6      1.417      2.168
REMARK SMILES C#CC[NH2+]CC(=O)N1CC[C@](CCC)(C(=O)NCCCCCCNC(=O)c2ccc(-c3c4nc(c(-c5c(F)cc(S(=O)(=O)[O-])cc5F)c5ccc([nH]5)c(-c5c(F)cc(S(=O)(=O)[O-])cc5F)c5nc(c(-c6c(F)cc(S(=O)(=O)[O-])cc6F)c6ccc3[nH]6)C=C5)C=C4)cc2)C1
REMARK SMILES IDX 19 1 18 2 17 3 15 4 16 5 11 7 8 8 9 9 93 10 10 11 6 12 7 13
REMARK SMILES IDX 5 14 4 15 3 18 2 19 1 20 12 21 13 22 14 23 20 24 21 25 22 26
REMARK SMILES IDX 23 27 24 28 25 29 26 31 27 32 28 33 92 34 29 35 91 36 30 37
REMARK SMILES IDX 31 38 32 39 85 40 33 41 90 42 84 43 86 44 34 45 89 46 83 47
REMARK SMILES IDX 82 48 35 50 69 51 48 52 68 53 49 54 52 55 67 56 87 57 50 58
REMARK SMILES IDX 51 59 66 61 88 62 53 63 36 64 37 65 46 66 38 67 39 68 45 69
REMARK SMILES IDX 47 70 40 71 41 72 42 73 43 74 44 75 70 76 71 77 80 78 72 79
REMARK SMILES IDX 73 80 79 81 81 82 74 83 75 84 76 85 77 86 78 87 54 88 55 89
REMARK SMILES IDX 64 90 56 91 57 92 63 93 65 94 58 95 59 96 60 97 61 98 62 99
REMARK H PARENT 17 6 4 16 4 17 24 30 86 49 52 60
REMARK Flexibility Score: inf
ROOT
ATOM      1  C   UNL A   1      37.441  20.813  25.004  1.00  0.00     0.021 C 
ENDROOT
BRANCH   1   2
ATOM      2  C   UNL A   1      36.091  21.449  24.764  1.00  0.00     0.116 C 
BRANCH   2   3
ATOM      3  N   UNL A   1      35.183  21.270  25.887  1.00  0.00    -0.356 N 
ATOM      4  C   UNL A   1      33.828  21.440  25.973  1.00  0.00     0.228 C 
ATOM      5  O   UNL A   1      33.286  21.241  27.060  1.00  0.00    -0.274 OA
ATOM      6  H   UNL A   1      35.615  20.980  26.723  1.00  0.00     0.163 HD
BRANCH   4   7
ATOM      7  C   UNL A   1      33.037  21.845  24.731  1.00  0.00     0.068 C 
ATOM      8  N   UNL A   1      32.561  24.008  23.753  1.00  0.00    -0.337 N 
ATOM      9  C   UNL A   1      31.346  23.387  24.221  1.00  0.00     0.121 C 
ATOM     10  C   UNL A   1      33.668  23.105  24.066  1.00  0.00     0.136 C 
ATOM     11  C   UNL A   1      31.727  22.418  25.259  1.00  0.00     0.040 C 
BRANCH   8  12
ATOM     12  C   UNL A   1      32.662  24.970  22.745  1.00  0.00     0.277 C 
ATOM     13  O   UNL A   1      33.272  24.731  21.698  1.00  0.00    -0.268 OA
BRANCH  12  14
ATOM     14  C   UNL A   1      32.170  26.432  23.027  1.00  0.00     0.362 C 
BRANCH  14  15
ATOM     15  N   UNL A   1      30.904  26.869  22.374  1.00  0.00    -0.328 N 
ATOM     16  H   UNL A   1      31.033  26.947  21.366  1.00  0.00     0.347 HD
ATOM     17  H   UNL A   1      30.150  26.200  22.531  1.00  0.00     0.347 HD
BRANCH  15  18
ATOM     18  C   UNL A   1      30.594  28.156  22.941  1.00  0.00     0.352 C 
BRANCH  18  19
ATOM     19  C   UNL A   1      29.274  28.846  22.634  1.00  0.00    -0.047 C 
ATOM     20  C   UNL A   1      28.143  29.437  22.372  1.00  0.00     0.010 C 
ENDBRANCH  18  19
ENDBRANCH  15  18
ENDBRANCH  14  15
ENDBRANCH  12  14
ENDBRANCH   8  12
BRANCH   7  21
ATOM     21  C   UNL A   1      32.809  20.622  23.797  1.00  0.00     0.018 C 
BRANCH  21  22
ATOM     22  C   UNL A   1      32.590  19.219  24.381  1.00  0.00    -0.002 C 
ATOM     23  C   UNL A   1      33.794  18.299  24.255  1.00  0.00     0.004 C 
ENDBRANCH  21  22
ENDBRANCH   7  21
ENDBRANCH   4   7
ENDBRANCH   2   3
ENDBRANCH   1   2
BRANCH   1  24
ATOM     24  C   UNL A   1      38.432  21.746  25.684  1.00  0.00     0.002 C 
BRANCH  24  25
ATOM     25  C   UNL A   1      37.951  23.193  25.822  1.00  0.00     0.002 C 
BRANCH  25  26
ATOM     26  C   UNL A   1      38.941  24.149  26.492  1.00  0.00     0.021 C 
BRANCH  26  27
ATOM     27  C   UNL A   1      40.284  23.524  26.855  1.00  0.00     0.116 C 
BRANCH  27  28
ATOM     28  N   UNL A   1      41.354  23.996  25.996  1.00  0.00    -0.352 N 
ATOM     29  C   UNL A   1      42.062  25.166  26.054  1.00  0.00     0.251 C 
ATOM     30  H   UNL A   1      41.607  23.385  25.266  1.00  0.00     0.163 HD
ATOM     31  O   UNL A   1      42.806  25.478  25.133  1.00  0.00    -0.269 OA
BRANCH  29  32
ATOM     32  C   UNL A   1      41.903  26.054  27.223  1.00  0.00     0.039 A 
ATOM     33  C   UNL A   1      42.191  27.412  27.076  1.00  0.00     0.014 A 
ATOM     34  C   UNL A   1      41.474  25.551  28.455  1.00  0.00     0.014 A 
ATOM     35  C   UNL A   1      42.009  28.273  28.156  1.00  0.00     0.010 A 
ATOM     36  C   UNL A   1      41.219  26.425  29.508  1.00  0.00     0.010 A 
ATOM     37  C   UNL A   1      41.495  27.792  29.373  1.00  0.00    -0.014 A 
BRANCH  37  38
ATOM     38  C   UNL A   1      41.254  28.711  30.512  1.00  0.00     0.031 A 
ATOM     39  C   UNL A   1      42.110  28.626  31.748  1.00  0.00     0.074 A 
ATOM     40  C   UNL A   1      40.237  29.593  30.449  1.00  0.00     0.049 A 
ATOM     41  N   UNL A   1      42.033  29.321  32.853  1.00  0.00    -0.248 NA
ATOM     42  C   UNL A   1      43.174  27.609  31.753  1.00  0.00     0.031 C 
ATOM     43  C   UNL A   1      39.307  29.732  29.325  1.00  0.00     0.029 A 
ATOM     44  N   UNL A   1      39.810  30.536  31.349  1.00  0.00    -0.354 N 
ATOM     45  C   UNL A   1      43.029  28.822  33.684  1.00  0.00     0.074 A 
ATOM     46  C   UNL A   1      43.656  27.725  32.982  1.00  0.00     0.031 C 
ATOM     47  C   UNL A   1      38.441  30.722  29.590  1.00  0.00     0.029 A 
ATOM     48  C   UNL A   1      38.726  31.262  30.917  1.00  0.00     0.049 A 
ATOM     49  H   UNL A   1      40.241  30.680  32.223  1.00  0.00     0.167 HD
ATOM     50  C   UNL A   1      43.403  29.257  34.912  1.00  0.00     0.037 A 
ATOM     51  C   UNL A   1      38.036  32.248  31.522  1.00  0.00     0.037 A 
ATOM     52  C   UNL A   1      42.786  30.364  35.596  1.00  0.00     0.049 A 
ATOM     53  C   UNL A   1      38.471  32.712  32.886  1.00  0.00     0.074 A 
ATOM     54  C   UNL A   1      43.125  30.917  36.817  1.00  0.00     0.029 A 
ATOM     55  N   UNL A   1      41.699  31.084  35.119  1.00  0.00    -0.354 N 
ATOM     56  N   UNL A   1      39.458  32.272  33.631  1.00  0.00    -0.248 NA
ATOM     57  C   UNL A   1      37.706  33.812  33.486  1.00  0.00     0.031 C 
ATOM     58  C   UNL A   1      42.213  31.938  37.104  1.00  0.00     0.029 A 
ATOM     59  C   UNL A   1      41.341  32.062  36.034  1.00  0.00     0.049 A 
ATOM     60  H   UNL A   1      41.249  30.924  34.259  1.00  0.00     0.167 HD
ATOM     61  C   UNL A   1      39.451  33.062  34.776  1.00  0.00     0.074 A 
ATOM     62  C   UNL A   1      38.371  34.015  34.616  1.00  0.00     0.031 C 
ATOM     63  C   UNL A   1      40.264  33.005  35.859  1.00  0.00     0.037 A 
BRANCH  50  64
ATOM     64  C   UNL A   1      44.534  28.534  35.594  1.00  0.00     0.058 A 
ATOM     65  C   UNL A   1      45.870  28.948  35.451  1.00  0.00     0.135 A 
ATOM     66  C   UNL A   1      44.279  27.435  36.431  1.00  0.00     0.135 A 
ATOM     67  F   UNL A   1      46.176  29.983  34.652  1.00  0.00    -0.206 F 
ATOM     68  C   UNL A   1      46.911  28.281  36.088  1.00  0.00     0.059 A 
ATOM     69  C   UNL A   1      45.302  26.772  37.102  1.00  0.00     0.059 A 
ATOM     70  F   UNL A   1      43.022  26.995  36.603  1.00  0.00    -0.206 F 
ATOM     71  C   UNL A   1      46.617  27.194  36.912  1.00  0.00     0.060 A 
BRANCH  71  72
ATOM     72  S   UNL A   1      47.980  26.344  37.735  1.00  0.00     0.124 S 
ATOM     73  O   UNL A   1      49.019  27.369  37.709  1.00  0.00    -0.237 OA
ATOM     74  O   UNL A   1      47.415  26.049  39.048  1.00  0.00    -0.237 OA
ATOM     75  O   UNL A   1      48.222  25.183  36.884  1.00  0.00    -0.744 OA
ENDBRANCH  71  72
ENDBRANCH  50  64
BRANCH  51  76
ATOM     76  C   UNL A   1      36.878  32.876  30.832  1.00  0.00     0.058 A 
ATOM     77  C   UNL A   1      37.068  33.799  29.793  1.00  0.00     0.135 A 
ATOM     78  C   UNL A   1      35.558  32.558  31.189  1.00  0.00     0.135 A 
ATOM     79  F   UNL A   1      38.310  34.140  29.417  1.00  0.00    -0.206 F 
ATOM     80  C   UNL A   1      35.992  34.400  29.145  1.00  0.00     0.059 A 
ATOM     81  C   UNL A   1      34.467  33.124  30.538  1.00  0.00     0.059 A 
ATOM     82  F   UNL A   1      35.321  31.666  32.164  1.00  0.00    -0.206 F 
ATOM     83  C   UNL A   1      34.695  34.053  29.524  1.00  0.00     0.060 A 
BRANCH  83  84
ATOM     84  S   UNL A   1      33.307  34.804  28.647  1.00  0.00     0.124 S 
ATOM     85  O   UNL A   1      32.872  33.707  27.791  1.00  0.00    -0.237 OA
ATOM     86  O   UNL A   1      32.408  35.154  29.743  1.00  0.00    -0.237 OA
ATOM     87  O   UNL A   1      33.917  35.938  27.960  1.00  0.00    -0.744 OA
ENDBRANCH  83  84
ENDBRANCH  51  76
BRANCH  63  88
ATOM     88  C   UNL A   1      40.043  34.026  36.943  1.00  0.00     0.058 A 
ATOM     89  C   UNL A   1      40.670  35.281  36.918  1.00  0.00     0.135 A 
ATOM     90  C   UNL A   1      39.163  33.754  38.004  1.00  0.00     0.135 A 
ATOM     91  F   UNL A   1      41.524  35.592  35.930  1.00  0.00    -0.206 F 
ATOM     92  C   UNL A   1      40.462  36.218  37.926  1.00  0.00     0.059 A 
ATOM     93  C   UNL A   1      38.914  34.688  39.004  1.00  0.00     0.059 A 
ATOM     94  F   UNL A   1      38.526  32.574  38.070  1.00  0.00    -0.206 F 
ATOM     95  C   UNL A   1      39.581  35.911  38.965  1.00  0.00     0.060 A 
BRANCH  95  96
ATOM     96  S   UNL A   1      39.308  37.140  40.259  1.00  0.00     0.124 S 
ATOM     97  O   UNL A   1      40.675  37.453  40.660  1.00  0.00    -0.237 OA
ATOM     98  O   UNL A   1      38.600  38.196  39.541  1.00  0.00    -0.237 OA
ATOM     99  O   UNL A   1      38.511  36.421  41.248  1.00  0.00    -0.744 OA
ENDBRANCH  95  96
ENDBRANCH  63  88
ENDBRANCH  37  38
ENDBRANCH  29  32
ENDBRANCH  27  28
ENDBRANCH  26  27
ENDBRANCH  25  26
ENDBRANCH  24  25
ENDBRANCH   1  24
TORSDOF 23
ENDMDL
