MODEL 1
REMARK VINA RESULT:     -12.8      0.000      0.000
REMARK SMILES O=C(NCCCCCCNC(=O)[C@@H]1CCCC[C@@H]1NS(=O)(=O)c1ccc2ccccc2c1)c1ccc(-c2c3nc(c(-c4c(F)cc(S(=O)(=O)[O-])cc4F)c4ccc([nH]4)c(-c4c(F)cc(S(=O)(=O)[O-])cc4F)c4nc(c(-c5c(F)cc(S(=O)(=O)[O-])cc5F)c5ccc2[nH]5)C=C4)C=C3)cc1
REMARK SMILES IDX 6 1 5 2 4 3 3 4 1 5 2 6 33 8 34 9 98 10 35 11 97 12 36 13
REMARK SMILES IDX 37 14 38 15 91 16 39 17 96 18 90 19 92 20 40 21 95 22 89 23
REMARK SMILES IDX 88 24 41 26 75 27 54 28 74 29 55 30 58 31 73 32 93 33 56 34
REMARK SMILES IDX 57 35 72 37 94 38 59 39 42 40 43 41 52 42 44 43 45 44 51 45
REMARK SMILES IDX 53 46 46 47 47 48 48 49 49 50 50 51 76 52 77 53 86 54 78 55
REMARK SMILES IDX 79 56 85 57 87 58 80 59 81 60 82 61 83 62 84 63 60 64 61 65
REMARK SMILES IDX 70 66 62 67 63 68 69 69 71 70 64 71 65 72 66 73 67 74 68 75
REMARK SMILES IDX 7 76 8 77 9 78 10 79 11 80 12 82 13 83 14 84 18 85 15 86
REMARK SMILES IDX 17 87 16 88 19 89 20 91 21 92 22 93 23 94 24 95 32 96 25 97
REMARK SMILES IDX 31 98 26 99 30 100 27 101 29 102 28 103
REMARK H PARENT 3 7 92 25 58 36 10 81 19 90
REMARK Flexibility Score: inf
ROOT
ATOM      1  C   UNL A   1      33.664  29.529  27.018  1.00  0.00     0.002 C 
ENDROOT
BRANCH   1   2
ATOM      2  C   UNL A   1      35.106  29.400  27.519  1.00  0.00     0.021 C 
BRANCH   2   3
ATOM      3  C   UNL A   1      35.678  30.655  28.173  1.00  0.00     0.116 C 
BRANCH   3   4
ATOM      4  N   UNL A   1      35.542  30.625  29.617  1.00  0.00    -0.352 N 
ATOM      5  O   UNL A   1      36.115  30.116  31.732  1.00  0.00    -0.269 OA
ATOM      6  C   UNL A   1      36.463  30.247  30.562  1.00  0.00     0.251 C 
ATOM      7  H   UNL A   1      34.671  30.916  29.967  1.00  0.00     0.163 HD
BRANCH   6   8
ATOM      8  C   UNL A   1      37.866  29.984  30.170  1.00  0.00     0.039 A 
ATOM      9  C   UNL A   1      38.811  29.562  31.112  1.00  0.00     0.014 A 
ATOM     10  C   UNL A   1      38.221  30.104  28.824  1.00  0.00     0.014 A 
ATOM     11  C   UNL A   1      40.127  29.328  30.718  1.00  0.00     0.010 A 
ATOM     12  C   UNL A   1      39.529  29.825  28.422  1.00  0.00     0.010 A 
ATOM     13  C   UNL A   1      40.492  29.441  29.366  1.00  0.00    -0.014 A 
BRANCH  13  14
ATOM     14  C   UNL A   1      41.856  29.050  28.933  1.00  0.00     0.031 A 
ATOM     15  C   UNL A   1      42.968  30.057  28.868  1.00  0.00     0.074 A 
ATOM     16  C   UNL A   1      42.071  27.772  28.565  1.00  0.00     0.049 A 
ATOM     17  N   UNL A   1      44.206  29.887  28.481  1.00  0.00    -0.248 NA
ATOM     18  C   UNL A   1      42.651  31.431  29.284  1.00  0.00     0.031 C 
ATOM     19  C   UNL A   1      41.054  26.717  28.556  1.00  0.00     0.029 A 
ATOM     20  N   UNL A   1      43.206  27.145  28.119  1.00  0.00    -0.354 N 
ATOM     21  C   UNL A   1      44.813  31.131  28.584  1.00  0.00     0.074 A 
ATOM     22  C   UNL A   1      43.803  32.053  29.065  1.00  0.00     0.031 C 
ATOM     23  C   UNL A   1      41.613  25.573  28.134  1.00  0.00     0.029 A 
ATOM     24  C   UNL A   1      43.012  25.821  27.805  1.00  0.00     0.049 A 
ATOM     25  H   UNL A   1      44.075  27.599  28.032  1.00  0.00     0.167 HD
ATOM     26  C   UNL A   1      46.095  31.468  28.309  1.00  0.00     0.037 A 
ATOM     27  C   UNL A   1      43.858  24.913  27.285  1.00  0.00     0.037 A 
ATOM     28  C   UNL A   1      47.098  30.539  27.859  1.00  0.00     0.049 A 
ATOM     29  C   UNL A   1      45.269  25.318  26.978  1.00  0.00     0.074 A 
ATOM     30  C   UNL A   1      48.448  30.766  27.647  1.00  0.00     0.029 A 
ATOM     31  N   UNL A   1      46.862  29.211  27.536  1.00  0.00    -0.354 N 
ATOM     32  N   UNL A   1      45.844  26.482  27.153  1.00  0.00    -0.248 NA
ATOM     33  C   UNL A   1      46.144  24.292  26.394  1.00  0.00     0.031 C 
ATOM     34  C   UNL A   1      49.020  29.583  27.162  1.00  0.00     0.029 A 
ATOM     35  C   UNL A   1      48.032  28.615  27.095  1.00  0.00     0.049 A 
ATOM     36  H   UNL A   1      45.991  28.760  27.608  1.00  0.00     0.167 HD
ATOM     37  C   UNL A   1      47.148  26.332  26.698  1.00  0.00     0.074 A 
ATOM     38  C   UNL A   1      47.282  24.958  26.258  1.00  0.00     0.031 C 
ATOM     39  C   UNL A   1      48.142  27.251  26.646  1.00  0.00     0.037 A 
BRANCH  26  40
ATOM     40  C   UNL A   1      46.495  32.904  28.481  1.00  0.00     0.058 A 
ATOM     41  C   UNL A   1      47.030  33.377  29.687  1.00  0.00     0.135 A 
ATOM     42  C   UNL A   1      46.403  33.801  27.405  1.00  0.00     0.135 A 
ATOM     43  F   UNL A   1      47.128  32.563  30.750  1.00  0.00    -0.206 F 
ATOM     44  C   UNL A   1      47.452  34.696  29.826  1.00  0.00     0.059 A 
ATOM     45  C   UNL A   1      46.832  35.121  27.516  1.00  0.00     0.059 A 
ATOM     46  F   UNL A   1      45.895  33.396  26.230  1.00  0.00    -0.206 F 
ATOM     47  C   UNL A   1      47.347  35.561  28.735  1.00  0.00     0.060 A 
BRANCH  47  48
ATOM     48  S   UNL A   1      47.914  37.266  28.922  1.00  0.00     0.124 S 
ATOM     49  O   UNL A   1      46.649  37.995  28.899  1.00  0.00    -0.237 OA
ATOM     50  O   UNL A   1      48.599  37.230  30.210  1.00  0.00    -0.237 OA
ATOM     51  O   UNL A   1      48.776  37.467  27.762  1.00  0.00    -0.744 OA
ENDBRANCH  47  48
ENDBRANCH  26  40
BRANCH  27  52
ATOM     52  C   UNL A   1      43.374  23.540  27.002  1.00  0.00     0.058 A 
ATOM     53  C   UNL A   1      43.122  23.120  25.689  1.00  0.00     0.135 A 
ATOM     54  C   UNL A   1      43.195  22.611  28.037  1.00  0.00     0.135 A 
ATOM     55  F   UNL A   1      43.278  23.977  24.669  1.00  0.00    -0.206 F 
ATOM     56  C   UNL A   1      42.704  21.824  25.410  1.00  0.00     0.059 A 
ATOM     57  C   UNL A   1      42.796  21.303  27.782  1.00  0.00     0.059 A 
ATOM     58  F   UNL A   1      43.441  22.964  29.309  1.00  0.00    -0.206 F 
ATOM     59  C   UNL A   1      42.545  20.921  26.463  1.00  0.00     0.060 A 
BRANCH  59  60
ATOM     60  S   UNL A   1      42.070  19.218  26.097  1.00  0.00     0.124 S 
ATOM     61  O   UNL A   1      40.632  19.354  25.895  1.00  0.00    -0.237 OA
ATOM     62  O   UNL A   1      42.857  18.923  24.903  1.00  0.00    -0.237 OA
ATOM     63  O   UNL A   1      42.477  18.495  27.298  1.00  0.00    -0.744 OA
ENDBRANCH  59  60
ENDBRANCH  27  52
BRANCH  39  64
ATOM     64  C   UNL A   1      49.457  26.802  26.083  1.00  0.00     0.058 A 
ATOM     65  C   UNL A   1      49.778  27.020  24.734  1.00  0.00     0.135 A 
ATOM     66  C   UNL A   1      50.419  26.193  26.902  1.00  0.00     0.135 A 
ATOM     67  F   UNL A   1      48.884  27.590  23.910  1.00  0.00    -0.206 F 
ATOM     68  C   UNL A   1      51.009  26.638  24.213  1.00  0.00     0.059 A 
ATOM     69  C   UNL A   1      51.662  25.818  26.405  1.00  0.00     0.059 A 
ATOM     70  F   UNL A   1      50.157  25.969  28.200  1.00  0.00    -0.206 F 
ATOM     71  C   UNL A   1      51.945  26.036  25.057  1.00  0.00     0.060 A 
BRANCH  71  72
ATOM     72  S   UNL A   1      53.557  25.580  24.384  1.00  0.00     0.124 S 
ATOM     73  O   UNL A   1      53.397  25.934  22.978  1.00  0.00    -0.237 OA
ATOM     74  O   UNL A   1      54.472  26.421  25.150  1.00  0.00    -0.237 OA
ATOM     75  O   UNL A   1      53.646  24.150  24.668  1.00  0.00    -0.744 OA
ENDBRANCH  71  72
ENDBRANCH  39  64
ENDBRANCH  13  14
ENDBRANCH   6   8
ENDBRANCH   3   4
ENDBRANCH   2   3
ENDBRANCH   1   2
BRANCH   1  76
ATOM     76  C   UNL A   1      33.267  28.572  25.888  1.00  0.00     0.002 C 
BRANCH  76  77
ATOM     77  C   UNL A   1      32.843  27.169  26.335  1.00  0.00     0.021 C 
BRANCH  77  78
ATOM     78  C   UNL A   1      31.337  26.992  26.496  1.00  0.00     0.116 C 
BRANCH  78  79
ATOM     79  N   UNL A   1      30.830  25.912  25.665  1.00  0.00    -0.356 N 
ATOM     80  C   UNL A   1      30.273  25.966  24.416  1.00  0.00     0.224 C 
ATOM     81  H   UNL A   1      30.896  25.011  26.057  1.00  0.00     0.163 HD
ATOM     82  O   UNL A   1      30.083  24.910  23.814  1.00  0.00    -0.275 OA
BRANCH  80  83
ATOM     83  C   UNL A   1      30.006  27.331  23.801  1.00  0.00     0.096 C 
ATOM     84  C   UNL A   1      28.565  27.564  23.336  1.00  0.00     0.015 C 
ATOM     85  C   UNL A   1      31.055  27.780  22.779  1.00  0.00     0.082 C 
ATOM     86  C   UNL A   1      28.349  29.043  23.029  1.00  0.00     0.001 C 
ATOM     87  C   UNL A   1      30.793  29.218  22.309  1.00  0.00     0.021 C 
ATOM     88  C   UNL A   1      29.337  29.547  21.987  1.00  0.00     0.002 C 
BRANCH  85  89
ATOM     89  N   UNL A   1      31.485  26.851  21.707  1.00  0.00    -0.207 NA
ATOM     90  H   UNL A   1      31.176  27.307  20.848  1.00  0.00     0.141 HD
BRANCH  89  91
ATOM     91  S   UNL A   1      33.001  26.252  21.323  1.00  0.00     0.240 S 
ATOM     92  O   UNL A   1      32.864  25.633  20.023  1.00  0.00    -0.207 OA
ATOM     93  O   UNL A   1      33.993  27.277  21.554  1.00  0.00    -0.207 OA
BRANCH  91  94
ATOM     94  C   UNL A   1      33.272  24.927  22.464  1.00  0.00     0.083 A 
ATOM     95  C   UNL A   1      32.889  23.631  22.115  1.00  0.00     0.022 A 
ATOM     96  C   UNL A   1      33.992  25.173  23.635  1.00  0.00     0.030 A 
ATOM     97  C   UNL A   1      33.315  22.559  22.900  1.00  0.00     0.010 A 
ATOM     98  C   UNL A   1      34.466  24.100  24.399  1.00  0.00    -0.017 A 
ATOM     99  C   UNL A   1      34.140  22.776  24.017  1.00  0.00    -0.018 A 
ATOM    100  C   UNL A   1      35.311  24.314  25.498  1.00  0.00     0.009 A 
ATOM    101  C   UNL A   1      34.686  21.703  24.739  1.00  0.00     0.009 A 
ATOM    102  C   UNL A   1      35.856  23.236  26.195  1.00  0.00     0.001 A 
ATOM    103  C   UNL A   1      35.547  21.932  25.813  1.00  0.00     0.001 A 
ENDBRANCH  91  94
ENDBRANCH  89  91
ENDBRANCH  85  89
ENDBRANCH  80  83
ENDBRANCH  78  79
ENDBRANCH  77  78
ENDBRANCH  76  77
ENDBRANCH   1  76
TORSDOF 19
ENDMDL
MODEL 2
REMARK VINA RESULT:     -12.7      4.736     10.875
REMARK SMILES O=C(NCCCCCCNC(=O)[C@@H]1CCCC[C@@H]1NS(=O)(=O)c1ccc2ccccc2c1)c1ccc(-c2c3nc(c(-c4c(F)cc(S(=O)(=O)[O-])cc4F)c4ccc([nH]4)c(-c4c(F)cc(S(=O)(=O)[O-])cc4F)c4nc(c(-c5c(F)cc(S(=O)(=O)[O-])cc5F)c5ccc2[nH]5)C=C4)C=C3)cc1
REMARK SMILES IDX 6 1 5 2 4 3 3 4 1 5 2 6 33 8 34 9 98 10 35 11 97 12 36 13
REMARK SMILES IDX 37 14 38 15 91 16 39 17 96 18 90 19 92 20 40 21 95 22 89 23
REMARK SMILES IDX 88 24 41 26 75 27 54 28 74 29 55 30 58 31 73 32 93 33 56 34
REMARK SMILES IDX 57 35 72 37 94 38 59 39 42 40 43 41 52 42 44 43 45 44 51 45
REMARK SMILES IDX 53 46 46 47 47 48 48 49 49 50 50 51 76 52 77 53 86 54 78 55
REMARK SMILES IDX 79 56 85 57 87 58 80 59 81 60 82 61 83 62 84 63 60 64 61 65
REMARK SMILES IDX 70 66 62 67 63 68 69 69 71 70 64 71 65 72 66 73 67 74 68 75
REMARK SMILES IDX 7 76 8 77 9 78 10 79 11 80 12 82 13 83 14 84 18 85 15 86
REMARK SMILES IDX 17 87 16 88 19 89 20 91 21 92 22 93 23 94 24 95 32 96 25 97
REMARK SMILES IDX 31 98 26 99 30 100 27 101 29 102 28 103
REMARK H PARENT 3 7 92 25 58 36 10 81 19 90
REMARK Flexibility Score: inf
ROOT
ATOM      1  C   UNL A   1      33.282  34.480  29.158  1.00  0.00     0.002 C 
ENDROOT
BRANCH   1   2
ATOM      2  C   UNL A   1      34.194  34.259  27.948  1.00  0.00     0.021 C 
BRANCH   2   3
ATOM      3  C   UNL A   1      34.985  32.953  27.963  1.00  0.00     0.116 C 
BRANCH   3   4
ATOM      4  N   UNL A   1      34.118  31.792  27.891  1.00  0.00    -0.352 N 
ATOM      5  O   UNL A   1      33.597  29.623  27.605  1.00  0.00    -0.269 OA
ATOM      6  C   UNL A   1      34.459  30.464  27.842  1.00  0.00     0.251 C 
ATOM      7  H   UNL A   1      33.154  31.983  27.877  1.00  0.00     0.163 HD
BRANCH   6   8
ATOM      8  C   UNL A   1      35.862  30.047  28.059  1.00  0.00     0.039 A 
ATOM      9  C   UNL A   1      36.805  30.123  27.028  1.00  0.00     0.014 A 
ATOM     10  C   UNL A   1      36.250  29.631  29.336  1.00  0.00     0.014 A 
ATOM     11  C   UNL A   1      38.119  29.718  27.257  1.00  0.00     0.010 A 
ATOM     12  C   UNL A   1      37.577  29.269  29.576  1.00  0.00     0.010 A 
ATOM     13  C   UNL A   1      38.519  29.304  28.539  1.00  0.00    -0.014 A 
BRANCH  13  14
ATOM     14  C   UNL A   1      39.948  29.013  28.810  1.00  0.00     0.031 A 
ATOM     15  C   UNL A   1      40.547  27.678  28.473  1.00  0.00     0.074 A 
ATOM     16  C   UNL A   1      40.696  29.967  29.397  1.00  0.00     0.049 A 
ATOM     17  N   UNL A   1      41.767  27.252  28.674  1.00  0.00    -0.248 NA
ATOM     18  C   UNL A   1      39.662  26.691  27.835  1.00  0.00     0.031 C 
ATOM     19  C   UNL A   1      40.210  31.289  29.799  1.00  0.00     0.029 A 
ATOM     20  N   UNL A   1      42.017  29.971  29.769  1.00  0.00    -0.354 N 
ATOM     21  C   UNL A   1      41.796  25.944  28.210  1.00  0.00     0.074 A 
ATOM     22  C   UNL A   1      40.467  25.641  27.722  1.00  0.00     0.031 C 
ATOM     23  C   UNL A   1      41.219  31.978  30.354  1.00  0.00     0.029 A 
ATOM     24  C   UNL A   1      42.409  31.135  30.384  1.00  0.00     0.049 A 
ATOM     25  H   UNL A   1      42.624  29.212  29.612  1.00  0.00     0.167 HD
ATOM     26  C   UNL A   1      42.840  25.082  28.189  1.00  0.00     0.037 A 
ATOM     27  C   UNL A   1      43.588  31.480  30.934  1.00  0.00     0.037 A 
ATOM     28  C   UNL A   1      44.166  25.402  28.651  1.00  0.00     0.049 A 
ATOM     29  C   UNL A   1      44.723  30.499  30.908  1.00  0.00     0.074 A 
ATOM     30  C   UNL A   1      45.312  24.628  28.580  1.00  0.00     0.029 A 
ATOM     31  N   UNL A   1      44.521  26.585  29.281  1.00  0.00    -0.354 N 
ATOM     32  N   UNL A   1      44.752  29.292  30.397  1.00  0.00    -0.248 NA
ATOM     33  C   UNL A   1      45.980  30.920  31.541  1.00  0.00     0.031 C 
ATOM     34  C   UNL A   1      46.352  25.329  29.201  1.00  0.00     0.029 A 
ATOM     35  C   UNL A   1      45.860  26.549  29.636  1.00  0.00     0.049 A 
ATOM     36  H   UNL A   1      43.912  27.338  29.453  1.00  0.00     0.167 HD
ATOM     37  C   UNL A   1      46.028  28.807  30.649  1.00  0.00     0.074 A 
ATOM     38  C   UNL A   1      46.748  29.857  31.340  1.00  0.00     0.031 C 
ATOM     39  C   UNL A   1      46.554  27.597  30.338  1.00  0.00     0.037 A 
BRANCH  26  40
ATOM     40  C   UNL A   1      42.598  23.701  27.653  1.00  0.00     0.058 A 
ATOM     41  C   UNL A   1      42.657  23.427  26.279  1.00  0.00     0.135 A 
ATOM     42  C   UNL A   1      42.370  22.629  28.530  1.00  0.00     0.135 A 
ATOM     43  F   UNL A   1      42.860  24.420  25.399  1.00  0.00    -0.206 F 
ATOM     44  C   UNL A   1      42.488  22.135  25.790  1.00  0.00     0.059 A 
ATOM     45  C   UNL A   1      42.212  21.326  28.064  1.00  0.00     0.059 A 
ATOM     46  F   UNL A   1      42.303  22.841  29.854  1.00  0.00    -0.206 F 
ATOM     47  C   UNL A   1      42.264  21.091  26.690  1.00  0.00     0.060 A 
BRANCH  47  48
ATOM     48  S   UNL A   1      42.062  19.417  26.044  1.00  0.00     0.124 S 
ATOM     49  O   UNL A   1      42.543  18.614  27.165  1.00  0.00    -0.237 OA
ATOM     50  O   UNL A   1      40.627  19.349  25.788  1.00  0.00    -0.237 OA
ATOM     51  O   UNL A   1      42.909  19.408  24.855  1.00  0.00    -0.744 OA
ENDBRANCH  47  48
ENDBRANCH  26  40
BRANCH  27  52
ATOM     52  C   UNL A   1      43.735  32.807  31.578  1.00  0.00     0.058 A 
ATOM     53  C   UNL A   1      43.875  33.971  30.810  1.00  0.00     0.135 A 
ATOM     54  C   UNL A   1      43.697  32.939  32.974  1.00  0.00     0.135 A 
ATOM     55  F   UNL A   1      43.919  33.889  29.472  1.00  0.00    -0.206 F 
ATOM     56  C   UNL A   1      43.976  35.224  31.404  1.00  0.00     0.059 A 
ATOM     57  C   UNL A   1      43.777  34.183  33.591  1.00  0.00     0.059 A 
ATOM     58  F   UNL A   1      43.547  31.853  33.749  1.00  0.00    -0.206 F 
ATOM     59  C   UNL A   1      43.925  35.320  32.796  1.00  0.00     0.060 A 
BRANCH  59  60
ATOM     60  S   UNL A   1      43.987  36.953  33.566  1.00  0.00     0.124 S 
ATOM     61  O   UNL A   1      45.014  36.757  34.581  1.00  0.00    -0.237 OA
ATOM     62  O   UNL A   1      44.352  37.814  32.445  1.00  0.00    -0.237 OA
ATOM     63  O   UNL A   1      42.626  37.134  34.065  1.00  0.00    -0.744 OA
ENDBRANCH  59  60
ENDBRANCH  27  52
BRANCH  39  64
ATOM     64  C   UNL A   1      47.972  27.343  30.754  1.00  0.00     0.058 A 
ATOM     65  C   UNL A   1      48.264  26.670  31.950  1.00  0.00     0.135 A 
ATOM     66  C   UNL A   1      49.042  27.733  29.936  1.00  0.00     0.135 A 
ATOM     67  F   UNL A   1      47.272  26.287  32.770  1.00  0.00    -0.206 F 
ATOM     68  C   UNL A   1      49.575  26.400  32.326  1.00  0.00     0.059 A 
ATOM     69  C   UNL A   1      50.360  27.458  30.285  1.00  0.00     0.059 A 
ATOM     70  F   UNL A   1      48.810  28.375  28.780  1.00  0.00    -0.206 F 
ATOM     71  C   UNL A   1      50.617  26.799  31.487  1.00  0.00     0.060 A 
BRANCH  71  72
ATOM     72  S   UNL A   1      52.315  26.409  31.960  1.00  0.00     0.124 S 
ATOM     73  O   UNL A   1      52.994  26.443  30.669  1.00  0.00    -0.237 OA
ATOM     74  O   UNL A   1      52.647  27.492  32.880  1.00  0.00    -0.237 OA
ATOM     75  O   UNL A   1      52.196  25.089  32.574  1.00  0.00    -0.744 OA
ENDBRANCH  71  72
ENDBRANCH  39  64
ENDBRANCH  13  14
ENDBRANCH   6   8
ENDBRANCH   3   4
ENDBRANCH   2   3
ENDBRANCH   1   2
BRANCH   1  76
ATOM     76  C   UNL A   1      32.932  35.941  29.466  1.00  0.00     0.002 C 
BRANCH  76  77
ATOM     77  C   UNL A   1      32.567  36.234  30.924  1.00  0.00     0.021 C 
BRANCH  77  78
ATOM     78  C   UNL A   1      33.538  37.170  31.637  1.00  0.00     0.116 C 
BRANCH  78  79
ATOM     79  N   UNL A   1      33.755  36.771  33.019  1.00  0.00    -0.356 N 
ATOM     80  C   UNL A   1      34.469  35.715  33.514  1.00  0.00     0.224 C 
ATOM     81  H   UNL A   1      33.325  37.342  33.695  1.00  0.00     0.163 HD
ATOM     82  O   UNL A   1      34.681  35.668  34.725  1.00  0.00    -0.275 OA
BRANCH  80  83
ATOM     83  C   UNL A   1      35.044  34.704  32.533  1.00  0.00     0.096 C 
ATOM     84  C   UNL A   1      34.461  33.291  32.637  1.00  0.00     0.015 C 
ATOM     85  C   UNL A   1      36.572  34.726  32.425  1.00  0.00     0.082 C 
ATOM     86  C   UNL A   1      34.879  32.464  31.425  1.00  0.00     0.001 C 
ATOM     87  C   UNL A   1      37.066  33.782  31.320  1.00  0.00     0.021 C 
ATOM     88  C   UNL A   1      36.394  32.410  31.282  1.00  0.00     0.002 C 
BRANCH  85  89
ATOM     89  N   UNL A   1      37.397  34.715  33.657  1.00  0.00    -0.207 NA
ATOM     90  H   UNL A   1      37.074  35.532  34.176  1.00  0.00     0.141 HD
BRANCH  89  91
ATOM     91  S   UNL A   1      37.588  33.538  34.833  1.00  0.00     0.240 S 
ATOM     92  O   UNL A   1      38.504  34.096  35.804  1.00  0.00    -0.207 OA
ATOM     93  O   UNL A   1      36.290  33.049  35.236  1.00  0.00    -0.207 OA
BRANCH  91  94
ATOM     94  C   UNL A   1      38.469  32.230  34.032  1.00  0.00     0.083 A 
ATOM     95  C   UNL A   1      39.865  32.253  34.012  1.00  0.00     0.022 A 
ATOM     96  C   UNL A   1      37.762  31.123  33.558  1.00  0.00     0.030 A 
ATOM     97  C   UNL A   1      40.561  31.116  33.600  1.00  0.00     0.010 A 
ATOM     98  C   UNL A   1      38.452  29.962  33.191  1.00  0.00    -0.017 A 
ATOM     99  C   UNL A   1      39.868  29.950  33.231  1.00  0.00    -0.018 A 
ATOM    100  C   UNL A   1      37.761  28.790  32.848  1.00  0.00     0.009 A 
ATOM    101  C   UNL A   1      40.549  28.758  32.941  1.00  0.00     0.009 A 
ATOM    102  C   UNL A   1      38.454  27.611  32.577  1.00  0.00     0.001 A 
ATOM    103  C   UNL A   1      39.846  27.593  32.628  1.00  0.00     0.001 A 
ENDBRANCH  91  94
ENDBRANCH  89  91
ENDBRANCH  85  89
ENDBRANCH  80  83
ENDBRANCH  78  79
ENDBRANCH  77  78
ENDBRANCH  76  77
ENDBRANCH   1  76
TORSDOF 19
ENDMDL
MODEL 3
REMARK VINA RESULT:     -12.6      4.586      7.567
REMARK SMILES O=C(NCCCCCCNC(=O)[C@@H]1CCCC[C@@H]1NS(=O)(=O)c1ccc2ccccc2c1)c1ccc(-c2c3nc(c(-c4c(F)cc(S(=O)(=O)[O-])cc4F)c4ccc([nH]4)c(-c4c(F)cc(S(=O)(=O)[O-])cc4F)c4nc(c(-c5c(F)cc(S(=O)(=O)[O-])cc5F)c5ccc2[nH]5)C=C4)C=C3)cc1
REMARK SMILES IDX 6 1 5 2 4 3 3 4 1 5 2 6 33 8 34 9 98 10 35 11 97 12 36 13
REMARK SMILES IDX 37 14 38 15 91 16 39 17 96 18 90 19 92 20 40 21 95 22 89 23
REMARK SMILES IDX 88 24 41 26 75 27 54 28 74 29 55 30 58 31 73 32 93 33 56 34
REMARK SMILES IDX 57 35 72 37 94 38 59 39 42 40 43 41 52 42 44 43 45 44 51 45
REMARK SMILES IDX 53 46 46 47 47 48 48 49 49 50 50 51 76 52 77 53 86 54 78 55
REMARK SMILES IDX 79 56 85 57 87 58 80 59 81 60 82 61 83 62 84 63 60 64 61 65
REMARK SMILES IDX 70 66 62 67 63 68 69 69 71 70 64 71 65 72 66 73 67 74 68 75
REMARK SMILES IDX 7 76 8 77 9 78 10 79 11 80 12 82 13 83 14 84 18 85 15 86
REMARK SMILES IDX 17 87 16 88 19 89 20 91 21 92 22 93 23 94 24 95 32 96 25 97
REMARK SMILES IDX 31 98 26 99 30 100 27 101 29 102 28 103
REMARK H PARENT 3 7 92 25 58 36 10 81 19 90
REMARK Flexibility Score: inf
ROOT
ATOM      1  C   UNL A   1      33.678  34.646  29.347  1.00  0.00     0.002 C 
ENDROOT
BRANCH   1   2
ATOM      2  C   UNL A   1      34.269  34.273  27.985  1.00  0.00     0.021 C 
BRANCH   2   3
ATOM      3  C   UNL A   1      35.049  32.962  27.954  1.00  0.00     0.116 C 
BRANCH   3   4
ATOM      4  N   UNL A   1      34.172  31.808  27.883  1.00  0.00    -0.352 N 
ATOM      5  O   UNL A   1      33.634  29.640  27.624  1.00  0.00    -0.269 OA
ATOM      6  C   UNL A   1      34.499  30.476  27.868  1.00  0.00     0.251 C 
ATOM      7  H   UNL A   1      33.210  32.010  27.840  1.00  0.00     0.163 HD
BRANCH   6   8
ATOM      8  C   UNL A   1      35.891  30.049  28.129  1.00  0.00     0.039 A 
ATOM      9  C   UNL A   1      36.852  30.058  27.112  1.00  0.00     0.014 A 
ATOM     10  C   UNL A   1      36.251  29.691  29.431  1.00  0.00     0.014 A 
ATOM     11  C   UNL A   1      38.155  29.644  27.383  1.00  0.00     0.010 A 
ATOM     12  C   UNL A   1      37.568  29.320  29.712  1.00  0.00     0.010 A 
ATOM     13  C   UNL A   1      38.528  29.289  28.690  1.00  0.00    -0.014 A 
BRANCH  13  14
ATOM     14  C   UNL A   1      39.947  28.990  28.999  1.00  0.00     0.031 A 
ATOM     15  C   UNL A   1      40.841  30.024  29.620  1.00  0.00     0.074 A 
ATOM     16  C   UNL A   1      40.430  27.773  28.682  1.00  0.00     0.049 A 
ATOM     17  N   UNL A   1      42.110  29.935  29.923  1.00  0.00    -0.248 NA
ATOM     18  C   UNL A   1      40.237  31.328  29.934  1.00  0.00     0.031 C 
ATOM     19  C   UNL A   1      39.659  26.702  28.045  1.00  0.00     0.029 A 
ATOM     20  N   UNL A   1      41.681  27.234  28.839  1.00  0.00    -0.354 N 
ATOM     21  C   UNL A   1      42.467  31.171  30.443  1.00  0.00     0.074 A 
ATOM     22  C   UNL A   1      41.279  32.001  30.408  1.00  0.00     0.031 C 
ATOM     23  C   UNL A   1      40.452  25.633  27.873  1.00  0.00     0.029 A 
ATOM     24  C   UNL A   1      41.793  25.956  28.348  1.00  0.00     0.049 A 
ATOM     25  H   UNL A   1      42.428  27.717  29.261  1.00  0.00     0.167 HD
ATOM     26  C   UNL A   1      43.672  31.573  30.911  1.00  0.00     0.037 A 
ATOM     27  C   UNL A   1      42.860  25.140  28.266  1.00  0.00     0.037 A 
ATOM     28  C   UNL A   1      44.840  30.732  30.968  1.00  0.00     0.049 A 
ATOM     29  C   UNL A   1      44.186  25.616  28.781  1.00  0.00     0.074 A 
ATOM     30  C   UNL A   1      46.080  31.017  31.515  1.00  0.00     0.029 A 
ATOM     31  N   UNL A   1      44.919  29.449  30.448  1.00  0.00    -0.354 N 
ATOM     32  N   UNL A   1      44.486  26.764  29.338  1.00  0.00    -0.248 NA
ATOM     33  C   UNL A   1      45.321  24.692  28.648  1.00  0.00     0.031 C 
ATOM     34  C   UNL A   1      46.919  29.919  31.294  1.00  0.00     0.029 A 
ATOM     35  C   UNL A   1      46.195  28.942  30.630  1.00  0.00     0.049 A 
ATOM     36  H   UNL A   1      44.179  28.970  30.012  1.00  0.00     0.167 HD
ATOM     37  C   UNL A   1      45.844  26.704  29.620  1.00  0.00     0.074 A 
ATOM     38  C   UNL A   1      46.304  25.399  29.190  1.00  0.00     0.031 C 
ATOM     39  C   UNL A   1      46.639  27.647  30.181  1.00  0.00     0.037 A 
BRANCH  26  40
ATOM     40  C   UNL A   1      43.801  32.986  31.400  1.00  0.00     0.058 A 
ATOM     41  C   UNL A   1      43.755  33.297  32.765  1.00  0.00     0.135 A 
ATOM     42  C   UNL A   1      44.038  34.031  30.493  1.00  0.00     0.135 A 
ATOM     43  F   UNL A   1      43.518  32.334  33.671  1.00  0.00    -0.206 F 
ATOM     44  C   UNL A   1      43.929  34.601  33.219  1.00  0.00     0.059 A 
ATOM     45  C   UNL A   1      44.231  35.341  30.925  1.00  0.00     0.059 A 
ATOM     46  F   UNL A   1      44.089  33.784  29.175  1.00  0.00    -0.206 F 
ATOM     47  C   UNL A   1      44.165  35.617  32.290  1.00  0.00     0.060 A 
BRANCH  47  48
ATOM     48  S   UNL A   1      44.408  37.303  32.892  1.00  0.00     0.124 S 
ATOM     49  O   UNL A   1      45.557  37.131  33.776  1.00  0.00    -0.237 OA
ATOM     50  O   UNL A   1      44.662  38.043  31.660  1.00  0.00    -0.237 OA
ATOM     51  O   UNL A   1      43.145  37.611  33.555  1.00  0.00    -0.744 OA
ENDBRANCH  47  48
ENDBRANCH  26  40
BRANCH  27  52
ATOM     52  C   UNL A   1      42.713  23.801  27.646  1.00  0.00     0.058 A 
ATOM     53  C   UNL A   1      42.923  23.614  26.273  1.00  0.00     0.135 A 
ATOM     54  C   UNL A   1      42.398  22.677  28.424  1.00  0.00     0.135 A 
ATOM     55  F   UNL A   1      43.223  24.663  25.492  1.00  0.00    -0.206 F 
ATOM     56  C   UNL A   1      42.824  22.357  25.689  1.00  0.00     0.059 A 
ATOM     57  C   UNL A   1      42.311  21.407  27.866  1.00  0.00     0.059 A 
ATOM     58  F   UNL A   1      42.204  22.807  29.746  1.00  0.00    -0.206 F 
ATOM     59  C   UNL A   1      42.519  21.258  26.494  1.00  0.00     0.060 A 
BRANCH  59  60
ATOM     60  S   UNL A   1      42.458  19.614  25.749  1.00  0.00     0.124 S 
ATOM     61  O   UNL A   1      41.051  19.514  25.379  1.00  0.00    -0.237 OA
ATOM     62  O   UNL A   1      43.403  19.735  24.643  1.00  0.00    -0.237 OA
ATOM     63  O   UNL A   1      42.891  18.742  26.837  1.00  0.00    -0.744 OA
ENDBRANCH  59  60
ENDBRANCH  27  52
BRANCH  39  64
ATOM     64  C   UNL A   1      48.088  27.305  30.350  1.00  0.00     0.058 A 
ATOM     65  C   UNL A   1      49.030  27.641  29.365  1.00  0.00     0.135 A 
ATOM     66  C   UNL A   1      48.548  26.679  31.517  1.00  0.00     0.135 A 
ATOM     67  F   UNL A   1      48.635  28.232  28.226  1.00  0.00    -0.206 F 
ATOM     68  C   UNL A   1      50.381  27.359  29.529  1.00  0.00     0.059 A 
ATOM     69  C   UNL A   1      49.897  26.401  31.710  1.00  0.00     0.059 A 
ATOM     70  F   UNL A   1      47.684  26.343  32.489  1.00  0.00    -0.206 F 
ATOM     71  C   UNL A   1      50.805  26.737  30.706  1.00  0.00     0.060 A 
BRANCH  71  72
ATOM     72  S   UNL A   1      52.566  26.410  30.932  1.00  0.00     0.124 S 
ATOM     73  O   UNL A   1      52.541  25.351  31.935  1.00  0.00    -0.237 OA
ATOM     74  O   UNL A   1      52.990  26.007  29.595  1.00  0.00    -0.237 OA
ATOM     75  O   UNL A   1      53.090  27.695  31.387  1.00  0.00    -0.744 OA
ENDBRANCH  71  72
ENDBRANCH  39  64
ENDBRANCH  13  14
ENDBRANCH   6   8
ENDBRANCH   3   4
ENDBRANCH   2   3
ENDBRANCH   1   2
BRANCH   1  76
ATOM     76  C   UNL A   1      33.268  36.114  29.512  1.00  0.00     0.002 C 
BRANCH  76  77
ATOM     77  C   UNL A   1      32.534  36.448  30.815  1.00  0.00     0.021 C 
BRANCH  77  78
ATOM     78  C   UNL A   1      33.372  36.247  32.074  1.00  0.00     0.116 C 
BRANCH  78  79
ATOM     79  N   UNL A   1      33.123  34.950  32.685  1.00  0.00    -0.356 N 
ATOM     80  C   UNL A   1      33.997  33.929  32.937  1.00  0.00     0.224 C 
ATOM     81  H   UNL A   1      32.192  34.784  32.956  1.00  0.00     0.163 HD
ATOM     82  O   UNL A   1      33.615  32.990  33.634  1.00  0.00    -0.275 OA
BRANCH  80  83
ATOM     83  C   UNL A   1      35.423  34.050  32.421  1.00  0.00     0.096 C 
ATOM     84  C   UNL A   1      35.887  32.906  31.513  1.00  0.00     0.015 C 
ATOM     85  C   UNL A   1      36.452  34.436  33.488  1.00  0.00     0.082 C 
ATOM     86  C   UNL A   1      37.193  33.285  30.822  1.00  0.00     0.001 C 
ATOM     87  C   UNL A   1      37.835  34.675  32.867  1.00  0.00     0.021 C 
ATOM     88  C   UNL A   1      38.275  33.642  31.831  1.00  0.00     0.002 C 
BRANCH  85  89
ATOM     89  N   UNL A   1      36.475  33.715  34.783  1.00  0.00    -0.207 NA
ATOM     90  H   UNL A   1      35.919  32.878  34.607  1.00  0.00     0.141 HD
BRANCH  89  91
ATOM     91  S   UNL A   1      37.761  33.161  35.701  1.00  0.00     0.240 S 
ATOM     92  O   UNL A   1      38.659  34.286  35.842  1.00  0.00    -0.207 OA
ATOM     93  O   UNL A   1      37.255  32.467  36.863  1.00  0.00    -0.207 OA
BRANCH  91  94
ATOM     94  C   UNL A   1      38.598  31.999  34.662  1.00  0.00     0.083 A 
ATOM     95  C   UNL A   1      39.994  32.004  34.611  1.00  0.00     0.022 A 
ATOM     96  C   UNL A   1      37.859  31.005  34.018  1.00  0.00     0.030 A 
ATOM     97  C   UNL A   1      40.657  30.945  33.989  1.00  0.00     0.010 A 
ATOM     98  C   UNL A   1      38.518  29.915  33.436  1.00  0.00    -0.017 A 
ATOM     99  C   UNL A   1      39.933  29.874  33.438  1.00  0.00    -0.018 A 
ATOM    100  C   UNL A   1      37.796  28.833  32.911  1.00  0.00     0.009 A 
ATOM    101  C   UNL A   1      40.585  28.741  32.927  1.00  0.00     0.009 A 
ATOM    102  C   UNL A   1      38.460  27.709  32.420  1.00  0.00     0.001 A 
ATOM    103  C   UNL A   1      39.851  27.661  32.432  1.00  0.00     0.001 A 
ENDBRANCH  91  94
ENDBRANCH  89  91
ENDBRANCH  85  89
ENDBRANCH  80  83
ENDBRANCH  78  79
ENDBRANCH  77  78
ENDBRANCH  76  77
ENDBRANCH   1  76
TORSDOF 19
ENDMDL
