MODEL 1
REMARK VINA RESULT:     -10.6      0.000      0.000
REMARK SMILES Cc1ncc(CNC(=O)N(CC(=O)NCCCCCCNC(=O)c2ccc(-c3c4nc(c(-c5c(F)cc(S(=O)(=O)[O-])cc5F)c5ccc([nH]5)c(-c5c(F)cc(S(=O)(=O)[O-])cc5F)c5nc(c(-c6c(F)cc(S(=O)(=O)[O-])cc6F)c6ccc3[nH]6)C=C5)C=C4)cc2)C(C)(C)C)s1
REMARK SMILES IDX 17 1 16 2 15 3 14 4 12 5 13 6 11 8 10 9 8 10 7 11 9 13 6 14
REMARK SMILES IDX 5 15 1 16 2 17 3 18 94 19 4 20 90 21 91 22 92 23 93 24 18 25
REMARK SMILES IDX 19 26 20 27 21 28 22 29 23 31 24 32 25 33 89 34 26 35 88 36
REMARK SMILES IDX 27 37 28 38 29 39 82 40 30 41 87 42 81 43 83 44 31 45 86 46
REMARK SMILES IDX 80 47 79 48 32 50 66 51 45 52 65 53 46 54 49 55 64 56 84 57
REMARK SMILES IDX 47 58 48 59 63 61 85 62 50 63 33 64 34 65 43 66 35 67 36 68
REMARK SMILES IDX 42 69 44 70 37 71 38 72 39 73 40 74 41 75 67 76 68 77 77 78
REMARK SMILES IDX 69 79 70 80 76 81 78 82 71 83 72 84 73 85 74 86 75 87 51 88
REMARK SMILES IDX 52 89 61 90 53 91 54 92 60 93 62 94 55 95 56 96 57 97 58 98
REMARK SMILES IDX 59 99
REMARK H PARENT 14 7 7 12 21 30 83 49 49 60
REMARK Flexibility Score: inf
ROOT
ATOM      1  C   UNL A   1      36.535  21.362  25.774  1.00  0.00     0.002 C 
ENDROOT
BRANCH   1   2
ATOM      2  C   UNL A   1      35.012  21.396  25.898  1.00  0.00     0.021 C 
BRANCH   2   3
ATOM      3  C   UNL A   1      34.487  21.847  27.255  1.00  0.00     0.116 C 
BRANCH   3   4
ATOM      4  N   UNL A   1      33.059  22.084  27.272  1.00  0.00    -0.355 N 
ATOM      5  C   UNL A   1      32.299  23.057  26.702  1.00  0.00     0.239 C 
ATOM      6  O   UNL A   1      31.076  22.864  26.701  1.00  0.00    -0.273 OA
ATOM      7  H   UNL A   1      32.546  21.423  27.791  1.00  0.00     0.163 HD
BRANCH   5   8
ATOM      8  C   UNL A   1      32.875  24.268  25.942  1.00  0.00     0.221 C 
BRANCH   8   9
ATOM      9  N   UNL A   1      32.145  24.785  24.779  1.00  0.00    -0.311 N 
BRANCH   9  10
ATOM     10  C   UNL A   1      31.331  25.895  24.792  1.00  0.00     0.318 C 
ATOM     11  N   UNL A   1      31.739  27.157  24.590  1.00  0.00    -0.333 N 
ATOM     12  H   UNL A   1      30.959  27.745  24.473  1.00  0.00     0.165 HD
ATOM     13  O   UNL A   1      30.117  25.816  25.004  1.00  0.00    -0.249 OA
BRANCH  11  14
ATOM     14  C   UNL A   1      32.961  27.935  24.487  1.00  0.00     0.166 C 
BRANCH  14  15
ATOM     15  C   UNL A   1      33.029  29.013  25.515  1.00  0.00     0.044 A 
ATOM     16  C   UNL A   1      34.280  31.447  28.268  1.00  0.00     0.079 C 
ATOM     17  C   UNL A   1      33.586  30.623  27.244  1.00  0.00     0.090 A 
ATOM     18  N   UNL A   1      32.374  30.862  26.796  1.00  0.00    -0.250 NA
ATOM     19  S   UNL A   1      34.368  29.255  26.562  1.00  0.00    -0.122 S 
ATOM     20  C   UNL A   1      32.059  29.955  25.806  1.00  0.00     0.128 A 
ENDBRANCH  14  15
ENDBRANCH  11  14
ENDBRANCH   9  10
BRANCH   9  21
ATOM     21  C   UNL A   1      32.412  24.107  23.436  1.00  0.00     0.037 C 
ATOM     22  C   UNL A   1      31.503  22.877  23.234  1.00  0.00     0.034 C 
ATOM     23  C   UNL A   1      32.204  25.101  22.265  1.00  0.00     0.034 C 
ATOM     24  C   UNL A   1      33.863  23.576  23.257  1.00  0.00     0.034 C 
ENDBRANCH   9  21
ENDBRANCH   8   9
ENDBRANCH   5   8
ENDBRANCH   3   4
ENDBRANCH   2   3
ENDBRANCH   1   2
BRANCH   1  25
ATOM     25  C   UNL A   1      37.135  22.437  24.866  1.00  0.00     0.002 C 
BRANCH  25  26
ATOM     26  C   UNL A   1      37.130  23.855  25.442  1.00  0.00     0.021 C 
BRANCH  26  27
ATOM     27  C   UNL A   1      38.077  24.077  26.618  1.00  0.00     0.116 C 
BRANCH  27  28
ATOM     28  N   UNL A   1      39.468  23.865  26.250  1.00  0.00    -0.352 N 
ATOM     29  C   UNL A   1      40.566  24.634  26.555  1.00  0.00     0.251 C 
ATOM     30  H   UNL A   1      39.647  23.062  25.710  1.00  0.00     0.163 HD
ATOM     31  O   UNL A   1      41.642  24.419  26.015  1.00  0.00    -0.269 OA
BRANCH  29  32
ATOM     32  C   UNL A   1      40.424  25.738  27.527  1.00  0.00     0.039 A 
ATOM     33  C   UNL A   1      39.544  25.589  28.602  1.00  0.00     0.014 A 
ATOM     34  C   UNL A   1      41.178  26.907  27.386  1.00  0.00     0.014 A 
ATOM     35  C   UNL A   1      39.468  26.589  29.576  1.00  0.00     0.010 A 
ATOM     36  C   UNL A   1      41.146  27.873  28.389  1.00  0.00     0.010 A 
ATOM     37  C   UNL A   1      40.293  27.722  29.494  1.00  0.00    -0.014 A 
BRANCH  37  38
ATOM     38  C   UNL A   1      40.294  28.763  30.553  1.00  0.00     0.031 A 
ATOM     39  C   UNL A   1      41.187  28.607  31.755  1.00  0.00     0.074 A 
ATOM     40  C   UNL A   1      39.425  29.790  30.483  1.00  0.00     0.049 A 
ATOM     41  N   UNL A   1      41.234  29.326  32.845  1.00  0.00    -0.248 NA
ATOM     42  C   UNL A   1      42.128  27.474  31.739  1.00  0.00     0.031 C 
ATOM     43  C   UNL A   1      38.475  30.022  29.392  1.00  0.00     0.029 A 
ATOM     44  N   UNL A   1      39.177  30.817  31.359  1.00  0.00    -0.354 N 
ATOM     45  C   UNL A   1      42.186  28.719  33.657  1.00  0.00     0.074 A 
ATOM     46  C   UNL A   1      42.667  27.554  32.948  1.00  0.00     0.031 C 
ATOM     47  C   UNL A   1      37.748  31.118  29.665  1.00  0.00     0.029 A 
ATOM     48  C   UNL A   1      38.150  31.645  30.966  1.00  0.00     0.049 A 
ATOM     49  H   UNL A   1      39.685  30.950  32.191  1.00  0.00     0.167 HD
ATOM     50  C   UNL A   1      42.627  29.108  34.878  1.00  0.00     0.037 A 
ATOM     51  C   UNL A   1      37.581  32.693  31.592  1.00  0.00     0.037 A 
ATOM     52  C   UNL A   1      42.173  30.292  35.558  1.00  0.00     0.049 A 
ATOM     53  C   UNL A   1      38.103  33.117  32.939  1.00  0.00     0.074 A 
ATOM     54  C   UNL A   1      42.620  30.817  36.757  1.00  0.00     0.029 A 
ATOM     55  N   UNL A   1      41.169  31.133  35.102  1.00  0.00    -0.354 N 
ATOM     56  N   UNL A   1      39.057  32.575  33.658  1.00  0.00    -0.248 NA
ATOM     57  C   UNL A   1      37.478  34.295  33.557  1.00  0.00     0.031 C 
ATOM     58  C   UNL A   1      41.858  31.952  37.049  1.00  0.00     0.029 A 
ATOM     59  C   UNL A   1      40.967  32.161  36.008  1.00  0.00     0.049 A 
ATOM     60  H   UNL A   1      40.672  31.017  34.261  1.00  0.00     0.167 HD
ATOM     61  C   UNL A   1      39.164  33.361  34.800  1.00  0.00     0.074 A 
ATOM     62  C   UNL A   1      38.185  34.420  34.673  1.00  0.00     0.031 C 
ATOM     63  C   UNL A   1      39.999  33.218  35.859  1.00  0.00     0.037 A 
BRANCH  50  64
ATOM     64  C   UNL A   1      43.654  28.250  35.561  1.00  0.00     0.058 A 
ATOM     65  C   UNL A   1      45.028  28.406  35.317  1.00  0.00     0.135 A 
ATOM     66  C   UNL A   1      43.263  27.300  36.520  1.00  0.00     0.135 A 
ATOM     67  F   UNL A   1      45.456  29.289  34.401  1.00  0.00    -0.206 F 
ATOM     68  C   UNL A   1      45.976  27.639  35.984  1.00  0.00     0.059 A 
ATOM     69  C   UNL A   1      44.196  26.540  37.218  1.00  0.00     0.059 A 
ATOM     70  F   UNL A   1      41.962  27.110  36.791  1.00  0.00    -0.206 F 
ATOM     71  C   UNL A   1      45.550  26.709  36.935  1.00  0.00     0.060 A 
BRANCH  71  72
ATOM     72  S   UNL A   1      46.796  25.739  37.810  1.00  0.00     0.124 S 
ATOM     73  O   UNL A   1      47.837  25.618  36.793  1.00  0.00    -0.237 OA
ATOM     74  O   UNL A   1      47.119  26.597  38.946  1.00  0.00    -0.237 OA
ATOM     75  O   UNL A   1      46.095  24.503  38.141  1.00  0.00    -0.744 OA
ENDBRANCH  71  72
ENDBRANCH  50  64
BRANCH  51  76
ATOM     76  C   UNL A   1      36.448  33.416  30.953  1.00  0.00     0.058 A 
ATOM     77  C   UNL A   1      36.645  34.206  29.812  1.00  0.00     0.135 A 
ATOM     78  C   UNL A   1      35.146  33.329  31.471  1.00  0.00     0.135 A 
ATOM     79  F   UNL A   1      37.872  34.325  29.283  1.00  0.00    -0.206 F 
ATOM     80  C   UNL A   1      35.597  34.903  29.217  1.00  0.00     0.059 A 
ATOM     81  C   UNL A   1      34.078  33.996  30.880  1.00  0.00     0.059 A 
ATOM     82  F   UNL A   1      34.900  32.572  32.551  1.00  0.00    -0.206 F 
ATOM     83  C   UNL A   1      34.316  34.790  29.759  1.00  0.00     0.060 A 
BRANCH  83  84
ATOM     84  S   UNL A   1      32.953  35.664  28.958  1.00  0.00     0.124 S 
ATOM     85  O   UNL A   1      32.368  34.607  28.142  1.00  0.00    -0.237 OA
ATOM     86  O   UNL A   1      32.158  36.106  30.100  1.00  0.00    -0.237 OA
ATOM     87  O   UNL A   1      33.626  36.731  28.224  1.00  0.00    -0.744 OA
ENDBRANCH  83  84
ENDBRANCH  51  76
BRANCH  63  88
ATOM     88  C   UNL A   1      39.926  34.249  36.949  1.00  0.00     0.058 A 
ATOM     89  C   UNL A   1      40.594  35.478  36.848  1.00  0.00     0.135 A 
ATOM     90  C   UNL A   1      39.109  34.036  38.072  1.00  0.00     0.135 A 
ATOM     91  F   UNL A   1      41.394  35.728  35.799  1.00  0.00    -0.206 F 
ATOM     92  C   UNL A   1      40.465  36.457  37.828  1.00  0.00     0.059 A 
ATOM     93  C   UNL A   1      38.944  35.011  39.051  1.00  0.00     0.059 A 
ATOM     94  F   UNL A   1      38.439  32.880  38.211  1.00  0.00    -0.206 F 
ATOM     95  C   UNL A   1      39.632  36.216  38.923  1.00  0.00     0.060 A 
BRANCH  95  96
ATOM     96  S   UNL A   1      39.426  37.517  40.158  1.00  0.00     0.124 S 
ATOM     97  O   UNL A   1      38.428  38.370  39.521  1.00  0.00    -0.237 OA
ATOM     98  O   UNL A   1      38.970  36.770  41.327  1.00  0.00    -0.237 OA
ATOM     99  O   UNL A   1      40.763  38.092  40.271  1.00  0.00    -0.744 OA
ENDBRANCH  95  96
ENDBRANCH  63  88
ENDBRANCH  37  38
ENDBRANCH  29  32
ENDBRANCH  27  28
ENDBRANCH  26  27
ENDBRANCH  25  26
ENDBRANCH   1  25
TORSDOF 21
ENDMDL
MODEL 2
REMARK VINA RESULT:     -10.4      2.288      9.184
REMARK SMILES Cc1ncc(CNC(=O)N(CC(=O)NCCCCCCNC(=O)c2ccc(-c3c4nc(c(-c5c(F)cc(S(=O)(=O)[O-])cc5F)c5ccc([nH]5)c(-c5c(F)cc(S(=O)(=O)[O-])cc5F)c5nc(c(-c6c(F)cc(S(=O)(=O)[O-])cc6F)c6ccc3[nH]6)C=C5)C=C4)cc2)C(C)(C)C)s1
REMARK SMILES IDX 17 1 16 2 15 3 14 4 12 5 13 6 11 8 10 9 8 10 7 11 9 13 6 14
REMARK SMILES IDX 5 15 1 16 2 17 3 18 94 19 4 20 90 21 91 22 92 23 93 24 18 25
REMARK SMILES IDX 19 26 20 27 21 28 22 29 23 31 24 32 25 33 89 34 26 35 88 36
REMARK SMILES IDX 27 37 28 38 29 39 82 40 30 41 87 42 81 43 83 44 31 45 86 46
REMARK SMILES IDX 80 47 79 48 32 50 66 51 45 52 65 53 46 54 49 55 64 56 84 57
REMARK SMILES IDX 47 58 48 59 63 61 85 62 50 63 33 64 34 65 43 66 35 67 36 68
REMARK SMILES IDX 42 69 44 70 37 71 38 72 39 73 40 74 41 75 67 76 68 77 77 78
REMARK SMILES IDX 69 79 70 80 76 81 78 82 71 83 72 84 73 85 74 86 75 87 51 88
REMARK SMILES IDX 52 89 61 90 53 91 54 92 60 93 62 94 55 95 56 96 57 97 58 98
REMARK SMILES IDX 59 99
REMARK H PARENT 14 7 7 12 21 30 83 49 49 60
REMARK Flexibility Score: inf
ROOT
ATOM      1  C   UNL A   1      39.972  21.438  26.102  1.00  0.00     0.002 C 
ENDROOT
BRANCH   1   2
ATOM      2  C   UNL A   1      38.448  21.533  26.034  1.00  0.00     0.021 C 
BRANCH   2   3
ATOM      3  C   UNL A   1      37.907  22.887  25.593  1.00  0.00     0.116 C 
BRANCH   3   4
ATOM      4  N   UNL A   1      37.208  22.845  24.326  1.00  0.00    -0.355 N 
ATOM      5  C   UNL A   1      35.943  23.206  23.982  1.00  0.00     0.239 C 
ATOM      6  O   UNL A   1      35.705  23.270  22.767  1.00  0.00    -0.273 OA
ATOM      7  H   UNL A   1      37.744  22.490  23.580  1.00  0.00     0.163 HD
BRANCH   5   8
ATOM      8  C   UNL A   1      34.875  23.677  24.988  1.00  0.00     0.221 C 
BRANCH   8   9
ATOM      9  N   UNL A   1      33.884  22.709  25.471  1.00  0.00    -0.311 N 
BRANCH   9  10
ATOM     10  C   UNL A   1      34.179  21.587  26.213  1.00  0.00     0.318 C 
ATOM     11  N   UNL A   1      34.507  20.388  25.708  1.00  0.00    -0.333 N 
ATOM     12  H   UNL A   1      34.841  19.804  26.426  1.00  0.00     0.165 HD
ATOM     13  O   UNL A   1      34.160  21.593  27.448  1.00  0.00    -0.249 OA
BRANCH  11  14
ATOM     14  C   UNL A   1      34.528  19.675  24.443  1.00  0.00     0.166 C 
BRANCH  14  15
ATOM     15  C   UNL A   1      34.040  18.272  24.581  1.00  0.00     0.044 A 
ATOM     16  C   UNL A   1      32.053  15.120  25.670  1.00  0.00     0.079 C 
ATOM     17  C   UNL A   1      32.945  16.174  25.120  1.00  0.00     0.090 A 
ATOM     18  N   UNL A   1      33.805  15.982  24.145  1.00  0.00    -0.250 NA
ATOM     19  S   UNL A   1      32.896  17.767  25.758  1.00  0.00    -0.122 S 
ATOM     20  C   UNL A   1      34.421  17.175  23.829  1.00  0.00     0.128 A 
ENDBRANCH  14  15
ENDBRANCH  11  14
ENDBRANCH   9  10
BRANCH   9  21
ATOM     21  C   UNL A   1      32.413  23.044  25.233  1.00  0.00     0.037 C 
ATOM     22  C   UNL A   1      32.030  24.392  25.879  1.00  0.00     0.034 C 
ATOM     23  C   UNL A   1      32.095  23.090  23.716  1.00  0.00     0.034 C 
ATOM     24  C   UNL A   1      31.411  22.010  25.821  1.00  0.00     0.034 C 
ENDBRANCH   9  21
ENDBRANCH   8   9
ENDBRANCH   5   8
ENDBRANCH   3   4
ENDBRANCH   2   3
ENDBRANCH   1   2
BRANCH   1  25
ATOM     25  C   UNL A   1      40.611  22.157  27.292  1.00  0.00     0.002 C 
BRANCH  25  26
ATOM     26  C   UNL A   1      42.141  22.103  27.343  1.00  0.00     0.021 C 
BRANCH  26  27
ATOM     27  C   UNL A   1      42.839  23.453  27.200  1.00  0.00     0.116 C 
BRANCH  27  28
ATOM     28  N   UNL A   1      42.313  24.228  26.088  1.00  0.00    -0.352 N 
ATOM     29  C   UNL A   1      41.608  25.408  26.119  1.00  0.00     0.251 C 
ATOM     30  H   UNL A   1      42.485  23.858  25.193  1.00  0.00     0.163 HD
ATOM     31  O   UNL A   1      41.077  25.839  25.105  1.00  0.00    -0.269 OA
BRANCH  29  32
ATOM     32  C   UNL A   1      41.482  26.139  27.398  1.00  0.00     0.039 A 
ATOM     33  C   UNL A   1      42.401  27.147  27.699  1.00  0.00     0.014 A 
ATOM     34  C   UNL A   1      40.443  25.839  28.285  1.00  0.00     0.014 A 
ATOM     35  C   UNL A   1      42.238  27.904  28.863  1.00  0.00     0.010 A 
ATOM     36  C   UNL A   1      40.249  26.633  29.412  1.00  0.00     0.010 A 
ATOM     37  C   UNL A   1      41.142  27.675  29.710  1.00  0.00    -0.014 A 
BRANCH  37  38
ATOM     38  C   UNL A   1      40.897  28.513  30.911  1.00  0.00     0.031 A 
ATOM     39  C   UNL A   1      39.817  29.561  30.885  1.00  0.00     0.074 A 
ATOM     40  C   UNL A   1      41.707  28.401  31.982  1.00  0.00     0.049 A 
ATOM     41  N   UNL A   1      39.538  30.480  31.772  1.00  0.00    -0.248 NA
ATOM     42  C   UNL A   1      38.957  29.597  29.690  1.00  0.00     0.031 C 
ATOM     43  C   UNL A   1      42.820  27.456  32.106  1.00  0.00     0.029 A 
ATOM     44  N   UNL A   1      41.740  29.105  33.160  1.00  0.00    -0.354 N 
ATOM     45  C   UNL A   1      38.493  31.222  31.232  1.00  0.00     0.074 A 
ATOM     46  C   UNL A   1      38.209  30.666  29.927  1.00  0.00     0.031 C 
ATOM     47  C   UNL A   1      43.426  27.642  33.290  1.00  0.00     0.029 A 
ATOM     48  C   UNL A   1      42.773  28.742  33.994  1.00  0.00     0.049 A 
ATOM     49  H   UNL A   1      41.087  29.805  33.387  1.00  0.00     0.167 HD
ATOM     50  C   UNL A   1      37.824  32.263  31.782  1.00  0.00     0.037 A 
ATOM     51  C   UNL A   1      43.165  29.252  35.178  1.00  0.00     0.037 A 
ATOM     52  C   UNL A   1      38.085  32.781  33.099  1.00  0.00     0.049 A 
ATOM     53  C   UNL A   1      42.391  30.396  35.777  1.00  0.00     0.074 A 
ATOM     54  C   UNL A   1      37.405  33.776  33.779  1.00  0.00     0.029 A 
ATOM     55  N   UNL A   1      39.106  32.352  33.933  1.00  0.00    -0.354 N 
ATOM     56  N   UNL A   1      41.356  31.036  35.285  1.00  0.00    -0.248 NA
ATOM     57  C   UNL A   1      42.831  30.885  37.091  1.00  0.00     0.031 C 
ATOM     58  C   UNL A   1      38.040  33.979  35.008  1.00  0.00     0.029 A 
ATOM     59  C   UNL A   1      39.088  33.077  35.112  1.00  0.00     0.049 A 
ATOM     60  H   UNL A   1      39.749  31.638  33.719  1.00  0.00     0.167 HD
ATOM     61  C   UNL A   1      41.006  31.983  36.241  1.00  0.00     0.074 A 
ATOM     62  C   UNL A   1      41.933  31.828  37.343  1.00  0.00     0.031 C 
ATOM     63  C   UNL A   1      40.007  32.899  36.208  1.00  0.00     0.037 A 
BRANCH  50  64
ATOM     64  C   UNL A   1      36.741  32.913  30.968  1.00  0.00     0.058 A 
ATOM     65  C   UNL A   1      35.396  32.528  31.086  1.00  0.00     0.135 A 
ATOM     66  C   UNL A   1      37.044  33.976  30.102  1.00  0.00     0.135 A 
ATOM     67  F   UNL A   1      35.052  31.508  31.888  1.00  0.00    -0.206 F 
ATOM     68  C   UNL A   1      34.392  33.161  30.361  1.00  0.00     0.059 A 
ATOM     69  C   UNL A   1      36.053  34.642  29.388  1.00  0.00     0.059 A 
ATOM     70  F   UNL A   1      38.315  34.383  29.952  1.00  0.00    -0.206 F 
ATOM     71  C   UNL A   1      34.731  34.220  29.516  1.00  0.00     0.060 A 
BRANCH  71  72
ATOM     72  S   UNL A   1      33.413  35.049  28.602  1.00  0.00     0.124 S 
ATOM     73  O   UNL A   1      34.178  35.923  27.717  1.00  0.00    -0.237 OA
ATOM     74  O   UNL A   1      32.732  33.933  27.954  1.00  0.00    -0.237 OA
ATOM     75  O   UNL A   1      32.649  35.726  29.645  1.00  0.00    -0.744 OA
ENDBRANCH  71  72
ENDBRANCH  50  64
BRANCH  51  76
ATOM     76  C   UNL A   1      44.350  28.687  35.876  1.00  0.00     0.058 A 
ATOM     77  C   UNL A   1      44.219  27.627  36.783  1.00  0.00     0.135 A 
ATOM     78  C   UNL A   1      45.639  29.197  35.648  1.00  0.00     0.135 A 
ATOM     79  F   UNL A   1      43.008  27.110  37.039  1.00  0.00    -0.206 F 
ATOM     80  C   UNL A   1      45.318  27.102  37.457  1.00  0.00     0.059 A 
ATOM     81  C   UNL A   1      46.756  28.673  36.291  1.00  0.00     0.059 A 
ATOM     82  F   UNL A   1      45.822  30.199  34.775  1.00  0.00    -0.206 F 
ATOM     83  C   UNL A   1      46.584  27.633  37.203  1.00  0.00     0.060 A 
BRANCH  83  84
ATOM     84  S   UNL A   1      48.011  26.921  38.051  1.00  0.00     0.124 S 
ATOM     85  O   UNL A   1      48.440  28.036  38.886  1.00  0.00    -0.237 OA
ATOM     86  O   UNL A   1      47.417  25.787  38.753  1.00  0.00    -0.237 OA
ATOM     87  O   UNL A   1      48.908  26.568  36.955  1.00  0.00    -0.744 OA
ENDBRANCH  83  84
ENDBRANCH  51  76
BRANCH  63  88
ATOM     88  C   UNL A   1      39.831  33.782  37.411  1.00  0.00     0.058 A 
ATOM     89  C   UNL A   1      40.405  35.059  37.479  1.00  0.00     0.135 A 
ATOM     90  C   UNL A   1      39.008  33.373  38.474  1.00  0.00     0.135 A 
ATOM     91  F   UNL A   1      41.206  35.494  36.493  1.00  0.00    -0.206 F 
ATOM     92  C   UNL A   1      40.178  35.900  38.565  1.00  0.00     0.059 A 
ATOM     93  C   UNL A   1      38.747  34.206  39.557  1.00  0.00     0.059 A 
ATOM     94  F   UNL A   1      38.427  32.163  38.452  1.00  0.00    -0.206 F 
ATOM     95  C   UNL A   1      39.343  35.466  39.596  1.00  0.00     0.060 A 
BRANCH  95  96
ATOM     96  S   UNL A   1      39.010  36.588  40.971  1.00  0.00     0.124 S 
ATOM     97  O   UNL A   1      40.320  36.666  41.610  1.00  0.00    -0.237 OA
ATOM     98  O   UNL A   1      38.564  37.798  40.288  1.00  0.00    -0.237 OA
ATOM     99  O   UNL A   1      37.980  35.892  41.736  1.00  0.00    -0.744 OA
ENDBRANCH  95  96
ENDBRANCH  63  88
ENDBRANCH  37  38
ENDBRANCH  29  32
ENDBRANCH  27  28
ENDBRANCH  26  27
ENDBRANCH  25  26
ENDBRANCH   1  25
TORSDOF 21
ENDMDL
MODEL 3
REMARK VINA RESULT:     -10.4      2.395      4.496
REMARK SMILES Cc1ncc(CNC(=O)N(CC(=O)NCCCCCCNC(=O)c2ccc(-c3c4nc(c(-c5c(F)cc(S(=O)(=O)[O-])cc5F)c5ccc([nH]5)c(-c5c(F)cc(S(=O)(=O)[O-])cc5F)c5nc(c(-c6c(F)cc(S(=O)(=O)[O-])cc6F)c6ccc3[nH]6)C=C5)C=C4)cc2)C(C)(C)C)s1
REMARK SMILES IDX 17 1 16 2 15 3 14 4 12 5 13 6 11 8 10 9 8 10 7 11 9 13 6 14
REMARK SMILES IDX 5 15 1 16 2 17 3 18 94 19 4 20 90 21 91 22 92 23 93 24 18 25
REMARK SMILES IDX 19 26 20 27 21 28 22 29 23 31 24 32 25 33 89 34 26 35 88 36
REMARK SMILES IDX 27 37 28 38 29 39 82 40 30 41 87 42 81 43 83 44 31 45 86 46
REMARK SMILES IDX 80 47 79 48 32 50 66 51 45 52 65 53 46 54 49 55 64 56 84 57
REMARK SMILES IDX 47 58 48 59 63 61 85 62 50 63 33 64 34 65 43 66 35 67 36 68
REMARK SMILES IDX 42 69 44 70 37 71 38 72 39 73 40 74 41 75 67 76 68 77 77 78
REMARK SMILES IDX 69 79 70 80 76 81 78 82 71 83 72 84 73 85 74 86 75 87 51 88
REMARK SMILES IDX 52 89 61 90 53 91 54 92 60 93 62 94 55 95 56 96 57 97 58 98
REMARK SMILES IDX 59 99
REMARK H PARENT 14 7 7 12 21 30 83 49 49 60
REMARK Flexibility Score: inf
ROOT
ATOM      1  C   UNL A   1      39.850  21.096  26.164  1.00  0.00     0.002 C 
ENDROOT
BRANCH   1   2
ATOM      2  C   UNL A   1      39.301  22.522  26.119  1.00  0.00     0.021 C 
BRANCH   2   3
ATOM      3  C   UNL A   1      37.787  22.624  25.986  1.00  0.00     0.116 C 
BRANCH   3   4
ATOM      4  N   UNL A   1      37.327  22.622  24.613  1.00  0.00    -0.355 N 
ATOM      5  C   UNL A   1      36.194  23.109  24.041  1.00  0.00     0.239 C 
ATOM      6  O   UNL A   1      36.188  23.164  22.803  1.00  0.00    -0.273 OA
ATOM      7  H   UNL A   1      37.946  22.190  23.980  1.00  0.00     0.163 HD
BRANCH   5   8
ATOM      8  C   UNL A   1      35.022  23.722  24.832  1.00  0.00     0.221 C 
BRANCH   8   9
ATOM      9  N   UNL A   1      34.002  22.827  25.389  1.00  0.00    -0.311 N 
BRANCH   9  10
ATOM     10  C   UNL A   1      34.268  21.691  26.119  1.00  0.00     0.318 C 
ATOM     11  N   UNL A   1      34.320  20.446  25.623  1.00  0.00    -0.333 N 
ATOM     12  H   UNL A   1      34.697  19.834  26.295  1.00  0.00     0.165 HD
ATOM     13  O   UNL A   1      34.484  21.727  27.335  1.00  0.00    -0.249 OA
BRANCH  11  14
ATOM     14  C   UNL A   1      33.999  19.709  24.412  1.00  0.00     0.166 C 
BRANCH  14  15
ATOM     15  C   UNL A   1      33.913  18.240  24.655  1.00  0.00     0.044 A 
ATOM     16  C   UNL A   1      32.620  14.695  25.568  1.00  0.00     0.079 C 
ATOM     17  C   UNL A   1      33.328  15.944  25.181  1.00  0.00     0.090 A 
ATOM     18  N   UNL A   1      34.536  15.981  24.665  1.00  0.00    -0.250 NA
ATOM     19  S   UNL A   1      32.569  17.469  25.396  1.00  0.00    -0.122 S 
ATOM     20  C   UNL A   1      34.867  17.284  24.356  1.00  0.00     0.128 A 
ENDBRANCH  14  15
ENDBRANCH  11  14
ENDBRANCH   9  10
BRANCH   9  21
ATOM     21  C   UNL A   1      32.544  23.263  25.248  1.00  0.00     0.037 C 
ATOM     22  C   UNL A   1      32.260  24.549  26.052  1.00  0.00     0.034 C 
ATOM     23  C   UNL A   1      32.178  23.493  23.759  1.00  0.00     0.034 C 
ATOM     24  C   UNL A   1      31.507  22.224  25.760  1.00  0.00     0.034 C 
ENDBRANCH   9  21
ENDBRANCH   8   9
ENDBRANCH   5   8
ENDBRANCH   3   4
ENDBRANCH   2   3
ENDBRANCH   1   2
BRANCH   1  25
ATOM     25  C   UNL A   1      41.181  20.939  26.902  1.00  0.00     0.002 C 
BRANCH  25  26
ATOM     26  C   UNL A   1      41.321  21.771  28.179  1.00  0.00     0.021 C 
BRANCH  26  27
ATOM     27  C   UNL A   1      42.501  22.740  28.191  1.00  0.00     0.116 C 
BRANCH  27  28
ATOM     28  N   UNL A   1      42.776  23.285  26.871  1.00  0.00    -0.352 N 
ATOM     29  C   UNL A   1      42.593  24.570  26.415  1.00  0.00     0.251 C 
ATOM     30  H   UNL A   1      43.143  22.649  26.216  1.00  0.00     0.163 HD
ATOM     31  O   UNL A   1      42.701  24.826  25.224  1.00  0.00    -0.269 OA
BRANCH  29  32
ATOM     32  C   UNL A   1      42.243  25.633  27.381  1.00  0.00     0.039 A 
ATOM     33  C   UNL A   1      41.122  25.468  28.197  1.00  0.00     0.014 A 
ATOM     34  C   UNL A   1      43.037  26.779  27.491  1.00  0.00     0.014 A 
ATOM     35  C   UNL A   1      40.833  26.425  29.175  1.00  0.00     0.010 A 
ATOM     36  C   UNL A   1      42.783  27.698  28.505  1.00  0.00     0.010 A 
ATOM     37  C   UNL A   1      41.681  27.529  29.358  1.00  0.00    -0.014 A 
BRANCH  37  38
ATOM     38  C   UNL A   1      41.446  28.520  30.439  1.00  0.00     0.031 A 
ATOM     39  C   UNL A   1      42.232  28.430  31.720  1.00  0.00     0.074 A 
ATOM     40  C   UNL A   1      40.464  29.432  30.309  1.00  0.00     0.049 A 
ATOM     41  N   UNL A   1      42.082  29.107  32.828  1.00  0.00    -0.248 NA
ATOM     42  C   UNL A   1      43.307  27.425  31.769  1.00  0.00     0.031 C 
ATOM     43  C   UNL A   1      39.602  29.587  29.134  1.00  0.00     0.029 A 
ATOM     44  N   UNL A   1      40.003  30.386  31.183  1.00  0.00    -0.354 N 
ATOM     45  C   UNL A   1      43.021  28.592  33.715  1.00  0.00     0.074 A 
ATOM     46  C   UNL A   1      43.713  27.524  33.027  1.00  0.00     0.031 C 
ATOM     47  C   UNL A   1      38.718  30.572  29.362  1.00  0.00     0.029 A 
ATOM     48  C   UNL A   1      38.922  31.094  30.710  1.00  0.00     0.049 A 
ATOM     49  H   UNL A   1      40.408  30.548  32.065  1.00  0.00     0.167 HD
ATOM     50  C   UNL A   1      43.288  28.984  34.984  1.00  0.00     0.037 A 
ATOM     51  C   UNL A   1      38.165  32.038  31.303  1.00  0.00     0.037 A 
ATOM     52  C   UNL A   1      42.623  30.076  35.646  1.00  0.00     0.049 A 
ATOM     53  C   UNL A   1      38.497  32.471  32.706  1.00  0.00     0.074 A 
ATOM     54  C   UNL A   1      42.882  30.606  36.898  1.00  0.00     0.029 A 
ATOM     55  N   UNL A   1      41.568  30.802  35.114  1.00  0.00    -0.354 N 
ATOM     56  N   UNL A   1      39.439  32.025  33.503  1.00  0.00    -0.248 NA
ATOM     57  C   UNL A   1      37.670  33.537  33.290  1.00  0.00     0.031 C 
ATOM     58  C   UNL A   1      41.956  31.625  37.141  1.00  0.00     0.029 A 
ATOM     59  C   UNL A   1      41.151  31.760  36.022  1.00  0.00     0.049 A 
ATOM     60  H   UNL A   1      41.174  30.657  34.224  1.00  0.00     0.167 HD
ATOM     61  C   UNL A   1      39.334  32.773  34.671  1.00  0.00     0.074 A 
ATOM     62  C   UNL A   1      38.244  33.706  34.474  1.00  0.00     0.031 C 
ATOM     63  C   UNL A   1      40.074  32.694  35.804  1.00  0.00     0.037 A 
BRANCH  50  64
ATOM     64  C   UNL A   1      44.347  28.236  35.744  1.00  0.00     0.058 A 
ATOM     65  C   UNL A   1      45.703  28.587  35.662  1.00  0.00     0.135 A 
ATOM     66  C   UNL A   1      43.992  27.192  36.615  1.00  0.00     0.135 A 
ATOM     67  F   UNL A   1      46.100  29.567  34.834  1.00  0.00    -0.206 F 
ATOM     68  C   UNL A   1      46.673  27.917  36.400  1.00  0.00     0.059 A 
ATOM     69  C   UNL A   1      44.942  26.527  37.383  1.00  0.00     0.059 A 
ATOM     70  F   UNL A   1      42.708  26.816  36.730  1.00  0.00    -0.206 F 
ATOM     71  C   UNL A   1      46.281  26.890  37.261  1.00  0.00     0.060 A 
BRANCH  71  72
ATOM     72  S   UNL A   1      47.550  26.049  38.232  1.00  0.00     0.124 S 
ATOM     73  O   UNL A   1      47.293  26.580  39.568  1.00  0.00    -0.237 OA
ATOM     74  O   UNL A   1      47.213  24.642  38.035  1.00  0.00    -0.237 OA
ATOM     75  O   UNL A   1      48.797  26.485  37.613  1.00  0.00    -0.744 OA
ENDBRANCH  71  72
ENDBRANCH  50  64
BRANCH  51  76
ATOM     76  C   UNL A   1      37.017  32.638  30.573  1.00  0.00     0.058 A 
ATOM     77  C   UNL A   1      35.740  32.060  30.631  1.00  0.00     0.135 A 
ATOM     78  C   UNL A   1      37.172  33.803  29.805  1.00  0.00     0.135 A 
ATOM     79  F   UNL A   1      35.543  30.943  31.347  1.00  0.00    -0.206 F 
ATOM     80  C   UNL A   1      34.662  32.601  29.938  1.00  0.00     0.059 A 
ATOM     81  C   UNL A   1      36.104  34.378  29.124  1.00  0.00     0.059 A 
ATOM     82  F   UNL A   1      38.368  34.407  29.732  1.00  0.00    -0.206 F 
ATOM     83  C   UNL A   1      34.854  33.762  29.186  1.00  0.00     0.060 A 
BRANCH  83  84
ATOM     84  S   UNL A   1      33.441  34.481  28.322  1.00  0.00     0.124 S 
ATOM     85  O   UNL A   1      34.102  35.274  27.292  1.00  0.00    -0.237 OA
ATOM     86  O   UNL A   1      32.729  33.295  27.857  1.00  0.00    -0.237 OA
ATOM     87  O   UNL A   1      32.761  35.240  29.367  1.00  0.00    -0.744 OA
ENDBRANCH  83  84
ENDBRANCH  51  76
BRANCH  63  88
ATOM     88  C   UNL A   1      39.765  33.665  36.908  1.00  0.00     0.058 A 
ATOM     89  C   UNL A   1      38.876  33.344  37.945  1.00  0.00     0.135 A 
ATOM     90  C   UNL A   1      40.430  34.900  36.972  1.00  0.00     0.135 A 
ATOM     91  F   UNL A   1      38.209  32.179  37.926  1.00  0.00    -0.206 F 
ATOM     92  C   UNL A   1      38.648  34.219  39.002  1.00  0.00     0.059 A 
ATOM     93  C   UNL A   1      40.237  35.779  38.033  1.00  0.00     0.059 A 
ATOM     94  F   UNL A   1      41.299  35.250  36.009  1.00  0.00    -0.206 F 
ATOM     95  C   UNL A   1      39.339  35.432  39.040  1.00  0.00     0.060 A 
BRANCH  95  96
ATOM     96  S   UNL A   1      39.079  36.533  40.447  1.00  0.00     0.124 S 
ATOM     97  O   UNL A   1      40.432  36.648  40.984  1.00  0.00    -0.237 OA
ATOM     98  O   UNL A   1      38.545  37.734  39.811  1.00  0.00    -0.237 OA
ATOM     99  O   UNL A   1      38.134  35.800  41.282  1.00  0.00    -0.744 OA
ENDBRANCH  95  96
ENDBRANCH  63  88
ENDBRANCH  37  38
ENDBRANCH  29  32
ENDBRANCH  27  28
ENDBRANCH  26  27
ENDBRANCH  25  26
ENDBRANCH   1  25
TORSDOF 21
ENDMDL
