MODEL 1
REMARK VINA RESULT:      -8.9      0.000      0.000
REMARK SMILES CS(=O)(=O)c1ccc(/C=C(/C(=O)NCCCCCCNC(=O)c2ccc(-c3c4nc(c(-c5c(F)cc(S(=O)(=O)[O-])cc5F)c5ccc([nH]5)c(-c5c(F)cc(S(=O)(=O)[O-])cc5F)c5nc(c(-c6c(F)cc(S(=O)(=O)[O-])cc6F)c6ccc3[nH]6)C=C5)C=C4)cc2)c2ccc(-c3ccc(S(C)(=O)=O)cc3)cc2)cc1
REMARK SMILES IDX 16 1 15 2 14 3 13 4 11 5 12 6 10 8 9 9 8 10 5 11 6 12 106 13
REMARK SMILES IDX 7 14 105 15 2 16 1 17 3 18 4 19 89 20 90 21 104 22 91 23
REMARK SMILES IDX 103 24 92 25 93 26 94 27 102 28 95 29 101 30 96 31 97 32
REMARK SMILES IDX 98 33 99 34 100 35 17 36 18 37 19 38 20 39 21 40 22 42 23 43
REMARK SMILES IDX 24 44 88 45 25 46 87 47 26 48 27 49 28 50 81 51 29 52 86 53
REMARK SMILES IDX 80 54 82 55 30 56 85 57 79 58 78 59 31 61 65 62 44 63 64 64
REMARK SMILES IDX 45 65 48 66 63 67 83 68 46 69 47 70 62 72 84 73 49 74 32 75
REMARK SMILES IDX 33 76 42 77 34 78 35 79 41 80 43 81 36 82 37 83 38 84 39 85
REMARK SMILES IDX 40 86 66 87 67 88 76 89 68 90 69 91 75 92 77 93 70 94 71 95
REMARK SMILES IDX 72 96 73 97 74 98 50 99 51 100 60 101 52 102 53 103 59 104
REMARK SMILES IDX 61 105 54 106 55 107 56 108 57 109 58 110
REMARK H PARENT 13 7 20 41 82 60 48 71
REMARK Flexibility Score: inf
ROOT
ATOM      1  C   UNL A   1      37.978  33.514  30.484  1.00  0.00     0.002 C 
ENDROOT
BRANCH   1   2
ATOM      2  C   UNL A   1      38.790  34.464  31.378  1.00  0.00     0.021 C 
BRANCH   2   3
ATOM      3  C   UNL A   1      38.989  33.933  32.800  1.00  0.00     0.116 C 
BRANCH   3   4
ATOM      4  N   UNL A   1      39.988  34.737  33.474  1.00  0.00    -0.352 N 
ATOM      5  C   UNL A   1      40.348  34.911  34.770  1.00  0.00     0.251 C 
ATOM      6  O   UNL A   1      41.177  35.800  34.982  1.00  0.00    -0.269 OA
ATOM      7  H   UNL A   1      40.526  35.279  32.853  1.00  0.00     0.163 HD
BRANCH   5   8
ATOM      8  C   UNL A   1      39.870  34.027  35.902  1.00  0.00     0.047 C 
ATOM      9  C   UNL A   1      39.110  34.484  36.926  1.00  0.00     0.022 C 
BRANCH   9  10
ATOM     10  C   UNL A   1      38.431  33.735  38.011  1.00  0.00    -0.025 A 
ATOM     11  C   UNL A   1      37.189  32.534  40.226  1.00  0.00     0.067 A 
ATOM     12  C   UNL A   1      36.566  32.504  38.977  1.00  0.00     0.021 A 
ATOM     13  C   UNL A   1      38.440  33.126  40.378  1.00  0.00     0.021 A 
ATOM     14  C   UNL A   1      37.208  33.068  37.870  1.00  0.00     0.009 A 
ATOM     15  C   UNL A   1      39.054  33.724  39.273  1.00  0.00     0.009 A 
BRANCH  11  16
ATOM     16  S   UNL A   1      36.345  31.833  41.622  1.00  0.00     0.175 S 
ATOM     17  C   UNL A   1      36.218  33.193  42.753  1.00  0.00     0.163 C 
ATOM     18  O   UNL A   1      37.226  30.841  42.198  1.00  0.00    -0.224 OA
ATOM     19  O   UNL A   1      34.998  31.485  41.200  1.00  0.00    -0.224 OA
ENDBRANCH  11  16
ENDBRANCH   9  10
BRANCH   8  20
ATOM     20  C   UNL A   1      40.449  32.662  35.950  1.00  0.00    -0.013 A 
ATOM     21  C   UNL A   1      39.805  31.660  35.210  1.00  0.00     0.009 A 
ATOM     22  C   UNL A   1      41.648  32.356  36.598  1.00  0.00     0.009 A 
ATOM     23  C   UNL A   1      40.380  30.401  35.060  1.00  0.00     0.009 A 
ATOM     24  C   UNL A   1      42.239  31.095  36.422  1.00  0.00     0.009 A 
ATOM     25  C   UNL A   1      41.631  30.109  35.622  1.00  0.00    -0.018 A 
BRANCH  25  26
ATOM     26  C   UNL A   1      42.294  28.827  35.320  1.00  0.00    -0.018 A 
ATOM     27  C   UNL A   1      43.578  28.815  34.733  1.00  0.00     0.010 A 
ATOM     28  C   UNL A   1      41.691  27.593  35.609  1.00  0.00     0.010 A 
ATOM     29  C   UNL A   1      44.229  27.620  34.430  1.00  0.00     0.021 A 
ATOM     30  C   UNL A   1      42.335  26.387  35.310  1.00  0.00     0.021 A 
ATOM     31  C   UNL A   1      43.595  26.411  34.710  1.00  0.00     0.067 A 
BRANCH  31  32
ATOM     32  S   UNL A   1      44.426  24.894  34.308  1.00  0.00     0.175 S 
ATOM     33  C   UNL A   1      43.176  23.658  34.552  1.00  0.00     0.163 C 
ATOM     34  O   UNL A   1      44.746  24.943  32.895  1.00  0.00    -0.224 OA
ATOM     35  O   UNL A   1      45.458  24.673  35.303  1.00  0.00    -0.224 OA
ENDBRANCH  31  32
ENDBRANCH  25  26
ENDBRANCH   8  20
ENDBRANCH   5   8
ENDBRANCH   3   4
ENDBRANCH   2   3
ENDBRANCH   1   2
BRANCH   1  36
ATOM     36  C   UNL A   1      36.783  34.163  29.775  1.00  0.00     0.002 C 
BRANCH  36  37
ATOM     37  C   UNL A   1      35.976  33.215  28.884  1.00  0.00     0.021 C 
BRANCH  37  38
ATOM     38  C   UNL A   1      34.971  32.354  29.640  1.00  0.00     0.116 C 
BRANCH  38  39
ATOM     39  N   UNL A   1      34.319  31.396  28.763  1.00  0.00    -0.352 N 
ATOM     40  C   UNL A   1      34.873  30.356  28.059  1.00  0.00     0.251 C 
ATOM     41  H   UNL A   1      33.348  31.510  28.658  1.00  0.00     0.163 HD
ATOM     42  O   UNL A   1      34.220  29.790  27.186  1.00  0.00    -0.269 OA
BRANCH  40  43
ATOM     43  C   UNL A   1      36.257  29.929  28.350  1.00  0.00     0.039 A 
ATOM     44  C   UNL A   1      37.236  30.083  27.366  1.00  0.00     0.014 A 
ATOM     45  C   UNL A   1      36.584  29.365  29.587  1.00  0.00     0.014 A 
ATOM     46  C   UNL A   1      38.554  29.711  27.639  1.00  0.00     0.010 A 
ATOM     47  C   UNL A   1      37.909  29.064  29.883  1.00  0.00     0.010 A 
ATOM     48  C   UNL A   1      38.906  29.220  28.907  1.00  0.00    -0.014 A 
BRANCH  48  49
ATOM     49  C   UNL A   1      40.308  28.851  29.227  1.00  0.00     0.031 A 
ATOM     50  C   UNL A   1      41.225  29.855  29.869  1.00  0.00     0.074 A 
ATOM     51  C   UNL A   1      40.772  27.636  28.879  1.00  0.00     0.049 A 
ATOM     52  N   UNL A   1      42.492  29.741  30.175  1.00  0.00    -0.248 NA
ATOM     53  C   UNL A   1      40.649  31.174  30.181  1.00  0.00     0.031 C 
ATOM     54  C   UNL A   1      39.995  26.597  28.199  1.00  0.00     0.029 A 
ATOM     55  N   UNL A   1      42.013  27.072  29.037  1.00  0.00    -0.354 N 
ATOM     56  C   UNL A   1      42.868  30.974  30.695  1.00  0.00     0.074 A 
ATOM     57  C   UNL A   1      41.710  31.838  30.611  1.00  0.00     0.031 C 
ATOM     58  C   UNL A   1      40.771  25.519  28.014  1.00  0.00     0.029 A 
ATOM     59  C   UNL A   1      42.108  25.799  28.531  1.00  0.00     0.049 A 
ATOM     60  H   UNL A   1      42.765  27.538  29.471  1.00  0.00     0.167 HD
ATOM     61  C   UNL A   1      44.064  31.346  31.214  1.00  0.00     0.037 A 
ATOM     62  C   UNL A   1      43.155  24.952  28.485  1.00  0.00     0.037 A 
ATOM     63  C   UNL A   1      45.203  30.472  31.314  1.00  0.00     0.049 A 
ATOM     64  C   UNL A   1      44.466  25.373  29.087  1.00  0.00     0.074 A 
ATOM     65  C   UNL A   1      46.436  30.726  31.886  1.00  0.00     0.029 A 
ATOM     66  N   UNL A   1      45.251  29.174  30.821  1.00  0.00    -0.354 N 
ATOM     67  N   UNL A   1      44.785  26.517  29.645  1.00  0.00    -0.248 NA
ATOM     68  C   UNL A   1      45.555  24.389  29.065  1.00  0.00     0.031 C 
ATOM     69  C   UNL A   1      47.245  29.599  31.700  1.00  0.00     0.029 A 
ATOM     70  C   UNL A   1      46.500  28.623  31.057  1.00  0.00     0.049 A 
ATOM     71  H   UNL A   1      44.506  28.714  30.371  1.00  0.00     0.167 HD
ATOM     72  C   UNL A   1      46.105  26.384  30.061  1.00  0.00     0.074 A 
ATOM     73  C   UNL A   1      46.520  25.042  29.700  1.00  0.00     0.031 C 
ATOM     74  C   UNL A   1      46.900  27.287  30.687  1.00  0.00     0.037 A 
BRANCH  61  75
ATOM     75  C   UNL A   1      44.192  32.764  31.704  1.00  0.00     0.058 A 
ATOM     76  C   UNL A   1      43.894  33.120  33.031  1.00  0.00     0.135 A 
ATOM     77  C   UNL A   1      44.614  33.783  30.835  1.00  0.00     0.135 A 
ATOM     78  F   UNL A   1      43.475  32.189  33.903  1.00  0.00    -0.206 F 
ATOM     79  C   UNL A   1      43.958  34.441  33.463  1.00  0.00     0.059 A 
ATOM     80  C   UNL A   1      44.715  35.107  31.254  1.00  0.00     0.059 A 
ATOM     81  F   UNL A   1      44.916  33.501  29.558  1.00  0.00    -0.206 F 
ATOM     82  C   UNL A   1      44.361  35.429  32.563  1.00  0.00     0.060 A 
BRANCH  82  83
ATOM     83  S   UNL A   1      44.403  37.144  33.126  1.00  0.00     0.124 S 
ATOM     84  O   UNL A   1      45.356  37.733  32.191  1.00  0.00    -0.237 OA
ATOM     85  O   UNL A   1      43.014  37.562  32.963  1.00  0.00    -0.237 OA
ATOM     86  O   UNL A   1      44.864  37.036  34.507  1.00  0.00    -0.744 OA
ENDBRANCH  82  83
ENDBRANCH  61  75
BRANCH  62  87
ATOM     87  C   UNL A   1      42.980  23.608  27.873  1.00  0.00     0.058 A 
ATOM     88  C   UNL A   1      42.595  22.506  28.650  1.00  0.00     0.135 A 
ATOM     89  C   UNL A   1      43.132  23.414  26.491  1.00  0.00     0.135 A 
ATOM     90  F   UNL A   1      42.443  22.642  29.976  1.00  0.00    -0.206 F 
ATOM     91  C   UNL A   1      42.364  21.260  28.080  1.00  0.00     0.059 A 
ATOM     92  C   UNL A   1      42.885  22.181  25.895  1.00  0.00     0.059 A 
ATOM     93  F   UNL A   1      43.481  24.443  25.702  1.00  0.00    -0.206 F 
ATOM     94  C   UNL A   1      42.502  21.109  26.699  1.00  0.00     0.060 A 
BRANCH  94  95
ATOM     95  S   UNL A   1      42.109  19.509  25.959  1.00  0.00     0.124 S 
ATOM     96  O   UNL A   1      42.994  19.496  24.799  1.00  0.00    -0.237 OA
ATOM     97  O   UNL A   1      42.451  18.583  27.034  1.00  0.00    -0.237 OA
ATOM     98  O   UNL A   1      40.683  19.616  25.665  1.00  0.00    -0.744 OA
ENDBRANCH  94  95
ENDBRANCH  62  87
BRANCH  74  99
ATOM     99  C   UNL A   1      48.293  26.850  31.048  1.00  0.00     0.058 A 
ATOM    100  C   UNL A   1      48.602  26.347  32.320  1.00  0.00     0.135 A 
ATOM    101  C   UNL A   1      49.318  26.886  30.088  1.00  0.00     0.135 A 
ATOM    102  F   UNL A   1      47.660  26.295  33.275  1.00  0.00    -0.206 F 
ATOM    103  C   UNL A   1      49.887  25.916  32.638  1.00  0.00     0.059 A 
ATOM    104  C   UNL A   1      50.603  26.435  30.376  1.00  0.00     0.059 A 
ATOM    105  F   UNL A   1      49.073  27.348  28.853  1.00  0.00    -0.206 F 
ATOM    106  C   UNL A   1      50.880  25.963  31.658  1.00  0.00     0.060 A 
BRANCH 106 107
ATOM    107  S   UNL A   1      52.536  25.371  32.073  1.00  0.00     0.124 S 
ATOM    108  O   UNL A   1      52.333  23.926  32.095  1.00  0.00    -0.237 OA
ATOM    109  O   UNL A   1      53.337  25.882  30.965  1.00  0.00    -0.237 OA
ATOM    110  O   UNL A   1      52.801  25.989  33.369  1.00  0.00    -0.744 OA
ENDBRANCH 106 107
ENDBRANCH  74  99
ENDBRANCH  48  49
ENDBRANCH  40  43
ENDBRANCH  38  39
ENDBRANCH  37  38
ENDBRANCH  36  37
ENDBRANCH   1  36
TORSDOF 21
ENDMDL
MODEL 2
REMARK VINA RESULT:      -8.7      4.491      9.842
REMARK SMILES CS(=O)(=O)c1ccc(/C=C(/C(=O)NCCCCCCNC(=O)c2ccc(-c3c4nc(c(-c5c(F)cc(S(=O)(=O)[O-])cc5F)c5ccc([nH]5)c(-c5c(F)cc(S(=O)(=O)[O-])cc5F)c5nc(c(-c6c(F)cc(S(=O)(=O)[O-])cc6F)c6ccc3[nH]6)C=C5)C=C4)cc2)c2ccc(-c3ccc(S(C)(=O)=O)cc3)cc2)cc1
REMARK SMILES IDX 16 1 15 2 14 3 13 4 11 5 12 6 10 8 9 9 8 10 5 11 6 12 106 13
REMARK SMILES IDX 7 14 105 15 2 16 1 17 3 18 4 19 89 20 90 21 104 22 91 23
REMARK SMILES IDX 103 24 92 25 93 26 94 27 102 28 95 29 101 30 96 31 97 32
REMARK SMILES IDX 98 33 99 34 100 35 17 36 18 37 19 38 20 39 21 40 22 42 23 43
REMARK SMILES IDX 24 44 88 45 25 46 87 47 26 48 27 49 28 50 81 51 29 52 86 53
REMARK SMILES IDX 80 54 82 55 30 56 85 57 79 58 78 59 31 61 65 62 44 63 64 64
REMARK SMILES IDX 45 65 48 66 63 67 83 68 46 69 47 70 62 72 84 73 49 74 32 75
REMARK SMILES IDX 33 76 42 77 34 78 35 79 41 80 43 81 36 82 37 83 38 84 39 85
REMARK SMILES IDX 40 86 66 87 67 88 76 89 68 90 69 91 75 92 77 93 70 94 71 95
REMARK SMILES IDX 72 96 73 97 74 98 50 99 51 100 60 101 52 102 53 103 59 104
REMARK SMILES IDX 61 105 54 106 55 107 56 108 57 109 58 110
REMARK H PARENT 13 7 20 41 82 60 48 71
REMARK Flexibility Score: inf
ROOT
ATOM      1  C   UNL A   1      39.810  28.294  27.507  1.00  0.00     0.002 C 
ENDROOT
BRANCH   1   2
ATOM      2  C   UNL A   1      41.090  28.905  26.914  1.00  0.00     0.021 C 
BRANCH   2   3
ATOM      3  C   UNL A   1      41.662  28.096  25.747  1.00  0.00     0.116 C 
BRANCH   3   4
ATOM      4  N   UNL A   1      43.091  28.317  25.668  1.00  0.00    -0.352 N 
ATOM      5  C   UNL A   1      44.183  27.537  25.864  1.00  0.00     0.251 C 
ATOM      6  O   UNL A   1      45.270  28.120  25.834  1.00  0.00    -0.269 OA
ATOM      7  H   UNL A   1      43.322  29.240  25.414  1.00  0.00     0.163 HD
BRANCH   5   8
ATOM      8  C   UNL A   1      44.126  26.031  26.011  1.00  0.00     0.047 C 
ATOM      9  C   UNL A   1      43.934  25.194  24.964  1.00  0.00     0.022 C 
BRANCH   9  10
ATOM     10  C   UNL A   1      44.013  23.715  24.907  1.00  0.00    -0.025 A 
ATOM     11  C   UNL A   1      44.423  20.935  24.876  1.00  0.00     0.067 A 
ATOM     12  C   UNL A   1      43.297  21.466  25.506  1.00  0.00     0.021 A 
ATOM     13  C   UNL A   1      45.331  21.770  24.230  1.00  0.00     0.021 A 
ATOM     14  C   UNL A   1      43.077  22.847  25.483  1.00  0.00     0.009 A 
ATOM     15  C   UNL A   1      45.124  23.153  24.250  1.00  0.00     0.009 A 
BRANCH  11  16
ATOM     16  S   UNL A   1      44.694  19.182  24.938  1.00  0.00     0.175 S 
ATOM     17  C   UNL A   1      46.322  19.040  25.628  1.00  0.00     0.163 C 
ATOM     18  O   UNL A   1      44.733  18.708  23.572  1.00  0.00    -0.224 OA
ATOM     19  O   UNL A   1      43.758  18.620  25.899  1.00  0.00    -0.224 OA
ENDBRANCH  11  16
ENDBRANCH   9  10
BRANCH   8  20
ATOM     20  C   UNL A   1      44.085  25.516  27.402  1.00  0.00    -0.013 A 
ATOM     21  C   UNL A   1      45.084  24.609  27.785  1.00  0.00     0.009 A 
ATOM     22  C   UNL A   1      43.178  25.966  28.364  1.00  0.00     0.009 A 
ATOM     23  C   UNL A   1      45.220  24.216  29.113  1.00  0.00     0.009 A 
ATOM     24  C   UNL A   1      43.336  25.589  29.707  1.00  0.00     0.009 A 
ATOM     25  C   UNL A   1      44.380  24.736  30.108  1.00  0.00    -0.018 A 
BRANCH  25  26
ATOM     26  C   UNL A   1      44.641  24.431  31.527  1.00  0.00    -0.018 A 
ATOM     27  C   UNL A   1      44.149  23.237  32.096  1.00  0.00     0.010 A 
ATOM     28  C   UNL A   1      45.385  25.293  32.348  1.00  0.00     0.010 A 
ATOM     29  C   UNL A   1      44.374  22.922  33.436  1.00  0.00     0.021 A 
ATOM     30  C   UNL A   1      45.617  24.988  33.693  1.00  0.00     0.021 A 
ATOM     31  C   UNL A   1      45.098  23.810  34.231  1.00  0.00     0.067 A 
BRANCH  31  32
ATOM     32  S   UNL A   1      45.367  23.407  35.938  1.00  0.00     0.175 S 
ATOM     33  C   UNL A   1      47.126  23.547  36.126  1.00  0.00     0.163 C 
ATOM     34  O   UNL A   1      44.742  24.450  36.728  1.00  0.00    -0.224 OA
ATOM     35  O   UNL A   1      45.017  22.012  36.129  1.00  0.00    -0.224 OA
ENDBRANCH  31  32
ENDBRANCH  25  26
ENDBRANCH   8  20
ENDBRANCH   5   8
ENDBRANCH   3   4
ENDBRANCH   2   3
ENDBRANCH   1   2
BRANCH   1  36
ATOM     36  C   UNL A   1      39.788  28.209  29.038  1.00  0.00     0.002 C 
BRANCH  36  37
ATOM     37  C   UNL A   1      38.809  29.170  29.717  1.00  0.00     0.021 C 
BRANCH  37  38
ATOM     38  C   UNL A   1      39.378  30.562  29.971  1.00  0.00     0.116 C 
BRANCH  38  39
ATOM     39  N   UNL A   1      39.021  31.053  31.292  1.00  0.00    -0.352 N 
ATOM     40  C   UNL A   1      39.681  30.881  32.483  1.00  0.00     0.251 C 
ATOM     41  H   UNL A   1      38.192  31.581  31.338  1.00  0.00     0.163 HD
ATOM     42  O   UNL A   1      39.123  31.164  33.540  1.00  0.00    -0.269 OA
BRANCH  40  43
ATOM     43  C   UNL A   1      41.058  30.345  32.486  1.00  0.00     0.039 A 
ATOM     44  C   UNL A   1      42.133  31.235  32.430  1.00  0.00     0.014 A 
ATOM     45  C   UNL A   1      41.287  28.966  32.529  1.00  0.00     0.014 A 
ATOM     46  C   UNL A   1      43.439  30.744  32.461  1.00  0.00     0.010 A 
ATOM     47  C   UNL A   1      42.586  28.482  32.635  1.00  0.00     0.010 A 
ATOM     48  C   UNL A   1      43.677  29.365  32.588  1.00  0.00    -0.014 A 
BRANCH  48  49
ATOM     49  C   UNL A   1      45.058  28.826  32.657  1.00  0.00     0.031 A 
ATOM     50  C   UNL A   1      45.742  28.671  33.987  1.00  0.00     0.074 A 
ATOM     51  C   UNL A   1      45.719  28.540  31.518  1.00  0.00     0.049 A 
ATOM     52  N   UNL A   1      46.960  28.271  34.249  1.00  0.00    -0.248 NA
ATOM     53  C   UNL A   1      44.964  29.044  35.179  1.00  0.00     0.031 C 
ATOM     54  C   UNL A   1      45.182  28.704  30.166  1.00  0.00     0.029 A 
ATOM     55  N   UNL A   1      46.989  28.063  31.316  1.00  0.00    -0.354 N 
ATOM     56  C   UNL A   1      47.100  28.363  35.629  1.00  0.00     0.074 A 
ATOM     57  C   UNL A   1      45.862  28.909  36.143  1.00  0.00     0.031 C 
ATOM     58  C   UNL A   1      46.109  28.318  29.276  1.00  0.00     0.029 A 
ATOM     59  C   UNL A   1      47.317  27.911  29.991  1.00  0.00     0.049 A 
ATOM     60  H   UNL A   1      47.609  27.851  32.052  1.00  0.00     0.167 HD
ATOM     61  C   UNL A   1      48.156  28.005  36.400  1.00  0.00     0.037 A 
ATOM     62  C   UNL A   1      48.461  27.495  29.414  1.00  0.00     0.037 A 
ATOM     63  C   UNL A   1      49.374  27.441  35.881  1.00  0.00     0.049 A 
ATOM     64  C   UNL A   1      49.612  27.080  30.286  1.00  0.00     0.074 A 
ATOM     65  C   UNL A   1      50.475  26.979  36.580  1.00  0.00     0.029 A 
ATOM     66  N   UNL A   1      49.656  27.269  34.533  1.00  0.00    -0.354 N 
ATOM     67  N   UNL A   1      49.702  27.101  31.595  1.00  0.00    -0.248 NA
ATOM     68  C   UNL A   1      50.812  26.575  29.607  1.00  0.00     0.031 C 
ATOM     69  C   UNL A   1      51.441  26.570  35.652  1.00  0.00     0.029 A 
ATOM     70  C   UNL A   1      50.922  26.729  34.378  1.00  0.00     0.049 A 
ATOM     71  H   UNL A   1      49.045  27.498  33.795  1.00  0.00     0.167 HD
ATOM     72  C   UNL A   1      50.960  26.591  31.899  1.00  0.00     0.074 A 
ATOM     73  C   UNL A   1      51.589  26.261  30.635  1.00  0.00     0.031 C 
ATOM     74  C   UNL A   1      51.538  26.410  33.112  1.00  0.00     0.037 A 
BRANCH  61  75
ATOM     75  C   UNL A   1      48.032  28.224  37.885  1.00  0.00     0.058 A 
ATOM     76  C   UNL A   1      47.472  27.254  38.733  1.00  0.00     0.135 A 
ATOM     77  C   UNL A   1      48.474  29.423  38.467  1.00  0.00     0.135 A 
ATOM     78  F   UNL A   1      47.022  26.094  38.230  1.00  0.00    -0.206 F 
ATOM     79  C   UNL A   1      47.306  27.485  40.095  1.00  0.00     0.059 A 
ATOM     80  C   UNL A   1      48.347  29.663  39.833  1.00  0.00     0.059 A 
ATOM     81  F   UNL A   1      49.020  30.384  37.706  1.00  0.00    -0.206 F 
ATOM     82  C   UNL A   1      47.739  28.697  40.634  1.00  0.00     0.060 A 
BRANCH  82  83
ATOM     83  S   UNL A   1      47.484  29.000  42.395  1.00  0.00     0.124 S 
ATOM     84  O   UNL A   1      46.795  30.287  42.372  1.00  0.00    -0.237 OA
ATOM     85  O   UNL A   1      46.672  27.854  42.796  1.00  0.00    -0.237 OA
ATOM     86  O   UNL A   1      48.839  29.024  42.936  1.00  0.00    -0.744 OA
ENDBRANCH  82  83
ENDBRANCH  61  75
BRANCH  62  87
ATOM     87  C   UNL A   1      48.545  27.420  27.932  1.00  0.00     0.058 A 
ATOM     88  C   UNL A   1      48.336  26.209  27.257  1.00  0.00     0.135 A 
ATOM     89  C   UNL A   1      48.773  28.570  27.159  1.00  0.00     0.135 A 
ATOM     90  F   UNL A   1      48.121  25.083  27.953  1.00  0.00    -0.206 F 
ATOM     91  C   UNL A   1      48.347  26.139  25.868  1.00  0.00     0.059 A 
ATOM     92  C   UNL A   1      48.767  28.529  25.768  1.00  0.00     0.059 A 
ATOM     93  F   UNL A   1      48.959  29.757  27.758  1.00  0.00    -0.206 F 
ATOM     94  C   UNL A   1      48.554  27.307  25.132  1.00  0.00     0.060 A 
BRANCH  94  95
ATOM     95  S   UNL A   1      48.474  27.219  23.329  1.00  0.00     0.124 S 
ATOM     96  O   UNL A   1      49.756  27.802  22.949  1.00  0.00    -0.237 OA
ATOM     97  O   UNL A   1      48.331  25.785  23.100  1.00  0.00    -0.237 OA
ATOM     98  O   UNL A   1      47.295  28.017  23.007  1.00  0.00    -0.744 OA
ENDBRANCH  94  95
ENDBRANCH  62  87
BRANCH  74  99
ATOM     99  C   UNL A   1      52.914  25.804  33.138  1.00  0.00     0.058 A 
ATOM    100  C   UNL A   1      54.071  26.597  33.094  1.00  0.00     0.135 A 
ATOM    101  C   UNL A   1      53.075  24.414  33.262  1.00  0.00     0.135 A 
ATOM    102  F   UNL A   1      53.973  27.930  32.970  1.00  0.00    -0.206 F 
ATOM    103  C   UNL A   1      55.342  26.032  33.148  1.00  0.00     0.059 A 
ATOM    104  C   UNL A   1      54.336  23.830  33.346  1.00  0.00     0.059 A 
ATOM    105  F   UNL A   1      52.001  23.611  33.319  1.00  0.00    -0.206 F 
ATOM    106  C   UNL A   1      55.463  24.646  33.275  1.00  0.00     0.060 A 
BRANCH 106 107
ATOM    107  S   UNL A   1      57.117  23.927  33.377  1.00  0.00     0.124 S 
ATOM    108  O   UNL A   1      57.349  23.529  31.993  1.00  0.00    -0.237 OA
ATOM    109  O   UNL A   1      57.916  25.050  33.857  1.00  0.00    -0.237 OA
ATOM    110  O   UNL A   1      56.951  22.832  34.328  1.00  0.00    -0.744 OA
ENDBRANCH 106 107
ENDBRANCH  74  99
ENDBRANCH  48  49
ENDBRANCH  40  43
ENDBRANCH  38  39
ENDBRANCH  37  38
ENDBRANCH  36  37
ENDBRANCH   1  36
TORSDOF 21
ENDMDL
MODEL 3
REMARK VINA RESULT:      -8.6      6.623     13.164
REMARK SMILES CS(=O)(=O)c1ccc(/C=C(/C(=O)NCCCCCCNC(=O)c2ccc(-c3c4nc(c(-c5c(F)cc(S(=O)(=O)[O-])cc5F)c5ccc([nH]5)c(-c5c(F)cc(S(=O)(=O)[O-])cc5F)c5nc(c(-c6c(F)cc(S(=O)(=O)[O-])cc6F)c6ccc3[nH]6)C=C5)C=C4)cc2)c2ccc(-c3ccc(S(C)(=O)=O)cc3)cc2)cc1
REMARK SMILES IDX 16 1 15 2 14 3 13 4 11 5 12 6 10 8 9 9 8 10 5 11 6 12 106 13
REMARK SMILES IDX 7 14 105 15 2 16 1 17 3 18 4 19 89 20 90 21 104 22 91 23
REMARK SMILES IDX 103 24 92 25 93 26 94 27 102 28 95 29 101 30 96 31 97 32
REMARK SMILES IDX 98 33 99 34 100 35 17 36 18 37 19 38 20 39 21 40 22 42 23 43
REMARK SMILES IDX 24 44 88 45 25 46 87 47 26 48 27 49 28 50 81 51 29 52 86 53
REMARK SMILES IDX 80 54 82 55 30 56 85 57 79 58 78 59 31 61 65 62 44 63 64 64
REMARK SMILES IDX 45 65 48 66 63 67 83 68 46 69 47 70 62 72 84 73 49 74 32 75
REMARK SMILES IDX 33 76 42 77 34 78 35 79 41 80 43 81 36 82 37 83 38 84 39 85
REMARK SMILES IDX 40 86 66 87 67 88 76 89 68 90 69 91 75 92 77 93 70 94 71 95
REMARK SMILES IDX 72 96 73 97 74 98 50 99 51 100 60 101 52 102 53 103 59 104
REMARK SMILES IDX 61 105 54 106 55 107 56 108 57 109 58 110
REMARK H PARENT 13 7 20 41 82 60 48 71
REMARK Flexibility Score: inf
ROOT
ATOM      1  C   UNL A   1      43.714  40.923  33.203  1.00  0.00     0.002 C 
ENDROOT
BRANCH   1   2
ATOM      2  C   UNL A   1      42.429  41.476  32.566  1.00  0.00     0.021 C 
BRANCH   2   3
ATOM      3  C   UNL A   1      42.611  41.895  31.104  1.00  0.00     0.116 C 
BRANCH   3   4
ATOM      4  N   UNL A   1      41.331  41.835  30.429  1.00  0.00    -0.352 N 
ATOM      5  C   UNL A   1      40.886  41.243  29.293  1.00  0.00     0.251 C 
ATOM      6  O   UNL A   1      39.734  41.529  28.955  1.00  0.00    -0.269 OA
ATOM      7  H   UNL A   1      40.627  42.337  30.899  1.00  0.00     0.163 HD
BRANCH   5   8
ATOM      8  C   UNL A   1      41.677  40.213  28.515  1.00  0.00     0.047 C 
ATOM      9  C   UNL A   1      42.120  39.055  29.061  1.00  0.00     0.022 C 
BRANCH   9  10
ATOM     10  C   UNL A   1      42.756  37.884  28.413  1.00  0.00    -0.025 A 
ATOM     11  C   UNL A   1      43.794  35.706  26.972  1.00  0.00     0.067 A 
ATOM     12  C   UNL A   1      44.660  36.621  27.572  1.00  0.00     0.021 A 
ATOM     13  C   UNL A   1      42.415  35.843  27.109  1.00  0.00     0.021 A 
ATOM     14  C   UNL A   1      44.138  37.680  28.322  1.00  0.00     0.009 A 
ATOM     15  C   UNL A   1      41.903  36.930  27.826  1.00  0.00     0.009 A 
BRANCH  11  16
ATOM     16  S   UNL A   1      44.479  34.384  26.005  1.00  0.00     0.175 S 
ATOM     17  C   UNL A   1      43.356  34.248  24.639  1.00  0.00     0.163 C 
ATOM     18  O   UNL A   1      44.380  33.180  26.800  1.00  0.00    -0.224 OA
ATOM     19  O   UNL A   1      45.759  34.832  25.479  1.00  0.00    -0.224 OA
ENDBRANCH  11  16
ENDBRANCH   9  10
BRANCH   8  20
ATOM     20  C   UNL A   1      42.128  40.625  27.163  1.00  0.00    -0.013 A 
ATOM     21  C   UNL A   1      41.183  40.592  26.127  1.00  0.00     0.009 A 
ATOM     22  C   UNL A   1      43.399  41.141  26.900  1.00  0.00     0.009 A 
ATOM     23  C   UNL A   1      41.476  41.126  24.876  1.00  0.00     0.009 A 
ATOM     24  C   UNL A   1      43.681  41.704  25.645  1.00  0.00     0.009 A 
ATOM     25  C   UNL A   1      42.712  41.737  24.625  1.00  0.00    -0.018 A 
BRANCH  25  26
ATOM     26  C   UNL A   1      42.943  42.436  23.347  1.00  0.00    -0.018 A 
ATOM     27  C   UNL A   1      42.054  42.252  22.268  1.00  0.00     0.010 A 
ATOM     28  C   UNL A   1      44.030  43.306  23.163  1.00  0.00     0.010 A 
ATOM     29  C   UNL A   1      42.247  42.894  21.046  1.00  0.00     0.021 A 
ATOM     30  C   UNL A   1      44.235  43.956  21.941  1.00  0.00     0.021 A 
ATOM     31  C   UNL A   1      43.348  43.735  20.887  1.00  0.00     0.067 A 
BRANCH  31  32
ATOM     32  S   UNL A   1      43.594  44.537  19.323  1.00  0.00     0.175 S 
ATOM     33  C   UNL A   1      41.944  44.849  18.751  1.00  0.00     0.163 C 
ATOM     34  O   UNL A   1      44.231  45.812  19.591  1.00  0.00    -0.224 OA
ATOM     35  O   UNL A   1      44.195  43.576  18.417  1.00  0.00    -0.224 OA
ENDBRANCH  31  32
ENDBRANCH  25  26
ENDBRANCH   8  20
ENDBRANCH   5   8
ENDBRANCH   3   4
ENDBRANCH   2   3
ENDBRANCH   1   2
BRANCH   1  36
ATOM     36  C   UNL A   1      43.889  41.256  34.690  1.00  0.00     0.002 C 
BRANCH  36  37
ATOM     37  C   UNL A   1      45.166  42.030  35.025  1.00  0.00     0.021 C 
BRANCH  37  38
ATOM     38  C   UNL A   1      46.424  41.170  35.063  1.00  0.00     0.116 C 
BRANCH  38  39
ATOM     39  N   UNL A   1      47.448  41.677  34.165  1.00  0.00    -0.352 N 
ATOM     40  C   UNL A   1      48.072  41.041  33.121  1.00  0.00     0.251 C 
ATOM     41  H   UNL A   1      47.734  42.604  34.329  1.00  0.00     0.163 HD
ATOM     42  O   UNL A   1      49.076  41.534  32.614  1.00  0.00    -0.269 OA
BRANCH  40  43
ATOM     43  C   UNL A   1      47.535  39.758  32.619  1.00  0.00     0.039 A 
ATOM     44  C   UNL A   1      46.799  39.748  31.432  1.00  0.00     0.014 A 
ATOM     45  C   UNL A   1      47.746  38.572  33.329  1.00  0.00     0.014 A 
ATOM     46  C   UNL A   1      46.312  38.540  30.933  1.00  0.00     0.010 A 
ATOM     47  C   UNL A   1      47.323  37.360  32.792  1.00  0.00     0.010 A 
ATOM     48  C   UNL A   1      46.590  37.333  31.596  1.00  0.00    -0.014 A 
BRANCH  48  49
ATOM     49  C   UNL A   1      46.108  36.033  31.062  1.00  0.00     0.031 A 
ATOM     50  C   UNL A   1      47.005  35.197  30.191  1.00  0.00     0.074 A 
ATOM     51  C   UNL A   1      44.843  35.641  31.307  1.00  0.00     0.049 A 
ATOM     52  N   UNL A   1      46.749  34.065  29.587  1.00  0.00    -0.248 NA
ATOM     53  C   UNL A   1      48.358  35.718  29.939  1.00  0.00     0.031 C 
ATOM     54  C   UNL A   1      43.861  36.394  32.089  1.00  0.00     0.029 A 
ATOM     55  N   UNL A   1      44.163  34.517  30.913  1.00  0.00    -0.354 N 
ATOM     56  C   UNL A   1      47.898  33.749  28.872  1.00  0.00     0.074 A 
ATOM     57  C   UNL A   1      48.831  34.837  29.072  1.00  0.00     0.031 C 
ATOM     58  C   UNL A   1      42.711  35.704  32.131  1.00  0.00     0.029 A 
ATOM     59  C   UNL A   1      42.863  34.477  31.354  1.00  0.00     0.049 A 
ATOM     60  H   UNL A   1      44.568  33.806  30.364  1.00  0.00     0.167 HD
ATOM     61  C   UNL A   1      48.160  32.643  28.133  1.00  0.00     0.037 A 
ATOM     62  C   UNL A   1      41.898  33.558  31.152  1.00  0.00     0.037 A 
ATOM     63  C   UNL A   1      47.233  31.556  27.959  1.00  0.00     0.049 A 
ATOM     64  C   UNL A   1      42.214  32.327  30.350  1.00  0.00     0.074 A 
ATOM     65  C   UNL A   1      47.424  30.360  27.291  1.00  0.00     0.029 A 
ATOM     66  N   UNL A   1      45.935  31.535  28.452  1.00  0.00    -0.354 N 
ATOM     67  N   UNL A   1      43.332  32.006  29.742  1.00  0.00    -0.248 NA
ATOM     68  C   UNL A   1      41.146  31.329  30.214  1.00  0.00     0.031 C 
ATOM     69  C   UNL A   1      46.227  29.636  27.340  1.00  0.00     0.029 A 
ATOM     70  C   UNL A   1      45.306  30.357  28.083  1.00  0.00     0.049 A 
ATOM     71  H   UNL A   1      45.522  32.253  28.985  1.00  0.00     0.167 HD
ATOM     72  C   UNL A   1      43.110  30.758  29.170  1.00  0.00     0.074 A 
ATOM     73  C   UNL A   1      41.754  30.380  29.515  1.00  0.00     0.031 C 
ATOM     74  C   UNL A   1      43.953  29.996  28.430  1.00  0.00     0.037 A 
BRANCH  61  75
ATOM     75  C   UNL A   1      49.502  32.568  27.455  1.00  0.00     0.058 A 
ATOM     76  C   UNL A   1      49.746  33.202  26.224  1.00  0.00     0.135 A 
ATOM     77  C   UNL A   1      50.557  31.848  28.038  1.00  0.00     0.135 A 
ATOM     78  F   UNL A   1      48.771  33.895  25.615  1.00  0.00    -0.206 F 
ATOM     79  C   UNL A   1      50.969  33.081  25.573  1.00  0.00     0.059 A 
ATOM     80  C   UNL A   1      51.799  31.740  27.419  1.00  0.00     0.059 A 
ATOM     81  F   UNL A   1      50.382  31.226  29.214  1.00  0.00    -0.206 F 
ATOM     82  C   UNL A   1      51.987  32.340  26.174  1.00  0.00     0.060 A 
BRANCH  82  83
ATOM     83  S   UNL A   1      53.556  32.159  25.300  1.00  0.00     0.124 S 
ATOM     84  O   UNL A   1      54.313  33.292  25.825  1.00  0.00    -0.237 OA
ATOM     85  O   UNL A   1      54.008  30.841  25.734  1.00  0.00    -0.237 OA
ATOM     86  O   UNL A   1      53.175  32.257  23.894  1.00  0.00    -0.744 OA
ENDBRANCH  82  83
ENDBRANCH  61  75
BRANCH  62  87
ATOM     87  C   UNL A   1      40.556  33.764  31.758  1.00  0.00     0.058 A 
ATOM     88  C   UNL A   1      39.534  34.410  31.047  1.00  0.00     0.135 A 
ATOM     89  C   UNL A   1      40.252  33.265  33.034  1.00  0.00     0.135 A 
ATOM     90  F   UNL A   1      39.780  34.909  29.827  1.00  0.00    -0.206 F 
ATOM     91  C   UNL A   1      38.257  34.550  31.577  1.00  0.00     0.059 A 
ATOM     92  C   UNL A   1      38.975  33.374  33.576  1.00  0.00     0.059 A 
ATOM     93  F   UNL A   1      41.192  32.622  33.746  1.00  0.00    -0.206 F 
ATOM     94  C   UNL A   1      37.984  34.020  32.839  1.00  0.00     0.060 A 
BRANCH  94  95
ATOM     95  S   UNL A   1      36.298  34.127  33.478  1.00  0.00     0.124 S 
ATOM     96  O   UNL A   1      35.875  35.431  32.977  1.00  0.00    -0.237 OA
ATOM     97  O   UNL A   1      35.663  32.968  32.858  1.00  0.00    -0.237 OA
ATOM     98  O   UNL A   1      36.479  34.033  34.923  1.00  0.00    -0.744 OA
ENDBRANCH  94  95
ENDBRANCH  62  87
BRANCH  74  99
ATOM     99  C   UNL A   1      43.444  28.660  27.961  1.00  0.00     0.058 A 
ATOM    100  C   UNL A   1      42.707  28.525  26.775  1.00  0.00     0.135 A 
ATOM    101  C   UNL A   1      43.746  27.493  28.683  1.00  0.00     0.135 A 
ATOM    102  F   UNL A   1      42.387  29.609  26.051  1.00  0.00    -0.206 F 
ATOM    103  C   UNL A   1      42.264  27.282  26.332  1.00  0.00     0.059 A 
ATOM    104  C   UNL A   1      43.337  26.237  28.244  1.00  0.00     0.059 A 
ATOM    105  F   UNL A   1      44.457  27.565  29.819  1.00  0.00    -0.206 F 
ATOM    106  C   UNL A   1      42.587  26.144  27.074  1.00  0.00     0.060 A 
BRANCH 106 107
ATOM    107  S   UNL A   1      42.035  24.533  26.472  1.00  0.00     0.124 S 
ATOM    108  O   UNL A   1      40.604  24.758  26.301  1.00  0.00    -0.237 OA
ATOM    109  O   UNL A   1      42.804  24.380  25.241  1.00  0.00    -0.237 OA
ATOM    110  O   UNL A   1      42.405  23.623  27.552  1.00  0.00    -0.744 OA
ENDBRANCH 106 107
ENDBRANCH  74  99
ENDBRANCH  48  49
ENDBRANCH  40  43
ENDBRANCH  38  39
ENDBRANCH  37  38
ENDBRANCH  36  37
ENDBRANCH   1  36
TORSDOF 21
ENDMDL
