MODEL 1
REMARK VINA RESULT:     -11.2      0.000      0.000
REMARK SMILES O=C(COc1nc(NCc2cccc(Cl)c2)nc2c1CCC2)NCCCCCCNC(=O)c1ccc(-c2c3nc(c(-c4c(F)cc(S(=O)(=O)[O-])cc4F)c4ccc([nH]4)c(-c4c(F)cc(S(=O)(=O)[O-])cc4F)c4nc(c(-c5c(F)cc(S(=O)(=O)[O-])cc5F)c5ccc2[nH]5)C=C4)C=C3)cc1
REMARK SMILES IDX 25 1 24 2 23 3 1 4 2 5 3 7 4 8 5 9 6 10 19 11 7 12 18 13
REMARK SMILES IDX 20 14 17 15 22 16 21 17 8 18 9 20 10 21 11 22 16 23 12 24
REMARK SMILES IDX 14 25 13 26 15 27 26 28 27 29 28 30 29 31 30 32 31 33 32 35
REMARK SMILES IDX 33 36 34 37 98 38 35 39 97 40 36 41 37 42 38 43 91 44 39 45
REMARK SMILES IDX 96 46 90 47 92 48 40 49 95 50 89 51 88 52 41 54 75 55 54 56
REMARK SMILES IDX 74 57 55 58 58 59 73 60 93 61 56 62 57 63 72 65 94 66 59 67
REMARK SMILES IDX 42 68 43 69 52 70 44 71 45 72 51 73 53 74 46 75 47 76 48 77
REMARK SMILES IDX 49 78 50 79 76 80 77 81 86 82 78 83 79 84 85 85 87 86 80 87
REMARK SMILES IDX 81 88 82 89 83 90 84 91 60 92 61 93 70 94 62 95 63 96 69 97
REMARK SMILES IDX 71 98 64 99 65 100 66 101 67 102 68 103
REMARK H PARENT 23 6 8 19 30 34 92 53 58 64
REMARK Flexibility Score: inf
ROOT
ATOM      1  C   UNL A   1      39.943  21.991  26.412  1.00  0.00     0.021 C 
ENDROOT
BRANCH   1   2
ATOM      2  C   UNL A   1      38.804  23.010  26.390  1.00  0.00     0.116 C 
BRANCH   2   3
ATOM      3  N   UNL A   1      38.121  23.040  25.116  1.00  0.00    -0.353 N 
ATOM      4  O   UNL A   1      36.628  21.359  25.594  1.00  0.00    -0.271 OA
ATOM      5  C   UNL A   1      37.044  22.230  24.833  1.00  0.00     0.258 C 
ATOM      6  H   UNL A   1      38.439  23.663  24.424  1.00  0.00     0.163 HD
BRANCH   5   7
ATOM      7  C   UNL A   1      36.460  22.416  23.427  1.00  0.00     0.331 C 
BRANCH   7   8
ATOM      8  O   UNL A   1      35.731  23.604  23.144  1.00  0.00    -0.467 OA
BRANCH   8   9
ATOM      9  C   UNL A   1      34.379  23.392  23.275  1.00  0.00     0.222 A 
ATOM     10  N   UNL A   1      33.964  22.162  23.615  1.00  0.00    -0.177 NA
ATOM     11  C   UNL A   1      33.528  24.444  23.146  1.00  0.00     0.036 A 
ATOM     12  C   UNL A   1      32.643  21.981  23.796  1.00  0.00     0.226 A 
ATOM     13  C   UNL A   1      32.201  24.157  23.337  1.00  0.00     0.053 A 
ATOM     14  C   UNL A   1      33.743  25.856  22.745  1.00  0.00     0.043 C 
ATOM     15  N   UNL A   1      31.723  22.951  23.656  1.00  0.00    -0.218 NA
ATOM     16  C   UNL A   1      31.346  25.361  23.066  1.00  0.00     0.057 C 
ATOM     17  C   UNL A   1      32.394  26.483  23.140  1.00  0.00     0.011 C 
BRANCH  12  18
ATOM     18  N   UNL A   1      32.262  20.713  24.120  1.00  0.00    -0.350 N 
ATOM     19  H   UNL A   1      31.683  20.225  23.492  1.00  0.00     0.164 HD
BRANCH  18  20
ATOM     20  C   UNL A   1      32.664  20.052  25.329  1.00  0.00     0.152 C 
BRANCH  20  21
ATOM     21  C   UNL A   1      33.083  18.633  25.020  1.00  0.00    -0.027 A 
ATOM     22  C   UNL A   1      34.095  18.366  24.087  1.00  0.00     0.005 A 
ATOM     23  C   UNL A   1      32.469  17.558  25.684  1.00  0.00     0.026 A 
ATOM     24  C   UNL A   1      34.487  17.051  23.824  1.00  0.00     0.002 A 
ATOM     25  C   UNL A   1      32.864  16.248  25.416  1.00  0.00     0.041 A 
ATOM     26  C   UNL A   1      33.871  15.991  24.489  1.00  0.00     0.020 A 
ATOM     27  Cl  UNL A   1      32.106  14.941  26.240  1.00  0.00    -0.084 Cl
ENDBRANCH  20  21
ENDBRANCH  18  20
ENDBRANCH  12  18
ENDBRANCH   8   9
ENDBRANCH   7   8
ENDBRANCH   5   7
ENDBRANCH   2   3
ENDBRANCH   1   2
BRANCH   1  28
ATOM     28  C   UNL A   1      40.737  21.945  27.724  1.00  0.00     0.002 C 
BRANCH  28  29
ATOM     29  C   UNL A   1      42.249  21.752  27.577  1.00  0.00     0.002 C 
BRANCH  29  30
ATOM     30  C   UNL A   1      43.118  22.757  28.336  1.00  0.00     0.021 C 
BRANCH  30  31
ATOM     31  C   UNL A   1      43.884  23.742  27.457  1.00  0.00     0.116 C 
BRANCH  31  32
ATOM     32  N   UNL A   1      43.140  24.115  26.265  1.00  0.00    -0.352 N 
ATOM     33  C   UNL A   1      42.171  25.075  26.106  1.00  0.00     0.251 C 
ATOM     34  H   UNL A   1      43.365  23.605  25.452  1.00  0.00     0.163 HD
ATOM     35  O   UNL A   1      41.527  25.127  25.061  1.00  0.00    -0.269 OA
BRANCH  33  36
ATOM     36  C   UNL A   1      41.888  26.031  27.200  1.00  0.00     0.039 A 
ATOM     37  C   UNL A   1      40.895  25.716  28.132  1.00  0.00     0.014 A 
ATOM     38  C   UNL A   1      42.589  27.236  27.300  1.00  0.00     0.014 A 
ATOM     39  C   UNL A   1      40.646  26.585  29.198  1.00  0.00     0.010 A 
ATOM     40  C   UNL A   1      42.389  28.065  28.401  1.00  0.00     0.010 A 
ATOM     41  C   UNL A   1      41.410  27.753  29.357  1.00  0.00    -0.014 A 
BRANCH  41  42
ATOM     42  C   UNL A   1      41.179  28.672  30.500  1.00  0.00     0.031 A 
ATOM     43  C   UNL A   1      42.045  28.579  31.726  1.00  0.00     0.074 A 
ATOM     44  C   UNL A   1      40.171  29.566  30.450  1.00  0.00     0.049 A 
ATOM     45  N   UNL A   1      41.973  29.257  32.842  1.00  0.00    -0.248 NA
ATOM     46  C   UNL A   1      43.122  27.575  31.702  1.00  0.00     0.031 C 
ATOM     47  C   UNL A   1      39.248  29.735  29.326  1.00  0.00     0.029 A 
ATOM     48  N   UNL A   1      39.754  30.500  31.366  1.00  0.00    -0.354 N 
ATOM     49  C   UNL A   1      42.990  28.765  33.651  1.00  0.00     0.074 A 
ATOM     50  C   UNL A   1      43.624  27.687  32.923  1.00  0.00     0.031 C 
ATOM     51  C   UNL A   1      38.394  30.734  29.607  1.00  0.00     0.029 A 
ATOM     52  C   UNL A   1      38.682  31.250  30.942  1.00  0.00     0.049 A 
ATOM     53  H   UNL A   1      40.182  30.621  32.243  1.00  0.00     0.167 HD
ATOM     54  C   UNL A   1      43.382  29.192  34.875  1.00  0.00     0.037 A 
ATOM     55  C   UNL A   1      38.007  32.238  31.560  1.00  0.00     0.037 A 
ATOM     56  C   UNL A   1      42.757  30.274  35.588  1.00  0.00     0.049 A 
ATOM     57  C   UNL A   1      38.432  32.668  32.938  1.00  0.00     0.074 A 
ATOM     58  C   UNL A   1      43.100  30.805  36.819  1.00  0.00     0.029 A 
ATOM     59  N   UNL A   1      41.659  30.991  35.137  1.00  0.00    -0.354 N 
ATOM     60  N   UNL A   1      39.423  32.218  33.672  1.00  0.00    -0.248 NA
ATOM     61  C   UNL A   1      37.650  33.737  33.573  1.00  0.00     0.031 C 
ATOM     62  C   UNL A   1      42.183  31.812  37.132  1.00  0.00     0.029 A 
ATOM     63  C   UNL A   1      41.295  31.944  36.075  1.00  0.00     0.049 A 
ATOM     64  H   UNL A   1      41.204  30.846  34.276  1.00  0.00     0.167 HD
ATOM     65  C   UNL A   1      39.391  32.959  34.848  1.00  0.00     0.074 A 
ATOM     66  C   UNL A   1      38.296  33.898  34.720  1.00  0.00     0.031 C 
ATOM     67  C   UNL A   1      40.196  32.866  35.937  1.00  0.00     0.037 A 
BRANCH  54  68
ATOM     68  C   UNL A   1      44.550  28.491  35.514  1.00  0.00     0.058 A 
ATOM     69  C   UNL A   1      44.368  27.381  36.355  1.00  0.00     0.135 A 
ATOM     70  C   UNL A   1      45.866  28.909  35.261  1.00  0.00     0.135 A 
ATOM     71  F   UNL A   1      43.131  26.948  36.646  1.00  0.00    -0.206 F 
ATOM     72  C   UNL A   1      45.445  26.730  36.946  1.00  0.00     0.059 A 
ATOM     73  C   UNL A   1      46.961  28.255  35.817  1.00  0.00     0.059 A 
ATOM     74  F   UNL A   1      46.098  29.965  34.465  1.00  0.00    -0.206 F 
ATOM     75  C   UNL A   1      46.739  27.174  36.670  1.00  0.00     0.060 A 
BRANCH  75  76
ATOM     76  S   UNL A   1      48.125  26.315  37.444  1.00  0.00     0.124 S 
ATOM     77  O   UNL A   1      49.077  26.243  36.339  1.00  0.00    -0.237 OA
ATOM     78  O   UNL A   1      48.483  27.221  38.531  1.00  0.00    -0.237 OA
ATOM     79  O   UNL A   1      47.549  25.040  37.857  1.00  0.00    -0.744 OA
ENDBRANCH  75  76
ENDBRANCH  54  68
BRANCH  55  80
ATOM     80  C   UNL A   1      36.879  32.911  30.861  1.00  0.00     0.058 A 
ATOM     81  C   UNL A   1      35.550  32.563  31.144  1.00  0.00     0.135 A 
ATOM     82  C   UNL A   1      37.101  33.935  29.927  1.00  0.00     0.135 A 
ATOM     83  F   UNL A   1      35.286  31.583  32.022  1.00  0.00    -0.206 F 
ATOM     84  C   UNL A   1      34.481  33.207  30.529  1.00  0.00     0.059 A 
ATOM     85  C   UNL A   1      36.048  34.610  29.316  1.00  0.00     0.059 A 
ATOM     86  F   UNL A   1      38.354  34.313  29.629  1.00  0.00    -0.206 F 
ATOM     87  C   UNL A   1      34.741  34.236  29.623  1.00  0.00     0.060 A 
BRANCH  87  88
ATOM     88  S   UNL A   1      33.341  35.111  28.888  1.00  0.00     0.124 S 
ATOM     89  O   UNL A   1      32.594  35.521  30.071  1.00  0.00    -0.237 OA
ATOM     90  O   UNL A   1      34.008  36.181  28.150  1.00  0.00    -0.237 OA
ATOM     91  O   UNL A   1      32.704  34.091  28.059  1.00  0.00    -0.744 OA
ENDBRANCH  87  88
ENDBRANCH  55  80
BRANCH  67  92
ATOM     92  C   UNL A   1      39.927  33.807  37.080  1.00  0.00     0.058 A 
ATOM     93  C   UNL A   1      40.387  35.133  37.060  1.00  0.00     0.135 A 
ATOM     94  C   UNL A   1      39.145  33.400  38.173  1.00  0.00     0.135 A 
ATOM     95  F   UNL A   1      41.144  35.571  36.041  1.00  0.00    -0.206 F 
ATOM     96  C   UNL A   1      40.095  36.019  38.092  1.00  0.00     0.059 A 
ATOM     97  C   UNL A   1      38.817  34.278  39.203  1.00  0.00     0.059 A 
ATOM     98  F   UNL A   1      38.671  32.146  38.237  1.00  0.00    -0.206 F 
ATOM     99  C   UNL A   1      39.305  35.583  39.157  1.00  0.00     0.060 A 
BRANCH  99 100
ATOM    100  S   UNL A   1      38.903  36.757  40.468  1.00  0.00     0.124 S 
ATOM    101  O   UNL A   1      37.912  36.012  41.238  1.00  0.00    -0.237 OA
ATOM    102  O   UNL A   1      40.195  36.951  41.118  1.00  0.00    -0.237 OA
ATOM    103  O   UNL A   1      38.392  37.916  39.743  1.00  0.00    -0.744 OA
ENDBRANCH  99 100
ENDBRANCH  67  92
ENDBRANCH  41  42
ENDBRANCH  33  36
ENDBRANCH  31  32
ENDBRANCH  30  31
ENDBRANCH  29  30
ENDBRANCH  28  29
ENDBRANCH   1  28
TORSDOF 21
ENDMDL
MODEL 2
REMARK VINA RESULT:     -11.1      6.264      8.865
REMARK SMILES O=C(COc1nc(NCc2cccc(Cl)c2)nc2c1CCC2)NCCCCCCNC(=O)c1ccc(-c2c3nc(c(-c4c(F)cc(S(=O)(=O)[O-])cc4F)c4ccc([nH]4)c(-c4c(F)cc(S(=O)(=O)[O-])cc4F)c4nc(c(-c5c(F)cc(S(=O)(=O)[O-])cc5F)c5ccc2[nH]5)C=C4)C=C3)cc1
REMARK SMILES IDX 25 1 24 2 23 3 1 4 2 5 3 7 4 8 5 9 6 10 19 11 7 12 18 13
REMARK SMILES IDX 20 14 17 15 22 16 21 17 8 18 9 20 10 21 11 22 16 23 12 24
REMARK SMILES IDX 14 25 13 26 15 27 26 28 27 29 28 30 29 31 30 32 31 33 32 35
REMARK SMILES IDX 33 36 34 37 98 38 35 39 97 40 36 41 37 42 38 43 91 44 39 45
REMARK SMILES IDX 96 46 90 47 92 48 40 49 95 50 89 51 88 52 41 54 75 55 54 56
REMARK SMILES IDX 74 57 55 58 58 59 73 60 93 61 56 62 57 63 72 65 94 66 59 67
REMARK SMILES IDX 42 68 43 69 52 70 44 71 45 72 51 73 53 74 46 75 47 76 48 77
REMARK SMILES IDX 49 78 50 79 76 80 77 81 86 82 78 83 79 84 85 85 87 86 80 87
REMARK SMILES IDX 81 88 82 89 83 90 84 91 60 92 61 93 70 94 62 95 63 96 69 97
REMARK SMILES IDX 71 98 64 99 65 100 66 101 67 102 68 103
REMARK H PARENT 23 6 8 19 30 34 92 53 58 64
REMARK Flexibility Score: inf
ROOT
ATOM      1  C   UNL A   1      40.456  22.979  26.623  1.00  0.00     0.021 C 
ENDROOT
BRANCH   1   2
ATOM      2  C   UNL A   1      39.003  23.444  26.525  1.00  0.00     0.116 C 
BRANCH   2   3
ATOM      3  N   UNL A   1      38.182  22.520  25.776  1.00  0.00    -0.353 N 
ATOM      4  O   UNL A   1      36.666  24.080  25.032  1.00  0.00    -0.271 OA
ATOM      5  C   UNL A   1      37.088  22.926  25.044  1.00  0.00     0.258 C 
ATOM      6  H   UNL A   1      38.413  21.563  25.790  1.00  0.00     0.163 HD
BRANCH   5   7
ATOM      7  C   UNL A   1      36.351  21.792  24.319  1.00  0.00     0.331 C 
BRANCH   7   8
ATOM      8  O   UNL A   1      36.024  20.616  25.048  1.00  0.00    -0.467 OA
BRANCH   8   9
ATOM      9  C   UNL A   1      34.663  20.435  25.099  1.00  0.00     0.222 A 
ATOM     10  N   UNL A   1      33.902  21.472  25.482  1.00  0.00    -0.177 NA
ATOM     11  C   UNL A   1      34.135  19.255  24.678  1.00  0.00     0.036 A 
ATOM     12  C   UNL A   1      32.568  21.301  25.473  1.00  0.00     0.226 A 
ATOM     13  C   UNL A   1      32.767  19.172  24.718  1.00  0.00     0.053 A 
ATOM     14  C   UNL A   1      34.761  17.977  24.258  1.00  0.00     0.043 C 
ATOM     15  N   UNL A   1      31.957  20.161  25.107  1.00  0.00    -0.218 NA
ATOM     16  C   UNL A   1      32.301  17.797  24.336  1.00  0.00     0.057 C 
ATOM     17  C   UNL A   1      33.555  17.248  23.639  1.00  0.00     0.011 C 
BRANCH  12  18
ATOM     18  N   UNL A   1      31.834  22.372  25.887  1.00  0.00    -0.350 N 
ATOM     19  H   UNL A   1      31.605  22.439  26.842  1.00  0.00     0.164 HD
BRANCH  18  20
ATOM     20  C   UNL A   1      31.380  23.409  25.004  1.00  0.00     0.152 C 
BRANCH  20  21
ATOM     21  C   UNL A   1      32.104  24.698  25.314  1.00  0.00    -0.027 A 
ATOM     22  C   UNL A   1      33.325  25.008  24.698  1.00  0.00     0.005 A 
ATOM     23  C   UNL A   1      31.547  25.617  26.220  1.00  0.00     0.026 A 
ATOM     24  C   UNL A   1      33.976  26.211  24.979  1.00  0.00     0.002 A 
ATOM     25  C   UNL A   1      32.203  26.816  26.497  1.00  0.00     0.041 A 
ATOM     26  C   UNL A   1      33.414  27.117  25.879  1.00  0.00     0.020 A 
ATOM     27  Cl  UNL A   1      31.507  27.934  27.605  1.00  0.00    -0.084 Cl
ENDBRANCH  20  21
ENDBRANCH  18  20
ENDBRANCH  12  18
ENDBRANCH   8   9
ENDBRANCH   7   8
ENDBRANCH   5   7
ENDBRANCH   2   3
ENDBRANCH   1   2
BRANCH   1  28
ATOM     28  C   UNL A   1      40.726  21.948  27.727  1.00  0.00     0.002 C 
BRANCH  28  29
ATOM     29  C   UNL A   1      42.146  21.376  27.765  1.00  0.00     0.002 C 
BRANCH  29  30
ATOM     30  C   UNL A   1      42.286  19.928  27.291  1.00  0.00     0.021 C 
BRANCH  30  31
ATOM     31  C   UNL A   1      42.009  19.704  25.807  1.00  0.00     0.116 C 
BRANCH  31  32
ATOM     32  N   UNL A   1      43.144  19.113  25.115  1.00  0.00    -0.352 N 
ATOM     33  C   UNL A   1      44.298  19.707  24.668  1.00  0.00     0.251 C 
ATOM     34  H   UNL A   1      43.074  18.146  24.944  1.00  0.00     0.163 HD
ATOM     35  O   UNL A   1      45.068  19.079  23.945  1.00  0.00    -0.269 OA
BRANCH  33  36
ATOM     36  C   UNL A   1      44.602  21.108  25.036  1.00  0.00     0.039 A 
ATOM     37  C   UNL A   1      44.054  22.142  24.273  1.00  0.00     0.014 A 
ATOM     38  C   UNL A   1      45.434  21.400  26.121  1.00  0.00     0.014 A 
ATOM     39  C   UNL A   1      44.292  23.471  24.635  1.00  0.00     0.010 A 
ATOM     40  C   UNL A   1      45.613  22.722  26.521  1.00  0.00     0.010 A 
ATOM     41  C   UNL A   1      45.051  23.772  25.777  1.00  0.00    -0.014 A 
BRANCH  41  42
ATOM     42  C   UNL A   1      45.290  25.177  26.193  1.00  0.00     0.031 A 
ATOM     43  C   UNL A   1      46.670  25.766  26.091  1.00  0.00     0.074 A 
ATOM     44  C   UNL A   1      44.277  25.911  26.694  1.00  0.00     0.049 A 
ATOM     45  N   UNL A   1      47.090  26.953  26.446  1.00  0.00    -0.248 NA
ATOM     46  C   UNL A   1      47.722  24.898  25.537  1.00  0.00     0.031 C 
ATOM     47  C   UNL A   1      42.900  25.443  26.866  1.00  0.00     0.029 A 
ATOM     48  N   UNL A   1      44.247  27.205  27.151  1.00  0.00    -0.354 N 
ATOM     49  C   UNL A   1      48.450  26.975  26.159  1.00  0.00     0.074 A 
ATOM     50  C   UNL A   1      48.798  25.662  25.661  1.00  0.00     0.031 C 
ATOM     51  C   UNL A   1      42.154  26.445  27.360  1.00  0.00     0.029 A 
ATOM     52  C   UNL A   1      43.004  27.612  27.577  1.00  0.00     0.049 A 
ATOM     53  H   UNL A   1      45.040  27.786  27.172  1.00  0.00     0.167 HD
ATOM     54  C   UNL A   1      49.323  28.005  26.270  1.00  0.00     0.037 A 
ATOM     55  C   UNL A   1      42.597  28.791  28.088  1.00  0.00     0.037 A 
ATOM     56  C   UNL A   1      48.968  29.313  26.752  1.00  0.00     0.049 A 
ATOM     57  C   UNL A   1      43.594  29.908  28.242  1.00  0.00     0.074 A 
ATOM     58  C   UNL A   1      49.772  30.433  26.870  1.00  0.00     0.029 A 
ATOM     59  N   UNL A   1      47.706  29.678  27.197  1.00  0.00    -0.354 N 
ATOM     60  N   UNL A   1      44.868  29.924  27.927  1.00  0.00    -0.248 NA
ATOM     61  C   UNL A   1      43.101  31.165  28.821  1.00  0.00     0.031 C 
ATOM     62  C   UNL A   1      49.008  31.462  27.429  1.00  0.00     0.029 A 
ATOM     63  C   UNL A   1      47.714  31.000  27.615  1.00  0.00     0.049 A 
ATOM     64  H   UNL A   1      46.920  29.086  27.215  1.00  0.00     0.167 HD
ATOM     65  C   UNL A   1      45.325  31.195  28.256  1.00  0.00     0.074 A 
ATOM     66  C   UNL A   1      44.186  31.926  28.776  1.00  0.00     0.031 C 
ATOM     67  C   UNL A   1      46.574  31.710  28.140  1.00  0.00     0.037 A 
BRANCH  54  68
ATOM     68  C   UNL A   1      50.746  27.756  25.850  1.00  0.00     0.058 A 
ATOM     69  C   UNL A   1      51.147  27.879  24.509  1.00  0.00     0.135 A 
ATOM     70  C   UNL A   1      51.728  27.422  26.797  1.00  0.00     0.135 A 
ATOM     71  F   UNL A   1      50.248  28.179  23.559  1.00  0.00    -0.206 F 
ATOM     72  C   UNL A   1      52.462  27.650  24.118  1.00  0.00     0.059 A 
ATOM     73  C   UNL A   1      53.056  27.218  26.433  1.00  0.00     0.059 A 
ATOM     74  F   UNL A   1      51.400  27.290  28.092  1.00  0.00    -0.206 F 
ATOM     75  C   UNL A   1      53.410  27.321  25.088  1.00  0.00     0.060 A 
BRANCH  75  76
ATOM     76  S   UNL A   1      55.111  27.031  24.561  1.00  0.00     0.124 S 
ATOM     77  O   UNL A   1      55.532  25.989  25.493  1.00  0.00    -0.237 OA
ATOM     78  O   UNL A   1      54.939  26.609  23.175  1.00  0.00    -0.237 OA
ATOM     79  O   UNL A   1      55.753  28.329  24.744  1.00  0.00    -0.744 OA
ENDBRANCH  75  76
ENDBRANCH  54  68
BRANCH  55  80
ATOM     80  C   UNL A   1      41.168  28.982  28.457  1.00  0.00     0.058 A 
ATOM     81  C   UNL A   1      40.766  28.964  29.800  1.00  0.00     0.135 A 
ATOM     82  C   UNL A   1      40.185  29.221  27.483  1.00  0.00     0.135 A 
ATOM     83  F   UNL A   1      41.667  28.729  30.767  1.00  0.00    -0.206 F 
ATOM     84  C   UNL A   1      39.441  29.178  30.167  1.00  0.00     0.059 A 
ATOM     85  C   UNL A   1      38.858  29.461  27.827  1.00  0.00     0.059 A 
ATOM     86  F   UNL A   1      40.520  29.258  26.184  1.00  0.00    -0.206 F 
ATOM     87  C   UNL A   1      38.496  29.435  29.173  1.00  0.00     0.060 A 
BRANCH  87  88
ATOM     88  S   UNL A   1      36.795  29.784  29.671  1.00  0.00     0.124 S 
ATOM     89  O   UNL A   1      36.043  29.296  28.521  1.00  0.00    -0.237 OA
ATOM     90  O   UNL A   1      36.671  29.000  30.896  1.00  0.00    -0.237 OA
ATOM     91  O   UNL A   1      36.790  31.233  29.860  1.00  0.00    -0.744 OA
ENDBRANCH  87  88
ENDBRANCH  55  80
BRANCH  67  92
ATOM     92  C   UNL A   1      46.783  33.133  28.580  1.00  0.00     0.058 A 
ATOM     93  C   UNL A   1      46.596  34.207  27.695  1.00  0.00     0.135 A 
ATOM     94  C   UNL A   1      47.104  33.431  29.914  1.00  0.00     0.135 A 
ATOM     95  F   UNL A   1      46.294  33.978  26.408  1.00  0.00    -0.206 F 
ATOM     96  C   UNL A   1      46.737  35.526  28.115  1.00  0.00     0.059 A 
ATOM     97  C   UNL A   1      47.223  34.744  30.362  1.00  0.00     0.059 A 
ATOM     98  F   UNL A   1      47.283  32.442  30.804  1.00  0.00    -0.206 F 
ATOM     99  C   UNL A   1      47.046  35.784  29.451  1.00  0.00     0.060 A 
BRANCH  99 100
ATOM    100  S   UNL A   1      47.186  37.503  29.986  1.00  0.00     0.124 S 
ATOM    101  O   UNL A   1      45.901  38.049  29.563  1.00  0.00    -0.237 OA
ATOM    102  O   UNL A   1      47.372  37.365  31.427  1.00  0.00    -0.237 OA
ATOM    103  O   UNL A   1      48.348  37.994  29.253  1.00  0.00    -0.744 OA
ENDBRANCH  99 100
ENDBRANCH  67  92
ENDBRANCH  41  42
ENDBRANCH  33  36
ENDBRANCH  31  32
ENDBRANCH  30  31
ENDBRANCH  29  30
ENDBRANCH  28  29
ENDBRANCH   1  28
TORSDOF 21
ENDMDL
MODEL 3
REMARK VINA RESULT:     -10.9      6.437     11.894
REMARK SMILES O=C(COc1nc(NCc2cccc(Cl)c2)nc2c1CCC2)NCCCCCCNC(=O)c1ccc(-c2c3nc(c(-c4c(F)cc(S(=O)(=O)[O-])cc4F)c4ccc([nH]4)c(-c4c(F)cc(S(=O)(=O)[O-])cc4F)c4nc(c(-c5c(F)cc(S(=O)(=O)[O-])cc5F)c5ccc2[nH]5)C=C4)C=C3)cc1
REMARK SMILES IDX 25 1 24 2 23 3 1 4 2 5 3 7 4 8 5 9 6 10 19 11 7 12 18 13
REMARK SMILES IDX 20 14 17 15 22 16 21 17 8 18 9 20 10 21 11 22 16 23 12 24
REMARK SMILES IDX 14 25 13 26 15 27 26 28 27 29 28 30 29 31 30 32 31 33 32 35
REMARK SMILES IDX 33 36 34 37 98 38 35 39 97 40 36 41 37 42 38 43 91 44 39 45
REMARK SMILES IDX 96 46 90 47 92 48 40 49 95 50 89 51 88 52 41 54 75 55 54 56
REMARK SMILES IDX 74 57 55 58 58 59 73 60 93 61 56 62 57 63 72 65 94 66 59 67
REMARK SMILES IDX 42 68 43 69 52 70 44 71 45 72 51 73 53 74 46 75 47 76 48 77
REMARK SMILES IDX 49 78 50 79 76 80 77 81 86 82 78 83 79 84 85 85 87 86 80 87
REMARK SMILES IDX 81 88 82 89 83 90 84 91 60 92 61 93 70 94 62 95 63 96 69 97
REMARK SMILES IDX 71 98 64 99 65 100 66 101 67 102 68 103
REMARK H PARENT 23 6 8 19 30 34 92 53 58 64
REMARK Flexibility Score: inf
ROOT
ATOM      1  C   UNL A   1      34.420  32.825  28.203  1.00  0.00     0.021 C 
ENDROOT
BRANCH   1   2
ATOM      2  C   UNL A   1      34.344  31.306  28.358  1.00  0.00     0.116 C 
BRANCH   2   3
ATOM      3  N   UNL A   1      33.271  30.730  27.579  1.00  0.00    -0.353 N 
ATOM      4  O   UNL A   1      34.554  29.142  26.522  1.00  0.00    -0.271 OA
ATOM      5  C   UNL A   1      33.457  29.650  26.744  1.00  0.00     0.258 C 
ATOM      6  H   UNL A   1      32.372  31.125  27.647  1.00  0.00     0.163 HD
BRANCH   5   7
ATOM      7  C   UNL A   1      32.193  29.189  26.009  1.00  0.00     0.331 C 
BRANCH   7   8
ATOM      8  O   UNL A   1      31.384  30.165  25.364  1.00  0.00    -0.467 OA
BRANCH   8   9
ATOM      9  C   UNL A   1      30.850  29.666  24.200  1.00  0.00     0.222 A 
ATOM     10  N   UNL A   1      31.391  28.552  23.684  1.00  0.00    -0.177 NA
ATOM     11  C   UNL A   1      29.748  30.260  23.669  1.00  0.00     0.036 A 
ATOM     12  C   UNL A   1      30.824  28.041  22.576  1.00  0.00     0.226 A 
ATOM     13  C   UNL A   1      29.250  29.674  22.533  1.00  0.00     0.053 A 
ATOM     14  C   UNL A   1      29.011  31.496  24.030  1.00  0.00     0.043 C 
ATOM     15  N   UNL A   1      29.756  28.577  21.961  1.00  0.00    -0.218 NA
ATOM     16  C   UNL A   1      28.107  30.469  21.975  1.00  0.00     0.057 C 
ATOM     17  C   UNL A   1      27.731  31.330  23.192  1.00  0.00     0.011 C 
BRANCH  12  18
ATOM     18  N   UNL A   1      31.417  26.921  22.075  1.00  0.00    -0.350 N 
ATOM     19  H   UNL A   1      30.866  26.296  21.552  1.00  0.00     0.164 HD
BRANCH  18  20
ATOM     20  C   UNL A   1      32.804  26.606  22.268  1.00  0.00     0.152 C 
BRANCH  20  21
ATOM     21  C   UNL A   1      32.946  25.161  22.683  1.00  0.00    -0.027 A 
ATOM     22  C   UNL A   1      31.840  24.300  22.697  1.00  0.00     0.005 A 
ATOM     23  C   UNL A   1      34.205  24.654  23.048  1.00  0.00     0.026 A 
ATOM     24  C   UNL A   1      31.987  22.961  23.065  1.00  0.00     0.002 A 
ATOM     25  C   UNL A   1      34.346  23.317  23.416  1.00  0.00     0.041 A 
ATOM     26  C   UNL A   1      33.242  22.468  23.424  1.00  0.00     0.020 A 
ATOM     27  Cl  UNL A   1      35.895  22.709  23.856  1.00  0.00    -0.084 Cl
ENDBRANCH  20  21
ENDBRANCH  18  20
ENDBRANCH  12  18
ENDBRANCH   8   9
ENDBRANCH   7   8
ENDBRANCH   5   7
ENDBRANCH   2   3
ENDBRANCH   1   2
BRANCH   1  28
ATOM     28  C   UNL A   1      35.023  33.562  29.406  1.00  0.00     0.002 C 
BRANCH  28  29
ATOM     29  C   UNL A   1      36.391  34.210  29.167  1.00  0.00     0.002 C 
BRANCH  29  30
ATOM     30  C   UNL A   1      37.598  33.378  29.606  1.00  0.00     0.021 C 
BRANCH  30  31
ATOM     31  C   UNL A   1      37.620  33.002  31.085  1.00  0.00     0.116 C 
BRANCH  31  32
ATOM     32  N   UNL A   1      36.809  31.830  31.371  1.00  0.00    -0.352 N 
ATOM     33  C   UNL A   1      37.044  30.512  31.067  1.00  0.00     0.251 C 
ATOM     34  H   UNL A   1      35.969  32.008  31.854  1.00  0.00     0.163 HD
ATOM     35  O   UNL A   1      36.157  29.678  31.234  1.00  0.00    -0.269 OA
BRANCH  33  36
ATOM     36  C   UNL A   1      38.356  30.099  30.520  1.00  0.00     0.039 A 
ATOM     37  C   UNL A   1      38.516  30.023  29.134  1.00  0.00     0.014 A 
ATOM     38  C   UNL A   1      39.419  29.778  31.368  1.00  0.00     0.014 A 
ATOM     39  C   UNL A   1      39.760  29.681  28.598  1.00  0.00     0.010 A 
ATOM     40  C   UNL A   1      40.675  29.506  30.833  1.00  0.00     0.010 A 
ATOM     41  C   UNL A   1      40.857  29.447  29.442  1.00  0.00    -0.014 A 
BRANCH  41  42
ATOM     42  C   UNL A   1      42.194  29.111  28.890  1.00  0.00     0.031 A 
ATOM     43  C   UNL A   1      42.483  27.712  28.420  1.00  0.00     0.074 A 
ATOM     44  C   UNL A   1      43.158  30.052  28.844  1.00  0.00     0.049 A 
ATOM     45  N   UNL A   1      43.597  27.211  27.952  1.00  0.00    -0.248 NA
ATOM     46  C   UNL A   1      41.379  26.742  28.506  1.00  0.00     0.031 C 
ATOM     47  C   UNL A   1      43.007  31.438  29.294  1.00  0.00     0.029 A 
ATOM     48  N   UNL A   1      44.455  29.988  28.398  1.00  0.00    -0.354 N 
ATOM     49  C   UNL A   1      43.330  25.873  27.689  1.00  0.00     0.074 A 
ATOM     50  C   UNL A   1      41.968  25.623  28.109  1.00  0.00     0.031 C 
ATOM     51  C   UNL A   1      44.155  32.099  29.071  1.00  0.00     0.029 A 
ATOM     52  C   UNL A   1      45.135  31.179  28.501  1.00  0.00     0.049 A 
ATOM     53  H   UNL A   1      44.859  29.166  28.039  1.00  0.00     0.167 HD
ATOM     54  C   UNL A   1      44.134  24.943  27.120  1.00  0.00     0.037 A 
ATOM     55  C   UNL A   1      46.404  31.493  28.175  1.00  0.00     0.037 A 
ATOM     56  C   UNL A   1      45.484  25.200  26.691  1.00  0.00     0.049 A 
ATOM     57  C   UNL A   1      47.293  30.433  27.584  1.00  0.00     0.074 A 
ATOM     58  C   UNL A   1      46.369  24.335  26.073  1.00  0.00     0.029 A 
ATOM     59  N   UNL A   1      46.144  26.411  26.835  1.00  0.00    -0.354 N 
ATOM     60  N   UNL A   1      47.011  29.182  27.305  1.00  0.00    -0.248 NA
ATOM     61  C   UNL A   1      48.673  30.824  27.265  1.00  0.00     0.031 C 
ATOM     62  C   UNL A   1      47.579  25.009  25.885  1.00  0.00     0.029 A 
ATOM     63  C   UNL A   1      47.435  26.310  26.341  1.00  0.00     0.049 A 
ATOM     64  H   UNL A   1      45.754  27.224  27.231  1.00  0.00     0.167 HD
ATOM     65  C   UNL A   1      48.173  28.642  26.764  1.00  0.00     0.074 A 
ATOM     66  C   UNL A   1      49.155  29.706  26.737  1.00  0.00     0.031 C 
ATOM     67  C   UNL A   1      48.404  27.377  26.331  1.00  0.00     0.037 A 
BRANCH  54  68
ATOM     68  C   UNL A   1      43.568  23.564  26.921  1.00  0.00     0.058 A 
ATOM     69  C   UNL A   1      43.347  22.698  28.004  1.00  0.00     0.135 A 
ATOM     70  C   UNL A   1      43.212  23.111  25.640  1.00  0.00     0.135 A 
ATOM     71  F   UNL A   1      43.684  23.072  29.249  1.00  0.00    -0.206 F 
ATOM     72  C   UNL A   1      42.822  21.423  27.823  1.00  0.00     0.059 A 
ATOM     73  C   UNL A   1      42.658  21.850  25.438  1.00  0.00     0.059 A 
ATOM     74  F   UNL A   1      43.402  23.896  24.568  1.00  0.00    -0.206 F 
ATOM     75  C   UNL A   1      42.480  21.008  26.535  1.00  0.00     0.060 A 
BRANCH  75  76
ATOM     76  S   UNL A   1      41.798  19.351  26.320  1.00  0.00     0.124 S 
ATOM     77  O   UNL A   1      42.465  18.917  25.096  1.00  0.00    -0.237 OA
ATOM     78  O   UNL A   1      42.223  18.679  27.544  1.00  0.00    -0.237 OA
ATOM     79  O   UNL A   1      40.362  19.584  26.202  1.00  0.00    -0.744 OA
ENDBRANCH  75  76
ENDBRANCH  54  68
BRANCH  55  80
ATOM     80  C   UNL A   1      46.894  32.884  28.371  1.00  0.00     0.058 A 
ATOM     81  C   UNL A   1      47.549  33.254  29.554  1.00  0.00     0.135 A 
ATOM     82  C   UNL A   1      46.752  33.859  27.371  1.00  0.00     0.135 A 
ATOM     83  F   UNL A   1      47.699  32.361  30.545  1.00  0.00    -0.206 F 
ATOM     84  C   UNL A   1      48.047  34.539  29.741  1.00  0.00     0.059 A 
ATOM     85  C   UNL A   1      47.262  35.145  27.524  1.00  0.00     0.059 A 
ATOM     86  F   UNL A   1      46.142  33.553  26.215  1.00  0.00    -0.206 F 
ATOM     87  C   UNL A   1      47.907  35.475  28.715  1.00  0.00     0.060 A 
BRANCH  87  88
ATOM     88  S   UNL A   1      48.625  37.117  28.943  1.00  0.00     0.124 S 
ATOM     89  O   UNL A   1      47.794  37.929  28.062  1.00  0.00    -0.237 OA
ATOM     90  O   UNL A   1      48.440  37.333  30.375  1.00  0.00    -0.237 OA
ATOM     91  O   UNL A   1      50.011  36.941  28.517  1.00  0.00    -0.744 OA
ENDBRANCH  87  88
ENDBRANCH  55  80
BRANCH  67  92
ATOM     92  C   UNL A   1      49.773  27.069  25.786  1.00  0.00     0.058 A 
ATOM     93  C   UNL A   1      50.070  27.225  24.423  1.00  0.00     0.135 A 
ATOM     94  C   UNL A   1      50.815  26.683  26.645  1.00  0.00     0.135 A 
ATOM     95  F   UNL A   1      49.109  27.586  23.559  1.00  0.00    -0.206 F 
ATOM     96  C   UNL A   1      51.349  26.991  23.928  1.00  0.00     0.059 A 
ATOM     97  C   UNL A   1      52.108  26.472  26.175  1.00  0.00     0.059 A 
ATOM     98  F   UNL A   1      50.587  26.531  27.960  1.00  0.00    -0.206 F 
ATOM     99  C   UNL A   1      52.362  26.620  24.813  1.00  0.00     0.060 A 
BRANCH  99 100
ATOM    100  S   UNL A   1      54.025  26.360  24.158  1.00  0.00     0.124 S 
ATOM    101  O   UNL A   1      54.397  25.100  24.793  1.00  0.00    -0.237 OA
ATOM    102  O   UNL A   1      53.785  26.298  22.720  1.00  0.00    -0.237 OA
ATOM    103  O   UNL A   1      54.759  27.534  24.616  1.00  0.00    -0.744 OA
ENDBRANCH  99 100
ENDBRANCH  67  92
ENDBRANCH  41  42
ENDBRANCH  33  36
ENDBRANCH  31  32
ENDBRANCH  30  31
ENDBRANCH  29  30
ENDBRANCH  28  29
ENDBRANCH   1  28
TORSDOF 21
ENDMDL
