MODEL 1
REMARK VINA RESULT:     -13.3      0.000      0.000
REMARK SMILES Cc1ccc(-c2cncc(C#N)c2)cc1C(=O)NCCCCCCNC(=O)c1ccc(-c2c3nc(c(-c4c(F)cc(S(=O)(=O)[O-])cc4F)c4ccc([nH]4)c(-c4c(F)cc(S(=O)(=O)[O-])cc4F)c4nc(c(-c5c(F)cc(S(=O)(=O)[O-])cc5F)c5ccc2[nH]5)C=C4)C=C3)cc1
REMARK SMILES IDX 22 1 21 2 20 3 19 4 18 5 16 6 17 7 15 9 1 10 2 11 3 12 4 13
REMARK SMILES IDX 14 14 5 15 6 16 7 17 13 18 8 19 10 20 9 21 11 22 12 23 23 24
REMARK SMILES IDX 24 25 25 26 26 27 27 29 28 30 29 31 93 32 30 33 92 34 31 35
REMARK SMILES IDX 32 36 33 37 86 38 34 39 91 40 85 41 87 42 35 43 90 44 84 45
REMARK SMILES IDX 83 46 36 48 70 49 49 50 69 51 50 52 53 53 68 54 88 55 51 56
REMARK SMILES IDX 52 57 67 59 89 60 54 61 37 62 38 63 47 64 39 65 40 66 46 67
REMARK SMILES IDX 48 68 41 69 42 70 43 71 44 72 45 73 71 74 72 75 81 76 73 77
REMARK SMILES IDX 74 78 80 79 82 80 75 81 76 82 77 83 78 84 79 85 55 86 56 87
REMARK SMILES IDX 65 88 57 89 58 90 64 91 66 92 59 93 60 94 61 95 62 96 63 97
REMARK H PARENT 18 8 25 28 87 47 53 58
REMARK Flexibility Score: inf
ROOT
ATOM      1  C   UNL A   1      33.019  28.284  25.849  1.00  0.00     0.002 C 
ENDROOT
BRANCH   1   2
ATOM      2  C   UNL A   1      34.004  27.536  24.942  1.00  0.00     0.002 C 
BRANCH   2   3
ATOM      3  C   UNL A   1      34.297  28.222  23.607  1.00  0.00     0.021 C 
BRANCH   3   4
ATOM      4  C   UNL A   1      33.064  28.419  22.715  1.00  0.00     0.116 C 
BRANCH   4   5
ATOM      5  N   UNL A   1      33.087  27.450  21.651  1.00  0.00    -0.352 N 
ATOM      6  C   UNL A   1      32.840  26.111  21.576  1.00  0.00     0.251 C 
ATOM      7  O   UNL A   1      33.093  25.600  20.478  1.00  0.00    -0.269 OA
ATOM      8  H   UNL A   1      33.334  27.842  20.782  1.00  0.00     0.163 HD
BRANCH   6   9
ATOM      9  C   UNL A   1      32.208  25.242  22.633  1.00  0.00     0.043 A 
ATOM     10  C   UNL A   1      30.190  26.646  23.499  1.00  0.00     0.045 C 
ATOM     11  C   UNL A   1      31.037  25.414  23.403  1.00  0.00    -0.038 A 
ATOM     12  C   UNL A   1      30.633  24.384  24.281  1.00  0.00     0.005 A 
ATOM     13  C   UNL A   1      31.448  23.292  24.548  1.00  0.00     0.009 A 
ATOM     14  C   UNL A   1      33.018  24.118  22.941  1.00  0.00     0.023 A 
ATOM     15  C   UNL A   1      32.689  23.178  23.928  1.00  0.00    -0.016 A 
BRANCH  15  16
ATOM     16  C   UNL A   1      33.647  22.169  24.381  1.00  0.00     0.001 A 
ATOM     17  C   UNL A   1      34.940  22.504  24.782  1.00  0.00     0.119 A 
ATOM     18  C   UNL A   1      33.334  20.801  24.326  1.00  0.00     0.031 A 
ATOM     19  N   UNL A   1      35.905  21.606  25.093  1.00  0.00    -0.263 NA
ATOM     20  C   UNL A   1      34.308  19.849  24.628  1.00  0.00     0.071 A 
ATOM     21  C   UNL A   1      35.567  20.299  24.997  1.00  0.00     0.130 A 
BRANCH  20  22
ATOM     22  C   UNL A   1      34.041  18.446  24.536  1.00  0.00     0.101 C 
ATOM     23  N   UNL A   1      33.847  17.308  24.475  1.00  0.00    -0.192 NA
ENDBRANCH  20  22
ENDBRANCH  15  16
ENDBRANCH   6   9
ENDBRANCH   4   5
ENDBRANCH   3   4
ENDBRANCH   2   3
ENDBRANCH   1   2
BRANCH   1  24
ATOM     24  C   UNL A   1      33.578  29.532  26.530  1.00  0.00     0.021 C 
BRANCH  24  25
ATOM     25  C   UNL A   1      34.849  29.259  27.307  1.00  0.00     0.116 C 
BRANCH  25  26
ATOM     26  N   UNL A   1      35.812  30.336  27.143  1.00  0.00    -0.352 N 
ATOM     27  C   UNL A   1      36.904  30.558  27.963  1.00  0.00     0.251 C 
ATOM     28  H   UNL A   1      35.675  30.955  26.390  1.00  0.00     0.163 HD
ATOM     29  O   UNL A   1      37.205  31.646  28.433  1.00  0.00    -0.269 OA
BRANCH  27  30
ATOM     30  C   UNL A   1      37.802  29.400  28.111  1.00  0.00     0.039 A 
ATOM     31  C   UNL A   1      37.721  28.656  29.297  1.00  0.00     0.014 A 
ATOM     32  C   UNL A   1      38.909  29.335  27.275  1.00  0.00     0.014 A 
ATOM     33  C   UNL A   1      38.855  28.012  29.757  1.00  0.00     0.010 A 
ATOM     34  C   UNL A   1      40.067  28.853  27.805  1.00  0.00     0.010 A 
ATOM     35  C   UNL A   1      40.033  28.223  29.054  1.00  0.00    -0.014 A 
BRANCH  35  36
ATOM     36  C   UNL A   1      41.306  27.635  29.383  1.00  0.00     0.031 A 
ATOM     37  C   UNL A   1      41.455  26.237  28.950  1.00  0.00     0.074 A 
ATOM     38  C   UNL A   1      42.288  28.491  29.730  1.00  0.00     0.049 A 
ATOM     39  N   UNL A   1      42.445  25.490  29.248  1.00  0.00    -0.248 NA
ATOM     40  C   UNL A   1      40.452  25.552  28.127  1.00  0.00     0.031 C 
ATOM     41  C   UNL A   1      43.733  28.314  29.725  1.00  0.00     0.029 A 
ATOM     42  N   UNL A   1      42.105  29.702  30.410  1.00  0.00    -0.354 N 
ATOM     43  C   UNL A   1      42.394  24.389  28.415  1.00  0.00     0.074 A 
ATOM     44  C   UNL A   1      41.079  24.410  27.835  1.00  0.00     0.031 C 
ATOM     45  C   UNL A   1      44.267  29.142  30.644  1.00  0.00     0.029 A 
ATOM     46  C   UNL A   1      43.157  29.765  31.352  1.00  0.00     0.049 A 
ATOM     47  H   UNL A   1      41.394  30.367  30.263  1.00  0.00     0.167 HD
ATOM     48  C   UNL A   1      43.556  23.702  28.229  1.00  0.00     0.037 A 
ATOM     49  C   UNL A   1      42.838  29.554  32.669  1.00  0.00     0.037 A 
ATOM     50  C   UNL A   1      44.574  24.257  29.126  1.00  0.00     0.049 A 
ATOM     51  C   UNL A   1      43.348  28.216  33.185  1.00  0.00     0.074 A 
ATOM     52  C   UNL A   1      45.549  25.231  28.995  1.00  0.00     0.029 A 
ATOM     53  N   UNL A   1      44.370  24.104  30.481  1.00  0.00    -0.354 N 
ATOM     54  N   UNL A   1      43.829  27.269  32.421  1.00  0.00    -0.248 NA
ATOM     55  C   UNL A   1      43.351  27.831  34.595  1.00  0.00     0.031 C 
ATOM     56  C   UNL A   1      45.849  25.719  30.308  1.00  0.00     0.029 A 
ATOM     57  C   UNL A   1      45.065  25.036  31.221  1.00  0.00     0.049 A 
ATOM     58  H   UNL A   1      43.794  23.410  30.873  1.00  0.00     0.167 HD
ATOM     59  C   UNL A   1      44.217  26.201  33.177  1.00  0.00     0.074 A 
ATOM     60  C   UNL A   1      43.854  26.584  34.534  1.00  0.00     0.031 C 
ATOM     61  C   UNL A   1      44.816  25.086  32.655  1.00  0.00     0.037 A 
BRANCH  48  62
ATOM     62  C   UNL A   1      43.869  22.681  27.162  1.00  0.00     0.058 A 
ATOM     63  C   UNL A   1      43.086  21.506  27.104  1.00  0.00     0.135 A 
ATOM     64  C   UNL A   1      44.903  22.743  26.204  1.00  0.00     0.135 A 
ATOM     65  F   UNL A   1      42.051  21.309  27.931  1.00  0.00    -0.206 F 
ATOM     66  C   UNL A   1      43.326  20.471  26.204  1.00  0.00     0.059 A 
ATOM     67  C   UNL A   1      45.171  21.709  25.297  1.00  0.00     0.059 A 
ATOM     68  F   UNL A   1      45.694  23.811  26.073  1.00  0.00    -0.206 F 
ATOM     69  C   UNL A   1      44.375  20.575  25.307  1.00  0.00     0.060 A 
BRANCH  69  70
ATOM     70  S   UNL A   1      44.655  19.216  24.162  1.00  0.00     0.124 S 
ATOM     71  O   UNL A   1      43.712  18.213  24.648  1.00  0.00    -0.237 OA
ATOM     72  O   UNL A   1      44.327  19.829  22.880  1.00  0.00    -0.237 OA
ATOM     73  O   UNL A   1      46.064  18.889  24.356  1.00  0.00    -0.744 OA
ENDBRANCH  69  70
ENDBRANCH  48  62
BRANCH  49  74
ATOM     74  C   UNL A   1      41.528  30.211  33.005  1.00  0.00     0.058 A 
ATOM     75  C   UNL A   1      40.444  29.356  33.323  1.00  0.00     0.135 A 
ATOM     76  C   UNL A   1      41.463  31.523  33.492  1.00  0.00     0.135 A 
ATOM     77  F   UNL A   1      40.437  28.089  32.875  1.00  0.00    -0.206 F 
ATOM     78  C   UNL A   1      39.457  29.720  34.237  1.00  0.00     0.059 A 
ATOM     79  C   UNL A   1      40.457  31.920  34.381  1.00  0.00     0.059 A 
ATOM     80  F   UNL A   1      42.448  32.394  33.225  1.00  0.00    -0.206 F 
ATOM     81  C   UNL A   1      39.500  30.992  34.799  1.00  0.00     0.060 A 
BRANCH  81  82
ATOM     82  S   UNL A   1      38.373  31.361  36.164  1.00  0.00     0.124 S 
ATOM     83  O   UNL A   1      39.205  32.198  37.020  1.00  0.00    -0.237 OA
ATOM     84  O   UNL A   1      37.269  32.044  35.486  1.00  0.00    -0.237 OA
ATOM     85  O   UNL A   1      38.044  30.045  36.696  1.00  0.00    -0.744 OA
ENDBRANCH  81  82
ENDBRANCH  49  74
BRANCH  61  86
ATOM     86  C   UNL A   1      45.206  23.910  33.503  1.00  0.00     0.058 A 
ATOM     87  C   UNL A   1      44.284  22.918  33.858  1.00  0.00     0.135 A 
ATOM     88  C   UNL A   1      46.501  23.784  34.059  1.00  0.00     0.135 A 
ATOM     89  F   UNL A   1      43.002  23.001  33.468  1.00  0.00    -0.206 F 
ATOM     90  C   UNL A   1      44.651  21.811  34.617  1.00  0.00     0.059 A 
ATOM     91  C   UNL A   1      46.865  22.736  34.889  1.00  0.00     0.059 A 
ATOM     92  F   UNL A   1      47.486  24.648  33.778  1.00  0.00    -0.206 F 
ATOM     93  C   UNL A   1      45.948  21.726  35.119  1.00  0.00     0.060 A 
BRANCH  93  94
ATOM     94  S   UNL A   1      46.440  20.275  36.056  1.00  0.00     0.124 S 
ATOM     95  O   UNL A   1      47.894  20.407  36.096  1.00  0.00    -0.237 OA
ATOM     96  O   UNL A   1      45.748  20.504  37.320  1.00  0.00    -0.237 OA
ATOM     97  O   UNL A   1      45.938  19.164  35.254  1.00  0.00    -0.744 OA
ENDBRANCH  93  94
ENDBRANCH  61  86
ENDBRANCH  35  36
ENDBRANCH  27  30
ENDBRANCH  25  26
ENDBRANCH  24  25
ENDBRANCH   1  24
TORSDOF 18
ENDMDL
MODEL 2
REMARK VINA RESULT:     -13.1      5.092     11.573
REMARK SMILES Cc1ccc(-c2cncc(C#N)c2)cc1C(=O)NCCCCCCNC(=O)c1ccc(-c2c3nc(c(-c4c(F)cc(S(=O)(=O)[O-])cc4F)c4ccc([nH]4)c(-c4c(F)cc(S(=O)(=O)[O-])cc4F)c4nc(c(-c5c(F)cc(S(=O)(=O)[O-])cc5F)c5ccc2[nH]5)C=C4)C=C3)cc1
REMARK SMILES IDX 22 1 21 2 20 3 19 4 18 5 16 6 17 7 15 9 1 10 2 11 3 12 4 13
REMARK SMILES IDX 14 14 5 15 6 16 7 17 13 18 8 19 10 20 9 21 11 22 12 23 23 24
REMARK SMILES IDX 24 25 25 26 26 27 27 29 28 30 29 31 93 32 30 33 92 34 31 35
REMARK SMILES IDX 32 36 33 37 86 38 34 39 91 40 85 41 87 42 35 43 90 44 84 45
REMARK SMILES IDX 83 46 36 48 70 49 49 50 69 51 50 52 53 53 68 54 88 55 51 56
REMARK SMILES IDX 52 57 67 59 89 60 54 61 37 62 38 63 47 64 39 65 40 66 46 67
REMARK SMILES IDX 48 68 41 69 42 70 43 71 44 72 45 73 71 74 72 75 81 76 73 77
REMARK SMILES IDX 74 78 80 79 82 80 75 81 76 82 77 83 78 84 79 85 55 86 56 87
REMARK SMILES IDX 65 88 57 89 58 90 64 91 66 92 59 93 60 94 61 95 62 96 63 97
REMARK H PARENT 18 8 25 28 87 47 53 58
REMARK Flexibility Score: inf
ROOT
ATOM      1  C   UNL A   1      35.879  22.840  26.056  1.00  0.00     0.002 C 
ENDROOT
BRANCH   1   2
ATOM      2  C   UNL A   1      35.211  21.461  26.134  1.00  0.00     0.002 C 
BRANCH   2   3
ATOM      3  C   UNL A   1      34.198  21.300  27.268  1.00  0.00     0.021 C 
BRANCH   3   4
ATOM      4  C   UNL A   1      33.434  22.584  27.619  1.00  0.00     0.116 C 
BRANCH   4   5
ATOM      5  N   UNL A   1      32.046  22.420  27.274  1.00  0.00    -0.352 N 
ATOM      6  C   UNL A   1      31.317  22.611  26.138  1.00  0.00     0.251 C 
ATOM      7  O   UNL A   1      30.096  22.474  26.278  1.00  0.00    -0.269 OA
ATOM      8  H   UNL A   1      31.500  22.096  28.027  1.00  0.00     0.163 HD
BRANCH   6   9
ATOM      9  C   UNL A   1      31.847  22.858  24.748  1.00  0.00     0.043 A 
ATOM     10  C   UNL A   1      32.531  20.494  23.890  1.00  0.00     0.045 C 
ATOM     11  C   UNL A   1      32.291  21.966  23.748  1.00  0.00    -0.038 A 
ATOM     12  C   UNL A   1      32.670  22.478  22.487  1.00  0.00     0.005 A 
ATOM     13  C   UNL A   1      32.795  23.843  22.262  1.00  0.00     0.009 A 
ATOM     14  C   UNL A   1      32.000  24.244  24.484  1.00  0.00     0.023 A 
ATOM     15  C   UNL A   1      32.525  24.747  23.285  1.00  0.00    -0.016 A 
BRANCH  15  16
ATOM     16  C   UNL A   1      32.884  26.158  23.133  1.00  0.00     0.001 A 
ATOM     17  C   UNL A   1      33.549  26.633  22.003  1.00  0.00     0.119 A 
ATOM     18  C   UNL A   1      32.669  27.073  24.176  1.00  0.00     0.031 A 
ATOM     19  N   UNL A   1      34.014  27.898  21.862  1.00  0.00    -0.263 NA
ATOM     20  C   UNL A   1      33.145  28.379  24.067  1.00  0.00     0.071 A 
ATOM     21  C   UNL A   1      33.810  28.737  22.904  1.00  0.00     0.130 A 
BRANCH  20  22
ATOM     22  C   UNL A   1      32.988  29.327  25.128  1.00  0.00     0.101 C 
ATOM     23  N   UNL A   1      32.836  30.097  25.977  1.00  0.00    -0.192 NA
ENDBRANCH  20  22
ENDBRANCH  15  16
ENDBRANCH   6   9
ENDBRANCH   4   5
ENDBRANCH   3   4
ENDBRANCH   2   3
ENDBRANCH   1   2
BRANCH   1  24
ATOM     24  C   UNL A   1      37.353  22.829  25.655  1.00  0.00     0.021 C 
BRANCH  24  25
ATOM     25  C   UNL A   1      38.113  24.033  26.171  1.00  0.00     0.116 C 
BRANCH  25  26
ATOM     26  N   UNL A   1      38.796  23.733  27.419  1.00  0.00    -0.352 N 
ATOM     27  C   UNL A   1      39.840  24.470  27.951  1.00  0.00     0.251 C 
ATOM     28  H   UNL A   1      38.492  22.946  27.925  1.00  0.00     0.163 HD
ATOM     29  O   UNL A   1      40.880  23.986  28.375  1.00  0.00    -0.269 OA
BRANCH  27  30
ATOM     30  C   UNL A   1      39.549  25.903  28.127  1.00  0.00     0.039 A 
ATOM     31  C   UNL A   1      40.036  26.793  27.160  1.00  0.00     0.014 A 
ATOM     32  C   UNL A   1      39.160  26.328  29.391  1.00  0.00     0.014 A 
ATOM     33  C   UNL A   1      40.341  28.087  27.541  1.00  0.00     0.010 A 
ATOM     34  C   UNL A   1      39.618  27.539  29.813  1.00  0.00     0.010 A 
ATOM     35  C   UNL A   1      40.231  28.394  28.890  1.00  0.00    -0.014 A 
BRANCH  35  36
ATOM     36  C   UNL A   1      40.504  29.685  29.467  1.00  0.00     0.031 A 
ATOM     37  C   UNL A   1      39.399  30.647  29.341  1.00  0.00     0.074 A 
ATOM     38  C   UNL A   1      41.555  29.753  30.310  1.00  0.00     0.049 A 
ATOM     39  N   UNL A   1      39.472  31.878  29.668  1.00  0.00    -0.248 NA
ATOM     40  C   UNL A   1      38.083  30.278  28.808  1.00  0.00     0.031 C 
ATOM     41  C   UNL A   1      41.866  30.728  31.344  1.00  0.00     0.029 A 
ATOM     42  N   UNL A   1      42.726  28.993  30.207  1.00  0.00    -0.354 N 
ATOM     43  C   UNL A   1      38.182  32.368  29.717  1.00  0.00     0.074 A 
ATOM     44  C   UNL A   1      37.373  31.382  29.053  1.00  0.00     0.031 C 
ATOM     45  C   UNL A   1      43.202  30.752  31.519  1.00  0.00     0.029 A 
ATOM     46  C   UNL A   1      43.780  29.888  30.499  1.00  0.00     0.049 A 
ATOM     47  H   UNL A   1      42.800  28.038  29.980  1.00  0.00     0.167 HD
ATOM     48  C   UNL A   1      37.975  33.489  30.462  1.00  0.00     0.037 A 
ATOM     49  C   UNL A   1      44.557  30.310  29.451  1.00  0.00     0.037 A 
ATOM     50  C   UNL A   1      39.274  33.989  30.922  1.00  0.00     0.049 A 
ATOM     51  C   UNL A   1      44.310  31.768  29.090  1.00  0.00     0.074 A 
ATOM     52  C   UNL A   1      40.030  33.802  32.066  1.00  0.00     0.029 A 
ATOM     53  N   UNL A   1      40.148  34.448  29.960  1.00  0.00    -0.354 N 
ATOM     54  N   UNL A   1      43.316  32.480  29.555  1.00  0.00    -0.248 NA
ATOM     55  C   UNL A   1      45.149  32.537  28.173  1.00  0.00     0.031 C 
ATOM     56  C   UNL A   1      41.396  34.073  31.729  1.00  0.00     0.029 A 
ATOM     57  C   UNL A   1      41.457  34.429  30.392  1.00  0.00     0.049 A 
ATOM     58  H   UNL A   1      39.869  34.754  29.068  1.00  0.00     0.167 HD
ATOM     59  C   UNL A   1      43.372  33.751  29.060  1.00  0.00     0.074 A 
ATOM     60  C   UNL A   1      44.516  33.725  28.160  1.00  0.00     0.031 C 
ATOM     61  C   UNL A   1      42.496  34.739  29.421  1.00  0.00     0.037 A 
BRANCH  48  62
ATOM     62  C   UNL A   1      36.660  34.053  30.944  1.00  0.00     0.058 A 
ATOM     63  C   UNL A   1      35.675  34.380  29.985  1.00  0.00     0.135 A 
ATOM     64  C   UNL A   1      36.293  34.334  32.277  1.00  0.00     0.135 A 
ATOM     65  F   UNL A   1      35.863  34.150  28.678  1.00  0.00    -0.206 F 
ATOM     66  C   UNL A   1      34.454  34.964  30.310  1.00  0.00     0.059 A 
ATOM     67  C   UNL A   1      35.076  34.933  32.628  1.00  0.00     0.059 A 
ATOM     68  F   UNL A   1      37.076  34.027  33.315  1.00  0.00    -0.206 F 
ATOM     69  C   UNL A   1      34.162  35.246  31.634  1.00  0.00     0.060 A 
BRANCH  69  70
ATOM     70  S   UNL A   1      32.575  36.002  32.015  1.00  0.00     0.124 S 
ATOM     71  O   UNL A   1      31.807  34.861  32.503  1.00  0.00    -0.237 OA
ATOM     72  O   UNL A   1      32.946  36.995  33.017  1.00  0.00    -0.237 OA
ATOM     73  O   UNL A   1      32.137  36.542  30.731  1.00  0.00    -0.744 OA
ENDBRANCH  69  70
ENDBRANCH  48  62
BRANCH  49  74
ATOM     74  C   UNL A   1      44.817  29.175  28.498  1.00  0.00     0.058 A 
ATOM     75  C   UNL A   1      44.201  29.252  27.225  1.00  0.00     0.135 A 
ATOM     76  C   UNL A   1      45.960  28.372  28.601  1.00  0.00     0.135 A 
ATOM     77  F   UNL A   1      43.092  29.995  27.061  1.00  0.00    -0.206 F 
ATOM     78  C   UNL A   1      44.798  28.729  26.081  1.00  0.00     0.059 A 
ATOM     79  C   UNL A   1      46.554  27.804  27.466  1.00  0.00     0.059 A 
ATOM     80  F   UNL A   1      46.594  28.243  29.776  1.00  0.00    -0.206 F 
ATOM     81  C   UNL A   1      46.004  28.046  26.206  1.00  0.00     0.060 A 
BRANCH  81  82
ATOM     82  S   UNL A   1      46.892  27.596  24.695  1.00  0.00     0.124 S 
ATOM     83  O   UNL A   1      48.281  27.738  25.114  1.00  0.00    -0.237 OA
ATOM     84  O   UNL A   1      46.436  26.225  24.458  1.00  0.00    -0.237 OA
ATOM     85  O   UNL A   1      46.422  28.575  23.723  1.00  0.00    -0.744 OA
ENDBRANCH  81  82
ENDBRANCH  49  74
BRANCH  61  86
ATOM     86  C   UNL A   1      42.559  36.123  28.840  1.00  0.00     0.058 A 
ATOM     87  C   UNL A   1      43.194  37.176  29.511  1.00  0.00     0.135 A 
ATOM     88  C   UNL A   1      41.911  36.457  27.629  1.00  0.00     0.135 A 
ATOM     89  F   UNL A   1      43.751  36.986  30.718  1.00  0.00    -0.206 F 
ATOM     90  C   UNL A   1      43.282  38.451  28.960  1.00  0.00     0.059 A 
ATOM     91  C   UNL A   1      41.911  37.739  27.104  1.00  0.00     0.059 A 
ATOM     92  F   UNL A   1      41.291  35.539  26.873  1.00  0.00    -0.206 F 
ATOM     93  C   UNL A   1      42.643  38.718  27.751  1.00  0.00     0.060 A 
BRANCH  93  94
ATOM     94  S   UNL A   1      42.797  40.348  27.011  1.00  0.00     0.124 S 
ATOM     95  O   UNL A   1      41.414  40.669  26.672  1.00  0.00    -0.237 OA
ATOM     96  O   UNL A   1      43.371  41.108  28.116  1.00  0.00    -0.237 OA
ATOM     97  O   UNL A   1      43.681  40.125  25.873  1.00  0.00    -0.744 OA
ENDBRANCH  93  94
ENDBRANCH  61  86
ENDBRANCH  35  36
ENDBRANCH  27  30
ENDBRANCH  25  26
ENDBRANCH  24  25
ENDBRANCH   1  24
TORSDOF 18
ENDMDL
MODEL 3
REMARK VINA RESULT:     -12.8      1.445      2.074
REMARK SMILES Cc1ccc(-c2cncc(C#N)c2)cc1C(=O)NCCCCCCNC(=O)c1ccc(-c2c3nc(c(-c4c(F)cc(S(=O)(=O)[O-])cc4F)c4ccc([nH]4)c(-c4c(F)cc(S(=O)(=O)[O-])cc4F)c4nc(c(-c5c(F)cc(S(=O)(=O)[O-])cc5F)c5ccc2[nH]5)C=C4)C=C3)cc1
REMARK SMILES IDX 22 1 21 2 20 3 19 4 18 5 16 6 17 7 15 9 1 10 2 11 3 12 4 13
REMARK SMILES IDX 14 14 5 15 6 16 7 17 13 18 8 19 10 20 9 21 11 22 12 23 23 24
REMARK SMILES IDX 24 25 25 26 26 27 27 29 28 30 29 31 93 32 30 33 92 34 31 35
REMARK SMILES IDX 32 36 33 37 86 38 34 39 91 40 85 41 87 42 35 43 90 44 84 45
REMARK SMILES IDX 83 46 36 48 70 49 49 50 69 51 50 52 53 53 68 54 88 55 51 56
REMARK SMILES IDX 52 57 67 59 89 60 54 61 37 62 38 63 47 64 39 65 40 66 46 67
REMARK SMILES IDX 48 68 41 69 42 70 43 71 44 72 45 73 71 74 72 75 81 76 73 77
REMARK SMILES IDX 74 78 80 79 82 80 75 81 76 82 77 83 78 84 79 85 55 86 56 87
REMARK SMILES IDX 65 88 57 89 58 90 64 91 66 92 59 93 60 94 61 95 62 96 63 97
REMARK H PARENT 18 8 25 28 87 47 53 58
REMARK Flexibility Score: inf
ROOT
ATOM      1  C   UNL A   1      32.303  29.397  26.648  1.00  0.00     0.002 C 
ENDROOT
BRANCH   1   2
ATOM      2  C   UNL A   1      31.642  28.071  26.252  1.00  0.00     0.002 C 
BRANCH   2   3
ATOM      3  C   UNL A   1      32.046  27.535  24.878  1.00  0.00     0.021 C 
BRANCH   3   4
ATOM      4  C   UNL A   1      31.526  26.124  24.573  1.00  0.00     0.116 C 
BRANCH   4   5
ATOM      5  N   UNL A   1      31.392  25.390  25.805  1.00  0.00    -0.352 N 
ATOM      6  C   UNL A   1      31.999  24.287  26.328  1.00  0.00     0.251 C 
ATOM      7  O   UNL A   1      31.508  23.882  27.389  1.00  0.00    -0.269 OA
ATOM      8  H   UNL A   1      30.710  25.771  26.405  1.00  0.00     0.163 HD
BRANCH   6   9
ATOM      9  C   UNL A   1      33.239  23.600  25.812  1.00  0.00     0.043 A 
ATOM     10  C   UNL A   1      34.930  25.541  25.409  1.00  0.00     0.045 C 
ATOM     11  C   UNL A   1      34.518  24.104  25.494  1.00  0.00    -0.038 A 
ATOM     12  C   UNL A   1      35.532  23.204  25.097  1.00  0.00     0.005 A 
ATOM     13  C   UNL A   1      35.260  21.868  24.832  1.00  0.00     0.009 A 
ATOM     14  C   UNL A   1      32.996  22.233  25.519  1.00  0.00     0.023 A 
ATOM     15  C   UNL A   1      33.965  21.377  24.977  1.00  0.00    -0.016 A 
BRANCH  15  16
ATOM     16  C   UNL A   1      33.623  20.047  24.472  1.00  0.00     0.001 A 
ATOM     17  C   UNL A   1      32.475  19.815  23.716  1.00  0.00     0.119 A 
ATOM     18  C   UNL A   1      34.388  18.923  24.826  1.00  0.00     0.031 A 
ATOM     19  N   UNL A   1      32.045  18.591  23.328  1.00  0.00    -0.263 NA
ATOM     20  C   UNL A   1      33.967  17.647  24.453  1.00  0.00     0.071 A 
ATOM     21  C   UNL A   1      32.798  17.535  23.716  1.00  0.00     0.130 A 
BRANCH  20  22
ATOM     22  C   UNL A   1      34.693  16.475  24.836  1.00  0.00     0.101 C 
ATOM     23  N   UNL A   1      35.269  15.529  25.168  1.00  0.00    -0.192 NA
ENDBRANCH  20  22
ENDBRANCH  15  16
ENDBRANCH   6   9
ENDBRANCH   4   5
ENDBRANCH   3   4
ENDBRANCH   2   3
ENDBRANCH   1   2
BRANCH   1  24
ATOM     24  C   UNL A   1      33.522  29.271  27.560  1.00  0.00     0.021 C 
BRANCH  24  25
ATOM     25  C   UNL A   1      34.811  29.055  26.795  1.00  0.00     0.116 C 
BRANCH  25  26
ATOM     26  N   UNL A   1      35.697  30.202  26.914  1.00  0.00    -0.352 N 
ATOM     27  C   UNL A   1      36.630  30.385  27.920  1.00  0.00     0.251 C 
ATOM     28  H   UNL A   1      35.627  30.902  26.226  1.00  0.00     0.163 HD
ATOM     29  O   UNL A   1      36.766  31.421  28.555  1.00  0.00    -0.269 OA
BRANCH  27  30
ATOM     30  C   UNL A   1      37.585  29.274  28.075  1.00  0.00     0.039 A 
ATOM     31  C   UNL A   1      37.617  28.605  29.307  1.00  0.00     0.014 A 
ATOM     32  C   UNL A   1      38.636  29.201  27.170  1.00  0.00     0.014 A 
ATOM     33  C   UNL A   1      38.807  28.037  29.724  1.00  0.00     0.010 A 
ATOM     34  C   UNL A   1      39.847  28.800  27.646  1.00  0.00     0.010 A 
ATOM     35  C   UNL A   1      39.925  28.250  28.930  1.00  0.00    -0.014 A 
BRANCH  35  36
ATOM     36  C   UNL A   1      41.241  27.735  29.204  1.00  0.00     0.031 A 
ATOM     37  C   UNL A   1      41.430  26.328  28.823  1.00  0.00     0.074 A 
ATOM     38  C   UNL A   1      42.201  28.649  29.455  1.00  0.00     0.049 A 
ATOM     39  N   UNL A   1      42.471  25.640  29.089  1.00  0.00    -0.248 NA
ATOM     40  C   UNL A   1      40.415  25.561  28.091  1.00  0.00     0.031 C 
ATOM     41  C   UNL A   1      43.649  28.538  29.368  1.00  0.00     0.029 A 
ATOM     42  N   UNL A   1      42.000  29.880  30.093  1.00  0.00    -0.354 N 
ATOM     43  C   UNL A   1      42.424  24.502  28.308  1.00  0.00     0.074 A 
ATOM     44  C   UNL A   1      41.077  24.437  27.809  1.00  0.00     0.031 C 
ATOM     45  C   UNL A   1      44.197  29.429  30.217  1.00  0.00     0.029 A 
ATOM     46  C   UNL A   1      43.102  30.032  30.965  1.00  0.00     0.049 A 
ATOM     47  H   UNL A   1      41.251  30.505  29.963  1.00  0.00     0.167 HD
ATOM     48  C   UNL A   1      43.603  23.860  28.081  1.00  0.00     0.037 A 
ATOM     49  C   UNL A   1      42.872  29.866  32.307  1.00  0.00     0.037 A 
ATOM     50  C   UNL A   1      44.646  24.499  28.889  1.00  0.00     0.049 A 
ATOM     51  C   UNL A   1      43.476  28.576  32.847  1.00  0.00     0.074 A 
ATOM     52  C   UNL A   1      45.563  25.509  28.658  1.00  0.00     0.029 A 
ATOM     53  N   UNL A   1      44.530  24.398  30.259  1.00  0.00    -0.354 N 
ATOM     54  N   UNL A   1      43.955  27.619  32.094  1.00  0.00    -0.248 NA
ATOM     55  C   UNL A   1      43.581  28.255  34.269  1.00  0.00     0.031 C 
ATOM     56  C   UNL A   1      45.918  26.069  29.928  1.00  0.00     0.029 A 
ATOM     57  C   UNL A   1      45.223  25.392  30.916  1.00  0.00     0.049 A 
ATOM     58  H   UNL A   1      44.012  23.697  30.715  1.00  0.00     0.167 HD
ATOM     59  C   UNL A   1      44.437  26.605  32.870  1.00  0.00     0.074 A 
ATOM     60  C   UNL A   1      44.137  27.031  34.229  1.00  0.00     0.031 C 
ATOM     61  C   UNL A   1      45.057  25.496  32.359  1.00  0.00     0.037 A 
BRANCH  48  62
ATOM     62  C   UNL A   1      43.901  22.808  27.040  1.00  0.00     0.058 A 
ATOM     63  C   UNL A   1      43.206  21.579  27.107  1.00  0.00     0.135 A 
ATOM     64  C   UNL A   1      44.842  22.890  25.992  1.00  0.00     0.135 A 
ATOM     65  F   UNL A   1      42.262  21.354  28.031  1.00  0.00    -0.206 F 
ATOM     66  C   UNL A   1      43.447  20.515  26.240  1.00  0.00     0.059 A 
ATOM     67  C   UNL A   1      45.110  21.830  25.115  1.00  0.00     0.059 A 
ATOM     68  F   UNL A   1      45.537  24.003  25.741  1.00  0.00    -0.206 F 
ATOM     69  C   UNL A   1      44.405  20.645  25.250  1.00  0.00     0.060 A 
BRANCH  69  70
ATOM     70  S   UNL A   1      44.688  19.249  24.151  1.00  0.00     0.124 S 
ATOM     71  O   UNL A   1      44.462  19.849  22.839  1.00  0.00    -0.237 OA
ATOM     72  O   UNL A   1      46.069  18.895  24.459  1.00  0.00    -0.237 OA
ATOM     73  O   UNL A   1      43.684  18.275  24.569  1.00  0.00    -0.744 OA
ENDBRANCH  69  70
ENDBRANCH  48  62
BRANCH  49  74
ATOM     74  C   UNL A   1      41.555  30.478  32.695  1.00  0.00     0.058 A 
ATOM     75  C   UNL A   1      40.510  29.586  33.040  1.00  0.00     0.135 A 
ATOM     76  C   UNL A   1      41.466  31.782  33.199  1.00  0.00     0.135 A 
ATOM     77  F   UNL A   1      40.527  28.323  32.579  1.00  0.00    -0.206 F 
ATOM     78  C   UNL A   1      39.545  29.909  33.991  1.00  0.00     0.059 A 
ATOM     79  C   UNL A   1      40.479  32.138  34.126  1.00  0.00     0.059 A 
ATOM     80  F   UNL A   1      42.413  32.686  32.908  1.00  0.00    -0.206 F 
ATOM     81  C   UNL A   1      39.567  31.176  34.566  1.00  0.00     0.060 A 
BRANCH  81  82
ATOM     82  S   UNL A   1      38.476  31.495  35.973  1.00  0.00     0.124 S 
ATOM     83  O   UNL A   1      38.338  30.164  36.551  1.00  0.00    -0.237 OA
ATOM     84  O   UNL A   1      39.252  32.454  36.763  1.00  0.00    -0.237 OA
ATOM     85  O   UNL A   1      37.277  32.042  35.353  1.00  0.00    -0.744 OA
ENDBRANCH  81  82
ENDBRANCH  49  74
BRANCH  61  86
ATOM     86  C   UNL A   1      45.552  24.377  33.230  1.00  0.00     0.058 A 
ATOM     87  C   UNL A   1      44.745  23.279  33.551  1.00  0.00     0.135 A 
ATOM     88  C   UNL A   1      46.828  24.412  33.840  1.00  0.00     0.135 A 
ATOM     89  F   UNL A   1      43.480  23.203  33.106  1.00  0.00    -0.206 F 
ATOM     90  C   UNL A   1      45.212  22.227  34.332  1.00  0.00     0.059 A 
ATOM     91  C   UNL A   1      47.282  23.417  34.691  1.00  0.00     0.059 A 
ATOM     92  F   UNL A   1      47.710  25.391  33.596  1.00  0.00    -0.206 F 
ATOM     93  C   UNL A   1      46.487  22.303  34.889  1.00  0.00     0.060 A 
BRANCH  93  94
ATOM     94  S   UNL A   1      47.114  20.924  35.855  1.00  0.00     0.124 S 
ATOM     95  O   UNL A   1      47.123  19.838  34.879  1.00  0.00    -0.237 OA
ATOM     96  O   UNL A   1      48.424  21.428  36.253  1.00  0.00    -0.237 OA
ATOM     97  O   UNL A   1      46.138  20.787  36.930  1.00  0.00    -0.744 OA
ENDBRANCH  93  94
ENDBRANCH  61  86
ENDBRANCH  35  36
ENDBRANCH  27  30
ENDBRANCH  25  26
ENDBRANCH  24  25
ENDBRANCH   1  24
TORSDOF 18
ENDMDL
