MODEL 1
REMARK VINA RESULT:     -11.8      0.000      0.000
REMARK SMILES O=C(NCCCCCCNC(=O)[C@H]1C[C@@H]1C(=O)Nc1ccc(Cl)c(Br)c1)c1ccc(-c2c3nc(c(-c4c(F)cc(S(=O)(=O)[O-])cc4F)c4ccc([nH]4)c(-c4c(F)cc(S(=O)(=O)[O-])cc4F)c4nc(c(-c5c(F)cc(S(=O)(=O)[O-])cc5F)c5ccc2[nH]5)C=C4)C=C3)cc1
REMARK SMILES IDX 6 1 5 2 4 3 3 4 1 5 2 6 27 8 28 9 92 10 29 11 91 12 30 13
REMARK SMILES IDX 31 14 32 15 85 16 33 17 90 18 84 19 86 20 34 21 89 22 83 23
REMARK SMILES IDX 82 24 35 26 69 27 48 28 68 29 49 30 52 31 67 32 87 33 50 34
REMARK SMILES IDX 51 35 66 37 88 38 53 39 36 40 37 41 46 42 38 43 39 44 45 45
REMARK SMILES IDX 47 46 40 47 41 48 42 49 43 50 44 51 70 52 71 53 80 54 72 55
REMARK SMILES IDX 73 56 79 57 81 58 74 59 75 60 76 61 77 62 78 63 54 64 55 65
REMARK SMILES IDX 64 66 56 67 57 68 63 69 65 70 58 71 59 72 60 73 61 74 62 75
REMARK SMILES IDX 7 76 8 77 9 78 10 79 11 80 12 82 13 83 14 84 15 85 16 86
REMARK SMILES IDX 17 87 18 88 19 90 20 91 26 92 21 93 24 94 22 95 25 96 23 97
REMARK H PARENT 3 7 86 25 52 36 10 81 18 89
REMARK Flexibility Score: inf
ROOT
ATOM      1  C   UNL A   1      38.003  23.776  26.116  1.00  0.00     0.002 C 
ENDROOT
BRANCH   1   2
ATOM      2  C   UNL A   1      38.997  22.667  26.483  1.00  0.00     0.021 C 
BRANCH   2   3
ATOM      3  C   UNL A   1      40.344  23.138  27.035  1.00  0.00     0.116 C 
BRANCH   3   4
ATOM      4  N   UNL A   1      41.113  23.876  26.052  1.00  0.00    -0.352 N 
ATOM      5  O   UNL A   1      42.059  25.651  25.062  1.00  0.00    -0.269 OA
ATOM      6  C   UNL A   1      41.563  25.171  26.079  1.00  0.00     0.251 C 
ATOM      7  H   UNL A   1      41.347  23.370  25.241  1.00  0.00     0.163 HD
BRANCH   6   8
ATOM      8  C   UNL A   1      41.458  25.999  27.304  1.00  0.00     0.039 A 
ATOM      9  C   UNL A   1      40.257  25.966  28.023  1.00  0.00     0.014 A 
ATOM     10  C   UNL A   1      42.477  26.875  27.693  1.00  0.00     0.014 A 
ATOM     11  C   UNL A   1      40.079  26.799  29.131  1.00  0.00     0.010 A 
ATOM     12  C   UNL A   1      42.312  27.680  28.823  1.00  0.00     0.010 A 
ATOM     13  C   UNL A   1      41.104  27.665  29.537  1.00  0.00    -0.014 A 
BRANCH  13  14
ATOM     14  C   UNL A   1      40.888  28.629  30.645  1.00  0.00     0.031 A 
ATOM     15  C   UNL A   1      41.789  28.592  31.848  1.00  0.00     0.074 A 
ATOM     16  C   UNL A   1      39.896  29.536  30.577  1.00  0.00     0.049 A 
ATOM     17  N   UNL A   1      41.729  29.292  32.951  1.00  0.00    -0.248 NA
ATOM     18  C   UNL A   1      42.902  27.630  31.806  1.00  0.00     0.031 C 
ATOM     19  C   UNL A   1      38.968  29.693  29.457  1.00  0.00     0.029 A 
ATOM     20  N   UNL A   1      39.510  30.503  31.470  1.00  0.00    -0.354 N 
ATOM     21  C   UNL A   1      42.786  28.851  33.738  1.00  0.00     0.074 A 
ATOM     22  C   UNL A   1      43.452  27.798  32.999  1.00  0.00     0.031 C 
ATOM     23  C   UNL A   1      38.140  30.719  29.718  1.00  0.00     0.029 A 
ATOM     24  C   UNL A   1      38.457  31.268  31.033  1.00  0.00     0.049 A 
ATOM     25  H   UNL A   1      39.948  30.637  32.342  1.00  0.00     0.167 HD
ATOM     26  C   UNL A   1      43.178  29.289  34.958  1.00  0.00     0.037 A 
ATOM     27  C   UNL A   1      37.819  32.296  31.628  1.00  0.00     0.037 A 
ATOM     28  C   UNL A   1      42.531  30.345  35.689  1.00  0.00     0.049 A 
ATOM     29  C   UNL A   1      38.250  32.746  32.995  1.00  0.00     0.074 A 
ATOM     30  C   UNL A   1      42.840  30.845  36.942  1.00  0.00     0.029 A 
ATOM     31  N   UNL A   1      41.447  31.074  35.225  1.00  0.00    -0.354 N 
ATOM     32  N   UNL A   1      39.222  32.286  33.746  1.00  0.00    -0.248 NA
ATOM     33  C   UNL A   1      37.490  33.850  33.601  1.00  0.00     0.031 C 
ATOM     34  C   UNL A   1      41.933  31.871  37.240  1.00  0.00     0.029 A 
ATOM     35  C   UNL A   1      41.074  32.021  36.163  1.00  0.00     0.049 A 
ATOM     36  H   UNL A   1      41.006  30.937  34.355  1.00  0.00     0.167 HD
ATOM     37  C   UNL A   1      39.197  33.048  34.908  1.00  0.00     0.074 A 
ATOM     38  C   UNL A   1      38.120  34.006  34.758  1.00  0.00     0.031 C 
ATOM     39  C   UNL A   1      39.996  32.962  36.000  1.00  0.00     0.037 A 
BRANCH  26  40
ATOM     40  C   UNL A   1      44.366  28.608  35.571  1.00  0.00     0.058 A 
ATOM     41  C   UNL A   1      45.673  29.057  35.323  1.00  0.00     0.135 A 
ATOM     42  C   UNL A   1      44.201  27.480  36.390  1.00  0.00     0.135 A 
ATOM     43  F   UNL A   1      45.881  30.119  34.529  1.00  0.00    -0.206 F 
ATOM     44  C   UNL A   1      46.779  28.387  35.833  1.00  0.00     0.059 A 
ATOM     45  C   UNL A   1      45.293  26.805  36.927  1.00  0.00     0.059 A 
ATOM     46  F   UNL A   1      42.972  27.009  36.655  1.00  0.00    -0.206 F 
ATOM     47  C   UNL A   1      46.579  27.254  36.624  1.00  0.00     0.060 A 
BRANCH  47  48
ATOM     48  S   UNL A   1      48.020  26.363  37.249  1.00  0.00     0.124 S 
ATOM     49  O   UNL A   1      48.787  27.446  37.857  1.00  0.00    -0.237 OA
ATOM     50  O   UNL A   1      47.426  25.408  38.181  1.00  0.00    -0.237 OA
ATOM     51  O   UNL A   1      48.602  25.779  36.046  1.00  0.00    -0.744 OA
ENDBRANCH  47  48
ENDBRANCH  26  40
BRANCH  27  52
ATOM     52  C   UNL A   1      36.721  32.987  30.911  1.00  0.00     0.058 A 
ATOM     53  C   UNL A   1      35.383  32.753  31.263  1.00  0.00     0.135 A 
ATOM     54  C   UNL A   1      36.981  33.921  29.899  1.00  0.00     0.135 A 
ATOM     55  F   UNL A   1      35.090  31.861  32.222  1.00  0.00    -0.206 F 
ATOM     56  C   UNL A   1      34.339  33.425  30.640  1.00  0.00     0.059 A 
ATOM     57  C   UNL A   1      35.954  34.617  29.269  1.00  0.00     0.059 A 
ATOM     58  F   UNL A   1      38.245  34.185  29.535  1.00  0.00    -0.206 F 
ATOM     59  C   UNL A   1      34.635  34.361  29.647  1.00  0.00     0.060 A 
BRANCH  59  60
ATOM     60  S   UNL A   1      33.279  35.294  28.902  1.00  0.00     0.124 S 
ATOM     61  O   UNL A   1      33.998  36.349  28.200  1.00  0.00    -0.237 OA
ATOM     62  O   UNL A   1      32.639  34.288  28.059  1.00  0.00    -0.237 OA
ATOM     63  O   UNL A   1      32.494  35.721  30.057  1.00  0.00    -0.744 OA
ENDBRANCH  59  60
ENDBRANCH  27  52
BRANCH  39  64
ATOM     64  C   UNL A   1      39.739  33.932  37.116  1.00  0.00     0.058 A 
ATOM     65  C   UNL A   1      38.857  33.621  38.161  1.00  0.00     0.135 A 
ATOM     66  C   UNL A   1      40.418  35.158  37.166  1.00  0.00     0.135 A 
ATOM     67  F   UNL A   1      38.181  32.462  38.152  1.00  0.00    -0.206 F 
ATOM     68  C   UNL A   1      38.647  34.502  39.217  1.00  0.00     0.059 A 
ATOM     69  C   UNL A   1      40.233  36.049  38.219  1.00  0.00     0.059 A 
ATOM     70  F   UNL A   1      41.277  35.497  36.191  1.00  0.00    -0.206 F 
ATOM     71  C   UNL A   1      39.338  35.715  39.236  1.00  0.00     0.060 A 
BRANCH  71  72
ATOM     72  S   UNL A   1      39.089  36.837  40.629  1.00  0.00     0.124 S 
ATOM     73  O   UNL A   1      38.440  35.960  41.598  1.00  0.00    -0.237 OA
ATOM     74  O   UNL A   1      40.451  37.244  40.956  1.00  0.00    -0.237 OA
ATOM     75  O   UNL A   1      38.245  37.888  40.067  1.00  0.00    -0.744 OA
ENDBRANCH  71  72
ENDBRANCH  39  64
ENDBRANCH  13  14
ENDBRANCH   6   8
ENDBRANCH   3   4
ENDBRANCH   2   3
ENDBRANCH   1   2
BRANCH   1  76
ATOM     76  C   UNL A   1      36.692  23.314  25.468  1.00  0.00     0.002 C 
BRANCH  76  77
ATOM     77  C   UNL A   1      36.625  21.824  25.118  1.00  0.00     0.021 C 
BRANCH  77  78
ATOM     78  C   UNL A   1      35.461  21.076  25.769  1.00  0.00     0.116 C 
BRANCH  78  79
ATOM     79  N   UNL A   1      34.362  20.901  24.838  1.00  0.00    -0.356 N 
ATOM     80  C   UNL A   1      33.063  21.321  24.823  1.00  0.00     0.223 C 
ATOM     81  H   UNL A   1      34.605  20.366  24.049  1.00  0.00     0.163 HD
ATOM     82  O   UNL A   1      32.364  20.984  23.869  1.00  0.00    -0.275 OA
BRANCH  80  83
ATOM     83  C   UNL A   1      32.455  22.220  25.834  1.00  0.00     0.091 C 
ATOM     84  C   UNL A   1      33.100  23.551  26.108  1.00  0.00     0.028 C 
ATOM     85  C   UNL A   1      31.668  23.487  25.627  1.00  0.00     0.092 C 
BRANCH  85  86
ATOM     86  C   UNL A   1      30.547  23.865  26.535  1.00  0.00     0.228 C 
ATOM     87  O   UNL A   1      30.140  23.066  27.372  1.00  0.00    -0.274 OA
ATOM     88  N   UNL A   1      30.152  25.183  26.568  1.00  0.00    -0.326 N 
ATOM     89  H   UNL A   1      29.758  25.484  27.420  1.00  0.00     0.169 HD
BRANCH  88  90
ATOM     90  C   UNL A   1      30.230  26.160  25.565  1.00  0.00     0.042 A 
ATOM     91  C   UNL A   1      29.318  26.210  24.512  1.00  0.00     0.028 A 
ATOM     92  C   UNL A   1      31.188  27.168  25.683  1.00  0.00     0.043 A 
ATOM     93  C   UNL A   1      29.409  27.206  23.536  1.00  0.00     0.024 A 
ATOM     94  C   UNL A   1      31.297  28.158  24.696  1.00  0.00     0.038 A 
ATOM     95  C   UNL A   1      30.411  28.173  23.614  1.00  0.00     0.055 A 
ATOM     96  Br  UNL A   1      32.686  29.438  24.889  1.00  0.00    -0.049 Br
ATOM     97  Cl  UNL A   1      30.483  29.346  22.350  1.00  0.00    -0.083 Cl
ENDBRANCH  88  90
ENDBRANCH  85  86
ENDBRANCH  80  83
ENDBRANCH  78  79
ENDBRANCH  77  78
ENDBRANCH  76  77
ENDBRANCH   1  76
TORSDOF 18
ENDMDL
MODEL 2
REMARK VINA RESULT:     -11.8      3.024      3.996
REMARK SMILES O=C(NCCCCCCNC(=O)[C@H]1C[C@@H]1C(=O)Nc1ccc(Cl)c(Br)c1)c1ccc(-c2c3nc(c(-c4c(F)cc(S(=O)(=O)[O-])cc4F)c4ccc([nH]4)c(-c4c(F)cc(S(=O)(=O)[O-])cc4F)c4nc(c(-c5c(F)cc(S(=O)(=O)[O-])cc5F)c5ccc2[nH]5)C=C4)C=C3)cc1
REMARK SMILES IDX 6 1 5 2 4 3 3 4 1 5 2 6 27 8 28 9 92 10 29 11 91 12 30 13
REMARK SMILES IDX 31 14 32 15 85 16 33 17 90 18 84 19 86 20 34 21 89 22 83 23
REMARK SMILES IDX 82 24 35 26 69 27 48 28 68 29 49 30 52 31 67 32 87 33 50 34
REMARK SMILES IDX 51 35 66 37 88 38 53 39 36 40 37 41 46 42 38 43 39 44 45 45
REMARK SMILES IDX 47 46 40 47 41 48 42 49 43 50 44 51 70 52 71 53 80 54 72 55
REMARK SMILES IDX 73 56 79 57 81 58 74 59 75 60 76 61 77 62 78 63 54 64 55 65
REMARK SMILES IDX 64 66 56 67 57 68 63 69 65 70 58 71 59 72 60 73 61 74 62 75
REMARK SMILES IDX 7 76 8 77 9 78 10 79 11 80 12 82 13 83 14 84 15 85 16 86
REMARK SMILES IDX 17 87 18 88 19 90 20 91 26 92 21 93 24 94 22 95 25 96 23 97
REMARK H PARENT 3 7 86 25 52 36 10 81 18 89
REMARK Flexibility Score: inf
ROOT
ATOM      1  C   UNL A   1      34.984  22.377  23.920  1.00  0.00     0.002 C 
ENDROOT
BRANCH   1   2
ATOM      2  C   UNL A   1      36.296  23.164  23.805  1.00  0.00     0.021 C 
BRANCH   2   3
ATOM      3  C   UNL A   1      36.988  23.499  25.127  1.00  0.00     0.116 C 
BRANCH   3   4
ATOM      4  N   UNL A   1      38.118  22.629  25.392  1.00  0.00    -0.352 N 
ATOM      5  O   UNL A   1      40.192  22.052  26.016  1.00  0.00    -0.269 OA
ATOM      6  C   UNL A   1      39.294  22.890  26.048  1.00  0.00     0.251 C 
ATOM      7  H   UNL A   1      38.027  21.712  25.048  1.00  0.00     0.163 HD
BRANCH   6   8
ATOM      8  C   UNL A   1      39.501  24.160  26.784  1.00  0.00     0.039 A 
ATOM      9  C   UNL A   1      40.299  25.146  26.191  1.00  0.00     0.014 A 
ATOM     10  C   UNL A   1      39.011  24.350  28.080  1.00  0.00     0.014 A 
ATOM     11  C   UNL A   1      40.597  26.321  26.887  1.00  0.00     0.010 A 
ATOM     12  C   UNL A   1      39.278  25.541  28.761  1.00  0.00     0.010 A 
ATOM     13  C   UNL A   1      40.092  26.525  28.179  1.00  0.00    -0.014 A 
BRANCH  13  14
ATOM     14  C   UNL A   1      40.488  27.718  28.967  1.00  0.00     0.031 A 
ATOM     15  C   UNL A   1      41.864  27.786  29.571  1.00  0.00     0.074 A 
ATOM     16  C   UNL A   1      39.629  28.739  29.141  1.00  0.00     0.049 A 
ATOM     17  N   UNL A   1      42.385  28.699  30.349  1.00  0.00    -0.248 NA
ATOM     18  C   UNL A   1      42.773  26.669  29.261  1.00  0.00     0.031 C 
ATOM     19  C   UNL A   1      38.276  28.810  28.590  1.00  0.00     0.029 A 
ATOM     20  N   UNL A   1      39.774  29.919  29.826  1.00  0.00    -0.354 N 
ATOM     21  C   UNL A   1      43.674  28.265  30.633  1.00  0.00     0.074 A 
ATOM     22  C   UNL A   1      43.846  26.989  29.968  1.00  0.00     0.031 C 
ATOM     23  C   UNL A   1      37.726  29.986  28.933  1.00  0.00     0.029 A 
ATOM     24  C   UNL A   1      38.672  30.737  29.753  1.00  0.00     0.049 A 
ATOM     25  H   UNL A   1      40.590  30.157  30.323  1.00  0.00     0.167 HD
ATOM     26  C   UNL A   1      44.635  28.876  31.366  1.00  0.00     0.037 A 
ATOM     27  C   UNL A   1      38.453  31.954  30.289  1.00  0.00     0.037 A 
ATOM     28  C   UNL A   1      44.475  30.150  32.014  1.00  0.00     0.049 A 
ATOM     29  C   UNL A   1      39.520  32.601  31.125  1.00  0.00     0.074 A 
ATOM     30  C   UNL A   1      45.382  30.841  32.799  1.00  0.00     0.029 A 
ATOM     31  N   UNL A   1      43.333  30.932  31.942  1.00  0.00    -0.354 N 
ATOM     32  N   UNL A   1      40.717  32.155  31.423  1.00  0.00    -0.248 NA
ATOM     33  C   UNL A   1      39.202  33.913  31.708  1.00  0.00     0.031 C 
ATOM     34  C   UNL A   1      44.782  32.039  33.210  1.00  0.00     0.029 A 
ATOM     35  C   UNL A   1      43.510  32.100  32.664  1.00  0.00     0.049 A 
ATOM     36  H   UNL A   1      42.515  30.692  31.449  1.00  0.00     0.167 HD
ATOM     37  C   UNL A   1      41.299  33.134  32.219  1.00  0.00     0.074 A 
ATOM     38  C   UNL A   1      40.328  34.201  32.350  1.00  0.00     0.031 C 
ATOM     39  C   UNL A   1      42.529  33.148  32.789  1.00  0.00     0.037 A 
BRANCH  26  40
ATOM     40  C   UNL A   1      45.943  28.154  31.503  1.00  0.00     0.058 A 
ATOM     41  C   UNL A   1      46.169  27.247  32.551  1.00  0.00     0.135 A 
ATOM     42  C   UNL A   1      46.989  28.390  30.599  1.00  0.00     0.135 A 
ATOM     43  F   UNL A   1      45.204  27.004  33.452  1.00  0.00    -0.206 F 
ATOM     44  C   UNL A   1      47.402  26.628  32.721  1.00  0.00     0.059 A 
ATOM     45  C   UNL A   1      48.226  27.768  30.739  1.00  0.00     0.059 A 
ATOM     46  F   UNL A   1      46.825  29.252  29.583  1.00  0.00    -0.206 F 
ATOM     47  C   UNL A   1      48.429  26.905  31.817  1.00  0.00     0.060 A 
BRANCH  47  48
ATOM     48  S   UNL A   1      50.041  26.133  32.067  1.00  0.00     0.124 S 
ATOM     49  O   UNL A   1      50.081  25.183  30.959  1.00  0.00    -0.237 OA
ATOM     50  O   UNL A   1      50.958  27.264  31.964  1.00  0.00    -0.237 OA
ATOM     51  O   UNL A   1      49.929  25.542  33.396  1.00  0.00    -0.744 OA
ENDBRANCH  47  48
ENDBRANCH  26  40
BRANCH  27  52
ATOM     52  C   UNL A   1      37.172  32.650  30.020  1.00  0.00     0.058 A 
ATOM     53  C   UNL A   1      36.041  32.390  30.809  1.00  0.00     0.135 A 
ATOM     54  C   UNL A   1      37.060  33.614  29.008  1.00  0.00     0.135 A 
ATOM     55  F   UNL A   1      36.102  31.469  31.783  1.00  0.00    -0.206 F 
ATOM     56  C   UNL A   1      34.843  33.065  30.608  1.00  0.00     0.059 A 
ATOM     57  C   UNL A   1      35.876  34.313  28.796  1.00  0.00     0.059 A 
ATOM     58  F   UNL A   1      38.118  33.902  28.235  1.00  0.00    -0.206 F 
ATOM     59  C   UNL A   1      34.773  34.031  29.602  1.00  0.00     0.060 A 
BRANCH  59  60
ATOM     60  S   UNL A   1      33.239  34.966  29.403  1.00  0.00     0.124 S 
ATOM     61  O   UNL A   1      32.528  34.158  28.420  1.00  0.00    -0.237 OA
ATOM     62  O   UNL A   1      32.693  34.953  30.756  1.00  0.00    -0.237 OA
ATOM     63  O   UNL A   1      33.702  36.269  28.936  1.00  0.00    -0.744 OA
ENDBRANCH  59  60
ENDBRANCH  27  52
BRANCH  39  64
ATOM     64  C   UNL A   1      42.896  34.355  33.601  1.00  0.00     0.058 A 
ATOM     65  C   UNL A   1      42.636  34.411  34.978  1.00  0.00     0.135 A 
ATOM     66  C   UNL A   1      43.556  35.441  33.007  1.00  0.00     0.135 A 
ATOM     67  F   UNL A   1      42.002  33.398  35.588  1.00  0.00    -0.206 F 
ATOM     68  C   UNL A   1      43.010  35.513  35.741  1.00  0.00     0.059 A 
ATOM     69  C   UNL A   1      43.951  36.548  33.754  1.00  0.00     0.059 A 
ATOM     70  F   UNL A   1      43.832  35.430  31.694  1.00  0.00    -0.206 F 
ATOM     71  C   UNL A   1      43.665  36.577  35.119  1.00  0.00     0.060 A 
BRANCH  71  72
ATOM     72  S   UNL A   1      44.180  37.988  36.123  1.00  0.00     0.124 S 
ATOM     73  O   UNL A   1      43.782  39.109  35.279  1.00  0.00    -0.237 OA
ATOM     74  O   UNL A   1      43.404  37.807  37.345  1.00  0.00    -0.237 OA
ATOM     75  O   UNL A   1      45.620  37.790  36.268  1.00  0.00    -0.744 OA
ENDBRANCH  71  72
ENDBRANCH  39  64
ENDBRANCH  13  14
ENDBRANCH   6   8
ENDBRANCH   3   4
ENDBRANCH   2   3
ENDBRANCH   1   2
BRANCH   1  76
ATOM     76  C   UNL A   1      34.817  21.533  25.189  1.00  0.00     0.002 C 
BRANCH  76  77
ATOM     77  C   UNL A   1      34.091  20.198  24.996  1.00  0.00     0.021 C 
BRANCH  77  78
ATOM     78  C   UNL A   1      32.685  20.325  24.407  1.00  0.00     0.116 C 
BRANCH  78  79
ATOM     79  N   UNL A   1      31.846  21.176  25.230  1.00  0.00    -0.356 N 
ATOM     80  C   UNL A   1      31.390  22.456  25.102  1.00  0.00     0.223 C 
ATOM     81  H   UNL A   1      31.540  20.736  26.055  1.00  0.00     0.163 HD
ATOM     82  O   UNL A   1      30.687  22.906  26.006  1.00  0.00    -0.275 OA
BRANCH  80  83
ATOM     83  C   UNL A   1      31.614  23.318  23.916  1.00  0.00     0.091 C 
ATOM     84  C   UNL A   1      30.533  24.277  23.497  1.00  0.00     0.028 C 
ATOM     85  C   UNL A   1      31.908  24.794  23.857  1.00  0.00     0.092 C 
BRANCH  85  86
ATOM     86  C   UNL A   1      32.797  25.370  22.807  1.00  0.00     0.228 C 
ATOM     87  O   UNL A   1      33.332  24.632  21.985  1.00  0.00    -0.274 OA
ATOM     88  N   UNL A   1      32.813  26.736  22.644  1.00  0.00    -0.326 N 
ATOM     89  H   UNL A   1      33.033  27.050  21.737  1.00  0.00     0.169 HD
BRANCH  88  90
ATOM     90  C   UNL A   1      32.561  27.746  23.583  1.00  0.00     0.042 A 
ATOM     91  C   UNL A   1      31.382  28.489  23.569  1.00  0.00     0.028 A 
ATOM     92  C   UNL A   1      33.474  27.942  24.621  1.00  0.00     0.043 A 
ATOM     93  C   UNL A   1      31.148  29.477  24.528  1.00  0.00     0.024 A 
ATOM     94  C   UNL A   1      33.255  28.946  25.575  1.00  0.00     0.038 A 
ATOM     95  C   UNL A   1      32.093  29.723  25.524  1.00  0.00     0.055 A 
ATOM     96  Br  UNL A   1      34.592  29.202  26.899  1.00  0.00    -0.049 Br
ATOM     97  Cl  UNL A   1      31.752  30.986  26.650  1.00  0.00    -0.083 Cl
ENDBRANCH  88  90
ENDBRANCH  85  86
ENDBRANCH  80  83
ENDBRANCH  78  79
ENDBRANCH  77  78
ENDBRANCH  76  77
ENDBRANCH   1  76
TORSDOF 18
ENDMDL
MODEL 3
REMARK VINA RESULT:     -11.6      7.013     13.613
REMARK SMILES O=C(NCCCCCCNC(=O)[C@H]1C[C@@H]1C(=O)Nc1ccc(Cl)c(Br)c1)c1ccc(-c2c3nc(c(-c4c(F)cc(S(=O)(=O)[O-])cc4F)c4ccc([nH]4)c(-c4c(F)cc(S(=O)(=O)[O-])cc4F)c4nc(c(-c5c(F)cc(S(=O)(=O)[O-])cc5F)c5ccc2[nH]5)C=C4)C=C3)cc1
REMARK SMILES IDX 6 1 5 2 4 3 3 4 1 5 2 6 27 8 28 9 92 10 29 11 91 12 30 13
REMARK SMILES IDX 31 14 32 15 85 16 33 17 90 18 84 19 86 20 34 21 89 22 83 23
REMARK SMILES IDX 82 24 35 26 69 27 48 28 68 29 49 30 52 31 67 32 87 33 50 34
REMARK SMILES IDX 51 35 66 37 88 38 53 39 36 40 37 41 46 42 38 43 39 44 45 45
REMARK SMILES IDX 47 46 40 47 41 48 42 49 43 50 44 51 70 52 71 53 80 54 72 55
REMARK SMILES IDX 73 56 79 57 81 58 74 59 75 60 76 61 77 62 78 63 54 64 55 65
REMARK SMILES IDX 64 66 56 67 57 68 63 69 65 70 58 71 59 72 60 73 61 74 62 75
REMARK SMILES IDX 7 76 8 77 9 78 10 79 11 80 12 82 13 83 14 84 15 85 16 86
REMARK SMILES IDX 17 87 18 88 19 90 20 91 26 92 21 93 24 94 22 95 25 96 23 97
REMARK H PARENT 3 7 86 25 52 36 10 81 18 89
REMARK Flexibility Score: inf
ROOT
ATOM      1  C   UNL A   1      34.802  34.561  28.064  1.00  0.00     0.002 C 
ENDROOT
BRANCH   1   2
ATOM      2  C   UNL A   1      35.505  33.198  28.055  1.00  0.00     0.021 C 
BRANCH   2   3
ATOM      3  C   UNL A   1      36.350  32.878  29.289  1.00  0.00     0.116 C 
BRANCH   3   4
ATOM      4  N   UNL A   1      35.849  31.727  30.015  1.00  0.00    -0.352 N 
ATOM      5  O   UNL A   1      35.755  29.606  30.734  1.00  0.00    -0.269 OA
ATOM      6  C   UNL A   1      36.427  30.502  30.227  1.00  0.00     0.251 C 
ATOM      7  H   UNL A   1      34.958  31.843  30.416  1.00  0.00     0.163 HD
BRANCH   6   8
ATOM      8  C   UNL A   1      37.836  30.238  29.853  1.00  0.00     0.039 A 
ATOM      9  C   UNL A   1      38.146  30.106  28.494  1.00  0.00     0.014 A 
ATOM     10  C   UNL A   1      38.828  30.020  30.816  1.00  0.00     0.014 A 
ATOM     11  C   UNL A   1      39.444  29.767  28.099  1.00  0.00     0.010 A 
ATOM     12  C   UNL A   1      40.133  29.718  30.419  1.00  0.00     0.010 A 
ATOM     13  C   UNL A   1      40.446  29.566  29.060  1.00  0.00    -0.014 A 
BRANCH  13  14
ATOM     14  C   UNL A   1      41.797  29.102  28.658  1.00  0.00     0.031 A 
ATOM     15  C   UNL A   1      42.957  30.058  28.711  1.00  0.00     0.074 A 
ATOM     16  C   UNL A   1      41.992  27.833  28.254  1.00  0.00     0.049 A 
ATOM     17  N   UNL A   1      44.198  29.878  28.339  1.00  0.00    -0.248 NA
ATOM     18  C   UNL A   1      42.678  31.400  29.247  1.00  0.00     0.031 C 
ATOM     19  C   UNL A   1      40.958  26.800  28.181  1.00  0.00     0.029 A 
ATOM     20  N   UNL A   1      43.132  27.195  27.837  1.00  0.00    -0.354 N 
ATOM     21  C   UNL A   1      44.845  31.083  28.584  1.00  0.00     0.074 A 
ATOM     22  C   UNL A   1      43.851  31.997  29.107  1.00  0.00     0.031 C 
ATOM     23  C   UNL A   1      41.519  25.649  27.774  1.00  0.00     0.029 A 
ATOM     24  C   UNL A   1      42.942  25.871  27.528  1.00  0.00     0.049 A 
ATOM     25  H   UNL A   1      44.005  27.645  27.766  1.00  0.00     0.167 HD
ATOM     26  C   UNL A   1      46.150  31.398  28.405  1.00  0.00     0.037 A 
ATOM     27  C   UNL A   1      43.816  24.942  27.094  1.00  0.00     0.037 A 
ATOM     28  C   UNL A   1      47.145  30.489  27.902  1.00  0.00     0.049 A 
ATOM     29  C   UNL A   1      45.253  25.320  26.872  1.00  0.00     0.074 A 
ATOM     30  C   UNL A   1      48.488  30.721  27.664  1.00  0.00     0.029 A 
ATOM     31  N   UNL A   1      46.904  29.164  27.570  1.00  0.00    -0.354 N 
ATOM     32  N   UNL A   1      45.839  26.478  27.063  1.00  0.00    -0.248 NA
ATOM     33  C   UNL A   1      46.146  24.268  26.364  1.00  0.00     0.031 C 
ATOM     34  C   UNL A   1      49.058  29.537  27.177  1.00  0.00     0.029 A 
ATOM     35  C   UNL A   1      48.072  28.564  27.132  1.00  0.00     0.049 A 
ATOM     36  H   UNL A   1      46.030  28.716  27.636  1.00  0.00     0.167 HD
ATOM     37  C   UNL A   1      47.170  26.292  26.709  1.00  0.00     0.074 A 
ATOM     38  C   UNL A   1      47.307  24.908  26.301  1.00  0.00     0.031 C 
ATOM     39  C   UNL A   1      48.188  27.188  26.723  1.00  0.00     0.037 A 
BRANCH  26  40
ATOM     40  C   UNL A   1      46.562  32.797  28.755  1.00  0.00     0.058 A 
ATOM     41  C   UNL A   1      46.995  33.127  30.050  1.00  0.00     0.135 A 
ATOM     42  C   UNL A   1      46.496  33.824  27.801  1.00  0.00     0.135 A 
ATOM     43  F   UNL A   1      47.054  32.184  31.002  1.00  0.00    -0.206 F 
ATOM     44  C   UNL A   1      47.311  34.436  30.397  1.00  0.00     0.059 A 
ATOM     45  C   UNL A   1      46.825  35.138  28.121  1.00  0.00     0.059 A 
ATOM     46  F   UNL A   1      46.085  33.560  26.551  1.00  0.00    -0.206 F 
ATOM     47  C   UNL A   1      47.211  35.437  29.428  1.00  0.00     0.060 A 
BRANCH  47  48
ATOM     48  S   UNL A   1      47.581  37.141  29.896  1.00  0.00     0.124 S 
ATOM     49  O   UNL A   1      47.289  37.118  31.326  1.00  0.00    -0.237 OA
ATOM     50  O   UNL A   1      48.992  37.270  29.540  1.00  0.00    -0.237 OA
ATOM     51  O   UNL A   1      46.659  37.922  29.079  1.00  0.00    -0.744 OA
ENDBRANCH  47  48
ENDBRANCH  26  40
BRANCH  27  52
ATOM     52  C   UNL A   1      43.353  23.551  26.869  1.00  0.00     0.058 A 
ATOM     53  C   UNL A   1      43.189  23.057  25.566  1.00  0.00     0.135 A 
ATOM     54  C   UNL A   1      43.110  22.679  27.939  1.00  0.00     0.135 A 
ATOM     55  F   UNL A   1      43.404  23.861  24.514  1.00  0.00    -0.206 F 
ATOM     56  C   UNL A   1      42.803  21.743  25.331  1.00  0.00     0.059 A 
ATOM     57  C   UNL A   1      42.736  21.355  27.729  1.00  0.00     0.059 A 
ATOM     58  F   UNL A   1      43.263  23.105  29.202  1.00  0.00    -0.206 F 
ATOM     59  C   UNL A   1      42.586  20.897  26.420  1.00  0.00     0.060 A 
BRANCH  59  60
ATOM     60  S   UNL A   1      42.169  19.167  26.105  1.00  0.00     0.124 S 
ATOM     61  O   UNL A   1      43.061  18.847  24.997  1.00  0.00    -0.237 OA
ATOM     62  O   UNL A   1      42.487  18.536  27.383  1.00  0.00    -0.237 OA
ATOM     63  O   UNL A   1      40.747  19.220  25.780  1.00  0.00    -0.744 OA
ENDBRANCH  59  60
ENDBRANCH  27  52
BRANCH  39  64
ATOM     64  C   UNL A   1      49.539  26.699  26.289  1.00  0.00     0.058 A 
ATOM     65  C   UNL A   1      50.004  26.912  24.984  1.00  0.00     0.135 A 
ATOM     66  C   UNL A   1      50.392  26.058  27.200  1.00  0.00     0.135 A 
ATOM     67  F   UNL A   1      49.220  27.516  24.077  1.00  0.00    -0.206 F 
ATOM     68  C   UNL A   1      51.271  26.494  24.590  1.00  0.00     0.059 A 
ATOM     69  C   UNL A   1      51.668  25.643  26.831  1.00  0.00     0.059 A 
ATOM     70  F   UNL A   1      49.992  25.837  28.461  1.00  0.00    -0.206 F 
ATOM     71  C   UNL A   1      52.095  25.858  25.520  1.00  0.00     0.060 A 
BRANCH  71  72
ATOM     72  S   UNL A   1      53.752  25.352  25.012  1.00  0.00     0.124 S 
ATOM     73  O   UNL A   1      54.585  26.074  25.967  1.00  0.00    -0.237 OA
ATOM     74  O   UNL A   1      53.706  23.903  25.180  1.00  0.00    -0.237 OA
ATOM     75  O   UNL A   1      53.836  25.813  23.629  1.00  0.00    -0.744 OA
ENDBRANCH  71  72
ENDBRANCH  39  64
ENDBRANCH  13  14
ENDBRANCH   6   8
ENDBRANCH   3   4
ENDBRANCH   2   3
ENDBRANCH   1   2
BRANCH   1  76
ATOM     76  C   UNL A   1      33.523  34.652  28.904  1.00  0.00     0.002 C 
BRANCH  76  77
ATOM     77  C   UNL A   1      33.260  36.016  29.550  1.00  0.00     0.021 C 
BRANCH  77  78
ATOM     78  C   UNL A   1      32.480  35.950  30.865  1.00  0.00     0.116 C 
BRANCH  78  79
ATOM     79  N   UNL A   1      33.045  36.848  31.856  1.00  0.00    -0.356 N 
ATOM     80  C   UNL A   1      33.857  36.667  32.937  1.00  0.00     0.223 C 
ATOM     81  H   UNL A   1      32.786  37.787  31.718  1.00  0.00     0.163 HD
ATOM     82  O   UNL A   1      34.153  37.657  33.602  1.00  0.00    -0.275 OA
BRANCH  80  83
ATOM     83  C   UNL A   1      34.475  35.375  33.322  1.00  0.00     0.091 C 
ATOM     84  C   UNL A   1      35.204  34.575  32.276  1.00  0.00     0.028 C 
ATOM     85  C   UNL A   1      35.930  35.039  33.519  1.00  0.00     0.092 C 
BRANCH  85  86
ATOM     86  C   UNL A   1      36.370  34.055  34.549  1.00  0.00     0.228 C 
ATOM     87  O   UNL A   1      35.630  33.778  35.488  1.00  0.00    -0.274 OA
ATOM     88  N   UNL A   1      37.499  33.308  34.298  1.00  0.00    -0.326 N 
ATOM     89  H   UNL A   1      37.525  32.424  34.732  1.00  0.00     0.169 HD
BRANCH  88  90
ATOM     90  C   UNL A   1      38.616  33.624  33.513  1.00  0.00     0.042 A 
ATOM     91  C   UNL A   1      38.693  33.276  32.165  1.00  0.00     0.028 A 
ATOM     92  C   UNL A   1      39.635  34.397  34.074  1.00  0.00     0.043 A 
ATOM     93  C   UNL A   1      39.812  33.620  31.402  1.00  0.00     0.024 A 
ATOM     94  C   UNL A   1      40.769  34.728  33.318  1.00  0.00     0.038 A 
ATOM     95  C   UNL A   1      40.862  34.331  31.981  1.00  0.00     0.055 A 
ATOM     96  Br  UNL A   1      42.145  35.705  34.188  1.00  0.00    -0.049 Br
ATOM     97  Cl  UNL A   1      42.227  34.685  30.984  1.00  0.00    -0.083 Cl
ENDBRANCH  88  90
ENDBRANCH  85  86
ENDBRANCH  80  83
ENDBRANCH  78  79
ENDBRANCH  77  78
ENDBRANCH  76  77
ENDBRANCH   1  76
TORSDOF 18
ENDMDL
