MODEL 1
REMARK VINA RESULT:     -10.1      0.000      0.000
REMARK SMILES C[C@H]1[C@@H](C(=O)NCCCCCCNC(=O)c2ccc(-c3c4nc(c(-c5c(F)cc(S(=O)(=O)[O-])cc5F)c5ccc([nH]5)c(-c5c(F)cc(S(=O)(=O)[O-])cc5F)c5nc(c(-c6c(F)cc(S(=O)(=O)[O-])cc6F)c6ccc3[nH]6)C=C5)C=C4)cc2)CC[N@@H+]1CC(F)(F)F
REMARK SMILES IDX 10 1 9 2 8 3 7 4 6 5 4 6 5 7 3 9 1 10 2 11 84 12 82 13 83 14
REMARK SMILES IDX 85 16 86 17 87 18 88 19 89 20 11 21 12 22 13 23 14 24 15 26
REMARK SMILES IDX 16 27 17 28 81 29 18 30 80 31 19 32 20 33 21 34 74 35 22 36
REMARK SMILES IDX 79 37 73 38 75 39 23 40 78 41 72 42 71 43 24 45 58 46 37 47
REMARK SMILES IDX 57 48 38 49 41 50 56 51 76 52 39 53 40 54 55 56 77 57 42 58
REMARK SMILES IDX 25 59 26 60 35 61 27 62 28 63 34 64 36 65 29 66 30 67 31 68
REMARK SMILES IDX 32 69 33 70 59 71 60 72 69 73 61 74 62 75 68 76 70 77 63 78
REMARK SMILES IDX 64 79 65 80 66 81 67 82 43 83 44 84 53 85 45 86 46 87 52 88
REMARK SMILES IDX 54 89 47 90 48 91 49 92 50 93 51 94
REMARK H PARENT 6 8 84 15 13 25 75 44 41 55
REMARK Flexibility Score: inf
ROOT
ATOM      1  C   UNL A   1      31.729  27.819  26.504  1.00  0.00     0.002 C 
ENDROOT
BRANCH   1   2
ATOM      2  C   UNL A   1      31.173  27.693  25.085  1.00  0.00     0.002 C 
BRANCH   2   3
ATOM      3  C   UNL A   1      30.515  26.344  24.787  1.00  0.00     0.021 C 
BRANCH   3   4
ATOM      4  C   UNL A   1      30.027  25.596  26.034  1.00  0.00     0.116 C 
BRANCH   4   5
ATOM      5  N   UNL A   1      30.155  24.177  25.792  1.00  0.00    -0.356 N 
ATOM      6  C   UNL A   1      31.279  23.418  25.656  1.00  0.00     0.229 C 
ATOM      7  O   UNL A   1      31.145  22.355  25.044  1.00  0.00    -0.275 OA
ATOM      8  H   UNL A   1      29.306  23.686  25.715  1.00  0.00     0.163 HD
BRANCH   6   9
ATOM      9  C   UNL A   1      32.580  23.792  26.378  1.00  0.00     0.142 C 
ATOM     10  C   UNL A   1      33.805  24.566  24.148  1.00  0.00     0.076 C 
ATOM     11  C   UNL A   1      33.869  24.168  25.611  1.00  0.00     0.193 C 
ATOM     12  N   UNL A   1      34.792  23.011  25.681  1.00  0.00    -0.325 N 
ATOM     13  C   UNL A   1      33.048  22.591  27.217  1.00  0.00     0.081 C 
ATOM     14  C   UNL A   1      34.070  21.916  26.325  1.00  0.00     0.263 C 
ATOM     15  H   UNL A   1      35.067  22.719  24.743  1.00  0.00     0.348 HD
BRANCH  12  16
ATOM     16  C   UNL A   1      36.097  23.343  26.313  1.00  0.00     0.379 C 
BRANCH  16  17
ATOM     17  C   UNL A   1      37.395  23.425  25.486  1.00  0.00     0.438 C 
ATOM     18  F   UNL A   1      37.145  23.725  24.191  1.00  0.00    -0.165 F 
ATOM     19  F   UNL A   1      38.205  24.395  25.971  1.00  0.00    -0.165 F 
ATOM     20  F   UNL A   1      38.093  22.267  25.514  1.00  0.00    -0.165 F 
ENDBRANCH  16  17
ENDBRANCH  12  16
ENDBRANCH   6   9
ENDBRANCH   4   5
ENDBRANCH   3   4
ENDBRANCH   2   3
ENDBRANCH   1   2
BRANCH   1  21
ATOM     21  C   UNL A   1      33.234  27.562  26.639  1.00  0.00     0.021 C 
BRANCH  21  22
ATOM     22  C   UNL A   1      34.127  28.579  25.931  1.00  0.00     0.116 C 
BRANCH  22  23
ATOM     23  N   UNL A   1      33.820  29.941  26.338  1.00  0.00    -0.352 N 
ATOM     24  C   UNL A   1      34.370  30.688  27.345  1.00  0.00     0.251 C 
ATOM     25  H   UNL A   1      33.117  30.389  25.816  1.00  0.00     0.163 HD
ATOM     26  O   UNL A   1      33.815  31.725  27.712  1.00  0.00    -0.269 OA
BRANCH  24  27
ATOM     27  C   UNL A   1      35.620  30.247  27.997  1.00  0.00     0.039 A 
ATOM     28  C   UNL A   1      36.836  30.448  27.341  1.00  0.00     0.014 A 
ATOM     29  C   UNL A   1      35.589  29.613  29.243  1.00  0.00     0.014 A 
ATOM     30  C   UNL A   1      38.027  30.060  27.958  1.00  0.00     0.010 A 
ATOM     31  C   UNL A   1      36.780  29.287  29.886  1.00  0.00     0.010 A 
ATOM     32  C   UNL A   1      38.011  29.500  29.247  1.00  0.00    -0.014 A 
BRANCH  32  33
ATOM     33  C   UNL A   1      39.271  29.128  29.938  1.00  0.00     0.031 A 
ATOM     34  C   UNL A   1      39.714  29.885  31.160  1.00  0.00     0.074 A 
ATOM     35  C   UNL A   1      40.043  28.146  29.432  1.00  0.00     0.049 A 
ATOM     36  N   UNL A   1      40.809  29.750  31.863  1.00  0.00    -0.248 NA
ATOM     37  C   UNL A   1      38.822  30.953  31.639  1.00  0.00     0.031 C 
ATOM     38  C   UNL A   1      39.743  27.370  28.226  1.00  0.00     0.029 A 
ATOM     39  N   UNL A   1      41.245  27.641  29.860  1.00  0.00    -0.354 N 
ATOM     40  C   UNL A   1      40.744  30.720  32.858  1.00  0.00     0.074 A 
ATOM     41  C   UNL A   1      39.527  31.470  32.634  1.00  0.00     0.031 C 
ATOM     42  C   UNL A   1      40.722  26.474  28.024  1.00  0.00     0.029 A 
ATOM     43  C   UNL A   1      41.737  26.635  29.061  1.00  0.00     0.049 A 
ATOM     44  H   UNL A   1      41.711  27.967  30.663  1.00  0.00     0.167 HD
ATOM     45  C   UNL A   1      41.607  30.949  33.876  1.00  0.00     0.037 A 
ATOM     46  C   UNL A   1      42.879  25.925  29.151  1.00  0.00     0.037 A 
ATOM     47  C   UNL A   1      42.805  30.182  34.104  1.00  0.00     0.049 A 
ATOM     48  C   UNL A   1      43.822  26.198  30.290  1.00  0.00     0.074 A 
ATOM     49  C   UNL A   1      43.714  30.296  35.141  1.00  0.00     0.029 A 
ATOM     50  N   UNL A   1      43.260  29.160  33.283  1.00  0.00    -0.354 N 
ATOM     51  N   UNL A   1      43.714  27.077  31.257  1.00  0.00    -0.248 NA
ATOM     52  C   UNL A   1      45.042  25.380  30.354  1.00  0.00     0.031 C 
ATOM     53  C   UNL A   1      44.742  29.371  34.924  1.00  0.00     0.029 A 
ATOM     54  C   UNL A   1      44.449  28.648  33.778  1.00  0.00     0.049 A 
ATOM     55  H   UNL A   1      42.805  28.846  32.470  1.00  0.00     0.167 HD
ATOM     56  C   UNL A   1      44.838  26.903  32.057  1.00  0.00     0.074 A 
ATOM     57  C   UNL A   1      45.606  25.825  31.468  1.00  0.00     0.031 C 
ATOM     58  C   UNL A   1      45.200  27.574  33.179  1.00  0.00     0.037 A 
BRANCH  45  59
ATOM     59  C   UNL A   1      41.284  32.073  34.823  1.00  0.00     0.058 A 
ATOM     60  C   UNL A   1      40.425  31.889  35.918  1.00  0.00     0.135 A 
ATOM     61  C   UNL A   1      41.860  33.342  34.650  1.00  0.00     0.135 A 
ATOM     62  F   UNL A   1      39.835  30.701  36.123  1.00  0.00    -0.206 F 
ATOM     63  C   UNL A   1      40.121  32.931  36.787  1.00  0.00     0.059 A 
ATOM     64  C   UNL A   1      41.593  34.392  35.524  1.00  0.00     0.059 A 
ATOM     65  F   UNL A   1      42.689  33.574  33.620  1.00  0.00    -0.206 F 
ATOM     66  C   UNL A   1      40.708  34.181  36.581  1.00  0.00     0.060 A 
BRANCH  66  67
ATOM     67  S   UNL A   1      40.300  35.524  37.716  1.00  0.00     0.124 S 
ATOM     68  O   UNL A   1      41.570  35.709  38.413  1.00  0.00    -0.237 OA
ATOM     69  O   UNL A   1      39.915  36.597  36.807  1.00  0.00    -0.237 OA
ATOM     70  O   UNL A   1      39.218  34.971  38.523  1.00  0.00    -0.744 OA
ENDBRANCH  66  67
ENDBRANCH  45  59
BRANCH  46  71
ATOM     71  C   UNL A   1      43.178  24.873  28.144  1.00  0.00     0.058 A 
ATOM     72  C   UNL A   1      43.809  25.194  26.933  1.00  0.00     0.135 A 
ATOM     73  C   UNL A   1      42.859  23.527  28.380  1.00  0.00     0.135 A 
ATOM     74  F   UNL A   1      44.128  26.468  26.661  1.00  0.00    -0.206 F 
ATOM     75  C   UNL A   1      44.103  24.220  25.984  1.00  0.00     0.059 A 
ATOM     76  C   UNL A   1      43.164  22.532  27.456  1.00  0.00     0.059 A 
ATOM     77  F   UNL A   1      42.271  23.166  29.531  1.00  0.00    -0.206 F 
ATOM     78  C   UNL A   1      43.779  22.890  26.258  1.00  0.00     0.060 A 
BRANCH  78  79
ATOM     79  S   UNL A   1      44.214  21.625  25.044  1.00  0.00     0.124 S 
ATOM     80  O   UNL A   1      44.059  22.356  23.790  1.00  0.00    -0.237 OA
ATOM     81  O   UNL A   1      45.584  21.292  25.425  1.00  0.00    -0.237 OA
ATOM     82  O   UNL A   1      43.231  20.574  25.288  1.00  0.00    -0.744 OA
ENDBRANCH  78  79
ENDBRANCH  46  71
BRANCH  58  83
ATOM     83  C   UNL A   1      46.472  27.147  33.858  1.00  0.00     0.058 A 
ATOM     84  C   UNL A   1      46.481  26.146  34.841  1.00  0.00     0.135 A 
ATOM     85  C   UNL A   1      47.702  27.712  33.483  1.00  0.00     0.135 A 
ATOM     86  F   UNL A   1      45.331  25.580  35.240  1.00  0.00    -0.206 F 
ATOM     87  C   UNL A   1      47.665  25.733  35.444  1.00  0.00     0.059 A 
ATOM     88  C   UNL A   1      48.900  27.295  34.054  1.00  0.00     0.059 A 
ATOM     89  F   UNL A   1      47.750  28.667  32.541  1.00  0.00    -0.206 F 
ATOM     90  C   UNL A   1      48.870  26.312  35.043  1.00  0.00     0.060 A 
BRANCH  90  91
ATOM     91  S   UNL A   1      50.402  25.741  35.808  1.00  0.00     0.124 S 
ATOM     92  O   UNL A   1      51.036  27.004  36.173  1.00  0.00    -0.237 OA
ATOM     93  O   UNL A   1      49.915  24.932  36.921  1.00  0.00    -0.237 OA
ATOM     94  O   UNL A   1      51.058  24.995  34.739  1.00  0.00    -0.744 OA
ENDBRANCH  90  91
ENDBRANCH  58  83
ENDBRANCH  32  33
ENDBRANCH  24  27
ENDBRANCH  22  23
ENDBRANCH  21  22
ENDBRANCH   1  21
TORSDOF 18
ENDMDL
MODEL 2
REMARK VINA RESULT:     -10.1      2.530      3.155
REMARK SMILES C[C@H]1[C@@H](C(=O)NCCCCCCNC(=O)c2ccc(-c3c4nc(c(-c5c(F)cc(S(=O)(=O)[O-])cc5F)c5ccc([nH]5)c(-c5c(F)cc(S(=O)(=O)[O-])cc5F)c5nc(c(-c6c(F)cc(S(=O)(=O)[O-])cc6F)c6ccc3[nH]6)C=C5)C=C4)cc2)CC[N@@H+]1CC(F)(F)F
REMARK SMILES IDX 10 1 9 2 8 3 7 4 6 5 4 6 5 7 3 9 1 10 2 11 84 12 82 13 83 14
REMARK SMILES IDX 85 16 86 17 87 18 88 19 89 20 11 21 12 22 13 23 14 24 15 26
REMARK SMILES IDX 16 27 17 28 81 29 18 30 80 31 19 32 20 33 21 34 74 35 22 36
REMARK SMILES IDX 79 37 73 38 75 39 23 40 78 41 72 42 71 43 24 45 58 46 37 47
REMARK SMILES IDX 57 48 38 49 41 50 56 51 76 52 39 53 40 54 55 56 77 57 42 58
REMARK SMILES IDX 25 59 26 60 35 61 27 62 28 63 34 64 36 65 29 66 30 67 31 68
REMARK SMILES IDX 32 69 33 70 59 71 60 72 69 73 61 74 62 75 68 76 70 77 63 78
REMARK SMILES IDX 64 79 65 80 66 81 67 82 43 83 44 84 53 85 45 86 46 87 52 88
REMARK SMILES IDX 54 89 47 90 48 91 49 92 50 93 51 94
REMARK H PARENT 6 8 84 15 13 25 75 44 41 55
REMARK Flexibility Score: inf
ROOT
ATOM      1  C   UNL A   1      32.524  28.631  24.527  1.00  0.00     0.002 C 
ENDROOT
BRANCH   1   2
ATOM      2  C   UNL A   1      31.668  27.620  23.762  1.00  0.00     0.002 C 
BRANCH   2   3
ATOM      3  C   UNL A   1      30.312  27.329  24.409  1.00  0.00     0.021 C 
BRANCH   3   4
ATOM      4  C   UNL A   1      30.312  26.113  25.343  1.00  0.00     0.116 C 
BRANCH   4   5
ATOM      5  N   UNL A   1      30.054  24.931  24.551  1.00  0.00    -0.356 N 
ATOM      6  C   UNL A   1      30.922  23.981  24.104  1.00  0.00     0.229 C 
ATOM      7  O   UNL A   1      30.557  23.333  23.120  1.00  0.00    -0.275 OA
ATOM      8  H   UNL A   1      29.113  24.793  24.297  1.00  0.00     0.163 HD
BRANCH   6   9
ATOM      9  C   UNL A   1      32.190  23.631  24.894  1.00  0.00     0.142 C 
ATOM     10  C   UNL A   1      33.828  24.646  23.062  1.00  0.00     0.076 C 
ATOM     11  C   UNL A   1      33.606  23.785  24.291  1.00  0.00     0.193 C 
ATOM     12  N   UNL A   1      34.098  22.432  23.938  1.00  0.00    -0.325 N 
ATOM     13  C   UNL A   1      32.157  22.135  25.252  1.00  0.00     0.081 C 
ATOM     14  C   UNL A   1      32.999  21.496  24.166  1.00  0.00     0.263 C 
ATOM     15  H   UNL A   1      34.363  22.397  22.954  1.00  0.00     0.348 HD
BRANCH  12  16
ATOM     16  C   UNL A   1      35.365  22.074  24.629  1.00  0.00     0.379 C 
BRANCH  16  17
ATOM     17  C   UNL A   1      36.739  22.356  23.990  1.00  0.00     0.438 C 
ATOM     18  F   UNL A   1      37.549  21.274  24.050  1.00  0.00    -0.165 F 
ATOM     19  F   UNL A   1      36.597  22.676  22.682  1.00  0.00    -0.165 F 
ATOM     20  F   UNL A   1      37.380  23.385  24.589  1.00  0.00    -0.165 F 
ENDBRANCH  16  17
ENDBRANCH  12  16
ENDBRANCH   6   9
ENDBRANCH   4   5
ENDBRANCH   3   4
ENDBRANCH   2   3
ENDBRANCH   1   2
BRANCH   1  21
ATOM     21  C   UNL A   1      33.759  28.047  25.221  1.00  0.00     0.021 C 
BRANCH  21  22
ATOM     22  C   UNL A   1      33.799  28.241  26.735  1.00  0.00     0.116 C 
BRANCH  22  23
ATOM     23  N   UNL A   1      33.616  29.635  27.105  1.00  0.00    -0.352 N 
ATOM     24  C   UNL A   1      34.429  30.447  27.852  1.00  0.00     0.251 C 
ATOM     25  H   UNL A   1      32.791  30.055  26.772  1.00  0.00     0.163 HD
ATOM     26  O   UNL A   1      33.999  31.518  28.280  1.00  0.00    -0.269 OA
BRANCH  24  27
ATOM     27  C   UNL A   1      35.815  30.032  28.151  1.00  0.00     0.039 A 
ATOM     28  C   UNL A   1      36.780  30.108  27.144  1.00  0.00     0.014 A 
ATOM     29  C   UNL A   1      36.156  29.547  29.418  1.00  0.00     0.014 A 
ATOM     30  C   UNL A   1      38.099  29.745  27.422  1.00  0.00     0.010 A 
ATOM     31  C   UNL A   1      37.483  29.249  29.712  1.00  0.00     0.010 A 
ATOM     32  C   UNL A   1      38.467  29.337  28.716  1.00  0.00    -0.014 A 
BRANCH  32  33
ATOM     33  C   UNL A   1      39.875  28.996  29.042  1.00  0.00     0.031 A 
ATOM     34  C   UNL A   1      40.769  30.017  29.691  1.00  0.00     0.074 A 
ATOM     35  C   UNL A   1      40.363  27.787  28.700  1.00  0.00     0.049 A 
ATOM     36  N   UNL A   1      42.038  29.929  29.996  1.00  0.00    -0.248 NA
ATOM     37  C   UNL A   1      40.163  31.318  30.017  1.00  0.00     0.031 C 
ATOM     38  C   UNL A   1      39.607  26.730  28.025  1.00  0.00     0.029 A 
ATOM     39  N   UNL A   1      41.614  27.248  28.863  1.00  0.00    -0.354 N 
ATOM     40  C   UNL A   1      42.385  31.162  30.537  1.00  0.00     0.074 A 
ATOM     41  C   UNL A   1      41.206  31.998  30.470  1.00  0.00     0.031 C 
ATOM     42  C   UNL A   1      40.402  25.662  27.851  1.00  0.00     0.029 A 
ATOM     43  C   UNL A   1      41.733  25.970  28.367  1.00  0.00     0.049 A 
ATOM     44  H   UNL A   1      42.356  27.729  29.295  1.00  0.00     0.167 HD
ATOM     45  C   UNL A   1      43.571  31.553  31.061  1.00  0.00     0.037 A 
ATOM     46  C   UNL A   1      42.796  25.143  28.328  1.00  0.00     0.037 A 
ATOM     47  C   UNL A   1      44.733  30.707  31.145  1.00  0.00     0.049 A 
ATOM     48  C   UNL A   1      44.102  25.599  28.916  1.00  0.00     0.074 A 
ATOM     49  C   UNL A   1      45.964  30.989  31.712  1.00  0.00     0.029 A 
ATOM     50  N   UNL A   1      44.809  29.414  30.648  1.00  0.00    -0.354 N 
ATOM     51  N   UNL A   1      44.395  26.747  29.480  1.00  0.00    -0.248 NA
ATOM     52  C   UNL A   1      45.222  24.649  28.867  1.00  0.00     0.031 C 
ATOM     53  C   UNL A   1      46.797  29.882  31.520  1.00  0.00     0.029 A 
ATOM     54  C   UNL A   1      46.072  28.892  30.875  1.00  0.00     0.049 A 
ATOM     55  H   UNL A   1      44.074  28.938  30.199  1.00  0.00     0.167 HD
ATOM     56  C   UNL A   1      45.725  26.648  29.873  1.00  0.00     0.074 A 
ATOM     57  C   UNL A   1      46.175  25.324  29.496  1.00  0.00     0.031 C 
ATOM     58  C   UNL A   1      46.503  27.571  30.493  1.00  0.00     0.037 A 
BRANCH  45  59
ATOM     59  C   UNL A   1      43.668  32.959  31.589  1.00  0.00     0.058 A 
ATOM     60  C   UNL A   1      44.101  34.022  30.780  1.00  0.00     0.135 A 
ATOM     61  C   UNL A   1      43.301  33.254  32.913  1.00  0.00     0.135 A 
ATOM     62  F   UNL A   1      44.478  33.795  29.512  1.00  0.00    -0.206 F 
ATOM     63  C   UNL A   1      44.199  35.319  31.272  1.00  0.00     0.059 A 
ATOM     64  C   UNL A   1      43.364  34.549  33.418  1.00  0.00     0.059 A 
ATOM     65  F   UNL A   1      42.880  32.277  33.731  1.00  0.00    -0.206 F 
ATOM     66  C   UNL A   1      43.831  35.573  32.594  1.00  0.00     0.060 A 
BRANCH  66  67
ATOM     67  S   UNL A   1      43.967  37.261  33.218  1.00  0.00     0.124 S 
ATOM     68  O   UNL A   1      42.845  37.315  34.152  1.00  0.00    -0.237 OA
ATOM     69  O   UNL A   1      45.294  37.266  33.822  1.00  0.00    -0.237 OA
ATOM     70  O   UNL A   1      43.823  38.080  32.019  1.00  0.00    -0.744 OA
ENDBRANCH  66  67
ENDBRANCH  45  59
BRANCH  46  71
ATOM     71  C   UNL A   1      42.657  23.788  27.730  1.00  0.00     0.058 A 
ATOM     72  C   UNL A   1      42.775  23.598  26.345  1.00  0.00     0.135 A 
ATOM     73  C   UNL A   1      42.425  22.659  28.528  1.00  0.00     0.135 A 
ATOM     74  F   UNL A   1      42.991  24.648  25.539  1.00  0.00    -0.206 F 
ATOM     75  C   UNL A   1      42.656  22.336  25.770  1.00  0.00     0.059 A 
ATOM     76  C   UNL A   1      42.327  21.383  27.980  1.00  0.00     0.059 A 
ATOM     77  F   UNL A   1      42.322  22.786  29.861  1.00  0.00    -0.206 F 
ATOM     78  C   UNL A   1      42.435  21.234  26.598  1.00  0.00     0.060 A 
BRANCH  78  79
ATOM     79  S   UNL A   1      42.337  19.593  25.849  1.00  0.00     0.124 S 
ATOM     80  O   UNL A   1      40.941  19.546  25.427  1.00  0.00    -0.237 OA
ATOM     81  O   UNL A   1      43.326  19.685  24.779  1.00  0.00    -0.237 OA
ATOM     82  O   UNL A   1      42.696  18.702  26.948  1.00  0.00    -0.744 OA
ENDBRANCH  78  79
ENDBRANCH  46  71
BRANCH  58  83
ATOM     83  C   UNL A   1      47.915  27.172  30.824  1.00  0.00     0.058 A 
ATOM     84  C   UNL A   1      48.237  26.544  32.037  1.00  0.00     0.135 A 
ATOM     85  C   UNL A   1      48.948  27.376  29.894  1.00  0.00     0.135 A 
ATOM     86  F   UNL A   1      47.288  26.333  32.962  1.00  0.00    -0.206 F 
ATOM     87  C   UNL A   1      49.540  26.150  32.325  1.00  0.00     0.059 A 
ATOM     88  C   UNL A   1      50.252  26.965  30.151  1.00  0.00     0.059 A 
ATOM     89  F   UNL A   1      48.690  27.964  28.715  1.00  0.00    -0.206 F 
ATOM     90  C   UNL A   1      50.540  26.363  31.375  1.00  0.00     0.060 A 
BRANCH  90  91
ATOM     91  S   UNL A   1      52.219  25.814  31.748  1.00  0.00     0.124 S 
ATOM     92  O   UNL A   1      52.579  26.699  32.851  1.00  0.00    -0.237 OA
ATOM     93  O   UNL A   1      52.020  24.412  32.099  1.00  0.00    -0.237 OA
ATOM     94  O   UNL A   1      52.937  26.044  30.498  1.00  0.00    -0.744 OA
ENDBRANCH  90  91
ENDBRANCH  58  83
ENDBRANCH  32  33
ENDBRANCH  24  27
ENDBRANCH  22  23
ENDBRANCH  21  22
ENDBRANCH   1  21
TORSDOF 18
ENDMDL
MODEL 3
REMARK VINA RESULT:     -10.0      2.294      2.870
REMARK SMILES C[C@H]1[C@@H](C(=O)NCCCCCCNC(=O)c2ccc(-c3c4nc(c(-c5c(F)cc(S(=O)(=O)[O-])cc5F)c5ccc([nH]5)c(-c5c(F)cc(S(=O)(=O)[O-])cc5F)c5nc(c(-c6c(F)cc(S(=O)(=O)[O-])cc6F)c6ccc3[nH]6)C=C5)C=C4)cc2)CC[N@@H+]1CC(F)(F)F
REMARK SMILES IDX 10 1 9 2 8 3 7 4 6 5 4 6 5 7 3 9 1 10 2 11 84 12 82 13 83 14
REMARK SMILES IDX 85 16 86 17 87 18 88 19 89 20 11 21 12 22 13 23 14 24 15 26
REMARK SMILES IDX 16 27 17 28 81 29 18 30 80 31 19 32 20 33 21 34 74 35 22 36
REMARK SMILES IDX 79 37 73 38 75 39 23 40 78 41 72 42 71 43 24 45 58 46 37 47
REMARK SMILES IDX 57 48 38 49 41 50 56 51 76 52 39 53 40 54 55 56 77 57 42 58
REMARK SMILES IDX 25 59 26 60 35 61 27 62 28 63 34 64 36 65 29 66 30 67 31 68
REMARK SMILES IDX 32 69 33 70 59 71 60 72 69 73 61 74 62 75 68 76 70 77 63 78
REMARK SMILES IDX 64 79 65 80 66 81 67 82 43 83 44 84 53 85 45 86 46 87 52 88
REMARK SMILES IDX 54 89 47 90 48 91 49 92 50 93 51 94
REMARK H PARENT 6 8 84 15 13 25 75 44 41 55
REMARK Flexibility Score: inf
ROOT
ATOM      1  C   UNL A   1      31.556  27.790  26.319  1.00  0.00     0.002 C 
ENDROOT
BRANCH   1   2
ATOM      2  C   UNL A   1      31.276  27.717  24.817  1.00  0.00     0.002 C 
BRANCH   2   3
ATOM      3  C   UNL A   1      30.129  26.778  24.438  1.00  0.00     0.021 C 
BRANCH   3   4
ATOM      4  C   UNL A   1      30.015  25.537  25.333  1.00  0.00     0.116 C 
BRANCH   4   5
ATOM      5  N   UNL A   1      30.193  24.364  24.508  1.00  0.00    -0.356 N 
ATOM      6  C   UNL A   1      31.308  23.607  24.305  1.00  0.00     0.229 C 
ATOM      7  O   UNL A   1      31.333  22.946  23.264  1.00  0.00    -0.275 OA
ATOM      8  H   UNL A   1      29.391  24.067  24.020  1.00  0.00     0.163 HD
BRANCH   6   9
ATOM      9  C   UNL A   1      32.375  23.459  25.398  1.00  0.00     0.142 C 
ATOM     10  C   UNL A   1      34.099  25.079  24.183  1.00  0.00     0.076 C 
ATOM     11  C   UNL A   1      33.804  24.026  25.236  1.00  0.00     0.193 C 
ATOM     12  N   UNL A   1      34.712  22.891  24.945  1.00  0.00    -0.325 N 
ATOM     13  C   UNL A   1      32.649  21.963  25.627  1.00  0.00     0.081 C 
ATOM     14  C   UNL A   1      33.882  21.699  24.786  1.00  0.00     0.263 C 
ATOM     15  H   UNL A   1      35.222  23.058  24.078  1.00  0.00     0.348 HD
BRANCH  12  16
ATOM     16  C   UNL A   1      35.806  22.750  25.942  1.00  0.00     0.379 C 
BRANCH  16  17
ATOM     17  C   UNL A   1      37.228  23.272  25.658  1.00  0.00     0.438 C 
ATOM     18  F   UNL A   1      37.331  23.793  24.414  1.00  0.00    -0.165 F 
ATOM     19  F   UNL A   1      37.556  24.253  26.530  1.00  0.00    -0.165 F 
ATOM     20  F   UNL A   1      38.161  22.300  25.776  1.00  0.00    -0.165 F 
ENDBRANCH  16  17
ENDBRANCH  12  16
ENDBRANCH   6   9
ENDBRANCH   4   5
ENDBRANCH   3   4
ENDBRANCH   2   3
ENDBRANCH   1   2
BRANCH   1  21
ATOM     21  C   UNL A   1      32.990  27.440  26.731  1.00  0.00     0.021 C 
BRANCH  21  22
ATOM     22  C   UNL A   1      34.049  28.455  26.307  1.00  0.00     0.116 C 
BRANCH  22  23
ATOM     23  N   UNL A   1      33.790  29.771  26.870  1.00  0.00    -0.352 N 
ATOM     24  C   UNL A   1      34.518  30.477  27.791  1.00  0.00     0.251 C 
ATOM     25  H   UNL A   1      32.977  30.218  26.542  1.00  0.00     0.163 HD
ATOM     26  O   UNL A   1      34.020  31.459  28.343  1.00  0.00    -0.269 OA
BRANCH  24  27
ATOM     27  C   UNL A   1      35.893  30.055  28.129  1.00  0.00     0.039 A 
ATOM     28  C   UNL A   1      36.896  30.173  27.165  1.00  0.00     0.014 A 
ATOM     29  C   UNL A   1      36.185  29.521  29.388  1.00  0.00     0.014 A 
ATOM     30  C   UNL A   1      38.205  29.803  27.481  1.00  0.00     0.010 A 
ATOM     31  C   UNL A   1      37.501  29.215  29.723  1.00  0.00     0.010 A 
ATOM     32  C   UNL A   1      38.523  29.346  28.771  1.00  0.00    -0.014 A 
BRANCH  32  33
ATOM     33  C   UNL A   1      39.918  28.996  29.139  1.00  0.00     0.031 A 
ATOM     34  C   UNL A   1      40.790  30.003  29.839  1.00  0.00     0.074 A 
ATOM     35  C   UNL A   1      40.417  27.794  28.791  1.00  0.00     0.049 A 
ATOM     36  N   UNL A   1      42.048  29.906  30.186  1.00  0.00    -0.248 NA
ATOM     37  C   UNL A   1      40.175  31.298  30.169  1.00  0.00     0.031 C 
ATOM     38  C   UNL A   1      39.684  26.751  28.069  1.00  0.00     0.029 A 
ATOM     39  N   UNL A   1      41.661  27.249  28.987  1.00  0.00    -0.354 N 
ATOM     40  C   UNL A   1      42.377  31.128  30.762  1.00  0.00     0.074 A 
ATOM     41  C   UNL A   1      41.202  31.967  30.671  1.00  0.00     0.031 C 
ATOM     42  C   UNL A   1      40.484  25.685  27.903  1.00  0.00     0.029 A 
ATOM     43  C   UNL A   1      41.796  25.981  28.471  1.00  0.00     0.049 A 
ATOM     44  H   UNL A   1      42.388  27.720  29.454  1.00  0.00     0.167 HD
ATOM     45  C   UNL A   1      43.544  31.507  31.336  1.00  0.00     0.037 A 
ATOM     46  C   UNL A   1      42.859  25.153  28.452  1.00  0.00     0.037 A 
ATOM     47  C   UNL A   1      44.702  30.658  31.444  1.00  0.00     0.049 A 
ATOM     48  C   UNL A   1      44.144  25.596  29.094  1.00  0.00     0.074 A 
ATOM     49  C   UNL A   1      45.912  30.927  32.059  1.00  0.00     0.029 A 
ATOM     50  N   UNL A   1      44.794  29.375  30.924  1.00  0.00    -0.354 N 
ATOM     51  N   UNL A   1      44.419  26.731  29.690  1.00  0.00    -0.248 NA
ATOM     52  C   UNL A   1      45.264  24.645  29.065  1.00  0.00     0.031 C 
ATOM     53  C   UNL A   1      46.751  29.822  31.874  1.00  0.00     0.029 A 
ATOM     54  C   UNL A   1      46.048  28.846  31.185  1.00  0.00     0.049 A 
ATOM     55  H   UNL A   1      44.075  28.909  30.440  1.00  0.00     0.167 HD
ATOM     56  C   UNL A   1      45.734  26.623  30.128  1.00  0.00     0.074 A 
ATOM     57  C   UNL A   1      46.195  25.305  29.740  1.00  0.00     0.031 C 
ATOM     58  C   UNL A   1      46.490  27.532  30.792  1.00  0.00     0.037 A 
BRANCH  45  59
ATOM     59  C   UNL A   1      43.624  32.903  31.894  1.00  0.00     0.058 A 
ATOM     60  C   UNL A   1      43.244  33.190  33.215  1.00  0.00     0.135 A 
ATOM     61  C   UNL A   1      44.112  33.961  31.109  1.00  0.00     0.135 A 
ATOM     62  F   UNL A   1      42.758  32.220  34.005  1.00  0.00    -0.206 F 
ATOM     63  C   UNL A   1      43.311  34.482  33.727  1.00  0.00     0.059 A 
ATOM     64  C   UNL A   1      44.214  35.255  31.610  1.00  0.00     0.059 A 
ATOM     65  F   UNL A   1      44.490  33.743  29.840  1.00  0.00    -0.206 F 
ATOM     66  C   UNL A   1      43.795  35.509  32.916  1.00  0.00     0.060 A 
BRANCH  66  67
ATOM     67  S   UNL A   1      43.872  37.180  33.594  1.00  0.00     0.124 S 
ATOM     68  O   UNL A   1      43.743  37.989  32.385  1.00  0.00    -0.237 OA
ATOM     69  O   UNL A   1      42.727  37.205  34.497  1.00  0.00    -0.237 OA
ATOM     70  O   UNL A   1      45.179  37.225  34.241  1.00  0.00    -0.744 OA
ENDBRANCH  66  67
ENDBRANCH  45  59
BRANCH  46  71
ATOM     71  C   UNL A   1      42.740  23.810  27.823  1.00  0.00     0.058 A 
ATOM     72  C   UNL A   1      42.491  22.670  28.601  1.00  0.00     0.135 A 
ATOM     73  C   UNL A   1      42.852  23.643  26.435  1.00  0.00     0.135 A 
ATOM     74  F   UNL A   1      42.381  22.779  29.934  1.00  0.00    -0.206 F 
ATOM     75  C   UNL A   1      42.369  21.408  28.028  1.00  0.00     0.059 A 
ATOM     76  C   UNL A   1      42.710  22.395  25.835  1.00  0.00     0.059 A 
ATOM     77  F   UNL A   1      43.073  24.705  25.644  1.00  0.00    -0.206 F 
ATOM     78  C   UNL A   1      42.477  21.283  26.642  1.00  0.00     0.060 A 
BRANCH  78  79
ATOM     79  S   UNL A   1      42.262  19.649  25.901  1.00  0.00     0.124 S 
ATOM     80  O   UNL A   1      43.239  19.687  24.818  1.00  0.00    -0.237 OA
ATOM     81  O   UNL A   1      42.578  18.762  27.016  1.00  0.00    -0.237 OA
ATOM     82  O   UNL A   1      40.862  19.651  25.489  1.00  0.00    -0.744 OA
ENDBRANCH  78  79
ENDBRANCH  46  71
BRANCH  58  83
ATOM     83  C   UNL A   1      47.890  27.125  31.164  1.00  0.00     0.058 A 
ATOM     84  C   UNL A   1      48.165  26.445  32.361  1.00  0.00     0.135 A 
ATOM     85  C   UNL A   1      48.959  27.373  30.288  1.00  0.00     0.135 A 
ATOM     86  F   UNL A   1      47.179  26.191  33.236  1.00  0.00    -0.206 F 
ATOM     87  C   UNL A   1      49.456  26.044  32.687  1.00  0.00     0.059 A 
ATOM     88  C   UNL A   1      50.254  26.956  30.582  1.00  0.00     0.059 A 
ATOM     89  F   UNL A   1      48.748  28.011  29.126  1.00  0.00    -0.206 F 
ATOM     90  C   UNL A   1      50.494  26.303  31.789  1.00  0.00     0.060 A 
BRANCH  90  91
ATOM     91  S   UNL A   1      52.159  25.744  32.208  1.00  0.00     0.124 S 
ATOM     92  O   UNL A   1      52.954  26.388  31.167  1.00  0.00    -0.237 OA
ATOM     93  O   UNL A   1      52.337  26.269  33.558  1.00  0.00    -0.237 OA
ATOM     94  O   UNL A   1      52.063  24.290  32.115  1.00  0.00    -0.744 OA
ENDBRANCH  90  91
ENDBRANCH  58  83
ENDBRANCH  32  33
ENDBRANCH  24  27
ENDBRANCH  22  23
ENDBRANCH  21  22
ENDBRANCH   1  21
TORSDOF 18
ENDMDL
