MODEL 1
REMARK VINA RESULT:     -12.1      0.000      0.000
REMARK SMILES CC(=O)Nc1cccc(-c2cc(F)ccc2C(=O)NCCCCCCNC(=O)c2ccc(-c3c4nc(c(-c5c(F)cc(S(=O)(=O)[O-])cc5F)c5ccc([nH]5)c(-c5c(F)cc(S(=O)(=O)[O-])cc5F)c5nc(c(-c6c(F)cc(S(=O)(=O)[O-])cc6F)c6ccc3[nH]6)C=C5)C=C4)cc2)c1
REMARK SMILES IDX 23 1 22 2 21 3 20 4 19 5 17 6 18 7 16 9 10 10 11 11 12 12
REMARK SMILES IDX 15 13 13 14 14 15 9 16 5 17 6 18 95 19 7 20 8 21 4 22 1 23
REMARK SMILES IDX 2 24 3 25 24 27 25 28 26 29 27 30 28 32 29 33 30 34 94 35
REMARK SMILES IDX 31 36 93 37 32 38 33 39 34 40 87 41 35 42 92 43 86 44 88 45
REMARK SMILES IDX 36 46 91 47 85 48 84 49 37 51 71 52 50 53 70 54 51 55 54 56
REMARK SMILES IDX 69 57 89 58 52 59 53 60 68 62 90 63 55 64 38 65 39 66 48 67
REMARK SMILES IDX 40 68 41 69 47 70 49 71 42 72 43 73 44 74 45 75 46 76 72 77
REMARK SMILES IDX 73 78 82 79 74 80 75 81 81 82 83 83 76 84 77 85 78 86 79 87
REMARK SMILES IDX 80 88 56 89 57 90 66 91 58 92 59 93 65 94 67 95 60 96 61 97
REMARK SMILES IDX 62 98 63 99 64 100
REMARK H PARENT 19 8 4 26 26 31 88 50 54 61
REMARK Flexibility Score: inf
ROOT
ATOM      1  C   UNL A   1      31.837  27.597  25.107  1.00  0.00     0.002 C 
ENDROOT
BRANCH   1   2
ATOM      2  C   UNL A   1      31.476  26.906  23.786  1.00  0.00     0.002 C 
BRANCH   2   3
ATOM      3  C   UNL A   1      30.340  25.875  23.764  1.00  0.00     0.021 C 
BRANCH   3   4
ATOM      4  C   UNL A   1      30.694  24.403  23.593  1.00  0.00     0.116 C 
BRANCH   4   5
ATOM      5  N   UNL A   1      30.632  23.574  24.768  1.00  0.00    -0.352 N 
ATOM      6  C   UNL A   1      31.612  23.082  25.597  1.00  0.00     0.251 C 
ATOM      7  O   UNL A   1      31.199  22.523  26.621  1.00  0.00    -0.269 OA
ATOM      8  H   UNL A   1      29.719  23.311  25.026  1.00  0.00     0.163 HD
BRANCH   6   9
ATOM      9  C   UNL A   1      33.108  23.074  25.368  1.00  0.00     0.047 A 
ATOM     10  C   UNL A   1      33.951  22.080  24.806  1.00  0.00    -0.003 A 
ATOM     11  C   UNL A   1      35.331  22.382  24.630  1.00  0.00     0.048 A 
ATOM     12  C   UNL A   1      35.867  23.612  24.980  1.00  0.00     0.123 A 
ATOM     13  C   UNL A   1      33.704  24.321  25.711  1.00  0.00     0.017 A 
ATOM     14  F   UNL A   1      37.169  23.851  24.783  1.00  0.00    -0.207 F 
ATOM     15  C   UNL A   1      35.063  24.591  25.522  1.00  0.00     0.040 A 
BRANCH  10  16
ATOM     16  C   UNL A   1      33.554  20.739  24.352  1.00  0.00    -0.015 A 
ATOM     17  C   UNL A   1      33.921  18.336  24.208  1.00  0.00     0.041 A 
ATOM     18  C   UNL A   1      32.838  18.234  23.324  1.00  0.00     0.026 A 
ATOM     19  C   UNL A   1      34.257  19.588  24.740  1.00  0.00     0.034 A 
ATOM     20  C   UNL A   1      32.090  19.356  22.980  1.00  0.00     0.003 A 
ATOM     21  C   UNL A   1      32.443  20.599  23.496  1.00  0.00     0.009 A 
BRANCH  17  22
ATOM     22  N   UNL A   1      34.715  17.188  24.364  1.00  0.00    -0.326 N 
ATOM     23  C   UNL A   1      33.134  15.584  25.415  1.00  0.00     0.114 C 
ATOM     24  C   UNL A   1      34.524  16.036  25.069  1.00  0.00     0.221 C 
ATOM     25  O   UNL A   1      35.504  15.353  25.368  1.00  0.00    -0.275 OA
ATOM     26  H   UNL A   1      35.567  17.220  23.873  1.00  0.00     0.169 HD
ENDBRANCH  17  22
ENDBRANCH  10  16
ENDBRANCH   6   9
ENDBRANCH   4   5
ENDBRANCH   3   4
ENDBRANCH   2   3
ENDBRANCH   1   2
BRANCH   1  27
ATOM     27  C   UNL A   1      33.299  27.969  25.362  1.00  0.00     0.021 C 
BRANCH  27  28
ATOM     28  C   UNL A   1      33.745  28.161  26.808  1.00  0.00     0.116 C 
BRANCH  28  29
ATOM     29  N   UNL A   1      33.587  29.522  27.281  1.00  0.00    -0.352 N 
ATOM     30  C   UNL A   1      34.461  30.352  27.944  1.00  0.00     0.251 C 
ATOM     31  H   UNL A   1      32.705  29.919  27.098  1.00  0.00     0.163 HD
ATOM     32  O   UNL A   1      34.048  31.435  28.355  1.00  0.00    -0.269 OA
BRANCH  30  33
ATOM     33  C   UNL A   1      35.878  29.974  28.194  1.00  0.00     0.039 A 
ATOM     34  C   UNL A   1      36.240  29.574  29.486  1.00  0.00     0.014 A 
ATOM     35  C   UNL A   1      36.867  30.082  27.214  1.00  0.00     0.014 A 
ATOM     36  C   UNL A   1      37.569  29.243  29.782  1.00  0.00     0.010 A 
ATOM     37  C   UNL A   1      38.183  29.693  27.492  1.00  0.00     0.010 A 
ATOM     38  C   UNL A   1      38.552  29.278  28.782  1.00  0.00    -0.014 A 
BRANCH  38  39
ATOM     39  C   UNL A   1      39.968  28.915  29.073  1.00  0.00     0.031 A 
ATOM     40  C   UNL A   1      40.900  29.925  29.692  1.00  0.00     0.074 A 
ATOM     41  C   UNL A   1      40.437  27.696  28.739  1.00  0.00     0.049 A 
ATOM     42  N   UNL A   1      42.182  29.827  29.941  1.00  0.00    -0.248 NA
ATOM     43  C   UNL A   1      40.318  31.226  30.059  1.00  0.00     0.031 C 
ATOM     44  C   UNL A   1      39.652  26.628  28.118  1.00  0.00     0.029 A 
ATOM     45  N   UNL A   1      41.693  27.152  28.865  1.00  0.00    -0.354 N 
ATOM     46  C   UNL A   1      42.564  31.055  30.470  1.00  0.00     0.074 A 
ATOM     47  C   UNL A   1      41.385  31.895  30.472  1.00  0.00     0.031 C 
ATOM     48  C   UNL A   1      40.438  25.555  27.931  1.00  0.00     0.029 A 
ATOM     49  C   UNL A   1      41.792  25.868  28.382  1.00  0.00     0.049 A 
ATOM     50  H   UNL A   1      42.452  27.637  29.264  1.00  0.00     0.167 HD
ATOM     51  C   UNL A   1      43.778  31.444  30.931  1.00  0.00     0.037 A 
ATOM     52  C   UNL A   1      42.851  25.037  28.303  1.00  0.00     0.037 A 
ATOM     53  C   UNL A   1      44.943  30.596  30.965  1.00  0.00     0.049 A 
ATOM     54  C   UNL A   1      44.193  25.493  28.810  1.00  0.00     0.074 A 
ATOM     55  C   UNL A   1      46.199  30.882  31.472  1.00  0.00     0.029 A 
ATOM     56  N   UNL A   1      44.997  29.300  30.475  1.00  0.00    -0.354 N 
ATOM     57  N   UNL A   1      44.521  26.642  29.351  1.00  0.00    -0.248 NA
ATOM     58  C   UNL A   1      45.308  24.542  28.696  1.00  0.00     0.031 C 
ATOM     59  C   UNL A   1      47.024  29.772  31.253  1.00  0.00     0.029 A 
ATOM     60  C   UNL A   1      46.269  28.780  30.648  1.00  0.00     0.049 A 
ATOM     61  H   UNL A   1      44.241  28.820  30.065  1.00  0.00     0.167 HD
ATOM     62  C   UNL A   1      45.871  26.538  29.670  1.00  0.00     0.074 A 
ATOM     63  C   UNL A   1      46.299  25.216  29.265  1.00  0.00     0.031 C 
ATOM     64  C   UNL A   1      46.682  27.458  30.251  1.00  0.00     0.037 A 
BRANCH  51  65
ATOM     65  C   UNL A   1      43.915  32.856  31.431  1.00  0.00     0.058 A 
ATOM     66  C   UNL A   1      43.576  33.209  32.748  1.00  0.00     0.135 A 
ATOM     67  C   UNL A   1      44.419  33.864  30.594  1.00  0.00     0.135 A 
ATOM     68  F   UNL A   1      43.080  32.287  33.588  1.00  0.00    -0.206 F 
ATOM     69  C   UNL A   1      43.696  34.517  33.204  1.00  0.00     0.059 A 
ATOM     70  C   UNL A   1      44.573  35.174  31.036  1.00  0.00     0.059 A 
ATOM     71  F   UNL A   1      44.762  33.581  29.326  1.00  0.00    -0.206 F 
ATOM     72  C   UNL A   1      44.191  35.495  32.338  1.00  0.00     0.060 A 
BRANCH  72  73
ATOM     73  S   UNL A   1      44.329  37.194  32.935  1.00  0.00     0.124 S 
ATOM     74  O   UNL A   1      43.810  37.943  31.793  1.00  0.00    -0.237 OA
ATOM     75  O   UNL A   1      43.473  37.179  34.121  1.00  0.00    -0.237 OA
ATOM     76  O   UNL A   1      45.752  37.350  33.195  1.00  0.00    -0.744 OA
ENDBRANCH  72  73
ENDBRANCH  51  65
BRANCH  52  77
ATOM     77  C   UNL A   1      42.682  23.674  27.732  1.00  0.00     0.058 A 
ATOM     78  C   UNL A   1      42.454  22.570  28.566  1.00  0.00     0.135 A 
ATOM     79  C   UNL A   1      42.737  23.448  26.348  1.00  0.00     0.135 A 
ATOM     80  F   UNL A   1      42.404  22.734  29.897  1.00  0.00    -0.206 F 
ATOM     81  C   UNL A   1      42.295  21.287  28.051  1.00  0.00     0.059 A 
ATOM     82  C   UNL A   1      42.559  22.179  25.807  1.00  0.00     0.059 A 
ATOM     83  F   UNL A   1      42.941  24.475  25.507  1.00  0.00    -0.206 F 
ATOM     84  C   UNL A   1      42.348  21.103  26.668  1.00  0.00     0.060 A 
BRANCH  84  85
ATOM     85  S   UNL A   1      42.090  19.442  26.005  1.00  0.00     0.124 S 
ATOM     86  O   UNL A   1      42.570  18.611  27.103  1.00  0.00    -0.237 OA
ATOM     87  O   UNL A   1      40.650  19.424  25.772  1.00  0.00    -0.237 OA
ATOM     88  O   UNL A   1      42.914  19.434  24.799  1.00  0.00    -0.744 OA
ENDBRANCH  84  85
ENDBRANCH  52  77
BRANCH  64  89
ATOM     89  C   UNL A   1      48.106  27.061  30.520  1.00  0.00     0.058 A 
ATOM     90  C   UNL A   1      49.127  27.301  29.589  1.00  0.00     0.135 A 
ATOM     91  C   UNL A   1      48.464  26.492  31.754  1.00  0.00     0.135 A 
ATOM     92  F   UNL A   1      48.837  27.835  28.391  1.00  0.00    -0.206 F 
ATOM     93  C   UNL A   1      50.453  26.981  29.865  1.00  0.00     0.059 A 
ATOM     94  C   UNL A   1      49.787  26.186  32.061  1.00  0.00     0.059 A 
ATOM     95  F   UNL A   1      47.527  26.250  32.684  1.00  0.00    -0.206 F 
ATOM     96  C   UNL A   1      50.774  26.427  31.106  1.00  0.00     0.060 A 
BRANCH  96  97
ATOM     97  S   UNL A   1      52.504  26.064  31.473  1.00  0.00     0.124 S 
ATOM     98  O   UNL A   1      52.801  27.058  32.500  1.00  0.00    -0.237 OA
ATOM     99  O   UNL A   1      52.444  24.679  31.931  1.00  0.00    -0.237 OA
ATOM    100  O   UNL A   1      53.173  26.266  30.192  1.00  0.00    -0.744 OA
ENDBRANCH  96  97
ENDBRANCH  64  89
ENDBRANCH  38  39
ENDBRANCH  30  33
ENDBRANCH  28  29
ENDBRANCH  27  28
ENDBRANCH   1  27
TORSDOF 18
ENDMDL
MODEL 2
REMARK VINA RESULT:     -11.9      3.966      9.984
REMARK SMILES CC(=O)Nc1cccc(-c2cc(F)ccc2C(=O)NCCCCCCNC(=O)c2ccc(-c3c4nc(c(-c5c(F)cc(S(=O)(=O)[O-])cc5F)c5ccc([nH]5)c(-c5c(F)cc(S(=O)(=O)[O-])cc5F)c5nc(c(-c6c(F)cc(S(=O)(=O)[O-])cc6F)c6ccc3[nH]6)C=C5)C=C4)cc2)c1
REMARK SMILES IDX 23 1 22 2 21 3 20 4 19 5 17 6 18 7 16 9 10 10 11 11 12 12
REMARK SMILES IDX 15 13 13 14 14 15 9 16 5 17 6 18 95 19 7 20 8 21 4 22 1 23
REMARK SMILES IDX 2 24 3 25 24 27 25 28 26 29 27 30 28 32 29 33 30 34 94 35
REMARK SMILES IDX 31 36 93 37 32 38 33 39 34 40 87 41 35 42 92 43 86 44 88 45
REMARK SMILES IDX 36 46 91 47 85 48 84 49 37 51 71 52 50 53 70 54 51 55 54 56
REMARK SMILES IDX 69 57 89 58 52 59 53 60 68 62 90 63 55 64 38 65 39 66 48 67
REMARK SMILES IDX 40 68 41 69 47 70 49 71 42 72 43 73 44 74 45 75 46 76 72 77
REMARK SMILES IDX 73 78 82 79 74 80 75 81 81 82 83 83 76 84 77 85 78 86 79 87
REMARK SMILES IDX 80 88 56 89 57 90 66 91 58 92 59 93 65 94 67 95 60 96 61 97
REMARK SMILES IDX 62 98 63 99 64 100
REMARK H PARENT 19 8 4 26 26 31 88 50 54 61
REMARK Flexibility Score: inf
ROOT
ATOM      1  C   UNL A   1      33.894  30.714  27.473  1.00  0.00     0.002 C 
ENDROOT
BRANCH   1   2
ATOM      2  C   UNL A   1      32.482  30.854  26.888  1.00  0.00     0.002 C 
BRANCH   2   3
ATOM      3  C   UNL A   1      31.761  29.605  26.364  1.00  0.00     0.021 C 
BRANCH   3   4
ATOM      4  C   UNL A   1      32.023  28.270  27.051  1.00  0.00     0.116 C 
BRANCH   4   5
ATOM      5  N   UNL A   1      30.988  27.273  26.959  1.00  0.00    -0.352 N 
ATOM      6  C   UNL A   1      30.642  26.400  25.955  1.00  0.00     0.251 C 
ATOM      7  O   UNL A   1      29.789  25.559  26.264  1.00  0.00    -0.269 OA
ATOM      8  H   UNL A   1      30.424  27.204  27.763  1.00  0.00     0.163 HD
BRANCH   6   9
ATOM      9  C   UNL A   1      31.116  26.399  24.517  1.00  0.00     0.047 A 
ATOM     10  C   UNL A   1      30.656  27.132  23.393  1.00  0.00    -0.003 A 
ATOM     11  C   UNL A   1      31.356  26.994  22.162  1.00  0.00     0.048 A 
ATOM     12  C   UNL A   1      32.471  26.179  22.034  1.00  0.00     0.123 A 
ATOM     13  C   UNL A   1      32.264  25.575  24.338  1.00  0.00     0.017 A 
ATOM     14  F   UNL A   1      33.102  26.094  20.857  1.00  0.00    -0.207 F 
ATOM     15  C   UNL A   1      32.935  25.464  23.117  1.00  0.00     0.040 A 
BRANCH  10  16
ATOM     16  C   UNL A   1      29.517  28.061  23.350  1.00  0.00    -0.015 A 
ATOM     17  C   UNL A   1      28.598  30.316  23.374  1.00  0.00     0.041 A 
ATOM     18  C   UNL A   1      27.305  29.777  23.426  1.00  0.00     0.026 A 
ATOM     19  C   UNL A   1      29.698  29.452  23.307  1.00  0.00     0.034 A 
ATOM     20  C   UNL A   1      27.104  28.400  23.403  1.00  0.00     0.003 A 
ATOM     21  C   UNL A   1      28.204  27.549  23.358  1.00  0.00     0.009 A 
BRANCH  17  22
ATOM     22  N   UNL A   1      28.709  31.702  23.571  1.00  0.00    -0.326 N 
ATOM     23  C   UNL A   1      28.185  32.606  21.316  1.00  0.00     0.114 C 
ATOM     24  C   UNL A   1      28.763  32.746  22.695  1.00  0.00     0.221 C 
ATOM     25  O   UNL A   1      29.244  33.815  23.074  1.00  0.00    -0.275 OA
ATOM     26  H   UNL A   1      28.755  31.970  24.517  1.00  0.00     0.169 HD
ENDBRANCH  17  22
ENDBRANCH  10  16
ENDBRANCH   6   9
ENDBRANCH   4   5
ENDBRANCH   3   4
ENDBRANCH   2   3
ENDBRANCH   1   2
BRANCH   1  27
ATOM     27  C   UNL A   1      34.522  31.927  28.163  1.00  0.00     0.021 C 
BRANCH  27  28
ATOM     28  C   UNL A   1      35.857  31.732  28.875  1.00  0.00     0.116 C 
BRANCH  28  29
ATOM     29  N   UNL A   1      35.733  31.054  30.151  1.00  0.00    -0.352 N 
ATOM     30  C   UNL A   1      36.593  30.204  30.806  1.00  0.00     0.251 C 
ATOM     31  H   UNL A   1      34.891  31.233  30.629  1.00  0.00     0.163 HD
ATOM     32  O   UNL A   1      36.206  29.652  31.834  1.00  0.00    -0.269 OA
BRANCH  30  33
ATOM     33  C   UNL A   1      37.963  29.919  30.301  1.00  0.00     0.039 A 
ATOM     34  C   UNL A   1      38.168  29.889  28.916  1.00  0.00     0.014 A 
ATOM     35  C   UNL A   1      39.025  29.603  31.152  1.00  0.00     0.014 A 
ATOM     36  C   UNL A   1      39.431  29.589  28.390  1.00  0.00     0.010 A 
ATOM     37  C   UNL A   1      40.302  29.364  30.629  1.00  0.00     0.010 A 
ATOM     38  C   UNL A   1      40.518  29.344  29.242  1.00  0.00    -0.014 A 
BRANCH  38  39
ATOM     39  C   UNL A   1      41.874  29.039  28.702  1.00  0.00     0.031 A 
ATOM     40  C   UNL A   1      42.207  27.649  28.225  1.00  0.00     0.074 A 
ATOM     41  C   UNL A   1      42.826  29.993  28.682  1.00  0.00     0.049 A 
ATOM     42  N   UNL A   1      43.350  27.167  27.805  1.00  0.00    -0.248 NA
ATOM     43  C   UNL A   1      41.115  26.662  28.247  1.00  0.00     0.031 C 
ATOM     44  C   UNL A   1      42.648  31.376  29.129  1.00  0.00     0.029 A 
ATOM     45  N   UNL A   1      44.139  29.943  28.279  1.00  0.00    -0.354 N 
ATOM     46  C   UNL A   1      43.122  25.823  27.533  1.00  0.00     0.074 A 
ATOM     47  C   UNL A   1      41.741  25.555  27.872  1.00  0.00     0.031 C 
ATOM     48  C   UNL A   1      43.801  32.045  28.963  1.00  0.00     0.029 A 
ATOM     49  C   UNL A   1      44.812  31.133  28.434  1.00  0.00     0.049 A 
ATOM     50  H   UNL A   1      44.559  29.131  27.914  1.00  0.00     0.167 HD
ATOM     51  C   UNL A   1      43.977  24.899  27.029  1.00  0.00     0.037 A 
ATOM     52  C   UNL A   1      46.098  31.454  28.187  1.00  0.00     0.037 A 
ATOM     53  C   UNL A   1      45.341  25.173  26.655  1.00  0.00     0.049 A 
ATOM     54  C   UNL A   1      47.033  30.410  27.638  1.00  0.00     0.074 A 
ATOM     55  C   UNL A   1      46.263  24.317  26.077  1.00  0.00     0.029 A 
ATOM     56  N   UNL A   1      45.980  26.393  26.819  1.00  0.00    -0.354 N 
ATOM     57  N   UNL A   1      46.785  29.156  27.343  1.00  0.00    -0.248 NA
ATOM     58  C   UNL A   1      48.422  30.822  27.389  1.00  0.00     0.031 C 
ATOM     59  C   UNL A   1      47.471  25.008  25.929  1.00  0.00     0.029 A 
ATOM     60  C   UNL A   1      47.289  26.307  26.374  1.00  0.00     0.049 A 
ATOM     61  H   UNL A   1      45.563  27.202  27.196  1.00  0.00     0.167 HD
ATOM     62  C   UNL A   1      47.977  28.641  26.844  1.00  0.00     0.074 A 
ATOM     63  C   UNL A   1      48.945  29.717  26.875  1.00  0.00     0.031 C 
ATOM     64  C   UNL A   1      48.242  27.387  26.399  1.00  0.00     0.037 A 
BRANCH  51  65
ATOM     65  C   UNL A   1      43.465  23.495  26.859  1.00  0.00     0.058 A 
ATOM     66  C   UNL A   1      43.072  22.999  25.604  1.00  0.00     0.135 A 
ATOM     67  C   UNL A   1      43.393  22.623  27.957  1.00  0.00     0.135 A 
ATOM     68  F   UNL A   1      43.111  23.793  24.522  1.00  0.00    -0.206 F 
ATOM     69  C   UNL A   1      42.591  21.703  25.453  1.00  0.00     0.059 A 
ATOM     70  C   UNL A   1      42.940  21.314  27.825  1.00  0.00     0.059 A 
ATOM     71  F   UNL A   1      43.759  23.044  29.179  1.00  0.00    -0.206 F 
ATOM     72  C   UNL A   1      42.524  20.869  26.570  1.00  0.00     0.060 A 
BRANCH  72  73
ATOM     73  S   UNL A   1      41.884  19.193  26.366  1.00  0.00     0.124 S 
ATOM     74  O   UNL A   1      41.952  18.690  27.736  1.00  0.00    -0.237 OA
ATOM     75  O   UNL A   1      40.537  19.433  25.849  1.00  0.00    -0.237 OA
ATOM     76  O   UNL A   1      42.813  18.585  25.426  1.00  0.00    -0.744 OA
ENDBRANCH  72  73
ENDBRANCH  51  65
BRANCH  52  77
ATOM     77  C   UNL A   1      46.578  32.839  28.440  1.00  0.00     0.058 A 
ATOM     78  C   UNL A   1      46.524  33.814  27.433  1.00  0.00     0.135 A 
ATOM     79  C   UNL A   1      47.089  33.219  29.691  1.00  0.00     0.135 A 
ATOM     80  F   UNL A   1      46.052  33.496  26.217  1.00  0.00    -0.206 F 
ATOM     81  C   UNL A   1      46.969  35.113  27.651  1.00  0.00     0.059 A 
ATOM     82  C   UNL A   1      47.520  34.518  29.940  1.00  0.00     0.059 A 
ATOM     83  F   UNL A   1      47.150  32.326  30.691  1.00  0.00    -0.206 F 
ATOM     84  C   UNL A   1      47.464  35.456  28.910  1.00  0.00     0.060 A 
BRANCH  84  85
ATOM     85  S   UNL A   1      47.992  37.159  29.200  1.00  0.00     0.124 S 
ATOM     86  O   UNL A   1      48.812  37.416  28.021  1.00  0.00    -0.237 OA
ATOM     87  O   UNL A   1      46.719  37.870  29.261  1.00  0.00    -0.237 OA
ATOM     88  O   UNL A   1      48.715  37.073  30.466  1.00  0.00    -0.744 OA
ENDBRANCH  84  85
ENDBRANCH  52  77
BRANCH  64  89
ATOM     89  C   UNL A   1      49.622  27.113  25.871  1.00  0.00     0.058 A 
ATOM     90  C   UNL A   1      50.639  26.608  26.694  1.00  0.00     0.135 A 
ATOM     91  C   UNL A   1      49.911  27.295  24.508  1.00  0.00     0.135 A 
ATOM     92  F   UNL A   1      50.418  26.423  28.006  1.00  0.00    -0.206 F 
ATOM     93  C   UNL A   1      51.900  26.303  26.189  1.00  0.00     0.059 A 
ATOM     94  C   UNL A   1      51.157  26.976  23.976  1.00  0.00     0.059 A 
ATOM     95  F   UNL A   1      48.970  27.768  23.675  1.00  0.00    -0.206 F 
ATOM     96  C   UNL A   1      52.148  26.488  24.827  1.00  0.00     0.060 A 
BRANCH  96  97
ATOM     97  S   UNL A   1      53.771  26.041  24.173  1.00  0.00     0.124 S 
ATOM     98  O   UNL A   1      54.601  27.131  24.675  1.00  0.00    -0.237 OA
ATOM     99  O   UNL A   1      54.006  24.734  24.781  1.00  0.00    -0.237 OA
ATOM    100  O   UNL A   1      53.562  26.025  22.728  1.00  0.00    -0.744 OA
ENDBRANCH  96  97
ENDBRANCH  64  89
ENDBRANCH  38  39
ENDBRANCH  30  33
ENDBRANCH  28  29
ENDBRANCH  27  28
ENDBRANCH   1  27
TORSDOF 18
ENDMDL
MODEL 3
REMARK VINA RESULT:     -11.6      4.729      9.930
REMARK SMILES CC(=O)Nc1cccc(-c2cc(F)ccc2C(=O)NCCCCCCNC(=O)c2ccc(-c3c4nc(c(-c5c(F)cc(S(=O)(=O)[O-])cc5F)c5ccc([nH]5)c(-c5c(F)cc(S(=O)(=O)[O-])cc5F)c5nc(c(-c6c(F)cc(S(=O)(=O)[O-])cc6F)c6ccc3[nH]6)C=C5)C=C4)cc2)c1
REMARK SMILES IDX 23 1 22 2 21 3 20 4 19 5 17 6 18 7 16 9 10 10 11 11 12 12
REMARK SMILES IDX 15 13 13 14 14 15 9 16 5 17 6 18 95 19 7 20 8 21 4 22 1 23
REMARK SMILES IDX 2 24 3 25 24 27 25 28 26 29 27 30 28 32 29 33 30 34 94 35
REMARK SMILES IDX 31 36 93 37 32 38 33 39 34 40 87 41 35 42 92 43 86 44 88 45
REMARK SMILES IDX 36 46 91 47 85 48 84 49 37 51 71 52 50 53 70 54 51 55 54 56
REMARK SMILES IDX 69 57 89 58 52 59 53 60 68 62 90 63 55 64 38 65 39 66 48 67
REMARK SMILES IDX 40 68 41 69 47 70 49 71 42 72 43 73 44 74 45 75 46 76 72 77
REMARK SMILES IDX 73 78 82 79 74 80 75 81 81 82 83 83 76 84 77 85 78 86 79 87
REMARK SMILES IDX 80 88 56 89 57 90 66 91 58 92 59 93 65 94 67 95 60 96 61 97
REMARK SMILES IDX 62 98 63 99 64 100
REMARK H PARENT 19 8 4 26 26 31 88 50 54 61
REMARK Flexibility Score: inf
ROOT
ATOM      1  C   UNL A   1      39.891  21.833  26.270  1.00  0.00     0.002 C 
ENDROOT
BRANCH   1   2
ATOM      2  C   UNL A   1      38.927  23.006  26.496  1.00  0.00     0.002 C 
BRANCH   2   3
ATOM      3  C   UNL A   1      37.531  22.962  25.861  1.00  0.00     0.021 C 
BRANCH   3   4
ATOM      4  C   UNL A   1      37.245  21.904  24.802  1.00  0.00     0.116 C 
BRANCH   4   5
ATOM      5  N   UNL A   1      36.520  22.327  23.633  1.00  0.00    -0.352 N 
ATOM      6  C   UNL A   1      35.232  22.779  23.465  1.00  0.00     0.251 C 
ATOM      7  O   UNL A   1      34.973  23.213  22.336  1.00  0.00    -0.269 OA
ATOM      8  H   UNL A   1      37.042  22.285  22.799  1.00  0.00     0.163 HD
BRANCH   6   9
ATOM      9  C   UNL A   1      34.093  22.736  24.460  1.00  0.00     0.047 A 
ATOM     10  C   UNL A   1      33.173  21.699  24.767  1.00  0.00    -0.003 A 
ATOM     11  C   UNL A   1      32.247  21.907  25.827  1.00  0.00     0.048 A 
ATOM     12  C   UNL A   1      32.225  23.079  26.568  1.00  0.00     0.123 A 
ATOM     13  C   UNL A   1      34.032  23.921  25.249  1.00  0.00     0.017 A 
ATOM     14  F   UNL A   1      31.341  23.220  27.564  1.00  0.00    -0.207 F 
ATOM     15  C   UNL A   1      33.114  24.094  26.289  1.00  0.00     0.040 A 
BRANCH  10  16
ATOM     16  C   UNL A   1      33.072  20.387  24.112  1.00  0.00    -0.015 A 
ATOM     17  C   UNL A   1      33.722  18.050  23.899  1.00  0.00     0.041 A 
ATOM     18  C   UNL A   1      32.958  17.955  22.727  1.00  0.00     0.026 A 
ATOM     19  C   UNL A   1      33.752  19.261  24.602  1.00  0.00     0.034 A 
ATOM     20  C   UNL A   1      32.225  19.043  22.264  1.00  0.00     0.003 A 
ATOM     21  C   UNL A   1      32.277  20.249  22.956  1.00  0.00     0.009 A 
BRANCH  17  22
ATOM     22  N   UNL A   1      34.556  16.959  24.195  1.00  0.00    -0.326 N 
ATOM     23  C   UNL A   1      33.013  15.414  25.382  1.00  0.00     0.114 C 
ATOM     24  C   UNL A   1      34.393  15.883  25.017  1.00  0.00     0.221 C 
ATOM     25  O   UNL A   1      35.391  15.277  25.408  1.00  0.00    -0.275 OA
ATOM     26  H   UNL A   1      35.418  16.973  23.720  1.00  0.00     0.169 HD
ENDBRANCH  17  22
ENDBRANCH  10  16
ENDBRANCH   6   9
ENDBRANCH   4   5
ENDBRANCH   3   4
ENDBRANCH   2   3
ENDBRANCH   1   2
BRANCH   1  27
ATOM     27  C   UNL A   1      40.892  21.489  27.375  1.00  0.00     0.021 C 
BRANCH  27  28
ATOM     28  C   UNL A   1      42.098  22.405  27.555  1.00  0.00     0.116 C 
BRANCH  28  29
ATOM     29  N   UNL A   1      42.418  23.172  26.367  1.00  0.00    -0.352 N 
ATOM     30  C   UNL A   1      42.436  24.531  26.150  1.00  0.00     0.251 C 
ATOM     31  H   UNL A   1      42.663  22.630  25.583  1.00  0.00     0.163 HD
ATOM     32  O   UNL A   1      42.622  24.942  25.007  1.00  0.00    -0.269 OA
BRANCH  30  33
ATOM     33  C   UNL A   1      42.219  25.512  27.247  1.00  0.00     0.039 A 
ATOM     34  C   UNL A   1      41.137  25.310  28.114  1.00  0.00     0.014 A 
ATOM     35  C   UNL A   1      43.002  26.660  27.393  1.00  0.00     0.014 A 
ATOM     36  C   UNL A   1      40.869  26.225  29.141  1.00  0.00     0.010 A 
ATOM     37  C   UNL A   1      42.772  27.541  28.456  1.00  0.00     0.010 A 
ATOM     38  C   UNL A   1      41.697  27.340  29.337  1.00  0.00    -0.014 A 
BRANCH  38  39
ATOM     39  C   UNL A   1      41.438  28.316  30.434  1.00  0.00     0.031 A 
ATOM     40  C   UNL A   1      42.258  28.273  31.698  1.00  0.00     0.074 A 
ATOM     41  C   UNL A   1      40.437  29.211  30.322  1.00  0.00     0.049 A 
ATOM     42  N   UNL A   1      42.129  28.977  32.795  1.00  0.00    -0.248 NA
ATOM     43  C   UNL A   1      43.353  27.291  31.744  1.00  0.00     0.031 C 
ATOM     44  C   UNL A   1      39.553  29.353  29.163  1.00  0.00     0.029 A 
ATOM     45  N   UNL A   1      39.985  30.167  31.200  1.00  0.00    -0.354 N 
ATOM     46  C   UNL A   1      43.108  28.511  33.665  1.00  0.00     0.074 A 
ATOM     47  C   UNL A   1      43.799  27.437  32.984  1.00  0.00     0.031 C 
ATOM     48  C   UNL A   1      38.677  30.344  29.396  1.00  0.00     0.029 A 
ATOM     49  C   UNL A   1      38.910  30.886  30.733  1.00  0.00     0.049 A 
ATOM     50  H   UNL A   1      40.394  30.323  32.083  1.00  0.00     0.167 HD
ATOM     51  C   UNL A   1      43.417  28.948  34.911  1.00  0.00     0.037 A 
ATOM     52  C   UNL A   1      38.185  31.863  31.314  1.00  0.00     0.037 A 
ATOM     53  C   UNL A   1      42.756  30.041  35.576  1.00  0.00     0.049 A 
ATOM     54  C   UNL A   1      38.539  32.325  32.702  1.00  0.00     0.074 A 
ATOM     55  C   UNL A   1      43.043  30.596  36.812  1.00  0.00     0.029 A 
ATOM     56  N   UNL A   1      41.678  30.748  35.063  1.00  0.00    -0.354 N 
ATOM     57  N   UNL A   1      39.500  31.904  33.490  1.00  0.00    -0.248 NA
ATOM     58  C   UNL A   1      37.713  33.394  33.281  1.00  0.00     0.031 C 
ATOM     59  C   UNL A   1      42.113  31.612  37.063  1.00  0.00     0.029 A 
ATOM     60  C   UNL A   1      41.274  31.718  35.966  1.00  0.00     0.049 A 
ATOM     61  H   UNL A   1      41.262  30.584  34.186  1.00  0.00     0.167 HD
ATOM     62  C   UNL A   1      39.411  32.678  34.643  1.00  0.00     0.074 A 
ATOM     63  C   UNL A   1      38.307  33.594  34.450  1.00  0.00     0.031 C 
ATOM     64  C   UNL A   1      40.180  32.633  35.759  1.00  0.00     0.037 A 
BRANCH  51  65
ATOM     65  C   UNL A   1      44.520  28.235  35.646  1.00  0.00     0.058 A 
ATOM     66  C   UNL A   1      45.861  28.640  35.538  1.00  0.00     0.135 A 
ATOM     67  C   UNL A   1      44.230  27.153  36.492  1.00  0.00     0.135 A 
ATOM     68  F   UNL A   1      46.195  29.661  34.734  1.00  0.00    -0.206 F 
ATOM     69  C   UNL A   1      46.878  27.973  36.212  1.00  0.00     0.059 A 
ATOM     70  C   UNL A   1      45.228  26.488  37.198  1.00  0.00     0.059 A 
ATOM     71  F   UNL A   1      42.965  26.727  36.635  1.00  0.00    -0.206 F 
ATOM     72  C   UNL A   1      46.552  26.894  37.037  1.00  0.00     0.060 A 
BRANCH  72  73
ATOM     73  S   UNL A   1      47.882  26.025  37.896  1.00  0.00     0.124 S 
ATOM     74  O   UNL A   1      47.363  25.984  39.262  1.00  0.00    -0.237 OA
ATOM     75  O   UNL A   1      47.919  24.741  37.197  1.00  0.00    -0.237 OA
ATOM     76  O   UNL A   1      49.039  26.882  37.689  1.00  0.00    -0.744 OA
ENDBRANCH  72  73
ENDBRANCH  51  65
BRANCH  52  77
ATOM     77  C   UNL A   1      37.056  32.488  30.575  1.00  0.00     0.058 A 
ATOM     78  C   UNL A   1      35.741  32.032  30.752  1.00  0.00     0.135 A 
ATOM     79  C   UNL A   1      37.264  33.555  29.687  1.00  0.00     0.135 A 
ATOM     80  F   UNL A   1      35.493  31.007  31.583  1.00  0.00    -0.206 F 
ATOM     81  C   UNL A   1      34.673  32.603  30.068  1.00  0.00     0.059 A 
ATOM     82  C   UNL A   1      36.210  34.157  29.008  1.00  0.00     0.059 A 
ATOM     83  F   UNL A   1      38.502  34.035  29.493  1.00  0.00    -0.206 F 
ATOM     84  C   UNL A   1      34.918  33.667  29.199  1.00  0.00     0.060 A 
BRANCH  84  85
ATOM     85  S   UNL A   1      33.518  34.436  28.355  1.00  0.00     0.124 S 
ATOM     86  O   UNL A   1      32.835  35.095  29.462  1.00  0.00    -0.237 OA
ATOM     87  O   UNL A   1      34.181  35.315  27.397  1.00  0.00    -0.237 OA
ATOM     88  O   UNL A   1      32.817  33.297  27.768  1.00  0.00    -0.744 OA
ENDBRANCH  84  85
ENDBRANCH  52  77
BRANCH  64  89
ATOM     89  C   UNL A   1      39.885  33.625  36.849  1.00  0.00     0.058 A 
ATOM     90  C   UNL A   1      38.897  33.385  37.816  1.00  0.00     0.135 A 
ATOM     91  C   UNL A   1      40.645  34.800  36.966  1.00  0.00     0.135 A 
ATOM     92  F   UNL A   1      38.136  32.280  37.746  1.00  0.00    -0.206 F 
ATOM     93  C   UNL A   1      38.665  34.281  38.856  1.00  0.00     0.059 A 
ATOM     94  C   UNL A   1      40.446  35.699  38.010  1.00  0.00     0.059 A 
ATOM     95  F   UNL A   1      41.609  35.073  36.071  1.00  0.00    -0.206 F 
ATOM     96  C   UNL A   1      39.447  35.434  38.946  1.00  0.00     0.060 A 
BRANCH  96  97
ATOM     97  S   UNL A   1      39.172  36.563  40.328  1.00  0.00     0.124 S 
ATOM     98  O   UNL A   1      40.534  36.792  40.797  1.00  0.00    -0.237 OA
ATOM     99  O   UNL A   1      38.526  37.701  39.679  1.00  0.00    -0.237 OA
ATOM    100  O   UNL A   1      38.317  35.796  41.229  1.00  0.00    -0.744 OA
ENDBRANCH  96  97
ENDBRANCH  64  89
ENDBRANCH  38  39
ENDBRANCH  30  33
ENDBRANCH  28  29
ENDBRANCH  27  28
ENDBRANCH   1  27
TORSDOF 18
ENDMDL
