MODEL 1
REMARK VINA RESULT:     -12.8      0.000      0.000
REMARK SMILES O=C1C[C@@H](c2cccc(O)c2)c2c(c(C(=O)NCCCCCCNC(=O)c3ccc(-c4c5nc(c(-c6c(F)cc(S(=O)(=O)[O-])cc6F)c6ccc([nH]6)c(-c6c(F)cc(S(=O)(=O)[O-])cc6F)c6nc(c(-c7c(F)cc(S(=O)(=O)[O-])cc7F)c7ccc4[nH]7)C=C6)C=C5)cc3)cn2-c2cccc(C(F)(F)F)c2)N1
REMARK SMILES IDX 21 1 20 2 19 3 18 4 17 5 15 6 16 7 14 9 1 10 2 11 3 12
REMARK SMILES IDX 105 13 4 14 13 15 12 17 94 18 93 19 5 20 6 21 11 22 7 23
REMARK SMILES IDX 9 24 8 25 10 26 95 28 96 29 104 30 97 31 99 32 98 33 100 34
REMARK SMILES IDX 101 35 102 36 103 37 22 38 23 39 24 40 25 41 26 43 27 44
REMARK SMILES IDX 28 45 92 46 29 47 91 48 30 49 31 50 32 51 85 52 33 53 90 54
REMARK SMILES IDX 84 55 86 56 34 57 89 58 83 59 82 60 35 62 69 63 48 64 68 65
REMARK SMILES IDX 49 66 52 67 67 68 87 69 50 70 51 71 66 73 88 74 53 75 36 76
REMARK SMILES IDX 37 77 46 78 38 79 39 80 45 81 47 82 40 83 41 84 42 85 43 86
REMARK SMILES IDX 44 87 70 88 71 89 80 90 72 91 73 92 79 93 81 94 74 95 75 96
REMARK SMILES IDX 76 97 77 98 78 99 54 100 55 101 64 102 56 103 57 104 63 105
REMARK SMILES IDX 65 106 58 107 59 108 60 109 61 110 62 111
REMARK H PARENT 17 8 105 16 10 27 24 42 86 61 52 72
REMARK Flexibility Score: inf
ROOT
ATOM      1  C   UNL A   1      38.775  22.762  26.208  1.00  0.00     0.002 C 
ENDROOT
BRANCH   1   2
ATOM      2  C   UNL A   1      37.402  22.381  25.635  1.00  0.00     0.002 C 
BRANCH   2   3
ATOM      3  C   UNL A   1      36.869  23.274  24.518  1.00  0.00     0.021 C 
BRANCH   3   4
ATOM      4  C   UNL A   1      35.978  22.576  23.497  1.00  0.00     0.116 C 
BRANCH   4   5
ATOM      5  N   UNL A   1      34.725  22.117  24.054  1.00  0.00    -0.352 N 
ATOM      6  C   UNL A   1      33.630  22.788  24.536  1.00  0.00     0.254 C 
ATOM      7  O   UNL A   1      32.725  22.104  25.020  1.00  0.00    -0.269 OA
ATOM      8  H   UNL A   1      34.641  21.137  24.095  1.00  0.00     0.163 HD
BRANCH   6   9
ATOM      9  C   UNL A   1      33.525  24.246  24.512  1.00  0.00     0.081 A 
ATOM     10  O   UNL A   1      32.744  25.150  19.877  1.00  0.00    -0.275 OA
ATOM     11  C   UNL A   1      32.954  25.527  21.029  1.00  0.00     0.225 C 
ATOM     12  C   UNL A   1      33.315  26.976  21.343  1.00  0.00     0.115 C 
ATOM     13  N   UNL A   1      33.026  24.631  22.068  1.00  0.00    -0.324 N 
ATOM     14  C   UNL A   1      32.876  27.459  22.741  1.00  0.00     0.078 C 
ATOM     15  C   UNL A   1      33.212  25.029  23.371  1.00  0.00     0.076 A 
ATOM     16  H   UNL A   1      32.942  23.669  21.872  1.00  0.00     0.170 HD
ATOM     17  C   UNL A   1      33.109  26.354  23.728  1.00  0.00     0.055 A 
ATOM     18  N   UNL A   1      33.358  26.438  25.081  1.00  0.00    -0.317 N 
ATOM     19  C   UNL A   1      33.803  25.189  25.487  1.00  0.00     0.107 A 
BRANCH  14  20
ATOM     20  C   UNL A   1      31.450  27.974  22.722  1.00  0.00    -0.035 A 
ATOM     21  C   UNL A   1      30.375  27.220  23.223  1.00  0.00     0.005 A 
ATOM     22  C   UNL A   1      31.199  29.274  22.254  1.00  0.00     0.050 A 
ATOM     23  C   UNL A   1      29.096  27.774  23.304  1.00  0.00     0.004 A 
ATOM     24  C   UNL A   1      29.930  29.825  22.373  1.00  0.00     0.115 A 
ATOM     25  C   UNL A   1      28.874  29.086  22.894  1.00  0.00     0.046 A 
BRANCH  24  26
ATOM     26  O   UNL A   1      29.771  31.133  22.021  1.00  0.00    -0.508 OA
ATOM     27  H   UNL A   1      29.820  31.803  22.676  1.00  0.00     0.293 HD
ENDBRANCH  24  26
ENDBRANCH  14  20
BRANCH  18  28
ATOM     28  C   UNL A   1      33.179  27.516  25.988  1.00  0.00     0.046 A 
ATOM     29  C   UNL A   1      31.882  27.956  26.287  1.00  0.00     0.026 A 
ATOM     30  C   UNL A   1      34.279  28.253  26.438  1.00  0.00     0.039 A 
ATOM     31  C   UNL A   1      31.690  29.096  27.066  1.00  0.00     0.003 A 
ATOM     32  C   UNL A   1      34.096  29.408  27.220  1.00  0.00     0.058 A 
ATOM     33  C   UNL A   1      32.789  29.814  27.535  1.00  0.00     0.013 A 
BRANCH  32  34
ATOM     34  C   UNL A   1      35.268  30.232  27.706  1.00  0.00     0.416 C 
ATOM     35  F   UNL A   1      35.059  31.568  27.548  1.00  0.00    -0.166 F 
ATOM     36  F   UNL A   1      35.502  30.049  29.037  1.00  0.00    -0.166 F 
ATOM     37  F   UNL A   1      36.442  29.958  27.079  1.00  0.00    -0.166 F 
ENDBRANCH  32  34
ENDBRANCH  18  28
ENDBRANCH   6   9
ENDBRANCH   4   5
ENDBRANCH   3   4
ENDBRANCH   2   3
ENDBRANCH   1   2
BRANCH   1  38
ATOM     38  C   UNL A   1      39.700  21.611  26.636  1.00  0.00     0.021 C 
BRANCH  38  39
ATOM     39  C   UNL A   1      41.015  22.063  27.248  1.00  0.00     0.116 C 
BRANCH  39  40
ATOM     40  N   UNL A   1      42.073  22.218  26.244  1.00  0.00    -0.352 N 
ATOM     41  C   UNL A   1      42.563  23.373  25.652  1.00  0.00     0.251 C 
ATOM     42  H   UNL A   1      42.497  21.381  25.947  1.00  0.00     0.163 HD
ATOM     43  O   UNL A   1      43.145  23.324  24.582  1.00  0.00    -0.269 OA
BRANCH  41  44
ATOM     44  C   UNL A   1      42.387  24.657  26.359  1.00  0.00     0.039 A 
ATOM     45  C   UNL A   1      41.381  25.577  26.044  1.00  0.00     0.014 A 
ATOM     46  C   UNL A   1      43.280  24.921  27.386  1.00  0.00     0.014 A 
ATOM     47  C   UNL A   1      41.294  26.752  26.795  1.00  0.00     0.010 A 
ATOM     48  C   UNL A   1      42.996  25.892  28.293  1.00  0.00     0.010 A 
ATOM     49  C   UNL A   1      42.127  26.896  27.912  1.00  0.00    -0.014 A 
BRANCH  49  50
ATOM     50  C   UNL A   1      42.107  28.043  28.804  1.00  0.00     0.031 A 
ATOM     51  C   UNL A   1      43.148  29.043  28.471  1.00  0.00     0.074 A 
ATOM     52  C   UNL A   1      41.029  28.314  29.577  1.00  0.00     0.049 A 
ATOM     53  N   UNL A   1      44.258  29.264  29.091  1.00  0.00    -0.248 NA
ATOM     54  C   UNL A   1      43.066  29.706  27.154  1.00  0.00     0.031 C 
ATOM     55  C   UNL A   1      39.756  27.583  29.665  1.00  0.00     0.029 A 
ATOM     56  N   UNL A   1      40.794  29.394  30.368  1.00  0.00    -0.354 N 
ATOM     57  C   UNL A   1      44.857  30.309  28.395  1.00  0.00     0.074 A 
ATOM     58  C   UNL A   1      44.263  30.292  27.089  1.00  0.00     0.031 C 
ATOM     59  C   UNL A   1      38.827  28.353  30.278  1.00  0.00     0.029 A 
ATOM     60  C   UNL A   1      39.462  29.566  30.756  1.00  0.00     0.049 A 
ATOM     61  H   UNL A   1      41.511  30.010  30.649  1.00  0.00     0.167 HD
ATOM     62  C   UNL A   1      45.522  31.302  29.053  1.00  0.00     0.037 A 
ATOM     63  C   UNL A   1      38.952  30.669  31.372  1.00  0.00     0.037 A 
ATOM     64  C   UNL A   1      45.757  30.920  30.429  1.00  0.00     0.049 A 
ATOM     65  C   UNL A   1      40.119  31.415  31.929  1.00  0.00     0.074 A 
ATOM     66  C   UNL A   1      46.367  29.843  31.047  1.00  0.00     0.029 A 
ATOM     67  N   UNL A   1      44.952  31.489  31.391  1.00  0.00    -0.354 N 
ATOM     68  N   UNL A   1      40.877  30.959  32.890  1.00  0.00    -0.248 NA
ATOM     69  C   UNL A   1      40.738  32.414  31.067  1.00  0.00     0.031 C 
ATOM     70  C   UNL A   1      45.523  29.526  32.153  1.00  0.00     0.029 A 
ATOM     71  C   UNL A   1      44.511  30.484  32.213  1.00  0.00     0.049 A 
ATOM     72  H   UNL A   1      44.734  32.445  31.472  1.00  0.00     0.167 HD
ATOM     73  C   UNL A   1      42.173  31.276  32.502  1.00  0.00     0.074 A 
ATOM     74  C   UNL A   1      42.019  32.220  31.396  1.00  0.00     0.031 C 
ATOM     75  C   UNL A   1      43.237  30.513  32.898  1.00  0.00     0.037 A 
BRANCH  62  76
ATOM     76  C   UNL A   1      45.590  32.752  28.604  1.00  0.00     0.058 A 
ATOM     77  C   UNL A   1      46.856  33.373  28.539  1.00  0.00     0.135 A 
ATOM     78  C   UNL A   1      44.489  33.631  28.485  1.00  0.00     0.135 A 
ATOM     79  F   UNL A   1      47.981  32.645  28.616  1.00  0.00    -0.206 F 
ATOM     80  C   UNL A   1      47.014  34.757  28.473  1.00  0.00     0.059 A 
ATOM     81  C   UNL A   1      44.625  35.010  28.365  1.00  0.00     0.059 A 
ATOM     82  F   UNL A   1      43.218  33.230  28.560  1.00  0.00    -0.206 F 
ATOM     83  C   UNL A   1      45.888  35.569  28.405  1.00  0.00     0.060 A 
BRANCH  83  84
ATOM     84  S   UNL A   1      46.080  37.357  28.412  1.00  0.00     0.124 S 
ATOM     85  O   UNL A   1      45.452  37.720  27.147  1.00  0.00    -0.237 OA
ATOM     86  O   UNL A   1      45.353  37.730  29.620  1.00  0.00    -0.237 OA
ATOM     87  O   UNL A   1      47.527  37.538  28.477  1.00  0.00    -0.744 OA
ENDBRANCH  83  84
ENDBRANCH  62  76
BRANCH  63  88
ATOM     88  C   UNL A   1      37.614  31.314  31.214  1.00  0.00     0.058 A 
ATOM     89  C   UNL A   1      36.655  31.261  32.247  1.00  0.00     0.135 A 
ATOM     90  C   UNL A   1      37.362  32.251  30.193  1.00  0.00     0.135 A 
ATOM     91  F   UNL A   1      36.809  30.400  33.264  1.00  0.00    -0.206 F 
ATOM     92  C   UNL A   1      35.565  32.139  32.307  1.00  0.00     0.059 A 
ATOM     93  C   UNL A   1      36.276  33.129  30.227  1.00  0.00     0.059 A 
ATOM     94  F   UNL A   1      38.220  32.414  29.175  1.00  0.00    -0.206 F 
ATOM     95  C   UNL A   1      35.401  33.094  31.306  1.00  0.00     0.060 A 
BRANCH  95  96
ATOM     96  S   UNL A   1      34.136  34.378  31.490  1.00  0.00     0.124 S 
ATOM     97  O   UNL A   1      33.317  33.844  32.572  1.00  0.00    -0.237 OA
ATOM     98  O   UNL A   1      34.934  35.555  31.814  1.00  0.00    -0.237 OA
ATOM     99  O   UNL A   1      33.493  34.408  30.178  1.00  0.00    -0.744 OA
ENDBRANCH  95  96
ENDBRANCH  63  88
BRANCH  75 100
ATOM    100  C   UNL A   1      43.030  29.495  33.992  1.00  0.00     0.058 A 
ATOM    101  C   UNL A   1      43.028  29.775  35.372  1.00  0.00     0.135 A 
ATOM    102  C   UNL A   1      42.678  28.192  33.609  1.00  0.00     0.135 A 
ATOM    103  F   UNL A   1      43.240  31.019  35.824  1.00  0.00    -0.206 F 
ATOM    104  C   UNL A   1      42.746  28.791  36.324  1.00  0.00     0.059 A 
ATOM    105  C   UNL A   1      42.359  27.207  34.537  1.00  0.00     0.059 A 
ATOM    106  F   UNL A   1      42.596  27.874  32.307  1.00  0.00    -0.206 F 
ATOM    107  C   UNL A   1      42.417  27.506  35.895  1.00  0.00     0.060 A 
BRANCH 107 108
ATOM    108  S   UNL A   1      42.028  26.236  37.118  1.00  0.00     0.124 S 
ATOM    109  O   UNL A   1      40.696  26.635  37.561  1.00  0.00    -0.237 OA
ATOM    110  O   UNL A   1      42.093  25.007  36.332  1.00  0.00    -0.237 OA
ATOM    111  O   UNL A   1      43.087  26.386  38.114  1.00  0.00    -0.744 OA
ENDBRANCH 107 108
ENDBRANCH  75 100
ENDBRANCH  49  50
ENDBRANCH  41  44
ENDBRANCH  39  40
ENDBRANCH  38  39
ENDBRANCH   1  38
TORSDOF 20
ENDMDL
MODEL 2
REMARK VINA RESULT:     -12.3      2.827      8.930
REMARK SMILES O=C1C[C@@H](c2cccc(O)c2)c2c(c(C(=O)NCCCCCCNC(=O)c3ccc(-c4c5nc(c(-c6c(F)cc(S(=O)(=O)[O-])cc6F)c6ccc([nH]6)c(-c6c(F)cc(S(=O)(=O)[O-])cc6F)c6nc(c(-c7c(F)cc(S(=O)(=O)[O-])cc7F)c7ccc4[nH]7)C=C6)C=C5)cc3)cn2-c2cccc(C(F)(F)F)c2)N1
REMARK SMILES IDX 21 1 20 2 19 3 18 4 17 5 15 6 16 7 14 9 1 10 2 11 3 12
REMARK SMILES IDX 105 13 4 14 13 15 12 17 94 18 93 19 5 20 6 21 11 22 7 23
REMARK SMILES IDX 9 24 8 25 10 26 95 28 96 29 104 30 97 31 99 32 98 33 100 34
REMARK SMILES IDX 101 35 102 36 103 37 22 38 23 39 24 40 25 41 26 43 27 44
REMARK SMILES IDX 28 45 92 46 29 47 91 48 30 49 31 50 32 51 85 52 33 53 90 54
REMARK SMILES IDX 84 55 86 56 34 57 89 58 83 59 82 60 35 62 69 63 48 64 68 65
REMARK SMILES IDX 49 66 52 67 67 68 87 69 50 70 51 71 66 73 88 74 53 75 36 76
REMARK SMILES IDX 37 77 46 78 38 79 39 80 45 81 47 82 40 83 41 84 42 85 43 86
REMARK SMILES IDX 44 87 70 88 71 89 80 90 72 91 73 92 79 93 81 94 74 95 75 96
REMARK SMILES IDX 76 97 77 98 78 99 54 100 55 101 64 102 56 103 57 104 63 105
REMARK SMILES IDX 65 106 58 107 59 108 60 109 61 110 62 111
REMARK H PARENT 17 8 105 16 10 27 24 42 86 61 52 72
REMARK Flexibility Score: inf
ROOT
ATOM      1  C   UNL A   1      35.368  33.030  27.963  1.00  0.00     0.002 C 
ENDROOT
BRANCH   1   2
ATOM      2  C   UNL A   1      36.076  31.703  28.277  1.00  0.00     0.002 C 
BRANCH   2   3
ATOM      3  C   UNL A   1      35.823  30.560  27.299  1.00  0.00     0.021 C 
BRANCH   3   4
ATOM      4  C   UNL A   1      34.550  29.761  27.549  1.00  0.00     0.116 C 
BRANCH   4   5
ATOM      5  N   UNL A   1      33.351  30.455  27.132  1.00  0.00    -0.352 N 
ATOM      6  C   UNL A   1      32.217  30.030  26.487  1.00  0.00     0.254 C 
ATOM      7  O   UNL A   1      31.382  30.892  26.201  1.00  0.00    -0.269 OA
ATOM      8  H   UNL A   1      33.347  31.414  27.353  1.00  0.00     0.163 HD
BRANCH   6   9
ATOM      9  C   UNL A   1      31.995  28.632  26.122  1.00  0.00     0.081 A 
ATOM     10  O   UNL A   1      28.929  28.994  22.465  1.00  0.00    -0.275 OA
ATOM     11  C   UNL A   1      29.568  28.323  23.274  1.00  0.00     0.225 C 
ATOM     12  C   UNL A   1      29.292  26.836  23.476  1.00  0.00     0.115 C 
ATOM     13  N   UNL A   1      30.452  28.912  24.145  1.00  0.00    -0.324 N 
ATOM     14  C   UNL A   1      30.515  26.011  23.928  1.00  0.00     0.078 C 
ATOM     15  C   UNL A   1      31.214  28.182  25.026  1.00  0.00     0.076 A 
ATOM     16  H   UNL A   1      30.543  29.893  24.137  1.00  0.00     0.170 HD
ATOM     17  C   UNL A   1      31.295  26.813  24.926  1.00  0.00     0.055 A 
ATOM     18  N   UNL A   1      32.112  26.371  25.945  1.00  0.00    -0.317 N 
ATOM     19  C   UNL A   1      32.353  27.461  26.768  1.00  0.00     0.107 A 
BRANCH  14  20
ATOM     20  C   UNL A   1      31.334  25.547  22.739  1.00  0.00    -0.035 A 
ATOM     21  C   UNL A   1      31.367  26.259  21.528  1.00  0.00     0.005 A 
ATOM     22  C   UNL A   1      32.143  24.407  22.870  1.00  0.00     0.050 A 
ATOM     23  C   UNL A   1      32.227  25.872  20.499  1.00  0.00     0.004 A 
ATOM     24  C   UNL A   1      33.021  24.054  21.852  1.00  0.00     0.115 A 
ATOM     25  C   UNL A   1      33.070  24.777  20.666  1.00  0.00     0.046 A 
BRANCH  24  26
ATOM     26  O   UNL A   1      33.874  23.016  22.083  1.00  0.00    -0.508 OA
ATOM     27  H   UNL A   1      33.820  22.534  22.886  1.00  0.00     0.293 HD
ENDBRANCH  24  26
ENDBRANCH  14  20
BRANCH  18  28
ATOM     28  C   UNL A   1      32.693  25.096  26.177  1.00  0.00     0.046 A 
ATOM     29  C   UNL A   1      32.008  24.161  26.966  1.00  0.00     0.026 A 
ATOM     30  C   UNL A   1      34.009  24.836  25.783  1.00  0.00     0.039 A 
ATOM     31  C   UNL A   1      32.620  22.958  27.316  1.00  0.00     0.003 A 
ATOM     32  C   UNL A   1      34.636  23.628  26.137  1.00  0.00     0.058 A 
ATOM     33  C   UNL A   1      33.922  22.690  26.899  1.00  0.00     0.013 A 
BRANCH  32  34
ATOM     34  C   UNL A   1      36.065  23.328  25.736  1.00  0.00     0.416 C 
ATOM     35  F   UNL A   1      36.273  23.503  24.403  1.00  0.00    -0.166 F 
ATOM     36  F   UNL A   1      36.953  24.152  26.361  1.00  0.00    -0.166 F 
ATOM     37  F   UNL A   1      36.469  22.061  26.016  1.00  0.00    -0.166 F 
ENDBRANCH  32  34
ENDBRANCH  18  28
ENDBRANCH   6   9
ENDBRANCH   4   5
ENDBRANCH   3   4
ENDBRANCH   2   3
ENDBRANCH   1   2
BRANCH   1  38
ATOM     38  C   UNL A   1      34.154  33.399  28.831  1.00  0.00     0.021 C 
BRANCH  38  39
ATOM     39  C   UNL A   1      34.399  34.555  29.786  1.00  0.00     0.116 C 
BRANCH  39  40
ATOM     40  N   UNL A   1      34.030  34.227  31.166  1.00  0.00    -0.352 N 
ATOM     41  C   UNL A   1      34.534  33.240  32.001  1.00  0.00     0.251 C 
ATOM     42  H   UNL A   1      33.322  34.787  31.558  1.00  0.00     0.163 HD
ATOM     43  O   UNL A   1      33.883  32.836  32.950  1.00  0.00    -0.269 OA
BRANCH  41  44
ATOM     44  C   UNL A   1      35.885  32.710  31.731  1.00  0.00     0.039 A 
ATOM     45  C   UNL A   1      37.019  33.521  31.602  1.00  0.00     0.014 A 
ATOM     46  C   UNL A   1      35.995  31.332  31.616  1.00  0.00     0.014 A 
ATOM     47  C   UNL A   1      38.252  32.909  31.369  1.00  0.00     0.010 A 
ATOM     48  C   UNL A   1      37.215  30.743  31.706  1.00  0.00     0.010 A 
ATOM     49  C   UNL A   1      38.326  31.511  31.409  1.00  0.00    -0.014 A 
BRANCH  49  50
ATOM     50  C   UNL A   1      39.550  30.750  31.231  1.00  0.00     0.031 A 
ATOM     51  C   UNL A   1      40.213  30.424  32.515  1.00  0.00     0.074 A 
ATOM     52  C   UNL A   1      39.816  30.109  30.068  1.00  0.00     0.049 A 
ATOM     53  N   UNL A   1      41.267  30.972  33.020  1.00  0.00    -0.248 NA
ATOM     54  C   UNL A   1      39.481  29.566  33.466  1.00  0.00     0.031 C 
ATOM     55  C   UNL A   1      38.995  30.038  28.850  1.00  0.00     0.029 A 
ATOM     56  N   UNL A   1      40.840  29.265  29.771  1.00  0.00    -0.354 N 
ATOM     57  C   UNL A   1      41.484  30.296  34.216  1.00  0.00     0.074 A 
ATOM     58  C   UNL A   1      40.218  29.719  34.567  1.00  0.00     0.031 C 
ATOM     59  C   UNL A   1      39.438  29.036  28.056  1.00  0.00     0.029 A 
ATOM     60  C   UNL A   1      40.654  28.488  28.624  1.00  0.00     0.049 A 
ATOM     61  H   UNL A   1      41.654  29.207  30.324  1.00  0.00     0.167 HD
ATOM     62  C   UNL A   1      42.746  29.981  34.627  1.00  0.00     0.037 A 
ATOM     63  C   UNL A   1      41.437  27.442  28.241  1.00  0.00     0.037 A 
ATOM     64  C   UNL A   1      43.723  30.706  33.843  1.00  0.00     0.049 A 
ATOM     65  C   UNL A   1      42.718  27.577  28.998  1.00  0.00     0.074 A 
ATOM     66  C   UNL A   1      43.944  32.043  33.562  1.00  0.00     0.029 A 
ATOM     67  N   UNL A   1      44.392  30.009  32.862  1.00  0.00    -0.354 N 
ATOM     68  N   UNL A   1      43.562  28.557  28.820  1.00  0.00    -0.248 NA
ATOM     69  C   UNL A   1      42.794  26.916  30.293  1.00  0.00     0.031 C 
ATOM     70  C   UNL A   1      44.286  32.077  32.177  1.00  0.00     0.029 A 
ATOM     71  C   UNL A   1      44.359  30.762  31.717  1.00  0.00     0.049 A 
ATOM     72  H   UNL A   1      44.818  29.127  32.966  1.00  0.00     0.167 HD
ATOM     73  C   UNL A   1      43.965  28.917  30.100  1.00  0.00     0.074 A 
ATOM     74  C   UNL A   1      43.499  27.832  30.963  1.00  0.00     0.031 C 
ATOM     75  C   UNL A   1      44.359  30.195  30.387  1.00  0.00     0.037 A 
BRANCH  62  76
ATOM     76  C   UNL A   1      43.121  28.740  35.421  1.00  0.00     0.058 A 
ATOM     77  C   UNL A   1      43.924  28.900  36.571  1.00  0.00     0.135 A 
ATOM     78  C   UNL A   1      42.961  27.404  34.987  1.00  0.00     0.135 A 
ATOM     79  F   UNL A   1      44.133  30.117  37.097  1.00  0.00    -0.206 F 
ATOM     80  C   UNL A   1      44.599  27.837  37.172  1.00  0.00     0.059 A 
ATOM     81  C   UNL A   1      43.583  26.324  35.603  1.00  0.00     0.059 A 
ATOM     82  F   UNL A   1      42.268  27.064  33.897  1.00  0.00    -0.206 F 
ATOM     83  C   UNL A   1      44.435  26.553  36.666  1.00  0.00     0.060 A 
BRANCH  83  84
ATOM     84  S   UNL A   1      45.372  25.193  37.377  1.00  0.00     0.124 S 
ATOM     85  O   UNL A   1      45.095  25.363  38.798  1.00  0.00    -0.237 OA
ATOM     86  O   UNL A   1      44.753  24.038  36.736  1.00  0.00    -0.237 OA
ATOM     87  O   UNL A   1      46.742  25.475  36.959  1.00  0.00    -0.744 OA
ENDBRANCH  83  84
ENDBRANCH  62  76
BRANCH  63  88
ATOM     88  C   UNL A   1      41.055  26.161  27.574  1.00  0.00     0.058 A 
ATOM     89  C   UNL A   1      41.906  25.552  26.629  1.00  0.00     0.135 A 
ATOM     90  C   UNL A   1      40.013  25.353  28.068  1.00  0.00     0.135 A 
ATOM     91  F   UNL A   1      42.928  26.242  26.100  1.00  0.00    -0.206 F 
ATOM     92  C   UNL A   1      41.783  24.204  26.263  1.00  0.00     0.059 A 
ATOM     93  C   UNL A   1      39.864  24.011  27.711  1.00  0.00     0.059 A 
ATOM     94  F   UNL A   1      39.159  25.813  28.995  1.00  0.00    -0.206 F 
ATOM     95  C   UNL A   1      40.776  23.431  26.836  1.00  0.00     0.060 A 
BRANCH  95  96
ATOM     96  S   UNL A   1      40.747  21.642  26.551  1.00  0.00     0.124 S 
ATOM     97  O   UNL A   1      39.464  21.461  25.882  1.00  0.00    -0.237 OA
ATOM     98  O   UNL A   1      41.932  21.441  25.724  1.00  0.00    -0.237 OA
ATOM     99  O   UNL A   1      40.832  21.084  27.899  1.00  0.00    -0.744 OA
ENDBRANCH  95  96
ENDBRANCH  63  88
BRANCH  75 100
ATOM    100  C   UNL A   1      44.627  31.142  29.243  1.00  0.00     0.058 A 
ATOM    101  C   UNL A   1      43.710  32.084  28.738  1.00  0.00     0.135 A 
ATOM    102  C   UNL A   1      45.931  31.188  28.728  1.00  0.00     0.135 A 
ATOM    103  F   UNL A   1      42.477  32.190  29.250  1.00  0.00    -0.206 F 
ATOM    104  C   UNL A   1      44.060  32.985  27.729  1.00  0.00     0.059 A 
ATOM    105  C   UNL A   1      46.311  32.100  27.750  1.00  0.00     0.059 A 
ATOM    106  F   UNL A   1      46.873  30.362  29.213  1.00  0.00    -0.206 F 
ATOM    107  C   UNL A   1      45.365  32.982  27.237  1.00  0.00     0.060 A 
BRANCH 107 108
ATOM    108  S   UNL A   1      45.831  34.160  25.951  1.00  0.00     0.124 S 
ATOM    109  O   UNL A   1      47.259  33.901  25.802  1.00  0.00    -0.237 OA
ATOM    110  O   UNL A   1      44.992  33.753  24.828  1.00  0.00    -0.237 OA
ATOM    111  O   UNL A   1      45.490  35.455  26.535  1.00  0.00    -0.744 OA
ENDBRANCH 107 108
ENDBRANCH  75 100
ENDBRANCH  49  50
ENDBRANCH  41  44
ENDBRANCH  39  40
ENDBRANCH  38  39
ENDBRANCH   1  38
TORSDOF 20
ENDMDL
MODEL 3
REMARK VINA RESULT:     -11.7      3.740      9.723
REMARK SMILES O=C1C[C@@H](c2cccc(O)c2)c2c(c(C(=O)NCCCCCCNC(=O)c3ccc(-c4c5nc(c(-c6c(F)cc(S(=O)(=O)[O-])cc6F)c6ccc([nH]6)c(-c6c(F)cc(S(=O)(=O)[O-])cc6F)c6nc(c(-c7c(F)cc(S(=O)(=O)[O-])cc7F)c7ccc4[nH]7)C=C6)C=C5)cc3)cn2-c2cccc(C(F)(F)F)c2)N1
REMARK SMILES IDX 21 1 20 2 19 3 18 4 17 5 15 6 16 7 14 9 1 10 2 11 3 12
REMARK SMILES IDX 105 13 4 14 13 15 12 17 94 18 93 19 5 20 6 21 11 22 7 23
REMARK SMILES IDX 9 24 8 25 10 26 95 28 96 29 104 30 97 31 99 32 98 33 100 34
REMARK SMILES IDX 101 35 102 36 103 37 22 38 23 39 24 40 25 41 26 43 27 44
REMARK SMILES IDX 28 45 92 46 29 47 91 48 30 49 31 50 32 51 85 52 33 53 90 54
REMARK SMILES IDX 84 55 86 56 34 57 89 58 83 59 82 60 35 62 69 63 48 64 68 65
REMARK SMILES IDX 49 66 52 67 67 68 87 69 50 70 51 71 66 73 88 74 53 75 36 76
REMARK SMILES IDX 37 77 46 78 38 79 39 80 45 81 47 82 40 83 41 84 42 85 43 86
REMARK SMILES IDX 44 87 70 88 71 89 80 90 72 91 73 92 79 93 81 94 74 95 75 96
REMARK SMILES IDX 76 97 77 98 78 99 54 100 55 101 64 102 56 103 57 104 63 105
REMARK SMILES IDX 65 106 58 107 59 108 60 109 61 110 62 111
REMARK H PARENT 17 8 105 16 10 27 24 42 86 61 52 72
REMARK Flexibility Score: inf
ROOT
ATOM      1  C   UNL A   1      35.331  30.541  27.640  1.00  0.00     0.002 C 
ENDROOT
BRANCH   1   2
ATOM      2  C   UNL A   1      33.893  30.180  27.238  1.00  0.00     0.002 C 
BRANCH   2   3
ATOM      3  C   UNL A   1      33.528  28.700  27.310  1.00  0.00     0.021 C 
BRANCH   3   4
ATOM      4  C   UNL A   1      32.034  28.401  27.340  1.00  0.00     0.116 C 
BRANCH   4   5
ATOM      5  N   UNL A   1      31.468  28.192  26.026  1.00  0.00    -0.352 N 
ATOM      6  C   UNL A   1      31.618  27.184  25.107  1.00  0.00     0.254 C 
ATOM      7  O   UNL A   1      31.048  27.327  24.023  1.00  0.00    -0.269 OA
ATOM      8  H   UNL A   1      30.859  28.908  25.734  1.00  0.00     0.163 HD
BRANCH   6   9
ATOM      9  C   UNL A   1      32.431  25.997  25.365  1.00  0.00     0.081 A 
ATOM     10  O   UNL A   1      29.223  22.908  27.120  1.00  0.00    -0.275 OA
ATOM     11  C   UNL A   1      30.380  23.217  26.835  1.00  0.00     0.225 C 
ATOM     12  C   UNL A   1      31.570  22.398  27.326  1.00  0.00     0.115 C 
ATOM     13  N   UNL A   1      30.663  24.399  26.195  1.00  0.00    -0.324 N 
ATOM     14  C   UNL A   1      32.803  22.437  26.399  1.00  0.00     0.078 C 
ATOM     15  C   UNL A   1      31.940  24.747  25.824  1.00  0.00     0.076 A 
ATOM     16  H   UNL A   1      29.924  25.019  25.996  1.00  0.00     0.170 HD
ATOM     17  C   UNL A   1      32.966  23.831  25.872  1.00  0.00     0.055 A 
ATOM     18  N   UNL A   1      34.113  24.473  25.458  1.00  0.00    -0.317 N 
ATOM     19  C   UNL A   1      33.805  25.821  25.355  1.00  0.00     0.107 A 
BRANCH  14  20
ATOM     20  C   UNL A   1      32.709  21.379  25.317  1.00  0.00    -0.035 A 
ATOM     21  C   UNL A   1      32.811  20.006  25.601  1.00  0.00     0.005 A 
ATOM     22  C   UNL A   1      32.442  21.774  23.996  1.00  0.00     0.050 A 
ATOM     23  C   UNL A   1      32.596  19.056  24.601  1.00  0.00     0.004 A 
ATOM     24  C   UNL A   1      32.195  20.818  23.019  1.00  0.00     0.115 A 
ATOM     25  C   UNL A   1      32.270  19.461  23.309  1.00  0.00     0.046 A 
BRANCH  24  26
ATOM     26  O   UNL A   1      31.814  21.257  21.785  1.00  0.00    -0.508 OA
ATOM     27  H   UNL A   1      31.305  22.040  21.703  1.00  0.00     0.293 HD
ENDBRANCH  24  26
ENDBRANCH  14  20
BRANCH  18  28
ATOM     28  C   UNL A   1      35.392  23.955  25.122  1.00  0.00     0.046 A 
ATOM     29  C   UNL A   1      35.528  23.138  23.991  1.00  0.00     0.026 A 
ATOM     30  C   UNL A   1      36.468  24.100  26.003  1.00  0.00     0.039 A 
ATOM     31  C   UNL A   1      36.743  22.510  23.722  1.00  0.00     0.003 A 
ATOM     32  C   UNL A   1      37.697  23.466  25.743  1.00  0.00     0.058 A 
ATOM     33  C   UNL A   1      37.823  22.678  24.588  1.00  0.00     0.013 A 
BRANCH  32  34
ATOM     34  C   UNL A   1      38.872  23.593  26.688  1.00  0.00     0.416 C 
ATOM     35  F   UNL A   1      38.527  24.194  27.859  1.00  0.00    -0.166 F 
ATOM     36  F   UNL A   1      39.384  22.377  27.032  1.00  0.00    -0.166 F 
ATOM     37  F   UNL A   1      39.914  24.310  26.190  1.00  0.00    -0.166 F 
ENDBRANCH  32  34
ENDBRANCH  18  28
ENDBRANCH   6   9
ENDBRANCH   4   5
ENDBRANCH   3   4
ENDBRANCH   2   3
ENDBRANCH   1   2
BRANCH   1  38
ATOM     38  C   UNL A   1      35.590  31.988  28.092  1.00  0.00     0.021 C 
BRANCH  38  39
ATOM     39  C   UNL A   1      36.747  32.140  29.064  1.00  0.00     0.116 C 
BRANCH  39  40
ATOM     40  N   UNL A   1      36.310  32.091  30.463  1.00  0.00    -0.352 N 
ATOM     41  C   UNL A   1      36.735  31.261  31.490  1.00  0.00     0.251 C 
ATOM     42  H   UNL A   1      35.613  32.741  30.709  1.00  0.00     0.163 HD
ATOM     43  O   UNL A   1      36.029  31.068  32.466  1.00  0.00    -0.269 OA
BRANCH  41  44
ATOM     44  C   UNL A   1      38.070  30.640  31.389  1.00  0.00     0.039 A 
ATOM     45  C   UNL A   1      39.260  31.323  31.666  1.00  0.00     0.014 A 
ATOM     46  C   UNL A   1      38.102  29.308  31.005  1.00  0.00     0.014 A 
ATOM     47  C   UNL A   1      40.467  30.628  31.558  1.00  0.00     0.010 A 
ATOM     48  C   UNL A   1      39.227  28.574  31.209  1.00  0.00     0.010 A 
ATOM     49  C   UNL A   1      40.428  29.250  31.312  1.00  0.00    -0.014 A 
BRANCH  49  50
ATOM     50  C   UNL A   1      41.603  28.401  31.223  1.00  0.00     0.031 A 
ATOM     51  C   UNL A   1      42.069  27.929  32.548  1.00  0.00     0.074 A 
ATOM     52  C   UNL A   1      41.966  27.823  30.053  1.00  0.00     0.049 A 
ATOM     53  N   UNL A   1      43.089  28.347  33.220  1.00  0.00    -0.248 NA
ATOM     54  C   UNL A   1      41.157  27.072  33.329  1.00  0.00     0.031 C 
ATOM     55  C   UNL A   1      41.304  27.910  28.742  1.00  0.00     0.029 A 
ATOM     56  N   UNL A   1      42.952  26.917  29.816  1.00  0.00    -0.354 N 
ATOM     57  C   UNL A   1      43.098  27.572  34.375  1.00  0.00     0.074 A 
ATOM     58  C   UNL A   1      41.757  27.082  34.522  1.00  0.00     0.031 C 
ATOM     59  C   UNL A   1      41.767  26.932  27.930  1.00  0.00     0.029 A 
ATOM     60  C   UNL A   1      42.855  26.242  28.596  1.00  0.00     0.049 A 
ATOM     61  H   UNL A   1      43.681  26.750  30.457  1.00  0.00     0.167 HD
ATOM     62  C   UNL A   1      44.269  27.121  34.910  1.00  0.00     0.037 A 
ATOM     63  C   UNL A   1      43.598  25.161  28.227  1.00  0.00     0.037 A 
ATOM     64  C   UNL A   1      45.391  27.812  34.311  1.00  0.00     0.049 A 
ATOM     65  C   UNL A   1      44.777  25.132  29.143  1.00  0.00     0.074 A 
ATOM     66  C   UNL A   1      45.748  29.141  34.170  1.00  0.00     0.029 A 
ATOM     67  N   UNL A   1      46.125  27.131  33.367  1.00  0.00    -0.354 N 
ATOM     68  N   UNL A   1      45.710  26.046  29.149  1.00  0.00    -0.248 NA
ATOM     69  C   UNL A   1      44.636  24.377  30.380  1.00  0.00     0.031 C 
ATOM     70  C   UNL A   1      46.266  29.244  32.843  1.00  0.00     0.029 A 
ATOM     71  C   UNL A   1      46.297  27.963  32.291  1.00  0.00     0.049 A 
ATOM     72  H   UNL A   1      46.465  26.210  33.450  1.00  0.00     0.167 HD
ATOM     73  C   UNL A   1      45.973  26.277  30.494  1.00  0.00     0.074 A 
ATOM     74  C   UNL A   1      45.318  25.179  31.203  1.00  0.00     0.031 C 
ATOM     75  C   UNL A   1      46.423  27.493  30.929  1.00  0.00     0.037 A 
BRANCH  62  76
ATOM     76  C   UNL A   1      44.443  25.799  35.640  1.00  0.00     0.058 A 
ATOM     77  C   UNL A   1      45.124  25.803  36.877  1.00  0.00     0.135 A 
ATOM     78  C   UNL A   1      44.216  24.517  35.090  1.00  0.00     0.135 A 
ATOM     79  F   UNL A   1      45.378  26.957  37.515  1.00  0.00    -0.206 F 
ATOM     80  C   UNL A   1      45.631  24.643  37.462  1.00  0.00     0.059 A 
ATOM     81  C   UNL A   1      44.668  23.343  35.682  1.00  0.00     0.059 A 
ATOM     82  F   UNL A   1      43.622  24.318  33.911  1.00  0.00    -0.206 F 
ATOM     83  C   UNL A   1      45.413  23.418  36.844  1.00  0.00     0.060 A 
BRANCH  83  84
ATOM     84  S   UNL A   1      46.142  21.929  37.542  1.00  0.00     0.124 S 
ATOM     85  O   UNL A   1      45.605  21.953  38.897  1.00  0.00    -0.237 OA
ATOM     86  O   UNL A   1      45.612  20.896  36.659  1.00  0.00    -0.237 OA
ATOM     87  O   UNL A   1      47.577  22.171  37.424  1.00  0.00    -0.744 OA
ENDBRANCH  83  84
ENDBRANCH  62  76
BRANCH  63  88
ATOM     88  C   UNL A   1      43.206  23.969  27.417  1.00  0.00     0.058 A 
ATOM     89  C   UNL A   1      43.867  23.663  26.209  1.00  0.00     0.135 A 
ATOM     90  C   UNL A   1      42.406  22.941  27.953  1.00  0.00     0.135 A 
ATOM     91  F   UNL A   1      44.653  24.578  25.621  1.00  0.00    -0.206 F 
ATOM     92  C   UNL A   1      43.806  22.394  25.618  1.00  0.00     0.059 A 
ATOM     93  C   UNL A   1      42.322  21.672  27.376  1.00  0.00     0.059 A 
ATOM     94  F   UNL A   1      41.756  23.105  29.114  1.00  0.00    -0.206 F 
ATOM     95  C   UNL A   1      43.054  21.392  26.228  1.00  0.00     0.060 A 
BRANCH  95  96
ATOM     96  S   UNL A   1      43.151  19.693  25.606  1.00  0.00     0.124 S 
ATOM     97  O   UNL A   1      41.749  19.381  25.357  1.00  0.00    -0.237 OA
ATOM     98  O   UNL A   1      43.992  19.844  24.424  1.00  0.00    -0.237 OA
ATOM     99  O   UNL A   1      43.766  18.963  26.713  1.00  0.00    -0.744 OA
ENDBRANCH  95  96
ENDBRANCH  63  88
BRANCH  75 100
ATOM    100  C   UNL A   1      46.908  28.493  29.907  1.00  0.00     0.058 A 
ATOM    101  C   UNL A   1      46.105  29.462  29.277  1.00  0.00     0.135 A 
ATOM    102  C   UNL A   1      48.288  28.555  29.661  1.00  0.00     0.135 A 
ATOM    103  F   UNL A   1      44.794  29.551  29.542  1.00  0.00    -0.206 F 
ATOM    104  C   UNL A   1      46.643  30.409  28.401  1.00  0.00     0.059 A 
ATOM    105  C   UNL A   1      48.849  29.510  28.821  1.00  0.00     0.059 A 
ATOM    106  F   UNL A   1      49.119  27.701  30.281  1.00  0.00    -0.206 F 
ATOM    107  C   UNL A   1      48.019  30.421  28.176  1.00  0.00     0.060 A 
BRANCH 107 108
ATOM    108  S   UNL A   1      48.724  31.656  27.064  1.00  0.00     0.124 S 
ATOM    109  O   UNL A   1      47.570  32.036  26.256  1.00  0.00    -0.237 OA
ATOM    110  O   UNL A   1      49.214  32.674  27.989  1.00  0.00    -0.237 OA
ATOM    111  O   UNL A   1      49.767  30.919  26.353  1.00  0.00    -0.744 OA
ENDBRANCH 107 108
ENDBRANCH  75 100
ENDBRANCH  49  50
ENDBRANCH  41  44
ENDBRANCH  39  40
ENDBRANCH  38  39
ENDBRANCH   1  38
TORSDOF 20
ENDMDL
