MODEL 1
REMARK VINA RESULT:     -11.1      0.000      0.000
REMARK SMILES Nc1cc([N+](=O)[O-])ccc1[C@H]([NH3+])C(=O)NCCCCCCNC(=O)c1ccc(-c2c3nc(c(-c4c(F)cc(S(=O)(=O)[O-])cc4F)c4ccc([nH]4)c(-c4c(F)cc(S(=O)(=O)[O-])cc4F)c4nc(c(-c5c(F)cc(S(=O)(=O)[O-])cc5F)c5ccc2[nH]5)C=C4)C=C3)cc1
REMARK SMILES IDX 19 1 18 2 17 3 16 4 15 5 13 6 14 7 11 9 10 10 2 11 3 12 4 13
REMARK SMILES IDX 9 14 8 15 1 16 5 19 6 20 7 21 12 22 20 26 21 27 22 28 23 29
REMARK SMILES IDX 24 31 25 32 26 33 90 34 27 35 89 36 28 37 29 38 30 39 83 40
REMARK SMILES IDX 31 41 88 42 82 43 84 44 32 45 87 46 81 47 80 48 33 50 67 51
REMARK SMILES IDX 46 52 66 53 47 54 50 55 65 56 85 57 48 58 49 59 64 61 86 62
REMARK SMILES IDX 51 63 34 64 35 65 44 66 36 67 37 68 43 69 45 70 38 71 39 72
REMARK SMILES IDX 40 73 41 74 42 75 68 76 69 77 78 78 70 79 71 80 77 81 79 82
REMARK SMILES IDX 72 83 73 84 74 85 75 86 76 87 52 88 53 89 62 90 54 91 55 92
REMARK SMILES IDX 61 93 63 94 56 95 57 96 58 97 59 98 60 99
REMARK H PARENT 15 8 1 17 1 18 12 23 12 24 12 25 22 30 84 49 50 60
REMARK Flexibility Score: inf
ROOT
ATOM      1  C   UNL A   1      32.182  30.427  26.059  1.00  0.00     0.002 C 
ENDROOT
BRANCH   1   2
ATOM      2  C   UNL A   1      33.149  29.510  26.813  1.00  0.00     0.002 C 
BRANCH   2   3
ATOM      3  C   UNL A   1      32.502  28.302  27.502  1.00  0.00     0.021 C 
BRANCH   3   4
ATOM      4  C   UNL A   1      32.404  27.057  26.624  1.00  0.00     0.116 C 
BRANCH   4   5
ATOM      5  N   UNL A   1      31.195  26.308  26.910  1.00  0.00    -0.351 N 
ATOM      6  C   UNL A   1      30.316  25.714  26.049  1.00  0.00     0.283 C 
ATOM      7  O   UNL A   1      29.349  25.119  26.537  1.00  0.00    -0.268 OA
ATOM      8  H   UNL A   1      30.975  26.214  27.865  1.00  0.00     0.163 HD
BRANCH   6   9
ATOM      9  C   UNL A   1      30.552  25.734  24.510  1.00  0.00     0.304 C 
BRANCH   9  10
ATOM     10  C   UNL A   1      29.864  26.923  23.818  1.00  0.00     0.042 A 
ATOM     11  C   UNL A   1      28.472  27.094  23.651  1.00  0.00     0.048 A 
ATOM     12  C   UNL A   1      27.985  28.283  23.077  1.00  0.00     0.111 A 
ATOM     13  C   UNL A   1      28.859  29.260  22.589  1.00  0.00     0.271 A 
ATOM     14  C   UNL A   1      30.724  27.920  23.284  1.00  0.00     0.020 A 
ATOM     15  C   UNL A   1      30.235  29.079  22.684  1.00  0.00     0.086 A 
BRANCH  11  16
ATOM     16  N   UNL A   1      27.528  26.191  24.130  1.00  0.00    -0.398 N 
ATOM     17  H   UNL A   1      27.000  26.408  24.932  1.00  0.00     0.156 HD
ATOM     18  H   UNL A   1      27.388  25.333  23.667  1.00  0.00     0.156 HD
ENDBRANCH  11  16
BRANCH  13  19
ATOM     19  N   UNL A   1      28.325  30.464  21.945  1.00  0.00     0.062 N 
ATOM     20  O   UNL A   1      28.223  31.488  22.633  1.00  0.00    -0.258 OA
ATOM     21  O   UNL A   1      27.983  30.374  20.757  1.00  0.00    -0.258 OA
ENDBRANCH  13  19
ENDBRANCH   9  10
BRANCH   9  22
ATOM     22  N   UNL A   1      30.273  24.380  23.988  1.00  0.00    -0.343 N 
ATOM     23  H   UNL A   1      30.817  24.225  23.139  1.00  0.00     0.345 HD
ATOM     24  H   UNL A   1      29.280  24.296  23.776  1.00  0.00     0.345 HD
ATOM     25  H   UNL A   1      30.532  23.686  24.688  1.00  0.00     0.345 HD
ENDBRANCH   9  22
ENDBRANCH   6   9
ENDBRANCH   4   5
ENDBRANCH   3   4
ENDBRANCH   2   3
ENDBRANCH   1   2
BRANCH   1  26
ATOM     26  C   UNL A   1      31.796  31.712  26.795  1.00  0.00     0.021 C 
BRANCH  26  27
ATOM     27  C   UNL A   1      32.969  32.486  27.385  1.00  0.00     0.116 C 
BRANCH  27  28
ATOM     28  N   UNL A   1      32.643  33.884  27.628  1.00  0.00    -0.352 N 
ATOM     29  C   UNL A   1      33.156  34.737  28.573  1.00  0.00     0.251 C 
ATOM     30  H   UNL A   1      31.959  34.269  27.033  1.00  0.00     0.163 HD
ATOM     31  O   UNL A   1      32.643  35.836  28.759  1.00  0.00    -0.269 OA
BRANCH  29  32
ATOM     32  C   UNL A   1      34.319  34.311  29.380  1.00  0.00     0.039 A 
ATOM     33  C   UNL A   1      34.103  33.640  30.586  1.00  0.00     0.014 A 
ATOM     34  C   UNL A   1      35.620  34.563  28.935  1.00  0.00     0.014 A 
ATOM     35  C   UNL A   1      35.193  33.165  31.318  1.00  0.00     0.010 A 
ATOM     36  C   UNL A   1      36.701  34.029  29.630  1.00  0.00     0.010 A 
ATOM     37  C   UNL A   1      36.500  33.327  30.827  1.00  0.00    -0.014 A 
BRANCH  37  38
ATOM     38  C   UNL A   1      37.676  32.775  31.546  1.00  0.00     0.031 A 
ATOM     39  C   UNL A   1      38.390  31.571  30.998  1.00  0.00     0.074 A 
ATOM     40  C   UNL A   1      38.030  33.286  32.741  1.00  0.00     0.049 A 
ATOM     41  N   UNL A   1      39.347  30.861  31.538  1.00  0.00    -0.248 NA
ATOM     42  C   UNL A   1      37.944  31.081  29.685  1.00  0.00     0.031 C 
ATOM     43  C   UNL A   1      37.378  34.418  33.403  1.00  0.00     0.029 A 
ATOM     44  N   UNL A   1      39.007  32.902  33.626  1.00  0.00    -0.354 N 
ATOM     45  C   UNL A   1      39.595  29.823  30.647  1.00  0.00     0.074 A 
ATOM     46  C   UNL A   1      38.659  29.974  29.554  1.00  0.00     0.031 C 
ATOM     47  C   UNL A   1      37.969  34.633  34.588  1.00  0.00     0.029 A 
ATOM     48  C   UNL A   1      39.015  33.635  34.788  1.00  0.00     0.049 A 
ATOM     49  H   UNL A   1      39.641  32.170  33.443  1.00  0.00     0.167 HD
ATOM     50  C   UNL A   1      40.526  28.844  30.727  1.00  0.00     0.037 A 
ATOM     51  C   UNL A   1      39.765  33.505  35.901  1.00  0.00     0.037 A 
ATOM     52  C   UNL A   1      41.473  28.721  31.805  1.00  0.00     0.049 A 
ATOM     53  C   UNL A   1      40.813  32.429  35.961  1.00  0.00     0.074 A 
ATOM     54  C   UNL A   1      42.513  27.820  31.936  1.00  0.00     0.029 A 
ATOM     55  N   UNL A   1      41.488  29.519  32.940  1.00  0.00    -0.354 N 
ATOM     56  N   UNL A   1      41.093  31.506  35.074  1.00  0.00    -0.248 NA
ATOM     57  C   UNL A   1      41.654  32.381  37.166  1.00  0.00     0.031 C 
ATOM     58  C   UNL A   1      43.128  28.042  33.174  1.00  0.00     0.029 A 
ATOM     59  C   UNL A   1      42.503  29.114  33.790  1.00  0.00     0.049 A 
ATOM     60  H   UNL A   1      40.868  30.265  33.115  1.00  0.00     0.167 HD
ATOM     61  C   UNL A   1      42.155  30.780  35.600  1.00  0.00     0.074 A 
ATOM     62  C   UNL A   1      42.472  31.375  36.882  1.00  0.00     0.031 C 
ATOM     63  C   UNL A   1      42.811  29.721  35.063  1.00  0.00     0.037 A 
BRANCH  50  64
ATOM     64  C   UNL A   1      40.550  27.819  29.624  1.00  0.00     0.058 A 
ATOM     65  C   UNL A   1      41.512  27.851  28.602  1.00  0.00     0.135 A 
ATOM     66  C   UNL A   1      39.589  26.796  29.586  1.00  0.00     0.135 A 
ATOM     67  F   UNL A   1      42.448  28.813  28.584  1.00  0.00    -0.206 F 
ATOM     68  C   UNL A   1      41.489  26.939  27.553  1.00  0.00     0.059 A 
ATOM     69  C   UNL A   1      39.566  25.854  28.562  1.00  0.00     0.059 A 
ATOM     70  F   UNL A   1      38.648  26.714  30.540  1.00  0.00    -0.206 F 
ATOM     71  C   UNL A   1      40.504  25.949  27.535  1.00  0.00     0.060 A 
BRANCH  71  72
ATOM     72  S   UNL A   1      40.458  24.799  26.146  1.00  0.00     0.124 S 
ATOM     73  O   UNL A   1      39.041  24.449  26.107  1.00  0.00    -0.237 OA
ATOM     74  O   UNL A   1      40.938  25.622  25.040  1.00  0.00    -0.237 OA
ATOM     75  O   UNL A   1      41.358  23.728  26.563  1.00  0.00    -0.744 OA
ENDBRANCH  71  72
ENDBRANCH  50  64
BRANCH  51  76
ATOM     76  C   UNL A   1      39.546  34.441  37.034  1.00  0.00     0.058 A 
ATOM     77  C   UNL A   1      38.840  34.039  38.176  1.00  0.00     0.135 A 
ATOM     78  C   UNL A   1      40.104  35.729  37.028  1.00  0.00     0.135 A 
ATOM     79  F   UNL A   1      38.283  32.819  38.226  1.00  0.00    -0.206 F 
ATOM     80  C   UNL A   1      38.703  34.876  39.279  1.00  0.00     0.059 A 
ATOM     81  C   UNL A   1      39.998  36.577  38.127  1.00  0.00     0.059 A 
ATOM     82  F   UNL A   1      40.802  36.154  35.964  1.00  0.00    -0.206 F 
ATOM     83  C   UNL A   1      39.296  36.139  39.249  1.00  0.00     0.060 A 
BRANCH  83  84
ATOM     84  S   UNL A   1      39.197  37.177  40.725  1.00  0.00     0.124 S 
ATOM     85  O   UNL A   1      38.459  38.331  40.224  1.00  0.00    -0.237 OA
ATOM     86  O   UNL A   1      38.478  36.314  41.656  1.00  0.00    -0.237 OA
ATOM     87  O   UNL A   1      40.598  37.418  41.058  1.00  0.00    -0.744 OA
ENDBRANCH  83  84
ENDBRANCH  51  76
BRANCH  63  88
ATOM     88  C   UNL A   1      43.961  29.142  35.841  1.00  0.00     0.058 A 
ATOM     89  C   UNL A   1      45.248  29.692  35.771  1.00  0.00     0.135 A 
ATOM     90  C   UNL A   1      43.744  28.086  36.742  1.00  0.00     0.135 A 
ATOM     91  F   UNL A   1      45.510  30.698  34.920  1.00  0.00    -0.206 F 
ATOM     92  C   UNL A   1      46.285  29.214  36.567  1.00  0.00     0.059 A 
ATOM     93  C   UNL A   1      44.759  27.608  37.563  1.00  0.00     0.059 A 
ATOM     94  F   UNL A   1      42.528  27.530  36.851  1.00  0.00    -0.206 F 
ATOM     95  C   UNL A   1      46.029  28.177  37.466  1.00  0.00     0.060 A 
BRANCH  95  96
ATOM     96  S   UNL A   1      47.363  27.617  38.546  1.00  0.00     0.124 S 
ATOM     97  O   UNL A   1      46.981  28.216  39.820  1.00  0.00    -0.237 OA
ATOM     98  O   UNL A   1      47.241  26.165  38.467  1.00  0.00    -0.237 OA
ATOM     99  O   UNL A   1      48.561  28.174  37.924  1.00  0.00    -0.744 OA
ENDBRANCH  95  96
ENDBRANCH  63  88
ENDBRANCH  37  38
ENDBRANCH  29  32
ENDBRANCH  27  28
ENDBRANCH  26  27
ENDBRANCH   1  26
TORSDOF 20
ENDMDL
MODEL 2
REMARK VINA RESULT:     -11.0      6.205     10.970
REMARK SMILES Nc1cc([N+](=O)[O-])ccc1[C@H]([NH3+])C(=O)NCCCCCCNC(=O)c1ccc(-c2c3nc(c(-c4c(F)cc(S(=O)(=O)[O-])cc4F)c4ccc([nH]4)c(-c4c(F)cc(S(=O)(=O)[O-])cc4F)c4nc(c(-c5c(F)cc(S(=O)(=O)[O-])cc5F)c5ccc2[nH]5)C=C4)C=C3)cc1
REMARK SMILES IDX 19 1 18 2 17 3 16 4 15 5 13 6 14 7 11 9 10 10 2 11 3 12 4 13
REMARK SMILES IDX 9 14 8 15 1 16 5 19 6 20 7 21 12 22 20 26 21 27 22 28 23 29
REMARK SMILES IDX 24 31 25 32 26 33 90 34 27 35 89 36 28 37 29 38 30 39 83 40
REMARK SMILES IDX 31 41 88 42 82 43 84 44 32 45 87 46 81 47 80 48 33 50 67 51
REMARK SMILES IDX 46 52 66 53 47 54 50 55 65 56 85 57 48 58 49 59 64 61 86 62
REMARK SMILES IDX 51 63 34 64 35 65 44 66 36 67 37 68 43 69 45 70 38 71 39 72
REMARK SMILES IDX 40 73 41 74 42 75 68 76 69 77 78 78 70 79 71 80 77 81 79 82
REMARK SMILES IDX 72 83 73 84 74 85 75 86 76 87 52 88 53 89 62 90 54 91 55 92
REMARK SMILES IDX 61 93 63 94 56 95 57 96 58 97 59 98 60 99
REMARK H PARENT 15 8 1 17 1 18 12 23 12 24 12 25 22 30 84 49 50 60
REMARK Flexibility Score: inf
ROOT
ATOM      1  C   UNL A   1      33.844  29.769  26.396  1.00  0.00     0.002 C 
ENDROOT
BRANCH   1   2
ATOM      2  C   UNL A   1      33.627  28.501  25.563  1.00  0.00     0.002 C 
BRANCH   2   3
ATOM      3  C   UNL A   1      33.809  27.181  26.323  1.00  0.00     0.021 C 
BRANCH   3   4
ATOM      4  C   UNL A   1      33.155  25.976  25.652  1.00  0.00     0.116 C 
BRANCH   4   5
ATOM      5  N   UNL A   1      31.843  25.712  26.209  1.00  0.00    -0.351 N 
ATOM      6  C   UNL A   1      30.636  25.604  25.579  1.00  0.00     0.283 C 
ATOM      7  O   UNL A   1      29.643  25.366  26.278  1.00  0.00    -0.268 OA
ATOM      8  H   UNL A   1      31.818  25.594  27.187  1.00  0.00     0.163 HD
BRANCH   6   9
ATOM      9  C   UNL A   1      30.518  25.718  24.031  1.00  0.00     0.304 C 
BRANCH   9  10
ATOM     10  C   UNL A   1      29.721  26.956  23.585  1.00  0.00     0.042 A 
ATOM     11  C   UNL A   1      28.322  27.117  23.671  1.00  0.00     0.048 A 
ATOM     12  C   UNL A   1      27.743  28.348  23.307  1.00  0.00     0.111 A 
ATOM     13  C   UNL A   1      28.521  29.382  22.777  1.00  0.00     0.271 A 
ATOM     14  C   UNL A   1      30.478  28.014  23.014  1.00  0.00     0.020 A 
ATOM     15  C   UNL A   1      29.894  29.218  22.621  1.00  0.00     0.086 A 
BRANCH  11  16
ATOM     16  N   UNL A   1      27.473  26.156  24.211  1.00  0.00    -0.398 N 
ATOM     17  H   UNL A   1      26.908  26.377  24.987  1.00  0.00     0.156 HD
ATOM     18  H   UNL A   1      27.437  25.254  23.817  1.00  0.00     0.156 HD
ENDBRANCH  11  16
BRANCH  13  19
ATOM     19  N   UNL A   1      27.885  30.634  22.353  1.00  0.00     0.062 N 
ATOM     20  O   UNL A   1      28.087  31.018  21.194  1.00  0.00    -0.258 OA
ATOM     21  O   UNL A   1      27.207  31.244  23.191  1.00  0.00    -0.258 OA
ENDBRANCH  13  19
ENDBRANCH   9  10
BRANCH   9  22
ATOM     22  N   UNL A   1      30.094  24.403  23.508  1.00  0.00    -0.343 N 
ATOM     23  H   UNL A   1      29.329  24.532  22.845  1.00  0.00     0.345 HD
ATOM     24  H   UNL A   1      29.778  23.816  24.280  1.00  0.00     0.345 HD
ATOM     25  H   UNL A   1      30.879  23.954  23.038  1.00  0.00     0.345 HD
ENDBRANCH   9  22
ENDBRANCH   6   9
ENDBRANCH   4   5
ENDBRANCH   3   4
ENDBRANCH   2   3
ENDBRANCH   1   2
BRANCH   1  26
ATOM     26  C   UNL A   1      34.752  29.598  27.616  1.00  0.00     0.021 C 
BRANCH  26  27
ATOM     27  C   UNL A   1      35.493  30.860  28.041  1.00  0.00     0.116 C 
BRANCH  27  28
ATOM     28  N   UNL A   1      35.414  31.090  29.476  1.00  0.00    -0.352 N 
ATOM     29  C   UNL A   1      36.305  30.731  30.457  1.00  0.00     0.251 C 
ATOM     30  H   UNL A   1      34.609  31.566  29.786  1.00  0.00     0.163 HD
ATOM     31  O   UNL A   1      36.001  30.843  31.641  1.00  0.00    -0.269 OA
BRANCH  29  32
ATOM     32  C   UNL A   1      37.625  30.188  30.075  1.00  0.00     0.039 A 
ATOM     33  C   UNL A   1      38.040  30.280  28.744  1.00  0.00     0.014 A 
ATOM     34  C   UNL A   1      38.456  29.604  31.035  1.00  0.00     0.014 A 
ATOM     35  C   UNL A   1      39.317  29.841  28.386  1.00  0.00     0.010 A 
ATOM     36  C   UNL A   1      39.751  29.231  30.690  1.00  0.00     0.010 A 
ATOM     37  C   UNL A   1      40.195  29.344  29.364  1.00  0.00    -0.014 A 
BRANCH  37  38
ATOM     38  C   UNL A   1      41.581  28.932  29.029  1.00  0.00     0.031 A 
ATOM     39  C   UNL A   1      42.679  29.958  28.994  1.00  0.00     0.074 A 
ATOM     40  C   UNL A   1      41.830  27.663  28.653  1.00  0.00     0.049 A 
ATOM     41  N   UNL A   1      43.919  29.829  28.598  1.00  0.00    -0.248 NA
ATOM     42  C   UNL A   1      42.322  31.318  29.426  1.00  0.00     0.031 C 
ATOM     43  C   UNL A   1      40.836  26.589  28.593  1.00  0.00     0.029 A 
ATOM     44  N   UNL A   1      42.988  27.067  28.219  1.00  0.00    -0.354 N 
ATOM     45  C   UNL A   1      44.482  31.096  28.703  1.00  0.00     0.074 A 
ATOM     46  C   UNL A   1      43.436  31.985  29.159  1.00  0.00     0.031 C 
ATOM     47  C   UNL A   1      41.425  25.469  28.147  1.00  0.00     0.029 A 
ATOM     48  C   UNL A   1      42.827  25.753  27.852  1.00  0.00     0.049 A 
ATOM     49  H   UNL A   1      43.852  27.538  28.176  1.00  0.00     0.167 HD
ATOM     50  C   UNL A   1      45.757  31.478  28.456  1.00  0.00     0.037 A 
ATOM     51  C   UNL A   1      43.702  24.878  27.318  1.00  0.00     0.037 A 
ATOM     52  C   UNL A   1      46.798  30.578  28.031  1.00  0.00     0.049 A 
ATOM     53  C   UNL A   1      45.121  25.311  27.076  1.00  0.00     0.074 A 
ATOM     54  C   UNL A   1      48.141  30.846  27.840  1.00  0.00     0.029 A 
ATOM     55  N   UNL A   1      46.609  29.237  27.725  1.00  0.00    -0.354 N 
ATOM     56  N   UNL A   1      45.662  26.492  27.260  1.00  0.00    -0.248 NA
ATOM     57  C   UNL A   1      46.052  24.296  26.564  1.00  0.00     0.031 C 
ATOM     58  C   UNL A   1      48.756  29.679  27.371  1.00  0.00     0.029 A 
ATOM     59  C   UNL A   1      47.806  28.672  27.319  1.00  0.00     0.049 A 
ATOM     60  H   UNL A   1      45.750  28.759  27.787  1.00  0.00     0.167 HD
ATOM     61  C   UNL A   1      47.000  26.358  26.908  1.00  0.00     0.074 A 
ATOM     62  C   UNL A   1      47.189  24.980  26.505  1.00  0.00     0.031 C 
ATOM     63  C   UNL A   1      47.981  27.294  26.926  1.00  0.00     0.037 A 
BRANCH  50  64
ATOM     64  C   UNL A   1      46.087  32.937  28.623  1.00  0.00     0.058 A 
ATOM     65  C   UNL A   1      45.983  33.848  27.559  1.00  0.00     0.135 A 
ATOM     66  C   UNL A   1      46.523  33.428  29.864  1.00  0.00     0.135 A 
ATOM     67  F   UNL A   1      45.581  33.431  26.348  1.00  0.00    -0.206 F 
ATOM     68  C   UNL A   1      46.350  35.182  27.706  1.00  0.00     0.059 A 
ATOM     69  C   UNL A   1      46.866  34.765  30.041  1.00  0.00     0.059 A 
ATOM     70  F   UNL A   1      46.637  32.603  30.917  1.00  0.00    -0.206 F 
ATOM     71  C   UNL A   1      46.802  35.629  28.949  1.00  0.00     0.060 A 
BRANCH  71  72
ATOM     72  S   UNL A   1      47.316  37.350  29.114  1.00  0.00     0.124 S 
ATOM     73  O   UNL A   1      48.305  37.460  28.046  1.00  0.00    -0.237 OA
ATOM     74  O   UNL A   1      46.068  38.074  28.898  1.00  0.00    -0.237 OA
ATOM     75  O   UNL A   1      47.848  37.417  30.472  1.00  0.00    -0.744 OA
ENDBRANCH  71  72
ENDBRANCH  50  64
BRANCH  51  76
ATOM     76  C   UNL A   1      43.245  23.501  26.996  1.00  0.00     0.058 A 
ATOM     77  C   UNL A   1      43.123  23.073  25.668  1.00  0.00     0.135 A 
ATOM     78  C   UNL A   1      42.995  22.565  28.013  1.00  0.00     0.135 A 
ATOM     79  F   UNL A   1      43.344  23.933  24.662  1.00  0.00    -0.206 F 
ATOM     80  C   UNL A   1      42.780  21.761  25.355  1.00  0.00     0.059 A 
ATOM     81  C   UNL A   1      42.671  21.243  27.725  1.00  0.00     0.059 A 
ATOM     82  F   UNL A   1      43.114  22.923  29.301  1.00  0.00    -0.206 F 
ATOM     83  C   UNL A   1      42.566  20.851  26.391  1.00  0.00     0.060 A 
BRANCH  83  84
ATOM     84  S   UNL A   1      42.221  19.127  25.972  1.00  0.00     0.124 S 
ATOM     85  O   UNL A   1      43.015  18.955  24.761  1.00  0.00    -0.237 OA
ATOM     86  O   UNL A   1      42.701  18.423  27.157  1.00  0.00    -0.237 OA
ATOM     87  O   UNL A   1      40.773  19.111  25.786  1.00  0.00    -0.744 OA
ENDBRANCH  83  84
ENDBRANCH  51  76
BRANCH  63  88
ATOM     88  C   UNL A   1      49.365  26.864  26.524  1.00  0.00     0.058 A 
ATOM     89  C   UNL A   1      50.244  26.262  27.435  1.00  0.00     0.135 A 
ATOM     90  C   UNL A   1      49.776  26.967  25.184  1.00  0.00     0.135 A 
ATOM     91  F   UNL A   1      49.902  26.147  28.729  1.00  0.00    -0.206 F 
ATOM     92  C   UNL A   1      51.485  25.778  27.035  1.00  0.00     0.059 A 
ATOM     93  C   UNL A   1      51.002  26.470  24.757  1.00  0.00     0.059 A 
ATOM     94  F   UNL A   1      48.969  27.529  24.271  1.00  0.00    -0.206 F 
ATOM     95  C   UNL A   1      51.852  25.878  25.691  1.00  0.00     0.060 A 
BRANCH  95  96
ATOM     96  S   UNL A   1      53.433  25.179  25.170  1.00  0.00     0.124 S 
ATOM     97  O   UNL A   1      53.190  23.750  25.331  1.00  0.00    -0.237 OA
ATOM     98  O   UNL A   1      53.546  25.651  23.794  1.00  0.00    -0.237 OA
ATOM     99  O   UNL A   1      54.389  25.764  26.106  1.00  0.00    -0.744 OA
ENDBRANCH  95  96
ENDBRANCH  63  88
ENDBRANCH  37  38
ENDBRANCH  29  32
ENDBRANCH  27  28
ENDBRANCH  26  27
ENDBRANCH   1  26
TORSDOF 20
ENDMDL
MODEL 3
REMARK VINA RESULT:     -11.0      5.202     10.290
REMARK SMILES Nc1cc([N+](=O)[O-])ccc1[C@H]([NH3+])C(=O)NCCCCCCNC(=O)c1ccc(-c2c3nc(c(-c4c(F)cc(S(=O)(=O)[O-])cc4F)c4ccc([nH]4)c(-c4c(F)cc(S(=O)(=O)[O-])cc4F)c4nc(c(-c5c(F)cc(S(=O)(=O)[O-])cc5F)c5ccc2[nH]5)C=C4)C=C3)cc1
REMARK SMILES IDX 19 1 18 2 17 3 16 4 15 5 13 6 14 7 11 9 10 10 2 11 3 12 4 13
REMARK SMILES IDX 9 14 8 15 1 16 5 19 6 20 7 21 12 22 20 26 21 27 22 28 23 29
REMARK SMILES IDX 24 31 25 32 26 33 90 34 27 35 89 36 28 37 29 38 30 39 83 40
REMARK SMILES IDX 31 41 88 42 82 43 84 44 32 45 87 46 81 47 80 48 33 50 67 51
REMARK SMILES IDX 46 52 66 53 47 54 50 55 65 56 85 57 48 58 49 59 64 61 86 62
REMARK SMILES IDX 51 63 34 64 35 65 44 66 36 67 37 68 43 69 45 70 38 71 39 72
REMARK SMILES IDX 40 73 41 74 42 75 68 76 69 77 78 78 70 79 71 80 77 81 79 82
REMARK SMILES IDX 72 83 73 84 74 85 75 86 76 87 52 88 53 89 62 90 54 91 55 92
REMARK SMILES IDX 61 93 63 94 56 95 57 96 58 97 59 98 60 99
REMARK H PARENT 15 8 1 17 1 18 12 23 12 24 12 25 22 30 84 49 50 60
REMARK Flexibility Score: inf
ROOT
ATOM      1  C   UNL A   1      33.132  26.075  25.278  1.00  0.00     0.002 C 
ENDROOT
BRANCH   1   2
ATOM      2  C   UNL A   1      33.791  25.204  24.204  1.00  0.00     0.002 C 
BRANCH   2   3
ATOM      3  C   UNL A   1      35.080  24.496  24.637  1.00  0.00     0.021 C 
BRANCH   3   4
ATOM      4  C   UNL A   1      35.522  23.370  23.704  1.00  0.00     0.116 C 
BRANCH   4   5
ATOM      5  N   UNL A   1      36.367  22.417  24.396  1.00  0.00    -0.351 N 
ATOM      6  C   UNL A   1      36.070  21.166  24.859  1.00  0.00     0.283 C 
ATOM      7  O   UNL A   1      36.972  20.532  25.419  1.00  0.00    -0.268 OA
ATOM      8  H   UNL A   1      37.292  22.714  24.556  1.00  0.00     0.163 HD
BRANCH   6   9
ATOM      9  C   UNL A   1      34.663  20.535  24.639  1.00  0.00     0.304 C 
BRANCH   9  10
ATOM     10  C   UNL A   1      33.546  21.312  25.356  1.00  0.00     0.042 A 
ATOM     11  C   UNL A   1      33.562  21.737  26.702  1.00  0.00     0.048 A 
ATOM     12  C   UNL A   1      32.502  22.522  27.193  1.00  0.00     0.111 A 
ATOM     13  C   UNL A   1      31.389  22.812  26.396  1.00  0.00     0.271 A 
ATOM     14  C   UNL A   1      32.388  21.597  24.584  1.00  0.00     0.020 A 
ATOM     15  C   UNL A   1      31.324  22.344  25.087  1.00  0.00     0.086 A 
BRANCH  11  16
ATOM     16  N   UNL A   1      34.637  21.521  27.559  1.00  0.00    -0.398 N 
ATOM     17  H   UNL A   1      34.730  22.059  28.378  1.00  0.00     0.156 HD
ATOM     18  H   UNL A   1      35.304  20.829  27.346  1.00  0.00     0.156 HD
ENDBRANCH  11  16
BRANCH  13  19
ATOM     19  N   UNL A   1      30.272  23.584  26.950  1.00  0.00     0.062 N 
ATOM     20  O   UNL A   1      30.191  24.780  26.644  1.00  0.00    -0.258 OA
ATOM     21  O   UNL A   1      29.493  22.995  27.713  1.00  0.00    -0.258 OA
ENDBRANCH  13  19
ENDBRANCH   9  10
BRANCH   9  22
ATOM     22  N   UNL A   1      34.768  19.085  24.900  1.00  0.00    -0.343 N 
ATOM     23  H   UNL A   1      33.973  18.605  24.477  1.00  0.00     0.345 HD
ATOM     24  H   UNL A   1      34.768  18.919  25.906  1.00  0.00     0.345 HD
ATOM     25  H   UNL A   1      35.634  18.728  24.496  1.00  0.00     0.345 HD
ENDBRANCH   9  22
ENDBRANCH   6   9
ENDBRANCH   4   5
ENDBRANCH   3   4
ENDBRANCH   2   3
ENDBRANCH   1   2
BRANCH   1  26
ATOM     26  C   UNL A   1      33.589  27.536  25.300  1.00  0.00     0.021 C 
BRANCH  26  27
ATOM     27  C   UNL A   1      34.229  27.984  26.609  1.00  0.00     0.116 C 
BRANCH  27  28
ATOM     28  N   UNL A   1      33.803  29.319  27.003  1.00  0.00    -0.352 N 
ATOM     29  C   UNL A   1      34.464  30.241  27.775  1.00  0.00     0.251 C 
ATOM     30  H   UNL A   1      32.918  29.597  26.672  1.00  0.00     0.163 HD
ATOM     31  O   UNL A   1      33.887  31.253  28.162  1.00  0.00    -0.269 OA
BRANCH  29  32
ATOM     32  C   UNL A   1      35.871  29.995  28.156  1.00  0.00     0.039 A 
ATOM     33  C   UNL A   1      36.161  29.565  29.453  1.00  0.00     0.014 A 
ATOM     34  C   UNL A   1      36.898  30.174  27.225  1.00  0.00     0.014 A 
ATOM     35  C   UNL A   1      37.477  29.254  29.800  1.00  0.00     0.010 A 
ATOM     36  C   UNL A   1      38.197  29.798  27.552  1.00  0.00     0.010 A 
ATOM     37  C   UNL A   1      38.501  29.336  28.842  1.00  0.00    -0.014 A 
BRANCH  37  38
ATOM     38  C   UNL A   1      39.898  28.949  29.158  1.00  0.00     0.031 A 
ATOM     39  C   UNL A   1      40.851  29.971  29.713  1.00  0.00     0.074 A 
ATOM     40  C   UNL A   1      40.338  27.715  28.844  1.00  0.00     0.049 A 
ATOM     41  N   UNL A   1      42.137  29.871  29.929  1.00  0.00    -0.248 NA
ATOM     42  C   UNL A   1      40.287  31.291  30.033  1.00  0.00     0.031 C 
ATOM     43  C   UNL A   1      39.524  26.654  28.249  1.00  0.00     0.029 A 
ATOM     44  N   UNL A   1      41.586  27.154  28.954  1.00  0.00    -0.354 N 
ATOM     45  C   UNL A   1      42.542  31.122  30.380  1.00  0.00     0.074 A 
ATOM     46  C   UNL A   1      41.373  31.974  30.365  1.00  0.00     0.031 C 
ATOM     47  C   UNL A   1      40.292  25.573  28.043  1.00  0.00     0.029 A 
ATOM     48  C   UNL A   1      41.660  25.875  28.455  1.00  0.00     0.049 A 
ATOM     49  H   UNL A   1      42.354  27.623  29.352  1.00  0.00     0.167 HD
ATOM     50  C   UNL A   1      43.773  31.518  30.782  1.00  0.00     0.037 A 
ATOM     51  C   UNL A   1      42.713  25.045  28.323  1.00  0.00     0.037 A 
ATOM     52  C   UNL A   1      44.923  30.654  30.821  1.00  0.00     0.049 A 
ATOM     53  C   UNL A   1      44.067  25.492  28.800  1.00  0.00     0.074 A 
ATOM     54  C   UNL A   1      46.192  30.932  31.296  1.00  0.00     0.029 A 
ATOM     55  N   UNL A   1      44.945  29.344  30.361  1.00  0.00    -0.354 N 
ATOM     56  N   UNL A   1      44.419  26.651  29.303  1.00  0.00    -0.248 NA
ATOM     57  C   UNL A   1      45.165  24.520  28.703  1.00  0.00     0.031 C 
ATOM     58  C   UNL A   1      46.995  29.807  31.078  1.00  0.00     0.029 A 
ATOM     59  C   UNL A   1      46.213  28.810  30.516  1.00  0.00     0.049 A 
ATOM     60  H   UNL A   1      44.173  28.866  29.981  1.00  0.00     0.167 HD
ATOM     61  C   UNL A   1      45.772  26.543  29.603  1.00  0.00     0.074 A 
ATOM     62  C   UNL A   1      46.175  25.202  29.230  1.00  0.00     0.031 C 
ATOM     63  C   UNL A   1      46.600  27.470  30.144  1.00  0.00     0.037 A 
BRANCH  50  64
ATOM     64  C   UNL A   1      43.936  32.958  31.193  1.00  0.00     0.058 A 
ATOM     65  C   UNL A   1      43.723  33.380  32.515  1.00  0.00     0.135 A 
ATOM     66  C   UNL A   1      44.302  33.928  30.247  1.00  0.00     0.135 A 
ATOM     67  F   UNL A   1      43.362  32.496  33.458  1.00  0.00    -0.206 F 
ATOM     68  C   UNL A   1      43.815  34.721  32.874  1.00  0.00     0.059 A 
ATOM     69  C   UNL A   1      44.429  35.271  30.590  1.00  0.00     0.059 A 
ATOM     70  F   UNL A   1      44.522  33.580  28.969  1.00  0.00    -0.206 F 
ATOM     71  C   UNL A   1      44.158  35.662  31.900  1.00  0.00     0.060 A 
BRANCH  71  72
ATOM     72  S   UNL A   1      44.230  37.403  32.368  1.00  0.00     0.124 S 
ATOM     73  O   UNL A   1      43.204  37.467  33.404  1.00  0.00    -0.237 OA
ATOM     74  O   UNL A   1      45.607  37.548  32.831  1.00  0.00    -0.237 OA
ATOM     75  O   UNL A   1      43.913  38.101  31.126  1.00  0.00    -0.744 OA
ENDBRANCH  71  72
ENDBRANCH  50  64
BRANCH  51  76
ATOM     76  C   UNL A   1      42.506  23.702  27.722  1.00  0.00     0.058 A 
ATOM     77  C   UNL A   1      42.524  23.522  26.333  1.00  0.00     0.135 A 
ATOM     78  C   UNL A   1      42.363  22.562  28.530  1.00  0.00     0.135 A 
ATOM     79  F   UNL A   1      42.651  24.582  25.520  1.00  0.00    -0.206 F 
ATOM     80  C   UNL A   1      42.418  22.258  25.761  1.00  0.00     0.059 A 
ATOM     81  C   UNL A   1      42.276  21.285  27.982  1.00  0.00     0.059 A 
ATOM     82  F   UNL A   1      42.357  22.681  29.866  1.00  0.00    -0.206 F 
ATOM     83  C   UNL A   1      42.306  21.144  26.596  1.00  0.00     0.060 A 
BRANCH  83  84
ATOM     84  S   UNL A   1      42.271  19.500  25.846  1.00  0.00     0.124 S 
ATOM     85  O   UNL A   1      42.634  18.654  26.976  1.00  0.00    -0.237 OA
ATOM     86  O   UNL A   1      40.887  19.402  25.392  1.00  0.00    -0.237 OA
ATOM     87  O   UNL A   1      43.266  19.597  24.782  1.00  0.00    -0.744 OA
ENDBRANCH  83  84
ENDBRANCH  51  76
BRANCH  63  88
ATOM     88  C   UNL A   1      48.027  27.070  30.399  1.00  0.00     0.058 A 
ATOM     89  C   UNL A   1      49.044  27.342  29.473  1.00  0.00     0.135 A 
ATOM     90  C   UNL A   1      48.393  26.499  31.629  1.00  0.00     0.135 A 
ATOM     91  F   UNL A   1      48.747  27.880  28.279  1.00  0.00    -0.206 F 
ATOM     92  C   UNL A   1      50.377  27.058  29.755  1.00  0.00     0.059 A 
ATOM     93  C   UNL A   1      49.720  26.229  31.942  1.00  0.00     0.059 A 
ATOM     94  F   UNL A   1      47.457  26.227  32.552  1.00  0.00    -0.206 F 
ATOM     95  C   UNL A   1      50.707  26.510  30.997  1.00  0.00     0.060 A 
BRANCH  95  96
ATOM     96  S   UNL A   1      52.446  26.217  31.381  1.00  0.00     0.124 S 
ATOM     97  O   UNL A   1      53.059  26.316  30.061  1.00  0.00    -0.237 OA
ATOM     98  O   UNL A   1      52.751  27.305  32.304  1.00  0.00    -0.237 OA
ATOM     99  O   UNL A   1      52.444  24.883  31.975  1.00  0.00    -0.744 OA
ENDBRANCH  95  96
ENDBRANCH  63  88
ENDBRANCH  37  38
ENDBRANCH  29  32
ENDBRANCH  27  28
ENDBRANCH  26  27
ENDBRANCH   1  26
TORSDOF 20
ENDMDL
