MODEL 1
REMARK VINA RESULT:     -12.7      0.000      0.000
REMARK SMILES Nc1ccc(-c2cc(Cl)cc3c2O[C@H](C(F)(F)F)C(C(=O)NCCCCCCNC(=O)c2ccc(-c4c5nc(c(-c6c(F)cc(S(=O)(=O)[O-])cc6F)c6ccc([nH]6)c(-c6c(F)cc(S(=O)(=O)[O-])cc6F)c6nc(c(-c7c(F)cc(S(=O)(=O)[O-])cc7F)c7ccc4[nH]7)C=C6)C=C5)cc2)=C3)cc1
REMARK SMILES IDX 26 1 25 2 24 3 23 4 22 5 20 6 21 7 19 9 6 10 7 11 12 12 8 13
REMARK SMILES IDX 11 14 13 15 9 16 10 17 98 18 14 19 5 20 2 21 3 22 100 23
REMARK SMILES IDX 4 24 99 25 1 26 15 29 16 30 17 31 18 32 27 33 28 34 29 35
REMARK SMILES IDX 30 36 31 38 32 39 33 40 97 41 34 42 96 43 35 44 36 45 37 46
REMARK SMILES IDX 90 47 38 48 95 49 89 50 91 51 39 52 94 53 88 54 87 55 40 57
REMARK SMILES IDX 74 58 53 59 73 60 54 61 57 62 72 63 92 64 55 65 56 66 71 68
REMARK SMILES IDX 93 69 58 70 41 71 42 72 51 73 43 74 44 75 50 76 52 77 45 78
REMARK SMILES IDX 46 79 47 80 48 81 49 82 75 83 76 84 85 85 77 86 78 87 84 88
REMARK SMILES IDX 86 89 79 90 80 91 81 92 82 93 83 94 59 95 60 96 69 97 61 98
REMARK SMILES IDX 62 99 68 100 70 101 63 102 64 103 65 104 66 105 67 106
REMARK H PARENT 22 8 1 27 1 28 29 37 91 56 57 67
REMARK Flexibility Score: inf
ROOT
ATOM      1  C   UNL A   1      37.977  21.884  25.243  1.00  0.00     0.002 C 
ENDROOT
BRANCH   1   2
ATOM      2  C   UNL A   1      36.733  21.840  24.343  1.00  0.00     0.002 C 
BRANCH   2   3
ATOM      3  C   UNL A   1      36.490  23.088  23.487  1.00  0.00     0.021 C 
BRANCH   3   4
ATOM      4  C   UNL A   1      35.045  23.580  23.496  1.00  0.00     0.116 C 
BRANCH   4   5
ATOM      5  N   UNL A   1      34.390  23.312  24.766  1.00  0.00    -0.352 N 
ATOM      6  C   UNL A   1      33.554  23.959  25.613  1.00  0.00     0.251 C 
ATOM      7  O   UNL A   1      33.217  23.313  26.611  1.00  0.00    -0.270 OA
ATOM      8  H   UNL A   1      34.616  22.416  25.103  1.00  0.00     0.163 HD
BRANCH   6   9
ATOM      9  C   UNL A   1      33.032  25.346  25.427  1.00  0.00     0.067 C 
ATOM     10  C   UNL A   1      31.766  29.333  24.884  1.00  0.00     0.026 A 
ATOM     11  C   UNL A   1      32.309  30.332  25.704  1.00  0.00     0.033 A 
ATOM     12  C   UNL A   1      32.246  28.018  25.037  1.00  0.00     0.135 A 
ATOM     13  C   UNL A   1      33.293  30.017  26.644  1.00  0.00     0.042 A 
ATOM     14  C   UNL A   1      33.226  27.697  25.983  1.00  0.00     0.019 A 
ATOM     15  O   UNL A   1      31.768  27.073  24.170  1.00  0.00    -0.475 OA
ATOM     16  Cl  UNL A   1      33.951  31.260  27.636  1.00  0.00    -0.084 Cl
ATOM     17  C   UNL A   1      33.751  28.706  26.789  1.00  0.00     0.032 A 
ATOM     18  C   UNL A   1      33.698  26.318  26.083  1.00  0.00     0.025 C 
ATOM     19  C   UNL A   1      31.825  25.694  24.605  1.00  0.00     0.314 C 
BRANCH  10  20
ATOM     20  C   UNL A   1      30.716  29.647  23.901  1.00  0.00    -0.014 A 
ATOM     21  C   UNL A   1      28.823  30.397  21.930  1.00  0.00     0.031 A 
ATOM     22  C   UNL A   1      29.826  29.475  21.636  1.00  0.00     0.026 A 
ATOM     23  C   UNL A   1      28.727  30.883  23.236  1.00  0.00     0.026 A 
ATOM     24  C   UNL A   1      30.767  29.111  22.604  1.00  0.00     0.011 A 
ATOM     25  C   UNL A   1      29.669  30.524  24.208  1.00  0.00     0.011 A 
BRANCH  21  26
ATOM     26  N   UNL A   1      27.863  30.716  20.984  1.00  0.00    -0.399 N 
ATOM     27  H   UNL A   1      27.485  30.012  20.408  1.00  0.00     0.156 HD
ATOM     28  H   UNL A   1      27.557  31.647  20.887  1.00  0.00     0.156 HD
ENDBRANCH  21  26
ENDBRANCH  10  20
BRANCH  19  29
ATOM     29  C   UNL A   1      30.502  25.320  25.296  1.00  0.00     0.429 C 
ATOM     30  F   UNL A   1      30.485  25.764  26.576  1.00  0.00    -0.167 F 
ATOM     31  F   UNL A   1      29.427  25.869  24.683  1.00  0.00    -0.167 F 
ATOM     32  F   UNL A   1      30.296  23.983  25.327  1.00  0.00    -0.167 F 
ENDBRANCH  19  29
ENDBRANCH   6   9
ENDBRANCH   4   5
ENDBRANCH   3   4
ENDBRANCH   2   3
ENDBRANCH   1   2
BRANCH   1  33
ATOM     33  C   UNL A   1      38.192  23.184  26.022  1.00  0.00     0.021 C 
BRANCH  33  34
ATOM     34  C   UNL A   1      39.434  23.211  26.905  1.00  0.00     0.116 C 
BRANCH  34  35
ATOM     35  N   UNL A   1      40.634  23.580  26.170  1.00  0.00    -0.352 N 
ATOM     36  C   UNL A   1      41.365  24.743  26.231  1.00  0.00     0.251 C 
ATOM     37  H   UNL A   1      40.969  22.902  25.540  1.00  0.00     0.163 HD
ATOM     38  O   UNL A   1      42.272  24.943  25.428  1.00  0.00    -0.269 OA
BRANCH  36  39
ATOM     39  C   UNL A   1      41.032  25.764  27.248  1.00  0.00     0.039 A 
ATOM     40  C   UNL A   1      41.694  26.995  27.265  1.00  0.00     0.014 A 
ATOM     41  C   UNL A   1      40.060  25.475  28.210  1.00  0.00     0.014 A 
ATOM     42  C   UNL A   1      41.495  27.868  28.329  1.00  0.00     0.010 A 
ATOM     43  C   UNL A   1      39.809  26.388  29.238  1.00  0.00     0.010 A 
ATOM     44  C   UNL A   1      40.557  27.572  29.331  1.00  0.00    -0.014 A 
BRANCH  44  45
ATOM     45  C   UNL A   1      40.389  28.507  30.473  1.00  0.00     0.031 A 
ATOM     46  C   UNL A   1      41.339  28.474  31.640  1.00  0.00     0.074 A 
ATOM     47  C   UNL A   1      39.413  29.434  30.425  1.00  0.00     0.049 A 
ATOM     48  N   UNL A   1      41.367  29.239  32.701  1.00  0.00    -0.248 NA
ATOM     49  C   UNL A   1      42.393  27.450  31.612  1.00  0.00     0.031 C 
ATOM     50  C   UNL A   1      38.444  29.578  29.338  1.00  0.00     0.029 A 
ATOM     51  N   UNL A   1      39.096  30.450  31.291  1.00  0.00    -0.354 N 
ATOM     52  C   UNL A   1      42.431  28.785  33.472  1.00  0.00     0.074 A 
ATOM     53  C   UNL A   1      43.003  27.654  32.772  1.00  0.00     0.031 C 
ATOM     54  C   UNL A   1      37.685  30.659  29.569  1.00  0.00     0.029 A 
ATOM     55  C   UNL A   1      38.072  31.250  30.845  1.00  0.00     0.049 A 
ATOM     56  H   UNL A   1      39.559  30.591  32.149  1.00  0.00     0.167 HD
ATOM     57  C   UNL A   1      42.898  29.273  34.648  1.00  0.00     0.037 A 
ATOM     58  C   UNL A   1      37.504  32.337  31.401  1.00  0.00     0.037 A 
ATOM     59  C   UNL A   1      42.331  30.402  35.338  1.00  0.00     0.049 A 
ATOM     60  C   UNL A   1      38.001  32.827  32.729  1.00  0.00     0.074 A 
ATOM     61  C   UNL A   1      42.732  30.971  36.535  1.00  0.00     0.029 A 
ATOM     62  N   UNL A   1      41.241  31.135  34.893  1.00  0.00    -0.354 N 
ATOM     63  N   UNL A   1      38.997  32.373  33.453  1.00  0.00    -0.248 NA
ATOM     64  C   UNL A   1      37.289  33.964  33.325  1.00  0.00     0.031 C 
ATOM     65  C   UNL A   1      41.862  32.028  36.829  1.00  0.00     0.029 A 
ATOM     66  C   UNL A   1      40.942  32.141  35.799  1.00  0.00     0.049 A 
ATOM     67  H   UNL A   1      40.749  30.967  34.057  1.00  0.00     0.167 HD
ATOM     68  C   UNL A   1      39.033  33.169  34.591  1.00  0.00     0.074 A 
ATOM     69  C   UNL A   1      37.970  34.145  34.451  1.00  0.00     0.031 C 
ATOM     70  C   UNL A   1      39.869  33.093  35.655  1.00  0.00     0.037 A 
BRANCH  57  71
ATOM     71  C   UNL A   1      44.075  28.567  35.264  1.00  0.00     0.058 A 
ATOM     72  C   UNL A   1      43.905  27.515  36.179  1.00  0.00     0.135 A 
ATOM     73  C   UNL A   1      45.388  28.947  34.940  1.00  0.00     0.135 A 
ATOM     74  F   UNL A   1      42.671  27.123  36.534  1.00  0.00    -0.206 F 
ATOM     75  C   UNL A   1      44.993  26.892  36.780  1.00  0.00     0.059 A 
ATOM     76  C   UNL A   1      46.492  28.322  35.512  1.00  0.00     0.059 A 
ATOM     77  F   UNL A   1      45.607  29.945  34.069  1.00  0.00    -0.206 F 
ATOM     78  C   UNL A   1      46.283  27.309  36.447  1.00  0.00     0.060 A 
BRANCH  78  79
ATOM     79  S   UNL A   1      47.684  26.517  37.267  1.00  0.00     0.124 S 
ATOM     80  O   UNL A   1      48.637  26.406  36.166  1.00  0.00    -0.237 OA
ATOM     81  O   UNL A   1      48.027  27.484  38.305  1.00  0.00    -0.237 OA
ATOM     82  O   UNL A   1      47.129  25.256  37.747  1.00  0.00    -0.744 OA
ENDBRANCH  78  79
ENDBRANCH  57  71
BRANCH  58  83
ATOM     83  C   UNL A   1      36.416  33.037  30.672  1.00  0.00     0.058 A 
ATOM     84  C   UNL A   1      35.085  32.917  31.092  1.00  0.00     0.135 A 
ATOM     85  C   UNL A   1      36.696  33.908  29.608  1.00  0.00     0.135 A 
ATOM     86  F   UNL A   1      34.770  32.091  32.101  1.00  0.00    -0.206 F 
ATOM     87  C   UNL A   1      34.067  33.653  30.494  1.00  0.00     0.059 A 
ATOM     88  C   UNL A   1      35.698  34.669  29.008  1.00  0.00     0.059 A 
ATOM     89  F   UNL A   1      37.959  34.064  29.181  1.00  0.00    -0.206 F 
ATOM     90  C   UNL A   1      34.386  34.538  29.462  1.00  0.00     0.060 A 
BRANCH  90  91
ATOM     91  S   UNL A   1      33.076  35.573  28.775  1.00  0.00     0.124 S 
ATOM     92  O   UNL A   1      32.401  36.035  29.983  1.00  0.00    -0.237 OA
ATOM     93  O   UNL A   1      33.837  36.581  28.042  1.00  0.00    -0.237 OA
ATOM     94  O   UNL A   1      32.317  34.645  27.942  1.00  0.00    -0.744 OA
ENDBRANCH  90  91
ENDBRANCH  58  83
BRANCH  70  95
ATOM     95  C   UNL A   1      39.666  34.089  36.760  1.00  0.00     0.058 A 
ATOM     96  C   UNL A   1      38.967  33.750  37.929  1.00  0.00     0.135 A 
ATOM     97  C   UNL A   1      40.223  35.375  36.676  1.00  0.00     0.135 A 
ATOM     98  F   UNL A   1      38.409  32.535  38.053  1.00  0.00    -0.206 F 
ATOM     99  C   UNL A   1      38.818  34.655  38.974  1.00  0.00     0.059 A 
ATOM    100  C   UNL A   1      40.102  36.290  37.718  1.00  0.00     0.059 A 
ATOM    101  F   UNL A   1      40.904  35.747  35.582  1.00  0.00    -0.206 F 
ATOM    102  C   UNL A   1      39.391  35.923  38.860  1.00  0.00     0.060 A 
BRANCH 102 103
ATOM    103  S   UNL A   1      39.225  37.074  40.241  1.00  0.00     0.124 S 
ATOM    104  O   UNL A   1      40.617  37.259  40.637  1.00  0.00    -0.237 OA
ATOM    105  O   UNL A   1      38.587  38.226  39.613  1.00  0.00    -0.237 OA
ATOM    106  O   UNL A   1      38.392  36.344  41.192  1.00  0.00    -0.744 OA
ENDBRANCH 102 103
ENDBRANCH  70  95
ENDBRANCH  44  45
ENDBRANCH  36  39
ENDBRANCH  34  35
ENDBRANCH  33  34
ENDBRANCH   1  33
TORSDOF 19
ENDMDL
MODEL 2
REMARK VINA RESULT:     -12.6      4.748      6.040
REMARK SMILES Nc1ccc(-c2cc(Cl)cc3c2O[C@H](C(F)(F)F)C(C(=O)NCCCCCCNC(=O)c2ccc(-c4c5nc(c(-c6c(F)cc(S(=O)(=O)[O-])cc6F)c6ccc([nH]6)c(-c6c(F)cc(S(=O)(=O)[O-])cc6F)c6nc(c(-c7c(F)cc(S(=O)(=O)[O-])cc7F)c7ccc4[nH]7)C=C6)C=C5)cc2)=C3)cc1
REMARK SMILES IDX 26 1 25 2 24 3 23 4 22 5 20 6 21 7 19 9 6 10 7 11 12 12 8 13
REMARK SMILES IDX 11 14 13 15 9 16 10 17 98 18 14 19 5 20 2 21 3 22 100 23
REMARK SMILES IDX 4 24 99 25 1 26 15 29 16 30 17 31 18 32 27 33 28 34 29 35
REMARK SMILES IDX 30 36 31 38 32 39 33 40 97 41 34 42 96 43 35 44 36 45 37 46
REMARK SMILES IDX 90 47 38 48 95 49 89 50 91 51 39 52 94 53 88 54 87 55 40 57
REMARK SMILES IDX 74 58 53 59 73 60 54 61 57 62 72 63 92 64 55 65 56 66 71 68
REMARK SMILES IDX 93 69 58 70 41 71 42 72 51 73 43 74 44 75 50 76 52 77 45 78
REMARK SMILES IDX 46 79 47 80 48 81 49 82 75 83 76 84 85 85 77 86 78 87 84 88
REMARK SMILES IDX 86 89 79 90 80 91 81 92 82 93 83 94 59 95 60 96 69 97 61 98
REMARK SMILES IDX 62 99 68 100 70 101 63 102 64 103 65 104 66 105 67 106
REMARK H PARENT 22 8 1 27 1 28 29 37 91 56 57 67
REMARK Flexibility Score: inf
ROOT
ATOM      1  C   UNL A   1      35.375  21.794  24.716  1.00  0.00     0.002 C 
ENDROOT
BRANCH   1   2
ATOM      2  C   UNL A   1      33.995  21.433  24.150  1.00  0.00     0.002 C 
BRANCH   2   3
ATOM      3  C   UNL A   1      32.903  21.158  25.189  1.00  0.00     0.021 C 
BRANCH   3   4
ATOM      4  C   UNL A   1      31.527  21.702  24.810  1.00  0.00     0.116 C 
BRANCH   4   5
ATOM      5  N   UNL A   1      30.735  22.033  25.983  1.00  0.00    -0.352 N 
ATOM      6  C   UNL A   1      30.341  23.152  26.636  1.00  0.00     0.251 C 
ATOM      7  O   UNL A   1      29.621  22.958  27.621  1.00  0.00    -0.270 OA
ATOM      8  H   UNL A   1      30.391  21.224  26.423  1.00  0.00     0.163 HD
BRANCH   6   9
ATOM      9  C   UNL A   1      30.705  24.552  26.260  1.00  0.00     0.067 C 
ATOM     10  C   UNL A   1      31.518  28.555  25.209  1.00  0.00     0.026 A 
ATOM     11  C   UNL A   1      30.820  29.127  24.136  1.00  0.00     0.033 A 
ATOM     12  C   UNL A   1      31.189  27.238  25.586  1.00  0.00     0.135 A 
ATOM     13  C   UNL A   1      29.833  28.399  23.467  1.00  0.00     0.042 A 
ATOM     14  C   UNL A   1      30.207  26.503  24.913  1.00  0.00     0.019 A 
ATOM     15  O   UNL A   1      31.819  26.728  26.688  1.00  0.00    -0.475 OA
ATOM     16  Cl  UNL A   1      28.983  29.124  22.158  1.00  0.00    -0.084 Cl
ATOM     17  C   UNL A   1      29.526  27.091  23.848  1.00  0.00     0.032 A 
ATOM     18  C   UNL A   1      29.897  25.148  25.361  1.00  0.00     0.025 C 
ATOM     19  C   UNL A   1      31.903  25.286  26.787  1.00  0.00     0.314 C 
BRANCH  10  20
ATOM     20  C   UNL A   1      32.572  29.304  25.913  1.00  0.00    -0.014 A 
ATOM     21  C   UNL A   1      34.573  30.619  27.429  1.00  0.00     0.031 A 
ATOM     22  C   UNL A   1      34.877  29.476  26.692  1.00  0.00     0.026 A 
ATOM     23  C   UNL A   1      33.281  31.143  27.343  1.00  0.00     0.026 A 
ATOM     24  C   UNL A   1      33.889  28.820  25.951  1.00  0.00     0.011 A 
ATOM     25  C   UNL A   1      32.287  30.488  26.605  1.00  0.00     0.011 A 
BRANCH  21  26
ATOM     26  N   UNL A   1      35.565  31.294  28.121  1.00  0.00    -0.399 N 
ATOM     27  H   UNL A   1      36.141  31.939  27.652  1.00  0.00     0.156 HD
ATOM     28  H   UNL A   1      35.694  31.128  29.083  1.00  0.00     0.156 HD
ENDBRANCH  21  26
ENDBRANCH  10  20
BRANCH  19  29
ATOM     29  C   UNL A   1      33.224  24.806  26.161  1.00  0.00     0.429 C 
ATOM     30  F   UNL A   1      33.700  23.720  26.817  1.00  0.00    -0.167 F 
ATOM     31  F   UNL A   1      33.078  24.440  24.866  1.00  0.00    -0.167 F 
ATOM     32  F   UNL A   1      34.187  25.755  26.195  1.00  0.00    -0.167 F 
ENDBRANCH  19  29
ENDBRANCH   6   9
ENDBRANCH   4   5
ENDBRANCH   3   4
ENDBRANCH   2   3
ENDBRANCH   1   2
BRANCH   1  33
ATOM     33  C   UNL A   1      35.955  23.134  24.257  1.00  0.00     0.021 C 
BRANCH  33  34
ATOM     34  C   UNL A   1      37.078  23.685  25.129  1.00  0.00     0.116 C 
BRANCH  34  35
ATOM     35  N   UNL A   1      37.960  22.643  25.629  1.00  0.00    -0.352 N 
ATOM     36  C   UNL A   1      39.122  22.764  26.355  1.00  0.00     0.251 C 
ATOM     37  H   UNL A   1      37.687  21.721  25.418  1.00  0.00     0.163 HD
ATOM     38  O   UNL A   1      39.819  21.777  26.569  1.00  0.00    -0.269 OA
BRANCH  36  39
ATOM     39  C   UNL A   1      39.541  24.094  26.849  1.00  0.00     0.039 A 
ATOM     40  C   UNL A   1      40.118  25.026  25.982  1.00  0.00     0.014 A 
ATOM     41  C   UNL A   1      39.374  24.401  28.202  1.00  0.00     0.014 A 
ATOM     42  C   UNL A   1      40.665  26.197  26.496  1.00  0.00     0.010 A 
ATOM     43  C   UNL A   1      39.860  25.612  28.703  1.00  0.00     0.010 A 
ATOM     44  C   UNL A   1      40.550  26.500  27.863  1.00  0.00    -0.014 A 
BRANCH  44  45
ATOM     45  C   UNL A   1      41.172  27.742  28.391  1.00  0.00     0.031 A 
ATOM     46  C   UNL A   1      42.652  27.978  28.253  1.00  0.00     0.074 A 
ATOM     47  C   UNL A   1      40.386  28.689  28.937  1.00  0.00     0.049 A 
ATOM     48  N   UNL A   1      43.357  29.017  28.618  1.00  0.00    -0.248 NA
ATOM     49  C   UNL A   1      43.442  26.908  27.624  1.00  0.00     0.031 C 
ATOM     50  C   UNL A   1      38.937  28.583  29.107  1.00  0.00     0.029 A 
ATOM     51  N   UNL A   1      40.689  29.938  29.419  1.00  0.00    -0.354 N 
ATOM     52  C   UNL A   1      44.673  28.726  28.275  1.00  0.00     0.074 A 
ATOM     53  C   UNL A   1      44.672  27.396  27.703  1.00  0.00     0.031 C 
ATOM     54  C   UNL A   1      38.467  29.742  29.591  1.00  0.00     0.029 A 
ATOM     55  C   UNL A   1      39.586  30.651  29.821  1.00  0.00     0.049 A 
ATOM     56  H   UNL A   1      41.607  30.288  29.469  1.00  0.00     0.167 HD
ATOM     57  C   UNL A   1      45.778  29.500  28.411  1.00  0.00     0.037 A 
ATOM     58  C   UNL A   1      39.483  31.896  30.323  1.00  0.00     0.037 A 
ATOM     59  C   UNL A   1      45.774  30.825  28.975  1.00  0.00     0.049 A 
ATOM     60  C   UNL A   1      40.726  32.714  30.516  1.00  0.00     0.074 A 
ATOM     61  C   UNL A   1      46.841  31.688  29.156  1.00  0.00     0.029 A 
ATOM     62  N   UNL A   1      44.647  31.480  29.448  1.00  0.00    -0.354 N 
ATOM     63  N   UNL A   1      41.964  32.415  30.203  1.00  0.00    -0.248 NA
ATOM     64  C   UNL A   1      40.561  34.031  31.145  1.00  0.00     0.031 C 
ATOM     65  C   UNL A   1      46.363  32.852  29.770  1.00  0.00     0.029 A 
ATOM     66  C   UNL A   1      44.993  32.730  29.938  1.00  0.00     0.049 A 
ATOM     67  H   UNL A   1      43.733  31.113  29.438  1.00  0.00     0.167 HD
ATOM     68  C   UNL A   1      42.729  33.506  30.596  1.00  0.00     0.074 A 
ATOM     69  C   UNL A   1      41.810  34.480  31.153  1.00  0.00     0.031 C 
ATOM     70  C   UNL A   1      44.070  33.681  30.506  1.00  0.00     0.037 A 
BRANCH  57  71
ATOM     71  C   UNL A   1      47.086  28.915  27.954  1.00  0.00     0.058 A 
ATOM     72  C   UNL A   1      47.952  28.263  28.846  1.00  0.00     0.135 A 
ATOM     73  C   UNL A   1      47.481  29.007  26.609  1.00  0.00     0.135 A 
ATOM     74  F   UNL A   1      47.630  28.160  30.146  1.00  0.00    -0.206 F 
ATOM     75  C   UNL A   1      49.180  27.760  28.431  1.00  0.00     0.059 A 
ATOM     76  C   UNL A   1      48.694  28.490  26.166  1.00  0.00     0.059 A 
ATOM     77  F   UNL A   1      46.689  29.618  25.713  1.00  0.00    -0.206 F 
ATOM     78  C   UNL A   1      49.547  27.887  27.090  1.00  0.00     0.060 A 
BRANCH  78  79
ATOM     79  S   UNL A   1      51.162  27.264  26.574  1.00  0.00     0.124 S 
ATOM     80  O   UNL A   1      50.859  26.746  25.243  1.00  0.00    -0.237 OA
ATOM     81  O   UNL A   1      51.988  28.467  26.611  1.00  0.00    -0.237 OA
ATOM     82  O   UNL A   1      51.477  26.259  27.583  1.00  0.00    -0.744 OA
ENDBRANCH  78  79
ENDBRANCH  57  71
BRANCH  58  83
ATOM     83  C   UNL A   1      38.139  32.436  30.649  1.00  0.00     0.058 A 
ATOM     84  C   UNL A   1      37.527  32.133  31.873  1.00  0.00     0.135 A 
ATOM     85  C   UNL A   1      37.486  33.334  29.791  1.00  0.00     0.135 A 
ATOM     86  F   UNL A   1      38.111  31.274  32.722  1.00  0.00    -0.206 F 
ATOM     87  C   UNL A   1      36.321  32.718  32.245  1.00  0.00     0.059 A 
ATOM     88  C   UNL A   1      36.290  33.946  30.150  1.00  0.00     0.059 A 
ATOM     89  F   UNL A   1      38.042  33.663  28.614  1.00  0.00    -0.206 F 
ATOM     90  C   UNL A   1      35.718  33.636  31.383  1.00  0.00     0.060 A 
BRANCH  90  91
ATOM     91  S   UNL A   1      34.216  34.476  31.928  1.00  0.00     0.124 S 
ATOM     92  O   UNL A   1      34.757  35.693  32.522  1.00  0.00    -0.237 OA
ATOM     93  O   UNL A   1      33.489  34.645  30.673  1.00  0.00    -0.237 OA
ATOM     94  O   UNL A   1      33.621  33.526  32.864  1.00  0.00    -0.744 OA
ENDBRANCH  90  91
ENDBRANCH  58  83
BRANCH  70  95
ATOM     95  C   UNL A   1      44.631  34.972  31.028  1.00  0.00     0.058 A 
ATOM     96  C   UNL A   1      44.699  36.117  30.220  1.00  0.00     0.135 A 
ATOM     97  C   UNL A   1      45.051  35.083  32.363  1.00  0.00     0.135 A 
ATOM     98  F   UNL A   1      44.317  36.060  28.934  1.00  0.00    -0.206 F 
ATOM     99  C   UNL A   1      45.174  37.327  30.714  1.00  0.00     0.059 A 
ATOM    100  C   UNL A   1      45.512  36.288  32.884  1.00  0.00     0.059 A 
ATOM    101  F   UNL A   1      45.002  34.018  33.178  1.00  0.00    -0.206 F 
ATOM    102  C   UNL A   1      45.577  37.403  32.049  1.00  0.00     0.060 A 
BRANCH 102 103
ATOM    103  S   UNL A   1      46.153  38.990  32.689  1.00  0.00     0.124 S 
ATOM    104  O   UNL A   1      46.065  38.776  34.129  1.00  0.00    -0.237 OA
ATOM    105  O   UNL A   1      47.505  39.075  32.143  1.00  0.00    -0.237 OA
ATOM    106  O   UNL A   1      45.199  39.946  32.135  1.00  0.00    -0.744 OA
ENDBRANCH 102 103
ENDBRANCH  70  95
ENDBRANCH  44  45
ENDBRANCH  36  39
ENDBRANCH  34  35
ENDBRANCH  33  34
ENDBRANCH   1  33
TORSDOF 19
ENDMDL
MODEL 3
REMARK VINA RESULT:     -12.4      2.961      8.965
REMARK SMILES Nc1ccc(-c2cc(Cl)cc3c2O[C@H](C(F)(F)F)C(C(=O)NCCCCCCNC(=O)c2ccc(-c4c5nc(c(-c6c(F)cc(S(=O)(=O)[O-])cc6F)c6ccc([nH]6)c(-c6c(F)cc(S(=O)(=O)[O-])cc6F)c6nc(c(-c7c(F)cc(S(=O)(=O)[O-])cc7F)c7ccc4[nH]7)C=C6)C=C5)cc2)=C3)cc1
REMARK SMILES IDX 26 1 25 2 24 3 23 4 22 5 20 6 21 7 19 9 6 10 7 11 12 12 8 13
REMARK SMILES IDX 11 14 13 15 9 16 10 17 98 18 14 19 5 20 2 21 3 22 100 23
REMARK SMILES IDX 4 24 99 25 1 26 15 29 16 30 17 31 18 32 27 33 28 34 29 35
REMARK SMILES IDX 30 36 31 38 32 39 33 40 97 41 34 42 96 43 35 44 36 45 37 46
REMARK SMILES IDX 90 47 38 48 95 49 89 50 91 51 39 52 94 53 88 54 87 55 40 57
REMARK SMILES IDX 74 58 53 59 73 60 54 61 57 62 72 63 92 64 55 65 56 66 71 68
REMARK SMILES IDX 93 69 58 70 41 71 42 72 51 73 43 74 44 75 50 76 52 77 45 78
REMARK SMILES IDX 46 79 47 80 48 81 49 82 75 83 76 84 85 85 77 86 78 87 84 88
REMARK SMILES IDX 86 89 79 90 80 91 81 92 82 93 83 94 59 95 60 96 69 97 61 98
REMARK SMILES IDX 62 99 68 100 70 101 63 102 64 103 65 104 66 105 67 106
REMARK H PARENT 22 8 1 27 1 28 29 37 91 56 57 67
REMARK Flexibility Score: inf
ROOT
ATOM      1  C   UNL A   1      35.081  33.045  28.700  1.00  0.00     0.002 C 
ENDROOT
BRANCH   1   2
ATOM      2  C   UNL A   1      34.990  31.519  28.841  1.00  0.00     0.002 C 
BRANCH   2   3
ATOM      3  C   UNL A   1      35.900  30.711  27.911  1.00  0.00     0.021 C 
BRANCH   3   4
ATOM      4  C   UNL A   1      35.179  29.623  27.119  1.00  0.00     0.116 C 
BRANCH   4   5
ATOM      5  N   UNL A   1      33.930  30.105  26.552  1.00  0.00    -0.352 N 
ATOM      6  C   UNL A   1      32.945  29.624  25.756  1.00  0.00     0.251 C 
ATOM      7  O   UNL A   1      32.017  30.411  25.538  1.00  0.00    -0.270 OA
ATOM      8  H   UNL A   1      33.752  31.036  26.817  1.00  0.00     0.163 HD
BRANCH   6   9
ATOM      9  C   UNL A   1      32.907  28.260  25.150  1.00  0.00     0.067 C 
ATOM     10  C   UNL A   1      32.961  24.468  23.303  1.00  0.00     0.026 A 
ATOM     11  C   UNL A   1      32.861  24.396  21.906  1.00  0.00     0.033 A 
ATOM     12  C   UNL A   1      33.004  25.744  23.897  1.00  0.00     0.135 A 
ATOM     13  C   UNL A   1      32.803  25.562  21.141  1.00  0.00     0.042 A 
ATOM     14  C   UNL A   1      32.938  26.915  23.135  1.00  0.00     0.019 A 
ATOM     15  O   UNL A   1      33.189  25.796  25.252  1.00  0.00    -0.475 OA
ATOM     16  Cl  UNL A   1      32.688  25.450  19.427  1.00  0.00    -0.084 Cl
ATOM     17  C   UNL A   1      32.838  26.820  21.747  1.00  0.00     0.032 A 
ATOM     18  C   UNL A   1      33.006  28.210  23.806  1.00  0.00     0.025 C 
ATOM     19  C   UNL A   1      32.733  26.990  25.931  1.00  0.00     0.314 C 
BRANCH  10  20
ATOM     20  C   UNL A   1      33.007  23.247  24.123  1.00  0.00    -0.014 A 
ATOM     21  C   UNL A   1      33.073  20.787  25.528  1.00  0.00     0.031 A 
ATOM     22  C   UNL A   1      34.234  21.313  24.963  1.00  0.00     0.026 A 
ATOM     23  C   UNL A   1      31.896  21.535  25.452  1.00  0.00     0.026 A 
ATOM     24  C   UNL A   1      34.201  22.522  24.261  1.00  0.00     0.011 A 
ATOM     25  C   UNL A   1      31.858  22.745  24.747  1.00  0.00     0.011 A 
BRANCH  21  26
ATOM     26  N   UNL A   1      33.119  19.615  26.266  1.00  0.00    -0.399 N 
ATOM     27  H   UNL A   1      32.537  19.505  27.052  1.00  0.00     0.156 HD
ATOM     28  H   UNL A   1      33.734  18.893  26.004  1.00  0.00     0.156 HD
ENDBRANCH  21  26
ENDBRANCH  10  20
BRANCH  19  29
ATOM     29  C   UNL A   1      31.289  26.781  26.422  1.00  0.00     0.429 C 
ATOM     30  F   UNL A   1      30.404  27.006  25.421  1.00  0.00    -0.167 F 
ATOM     31  F   UNL A   1      31.070  25.517  26.854  1.00  0.00    -0.167 F 
ATOM     32  F   UNL A   1      30.966  27.607  27.443  1.00  0.00    -0.167 F 
ENDBRANCH  19  29
ENDBRANCH   6   9
ENDBRANCH   4   5
ENDBRANCH   3   4
ENDBRANCH   2   3
ENDBRANCH   1   2
BRANCH   1  33
ATOM     33  C   UNL A   1      33.747  33.794  28.680  1.00  0.00     0.021 C 
BRANCH  33  34
ATOM     34  C   UNL A   1      33.813  35.246  29.140  1.00  0.00     0.116 C 
BRANCH  34  35
ATOM     35  N   UNL A   1      32.851  35.545  30.189  1.00  0.00    -0.352 N 
ATOM     36  C   UNL A   1      32.910  35.246  31.530  1.00  0.00     0.251 C 
ATOM     37  H   UNL A   1      32.045  36.028  29.898  1.00  0.00     0.163 HD
ATOM     38  O   UNL A   1      31.935  35.447  32.248  1.00  0.00    -0.269 OA
BRANCH  36  39
ATOM     39  C   UNL A   1      34.141  34.653  32.095  1.00  0.00     0.039 A 
ATOM     40  C   UNL A   1      35.343  35.367  32.091  1.00  0.00     0.014 A 
ATOM     41  C   UNL A   1      34.095  33.356  32.614  1.00  0.00     0.014 A 
ATOM     42  C   UNL A   1      36.522  34.730  32.462  1.00  0.00     0.010 A 
ATOM     43  C   UNL A   1      35.272  32.744  33.056  1.00  0.00     0.010 A 
ATOM     44  C   UNL A   1      36.502  33.410  32.941  1.00  0.00    -0.014 A 
BRANCH  44  45
ATOM     45  C   UNL A   1      37.781  32.744  33.300  1.00  0.00     0.031 A 
ATOM     46  C   UNL A   1      38.458  33.036  34.612  1.00  0.00     0.074 A 
ATOM     47  C   UNL A   1      38.297  31.821  32.466  1.00  0.00     0.049 A 
ATOM     48  N   UNL A   1      39.555  32.520  35.105  1.00  0.00    -0.248 NA
ATOM     49  C   UNL A   1      37.823  34.038  35.481  1.00  0.00     0.031 C 
ATOM     50  C   UNL A   1      37.721  31.438  31.177  1.00  0.00     0.029 A 
ATOM     51  N   UNL A   1      39.401  31.016  32.591  1.00  0.00    -0.354 N 
ATOM     52  C   UNL A   1      39.748  33.139  36.335  1.00  0.00     0.074 A 
ATOM     53  C   UNL A   1      38.673  34.095  36.497  1.00  0.00     0.031 C 
ATOM     54  C   UNL A   1      38.435  30.427  30.661  1.00  0.00     0.029 A 
ATOM     55  C   UNL A   1      39.552  30.130  31.552  1.00  0.00     0.049 A 
ATOM     56  H   UNL A   1      40.022  31.067  33.353  1.00  0.00     0.167 HD
ATOM     57  C   UNL A   1      40.723  32.921  37.252  1.00  0.00     0.037 A 
ATOM     58  C   UNL A   1      40.487  29.185  31.335  1.00  0.00     0.037 A 
ATOM     59  C   UNL A   1      41.787  31.965  37.090  1.00  0.00     0.049 A 
ATOM     60  C   UNL A   1      41.588  28.999  32.337  1.00  0.00     0.074 A 
ATOM     61  C   UNL A   1      42.823  31.672  37.961  1.00  0.00     0.029 A 
ATOM     62  N   UNL A   1      41.953  31.145  35.984  1.00  0.00    -0.354 N 
ATOM     63  N   UNL A   1      41.766  29.607  33.486  1.00  0.00    -0.248 NA
ATOM     64  C   UNL A   1      42.626  28.013  32.007  1.00  0.00     0.031 C 
ATOM     65  C   UNL A   1      43.633  30.698  37.365  1.00  0.00     0.029 A 
ATOM     66  C   UNL A   1      43.083  30.357  36.140  1.00  0.00     0.049 A 
ATOM     67  H   UNL A   1      41.356  31.124  35.202  1.00  0.00     0.167 HD
ATOM     68  C   UNL A   1      42.934  29.077  34.019  1.00  0.00     0.074 A 
ATOM     69  C   UNL A   1      43.412  28.086  33.074  1.00  0.00     0.031 C 
ATOM     70  C   UNL A   1      43.555  29.389  35.182  1.00  0.00     0.037 A 
BRANCH  57  71
ATOM     71  C   UNL A   1      40.685  33.753  38.505  1.00  0.00     0.058 A 
ATOM     72  C   UNL A   1      39.821  33.442  39.568  1.00  0.00     0.135 A 
ATOM     73  C   UNL A   1      41.518  34.874  38.646  1.00  0.00     0.135 A 
ATOM     74  F   UNL A   1      38.993  32.389  39.479  1.00  0.00    -0.206 F 
ATOM     75  C   UNL A   1      39.756  34.235  40.708  1.00  0.00     0.059 A 
ATOM     76  C   UNL A   1      41.487  35.669  39.787  1.00  0.00     0.059 A 
ATOM     77  F   UNL A   1      42.365  35.215  37.661  1.00  0.00    -0.206 F 
ATOM     78  C   UNL A   1      40.587  35.353  40.805  1.00  0.00     0.060 A 
BRANCH  78  79
ATOM     79  S   UNL A   1      40.462  36.397  42.273  1.00  0.00     0.124 S 
ATOM     80  O   UNL A   1      39.089  36.881  42.167  1.00  0.00    -0.237 OA
ATOM     81  O   UNL A   1      40.718  35.450  43.354  1.00  0.00    -0.237 OA
ATOM     82  O   UNL A   1      41.499  37.402  42.064  1.00  0.00    -0.744 OA
ENDBRANCH  78  79
ENDBRANCH  57  71
BRANCH  58  83
ATOM     83  C   UNL A   1      40.389  28.335  30.121  1.00  0.00     0.058 A 
ATOM     84  C   UNL A   1      41.245  28.546  29.032  1.00  0.00     0.135 A 
ATOM     85  C   UNL A   1      39.508  27.245  30.065  1.00  0.00     0.135 A 
ATOM     86  F   UNL A   1      42.099  29.581  29.040  1.00  0.00    -0.206 F 
ATOM     87  C   UNL A   1      41.246  27.692  27.935  1.00  0.00     0.059 A 
ATOM     88  C   UNL A   1      39.505  26.365  28.988  1.00  0.00     0.059 A 
ATOM     89  F   UNL A   1      38.679  26.997  31.092  1.00  0.00    -0.206 F 
ATOM     90  C   UNL A   1      40.382  26.595  27.929  1.00  0.00     0.060 A 
BRANCH  90  91
ATOM     91  S   UNL A   1      40.477  25.428  26.554  1.00  0.00     0.124 S 
ATOM     92  O   UNL A   1      40.897  26.295  25.459  1.00  0.00    -0.237 OA
ATOM     93  O   UNL A   1      41.473  24.474  27.032  1.00  0.00    -0.237 OA
ATOM     94  O   UNL A   1      39.116  24.907  26.462  1.00  0.00    -0.744 OA
ENDBRANCH  90  91
ENDBRANCH  58  83
BRANCH  70  95
ATOM     95  C   UNL A   1      44.827  28.655  35.501  1.00  0.00     0.058 A 
ATOM     96  C   UNL A   1      44.810  27.432  36.189  1.00  0.00     0.135 A 
ATOM     97  C   UNL A   1      46.066  29.148  35.064  1.00  0.00     0.135 A 
ATOM     98  F   UNL A   1      43.650  26.924  36.635  1.00  0.00    -0.206 F 
ATOM     99  C   UNL A   1      45.981  26.727  36.444  1.00  0.00     0.059 A 
ATOM    100  C   UNL A   1      47.249  28.449  35.291  1.00  0.00     0.059 A 
ATOM    101  F   UNL A   1      46.135  30.310  34.397  1.00  0.00    -0.206 F 
ATOM    102  C   UNL A   1      47.197  27.243  35.989  1.00  0.00     0.060 A 
BRANCH 102 103
ATOM    103  S   UNL A   1      48.704  26.297  36.290  1.00  0.00     0.124 S 
ATOM    104  O   UNL A   1      49.154  26.858  37.560  1.00  0.00    -0.237 OA
ATOM    105  O   UNL A   1      48.207  24.926  36.345  1.00  0.00    -0.237 OA
ATOM    106  O   UNL A   1      49.538  26.610  35.134  1.00  0.00    -0.744 OA
ENDBRANCH 102 103
ENDBRANCH  70  95
ENDBRANCH  44  45
ENDBRANCH  36  39
ENDBRANCH  34  35
ENDBRANCH  33  34
ENDBRANCH   1  33
TORSDOF 19
ENDMDL
