MODEL 1
REMARK VINA RESULT:     -11.5      0.000      0.000
REMARK SMILES O=C(NCCCCCCNC(=O)[C@@H]1CN(C(=O)C2(Cc3ccccc3)CCC2)CCO1)c1ccc(-c2c3nc(c(-c4c(F)cc(S(=O)(=O)[O-])cc4F)c4ccc([nH]4)c(-c4c(F)cc(S(=O)(=O)[O-])cc4F)c4nc(c(-c5c(F)cc(S(=O)(=O)[O-])cc5F)c5ccc2[nH]5)C=C4)C=C3)cc1
REMARK SMILES IDX 7 1 6 2 5 3 4 4 3 5 1 6 2 7 32 9 33 10 97 11 34 12 96 13
REMARK SMILES IDX 35 14 36 15 37 16 90 17 38 18 95 19 89 20 91 21 39 22 94 23
REMARK SMILES IDX 88 24 87 25 40 27 74 28 53 29 73 30 54 31 57 32 72 33 92 34
REMARK SMILES IDX 55 35 56 36 71 38 93 39 58 40 41 41 42 42 51 43 43 44 44 45
REMARK SMILES IDX 50 46 52 47 45 48 46 49 47 50 48 51 49 52 75 53 76 54 85 55
REMARK SMILES IDX 77 56 78 57 84 58 86 59 79 60 80 61 81 62 82 63 83 64 59 65
REMARK SMILES IDX 60 66 69 67 61 68 62 69 68 70 70 71 63 72 64 73 65 74 66 75
REMARK SMILES IDX 67 76 8 77 9 78 10 79 11 80 12 82 13 83 14 84 31 85 15 86
REMARK SMILES IDX 30 87 29 88 16 89 17 90 18 91 26 92 28 93 27 94 19 95 20 96
REMARK SMILES IDX 21 97 25 98 22 99 24 100 23 101
REMARK H PARENT 3 8 91 26 57 37 10 81
REMARK Flexibility Score: inf
ROOT
ATOM      1  C   UNL A   1      31.842  29.054  26.287  1.00  0.00     0.002 C 
ENDROOT
BRANCH   1   2
ATOM      2  C   UNL A   1      32.881  29.688  27.219  1.00  0.00     0.002 C 
BRANCH   2   3
ATOM      3  C   UNL A   1      34.324  29.592  26.721  1.00  0.00     0.021 C 
BRANCH   3   4
ATOM      4  C   UNL A   1      35.326  29.190  27.796  1.00  0.00     0.116 C 
BRANCH   4   5
ATOM      5  N   UNL A   1      35.252  30.069  28.950  1.00  0.00    -0.352 N 
ATOM      6  O   UNL A   1      35.924  30.919  30.925  1.00  0.00    -0.269 OA
ATOM      7  C   UNL A   1      36.221  30.353  29.880  1.00  0.00     0.251 C 
ATOM      8  H   UNL A   1      34.388  30.522  29.085  1.00  0.00     0.163 HD
BRANCH   7   9
ATOM      9  C   UNL A   1      37.620  29.960  29.611  1.00  0.00     0.039 A 
ATOM     10  C   UNL A   1      38.427  29.462  30.639  1.00  0.00     0.014 A 
ATOM     11  C   UNL A   1      38.118  30.074  28.312  1.00  0.00     0.014 A 
ATOM     12  C   UNL A   1      39.766  29.179  30.393  1.00  0.00     0.010 A 
ATOM     13  C   UNL A   1      39.442  29.718  28.051  1.00  0.00     0.010 A 
ATOM     14  C   UNL A   1      40.280  29.285  29.092  1.00  0.00    -0.014 A 
BRANCH  14  15
ATOM     15  C   UNL A   1      41.676  28.877  28.805  1.00  0.00     0.031 A 
ATOM     16  C   UNL A   1      42.784  29.889  28.793  1.00  0.00     0.074 A 
ATOM     17  C   UNL A   1      41.926  27.589  28.501  1.00  0.00     0.049 A 
ATOM     18  N   UNL A   1      44.038  29.733  28.456  1.00  0.00    -0.248 NA
ATOM     19  C   UNL A   1      42.434  31.256  29.202  1.00  0.00     0.031 C 
ATOM     20  C   UNL A   1      40.922  26.522  28.476  1.00  0.00     0.029 A 
ATOM     21  N   UNL A   1      43.088  26.962  28.133  1.00  0.00    -0.354 N 
ATOM     22  C   UNL A   1      44.624  30.986  28.585  1.00  0.00     0.074 A 
ATOM     23  C   UNL A   1      43.580  31.895  29.010  1.00  0.00     0.031 C 
ATOM     24  C   UNL A   1      41.511  25.374  28.108  1.00  0.00     0.029 A 
ATOM     25  C   UNL A   1      42.914  25.639  27.807  1.00  0.00     0.049 A 
ATOM     26  H   UNL A   1      43.961  27.416  28.104  1.00  0.00     0.167 HD
ATOM     27  C   UNL A   1      45.914  31.341  28.366  1.00  0.00     0.037 A 
ATOM     28  C   UNL A   1      43.772  24.743  27.281  1.00  0.00     0.037 A 
ATOM     29  C   UNL A   1      46.936  30.420  27.937  1.00  0.00     0.049 A 
ATOM     30  C   UNL A   1      45.186  25.162  27.007  1.00  0.00     0.074 A 
ATOM     31  C   UNL A   1      48.281  30.666  27.726  1.00  0.00     0.029 A 
ATOM     32  N   UNL A   1      46.722  29.083  27.629  1.00  0.00    -0.354 N 
ATOM     33  N   UNL A   1      45.740  26.339  27.177  1.00  0.00    -0.248 NA
ATOM     34  C   UNL A   1      46.095  24.138  26.476  1.00  0.00     0.031 C 
ATOM     35  C   UNL A   1      48.867  29.496  27.233  1.00  0.00     0.029 A 
ATOM     36  C   UNL A   1      47.904  28.499  27.201  1.00  0.00     0.049 A 
ATOM     37  H   UNL A   1      45.858  28.618  27.702  1.00  0.00     0.167 HD
ATOM     38  C   UNL A   1      47.069  26.193  26.800  1.00  0.00     0.074 A 
ATOM     39  C   UNL A   1      47.236  24.813  26.391  1.00  0.00     0.031 C 
ATOM     40  C   UNL A   1      48.060  27.119  26.805  1.00  0.00     0.037 A 
BRANCH  27  41
ATOM     41  C   UNL A   1      46.276  32.792  28.545  1.00  0.00     0.058 A 
ATOM     42  C   UNL A   1      46.685  33.313  29.782  1.00  0.00     0.135 A 
ATOM     43  C   UNL A   1      46.208  33.678  27.456  1.00  0.00     0.135 A 
ATOM     44  F   UNL A   1      46.763  32.515  30.860  1.00  0.00    -0.206 F 
ATOM     45  C   UNL A   1      46.958  34.667  29.948  1.00  0.00     0.059 A 
ATOM     46  C   UNL A   1      46.509  35.030  27.591  1.00  0.00     0.059 A 
ATOM     47  F   UNL A   1      45.832  33.236  26.246  1.00  0.00    -0.206 F 
ATOM     48  C   UNL A   1      46.856  35.521  28.848  1.00  0.00     0.060 A 
BRANCH  48  49
ATOM     49  S   UNL A   1      47.157  37.284  29.093  1.00  0.00     0.124 S 
ATOM     50  O   UNL A   1      46.232  37.871  28.128  1.00  0.00    -0.237 OA
ATOM     51  O   UNL A   1      46.807  37.468  30.497  1.00  0.00    -0.237 OA
ATOM     52  O   UNL A   1      48.574  37.435  28.777  1.00  0.00    -0.744 OA
ENDBRANCH  48  49
ENDBRANCH  27  41
BRANCH  28  53
ATOM     53  C   UNL A   1      43.282  23.375  26.975  1.00  0.00     0.058 A 
ATOM     54  C   UNL A   1      43.157  22.929  25.653  1.00  0.00     0.135 A 
ATOM     55  C   UNL A   1      43.026  22.454  28.005  1.00  0.00     0.135 A 
ATOM     56  F   UNL A   1      43.387  23.772  24.636  1.00  0.00    -0.206 F 
ATOM     57  C   UNL A   1      42.808  21.615  25.360  1.00  0.00     0.059 A 
ATOM     58  C   UNL A   1      42.701  21.129  27.738  1.00  0.00     0.059 A 
ATOM     59  F   UNL A   1      43.153  22.829  29.288  1.00  0.00    -0.206 F 
ATOM     60  C   UNL A   1      42.596  20.719  26.410  1.00  0.00     0.060 A 
BRANCH  60  61
ATOM     61  S   UNL A   1      42.247  18.991  26.015  1.00  0.00     0.124 S 
ATOM     62  O   UNL A   1      43.071  18.788  24.829  1.00  0.00    -0.237 OA
ATOM     63  O   UNL A   1      42.692  18.307  27.225  1.00  0.00    -0.237 OA
ATOM     64  O   UNL A   1      40.804  18.981  25.792  1.00  0.00    -0.744 OA
ENDBRANCH  60  61
ENDBRANCH  28  53
BRANCH  40  65
ATOM     65  C   UNL A   1      49.438  26.674  26.401  1.00  0.00     0.058 A 
ATOM     66  C   UNL A   1      49.926  26.855  25.099  1.00  0.00     0.135 A 
ATOM     67  C   UNL A   1      50.319  26.160  27.368  1.00  0.00     0.135 A 
ATOM     68  F   UNL A   1      49.120  27.329  24.135  1.00  0.00    -0.206 F 
ATOM     69  C   UNL A   1      51.243  26.550  24.770  1.00  0.00     0.059 A 
ATOM     70  C   UNL A   1      51.647  25.874  27.068  1.00  0.00     0.059 A 
ATOM     71  F   UNL A   1      49.902  25.971  28.630  1.00  0.00    -0.206 F 
ATOM     72  C   UNL A   1      52.100  26.074  25.765  1.00  0.00     0.060 A 
BRANCH  72  73
ATOM     73  S   UNL A   1      53.830  25.772  25.347  1.00  0.00     0.124 S 
ATOM     74  O   UNL A   1      53.762  25.627  23.897  1.00  0.00    -0.237 OA
ATOM     75  O   UNL A   1      54.483  26.982  25.835  1.00  0.00    -0.237 OA
ATOM     76  O   UNL A   1      54.150  24.553  26.084  1.00  0.00    -0.744 OA
ENDBRANCH  72  73
ENDBRANCH  40  65
ENDBRANCH  14  15
ENDBRANCH   7   9
ENDBRANCH   4   5
ENDBRANCH   3   4
ENDBRANCH   2   3
ENDBRANCH   1   2
BRANCH   1  77
ATOM     77  C   UNL A   1      31.365  29.965  25.148  1.00  0.00     0.021 C 
BRANCH  77  78
ATOM     78  C   UNL A   1      30.875  29.201  23.917  1.00  0.00     0.116 C 
BRANCH  78  79
ATOM     79  N   UNL A   1      31.949  29.058  22.954  1.00  0.00    -0.354 N 
ATOM     80  C   UNL A   1      32.716  27.957  22.702  1.00  0.00     0.250 C 
ATOM     81  H   UNL A   1      32.151  29.855  22.413  1.00  0.00     0.163 HD
ATOM     82  O   UNL A   1      33.698  28.076  21.968  1.00  0.00    -0.272 OA
BRANCH  80  83
ATOM     83  C   UNL A   1      32.314  26.631  23.348  1.00  0.00     0.226 C 
ATOM     84  C   UNL A   1      33.355  25.560  23.024  1.00  0.00     0.161 C 
ATOM     85  O   UNL A   1      31.016  26.249  22.854  1.00  0.00    -0.365 OA
ATOM     86  N   UNL A   1      32.934  24.268  23.566  1.00  0.00    -0.337 N 
ATOM     87  C   UNL A   1      30.589  24.999  23.417  1.00  0.00     0.183 C 
ATOM     88  C   UNL A   1      31.593  23.874  23.132  1.00  0.00     0.148 C 
BRANCH  86  89
ATOM     89  C   UNL A   1      33.822  23.290  24.003  1.00  0.00     0.229 C 
ATOM     90  O   UNL A   1      34.126  22.377  23.220  1.00  0.00    -0.274 OA
BRANCH  89  91
ATOM     91  C   UNL A   1      34.331  23.329  25.513  1.00  0.00     0.053 C 
ATOM     92  C   UNL A   1      33.225  23.745  26.541  1.00  0.00     0.017 C 
ATOM     93  C   UNL A   1      34.502  22.008  26.334  1.00  0.00     0.017 C 
ATOM     94  C   UNL A   1      33.685  22.622  27.480  1.00  0.00     0.002 C 
BRANCH  91  95
ATOM     95  C   UNL A   1      35.572  24.259  25.660  1.00  0.00     0.052 C 
BRANCH  95  96
ATOM     96  C   UNL A   1      36.896  23.528  25.799  1.00  0.00    -0.047 A 
ATOM     97  C   UNL A   1      37.040  22.251  25.231  1.00  0.00     0.004 A 
ATOM     98  C   UNL A   1      37.967  24.041  26.542  1.00  0.00     0.004 A 
ATOM     99  C   UNL A   1      38.221  21.521  25.390  1.00  0.00     0.000 A 
ATOM    100  C   UNL A   1      39.154  23.318  26.689  1.00  0.00     0.000 A 
ATOM    101  C   UNL A   1      39.281  22.057  26.116  1.00  0.00     0.000 A 
ENDBRANCH  95  96
ENDBRANCH  91  95
ENDBRANCH  89  91
ENDBRANCH  86  89
ENDBRANCH  80  83
ENDBRANCH  78  79
ENDBRANCH  77  78
ENDBRANCH   1  77
TORSDOF 20
ENDMDL
MODEL 2
REMARK VINA RESULT:     -11.3      1.123      8.151
REMARK SMILES O=C(NCCCCCCNC(=O)[C@@H]1CN(C(=O)C2(Cc3ccccc3)CCC2)CCO1)c1ccc(-c2c3nc(c(-c4c(F)cc(S(=O)(=O)[O-])cc4F)c4ccc([nH]4)c(-c4c(F)cc(S(=O)(=O)[O-])cc4F)c4nc(c(-c5c(F)cc(S(=O)(=O)[O-])cc5F)c5ccc2[nH]5)C=C4)C=C3)cc1
REMARK SMILES IDX 7 1 6 2 5 3 4 4 3 5 1 6 2 7 32 9 33 10 97 11 34 12 96 13
REMARK SMILES IDX 35 14 36 15 37 16 90 17 38 18 95 19 89 20 91 21 39 22 94 23
REMARK SMILES IDX 88 24 87 25 40 27 74 28 53 29 73 30 54 31 57 32 72 33 92 34
REMARK SMILES IDX 55 35 56 36 71 38 93 39 58 40 41 41 42 42 51 43 43 44 44 45
REMARK SMILES IDX 50 46 52 47 45 48 46 49 47 50 48 51 49 52 75 53 76 54 85 55
REMARK SMILES IDX 77 56 78 57 84 58 86 59 79 60 80 61 81 62 82 63 83 64 59 65
REMARK SMILES IDX 60 66 69 67 61 68 62 69 68 70 70 71 63 72 64 73 65 74 66 75
REMARK SMILES IDX 67 76 8 77 9 78 10 79 11 80 12 82 13 83 14 84 31 85 15 86
REMARK SMILES IDX 30 87 29 88 16 89 17 90 18 91 26 92 28 93 27 94 19 95 20 96
REMARK SMILES IDX 21 97 25 98 22 99 24 100 23 101
REMARK H PARENT 3 8 91 26 57 37 10 81
REMARK Flexibility Score: inf
ROOT
ATOM      1  C   UNL A   1      34.190  30.980  27.529  1.00  0.00     0.002 C 
ENDROOT
BRANCH   1   2
ATOM      2  C   UNL A   1      34.472  32.275  28.300  1.00  0.00     0.002 C 
BRANCH   2   3
ATOM      3  C   UNL A   1      35.906  32.792  28.172  1.00  0.00     0.021 C 
BRANCH   3   4
ATOM      4  C   UNL A   1      36.693  32.768  29.477  1.00  0.00     0.116 C 
BRANCH   4   5
ATOM      5  N   UNL A   1      36.211  31.730  30.372  1.00  0.00    -0.352 N 
ATOM      6  O   UNL A   1      36.049  29.634  31.182  1.00  0.00    -0.269 OA
ATOM      7  C   UNL A   1      36.712  30.469  30.578  1.00  0.00     0.251 C 
ATOM      8  H   UNL A   1      35.414  31.962  30.903  1.00  0.00     0.163 HD
BRANCH   7   9
ATOM      9  C   UNL A   1      38.052  30.129  30.058  1.00  0.00     0.039 A 
ATOM     10  C   UNL A   1      39.132  29.961  30.932  1.00  0.00     0.014 A 
ATOM     11  C   UNL A   1      38.221  29.959  28.682  1.00  0.00     0.014 A 
ATOM     12  C   UNL A   1      40.405  29.729  30.422  1.00  0.00     0.010 A 
ATOM     13  C   UNL A   1      39.487  29.651  28.180  1.00  0.00     0.010 A 
ATOM     14  C   UNL A   1      40.590  29.551  29.043  1.00  0.00    -0.014 A 
BRANCH  14  15
ATOM     15  C   UNL A   1      41.926  29.192  28.509  1.00  0.00     0.031 A 
ATOM     16  C   UNL A   1      42.220  27.792  28.059  1.00  0.00     0.074 A 
ATOM     17  C   UNL A   1      42.889  30.133  28.485  1.00  0.00     0.049 A 
ATOM     18  N   UNL A   1      43.357  27.273  27.671  1.00  0.00    -0.248 NA
ATOM     19  C   UNL A   1      41.094  26.848  28.055  1.00  0.00     0.031 C 
ATOM     20  C   UNL A   1      42.714  31.526  28.906  1.00  0.00     0.029 A 
ATOM     21  N   UNL A   1      44.207  30.060  28.117  1.00  0.00    -0.354 N 
ATOM     22  C   UNL A   1      43.092  25.936  27.403  1.00  0.00     0.074 A 
ATOM     23  C   UNL A   1      41.690  25.720  27.695  1.00  0.00     0.031 C 
ATOM     24  C   UNL A   1      43.880  32.174  28.776  1.00  0.00     0.029 A 
ATOM     25  C   UNL A   1      44.898  31.228  28.329  1.00  0.00     0.049 A 
ATOM     26  H   UNL A   1      44.618  29.249  27.739  1.00  0.00     0.167 HD
ATOM     27  C   UNL A   1      43.943  24.981  26.956  1.00  0.00     0.037 A 
ATOM     28  C   UNL A   1      46.212  31.503  28.221  1.00  0.00     0.037 A 
ATOM     29  C   UNL A   1      45.337  25.216  26.678  1.00  0.00     0.049 A 
ATOM     30  C   UNL A   1      47.148  30.424  27.763  1.00  0.00     0.074 A 
ATOM     31  C   UNL A   1      46.278  24.330  26.183  1.00  0.00     0.029 A 
ATOM     32  N   UNL A   1      45.998  26.419  26.894  1.00  0.00    -0.354 N 
ATOM     33  N   UNL A   1      46.877  29.175  27.468  1.00  0.00    -0.248 NA
ATOM     34  C   UNL A   1      48.564  30.785  27.618  1.00  0.00     0.031 C 
ATOM     35  C   UNL A   1      47.517  24.978  26.157  1.00  0.00     0.029 A 
ATOM     36  C   UNL A   1      47.340  26.289  26.570  1.00  0.00     0.049 A 
ATOM     37  H   UNL A   1      45.576  27.243  27.228  1.00  0.00     0.167 HD
ATOM     38  C   UNL A   1      48.082  28.606  27.076  1.00  0.00     0.074 A 
ATOM     39  C   UNL A   1      49.085  29.647  27.174  1.00  0.00     0.031 C 
ATOM     40  C   UNL A   1      48.328  27.338  26.662  1.00  0.00     0.037 A 
BRANCH  27  41
ATOM     41  C   UNL A   1      43.397  23.587  26.785  1.00  0.00     0.058 A 
ATOM     42  C   UNL A   1      43.137  22.747  27.880  1.00  0.00     0.135 A 
ATOM     43  C   UNL A   1      43.132  23.083  25.501  1.00  0.00     0.135 A 
ATOM     44  F   UNL A   1      43.378  23.173  29.131  1.00  0.00    -0.206 F 
ATOM     45  C   UNL A   1      42.691  21.442  27.706  1.00  0.00     0.059 A 
ATOM     46  C   UNL A   1      42.653  21.791  25.305  1.00  0.00     0.059 A 
ATOM     47  F   UNL A   1      43.351  23.843  24.416  1.00  0.00    -0.206 F 
ATOM     48  C   UNL A   1      42.462  20.968  26.413  1.00  0.00     0.060 A 
BRANCH  48  49
ATOM     49  S   UNL A   1      41.939  19.253  26.202  1.00  0.00     0.124 S 
ATOM     50  O   UNL A   1      42.746  18.844  25.056  1.00  0.00    -0.237 OA
ATOM     51  O   UNL A   1      42.307  18.654  27.480  1.00  0.00    -0.237 OA
ATOM     52  O   UNL A   1      40.505  19.362  25.953  1.00  0.00    -0.744 OA
ENDBRANCH  48  49
ENDBRANCH  27  41
BRANCH  28  53
ATOM     53  C   UNL A   1      46.691  32.864  28.576  1.00  0.00     0.058 A 
ATOM     54  C   UNL A   1      46.739  33.888  27.622  1.00  0.00     0.135 A 
ATOM     55  C   UNL A   1      47.014  33.190  29.905  1.00  0.00     0.135 A 
ATOM     56  F   UNL A   1      46.443  33.624  26.340  1.00  0.00    -0.206 F 
ATOM     57  C   UNL A   1      47.078  35.190  27.971  1.00  0.00     0.059 A 
ATOM     58  C   UNL A   1      47.331  34.490  30.283  1.00  0.00     0.059 A 
ATOM     59  F   UNL A   1      46.963  32.247  30.859  1.00  0.00    -0.206 F 
ATOM     60  C   UNL A   1      47.359  35.484  29.307  1.00  0.00     0.060 A 
BRANCH  60  61
ATOM     61  S   UNL A   1      47.694  37.199  29.763  1.00  0.00     0.124 S 
ATOM     62  O   UNL A   1      46.367  37.668  30.141  1.00  0.00    -0.237 OA
ATOM     63  O   UNL A   1      48.650  37.041  30.855  1.00  0.00    -0.237 OA
ATOM     64  O   UNL A   1      48.244  37.772  28.538  1.00  0.00    -0.744 OA
ENDBRANCH  60  61
ENDBRANCH  28  53
BRANCH  40  65
ATOM     65  C   UNL A   1      49.728  26.999  26.232  1.00  0.00     0.058 A 
ATOM     66  C   UNL A   1      50.646  26.393  27.102  1.00  0.00     0.135 A 
ATOM     67  C   UNL A   1      50.114  27.185  24.894  1.00  0.00     0.135 A 
ATOM     68  F   UNL A   1      50.333  26.205  28.394  1.00  0.00    -0.206 F 
ATOM     69  C   UNL A   1      51.897  25.974  26.658  1.00  0.00     0.059 A 
ATOM     70  C   UNL A   1      51.348  26.750  24.422  1.00  0.00     0.059 A 
ATOM     71  F   UNL A   1      49.270  27.758  24.021  1.00  0.00    -0.206 F 
ATOM     72  C   UNL A   1      52.233  26.144  25.312  1.00  0.00     0.060 A 
BRANCH  72  73
ATOM     73  S   UNL A   1      53.820  25.512  24.729  1.00  0.00     0.124 S 
ATOM     74  O   UNL A   1      53.602  24.070  24.780  1.00  0.00    -0.237 OA
ATOM     75  O   UNL A   1      53.914  26.093  23.394  1.00  0.00    -0.237 OA
ATOM     76  O   UNL A   1      54.773  26.037  25.703  1.00  0.00    -0.744 OA
ENDBRANCH  72  73
ENDBRANCH  40  65
ENDBRANCH  14  15
ENDBRANCH   7   9
ENDBRANCH   4   5
ENDBRANCH   3   4
ENDBRANCH   2   3
ENDBRANCH   1   2
BRANCH   1  77
ATOM     77  C   UNL A   1      32.723  30.784  27.124  1.00  0.00     0.021 C 
BRANCH  77  78
ATOM     78  C   UNL A   1      32.464  29.477  26.374  1.00  0.00     0.116 C 
BRANCH  78  79
ATOM     79  N   UNL A   1      32.768  29.637  24.965  1.00  0.00    -0.354 N 
ATOM     80  C   UNL A   1      32.523  28.764  23.945  1.00  0.00     0.250 C 
ATOM     81  H   UNL A   1      33.207  30.481  24.713  1.00  0.00     0.163 HD
ATOM     82  O   UNL A   1      33.010  28.998  22.838  1.00  0.00    -0.272 OA
BRANCH  80  83
ATOM     83  C   UNL A   1      31.655  27.538  24.232  1.00  0.00     0.226 C 
ATOM     84  C   UNL A   1      32.501  26.270  24.135  1.00  0.00     0.161 C 
ATOM     85  O   UNL A   1      30.572  27.506  23.284  1.00  0.00    -0.365 OA
ATOM     86  N   UNL A   1      31.660  25.088  24.323  1.00  0.00    -0.337 N 
ATOM     87  C   UNL A   1      29.727  26.364  23.495  1.00  0.00     0.183 C 
ATOM     88  C   UNL A   1      30.513  25.050  23.414  1.00  0.00     0.148 C 
BRANCH  86  89
ATOM     89  C   UNL A   1      32.113  23.904  24.896  1.00  0.00     0.229 C 
ATOM     90  O   UNL A   1      32.058  23.786  26.129  1.00  0.00    -0.274 OA
BRANCH  89  91
ATOM     91  C   UNL A   1      32.773  22.796  23.958  1.00  0.00     0.053 C 
ATOM     92  C   UNL A   1      33.045  21.435  24.684  1.00  0.00     0.017 C 
ATOM     93  C   UNL A   1      31.904  21.997  22.931  1.00  0.00     0.017 C 
ATOM     94  C   UNL A   1      32.489  20.683  23.468  1.00  0.00     0.002 C 
BRANCH  91  95
ATOM     95  C   UNL A   1      34.086  23.324  23.308  1.00  0.00     0.052 C 
BRANCH  95  96
ATOM     96  C   UNL A   1      35.327  23.158  24.167  1.00  0.00    -0.047 A 
ATOM     97  C   UNL A   1      35.526  24.016  25.262  1.00  0.00     0.004 A 
ATOM     98  C   UNL A   1      36.334  22.230  23.869  1.00  0.00     0.004 A 
ATOM     99  C   UNL A   1      36.685  23.937  26.039  1.00  0.00     0.000 A 
ATOM    100  C   UNL A   1      37.486  22.140  24.654  1.00  0.00     0.000 A 
ATOM    101  C   UNL A   1      37.664  22.994  25.737  1.00  0.00     0.000 A 
ENDBRANCH  95  96
ENDBRANCH  91  95
ENDBRANCH  89  91
ENDBRANCH  86  89
ENDBRANCH  80  83
ENDBRANCH  78  79
ENDBRANCH  77  78
ENDBRANCH   1  77
TORSDOF 20
ENDMDL
MODEL 3
REMARK VINA RESULT:     -11.3      1.415      2.602
REMARK SMILES O=C(NCCCCCCNC(=O)[C@@H]1CN(C(=O)C2(Cc3ccccc3)CCC2)CCO1)c1ccc(-c2c3nc(c(-c4c(F)cc(S(=O)(=O)[O-])cc4F)c4ccc([nH]4)c(-c4c(F)cc(S(=O)(=O)[O-])cc4F)c4nc(c(-c5c(F)cc(S(=O)(=O)[O-])cc5F)c5ccc2[nH]5)C=C4)C=C3)cc1
REMARK SMILES IDX 7 1 6 2 5 3 4 4 3 5 1 6 2 7 32 9 33 10 97 11 34 12 96 13
REMARK SMILES IDX 35 14 36 15 37 16 90 17 38 18 95 19 89 20 91 21 39 22 94 23
REMARK SMILES IDX 88 24 87 25 40 27 74 28 53 29 73 30 54 31 57 32 72 33 92 34
REMARK SMILES IDX 55 35 56 36 71 38 93 39 58 40 41 41 42 42 51 43 43 44 44 45
REMARK SMILES IDX 50 46 52 47 45 48 46 49 47 50 48 51 49 52 75 53 76 54 85 55
REMARK SMILES IDX 77 56 78 57 84 58 86 59 79 60 80 61 81 62 82 63 83 64 59 65
REMARK SMILES IDX 60 66 69 67 61 68 62 69 68 70 70 71 63 72 64 73 65 74 66 75
REMARK SMILES IDX 67 76 8 77 9 78 10 79 11 80 12 82 13 83 14 84 31 85 15 86
REMARK SMILES IDX 30 87 29 88 16 89 17 90 18 91 26 92 28 93 27 94 19 95 20 96
REMARK SMILES IDX 21 97 25 98 22 99 24 100 23 101
REMARK H PARENT 3 8 91 26 57 37 10 81
REMARK Flexibility Score: inf
ROOT
ATOM      1  C   UNL A   1      34.433  30.835  27.538  1.00  0.00     0.002 C 
ENDROOT
BRANCH   1   2
ATOM      2  C   UNL A   1      34.502  32.284  28.037  1.00  0.00     0.002 C 
BRANCH   2   3
ATOM      3  C   UNL A   1      35.899  32.906  27.988  1.00  0.00     0.021 C 
BRANCH   3   4
ATOM      4  C   UNL A   1      36.603  32.957  29.338  1.00  0.00     0.116 C 
BRANCH   4   5
ATOM      5  N   UNL A   1      36.015  32.022  30.282  1.00  0.00    -0.352 N 
ATOM      6  O   UNL A   1      35.722  30.019  31.270  1.00  0.00    -0.269 OA
ATOM      7  C   UNL A   1      36.460  30.777  30.651  1.00  0.00     0.251 C 
ATOM      8  H   UNL A   1      35.184  32.322  30.716  1.00  0.00     0.163 HD
BRANCH   7   9
ATOM      9  C   UNL A   1      37.829  30.360  30.285  1.00  0.00     0.039 A 
ATOM     10  C   UNL A   1      38.176  30.162  28.945  1.00  0.00     0.014 A 
ATOM     11  C   UNL A   1      38.776  30.184  31.296  1.00  0.00     0.014 A 
ATOM     12  C   UNL A   1      39.442  29.684  28.621  1.00  0.00     0.010 A 
ATOM     13  C   UNL A   1      40.068  29.777  30.961  1.00  0.00     0.010 A 
ATOM     14  C   UNL A   1      40.405  29.507  29.624  1.00  0.00    -0.014 A 
BRANCH  14  15
ATOM     15  C   UNL A   1      41.788  29.106  29.269  1.00  0.00     0.031 A 
ATOM     16  C   UNL A   1      42.898  30.114  29.252  1.00  0.00     0.074 A 
ATOM     17  C   UNL A   1      42.020  27.829  28.909  1.00  0.00     0.049 A 
ATOM     18  N   UNL A   1      44.138  29.968  28.862  1.00  0.00    -0.248 NA
ATOM     19  C   UNL A   1      42.570  31.466  29.725  1.00  0.00     0.031 C 
ATOM     20  C   UNL A   1      41.012  26.767  28.883  1.00  0.00     0.029 A 
ATOM     21  N   UNL A   1      43.165  27.213  28.474  1.00  0.00    -0.354 N 
ATOM     22  C   UNL A   1      44.734  31.214  29.014  1.00  0.00     0.074 A 
ATOM     23  C   UNL A   1      43.711  32.109  29.512  1.00  0.00     0.031 C 
ATOM     24  C   UNL A   1      41.581  25.632  28.451  1.00  0.00     0.029 A 
ATOM     25  C   UNL A   1      42.973  25.903  28.107  1.00  0.00     0.049 A 
ATOM     26  H   UNL A   1      44.038  27.665  28.428  1.00  0.00     0.167 HD
ATOM     27  C   UNL A   1      46.016  31.572  28.760  1.00  0.00     0.037 A 
ATOM     28  C   UNL A   1      43.806  25.026  27.516  1.00  0.00     0.037 A 
ATOM     29  C   UNL A   1      47.017  30.665  28.258  1.00  0.00     0.049 A 
ATOM     30  C   UNL A   1      45.211  25.450  27.203  1.00  0.00     0.074 A 
ATOM     31  C   UNL A   1      48.354  30.915  28.005  1.00  0.00     0.029 A 
ATOM     32  N   UNL A   1      46.786  29.341  27.909  1.00  0.00    -0.354 N 
ATOM     33  N   UNL A   1      45.775  26.618  27.395  1.00  0.00    -0.248 NA
ATOM     34  C   UNL A   1      46.094  24.444  26.600  1.00  0.00     0.031 C 
ATOM     35  C   UNL A   1      48.916  29.762  27.447  1.00  0.00     0.029 A 
ATOM     36  C   UNL A   1      47.948  28.769  27.415  1.00  0.00     0.049 A 
ATOM     37  H   UNL A   1      45.923  28.876  27.999  1.00  0.00     0.167 HD
ATOM     38  C   UNL A   1      47.089  26.482  26.962  1.00  0.00     0.074 A 
ATOM     39  C   UNL A   1      47.234  25.118  26.496  1.00  0.00     0.031 C 
ATOM     40  C   UNL A   1      48.083  27.404  26.963  1.00  0.00     0.037 A 
BRANCH  27  41
ATOM     41  C   UNL A   1      46.391  33.015  28.977  1.00  0.00     0.058 A 
ATOM     42  C   UNL A   1      46.204  33.993  27.988  1.00  0.00     0.135 A 
ATOM     43  C   UNL A   1      46.951  33.425  30.199  1.00  0.00     0.135 A 
ATOM     44  F   UNL A   1      45.678  33.659  26.797  1.00  0.00    -0.206 F 
ATOM     45  C   UNL A   1      46.610  35.309  28.179  1.00  0.00     0.059 A 
ATOM     46  C   UNL A   1      47.334  34.743  30.425  1.00  0.00     0.059 A 
ATOM     47  F   UNL A   1      47.146  32.536  31.187  1.00  0.00    -0.206 F 
ATOM     48  C   UNL A   1      47.185  35.673  29.398  1.00  0.00     0.060 A 
BRANCH  48  49
ATOM     49  S   UNL A   1      47.760  37.371  29.608  1.00  0.00     0.124 S 
ATOM     50  O   UNL A   1      47.140  37.731  30.880  1.00  0.00    -0.237 OA
ATOM     51  O   UNL A   1      49.210  37.209  29.635  1.00  0.00    -0.237 OA
ATOM     52  O   UNL A   1      47.231  38.059  28.435  1.00  0.00    -0.744 OA
ENDBRANCH  48  49
ENDBRANCH  27  41
BRANCH  28  53
ATOM     53  C   UNL A   1      43.299  23.671  27.178  1.00  0.00     0.058 A 
ATOM     54  C   UNL A   1      42.981  23.324  25.859  1.00  0.00     0.135 A 
ATOM     55  C   UNL A   1      43.220  22.666  28.158  1.00  0.00     0.135 A 
ATOM     56  F   UNL A   1      43.037  24.249  24.890  1.00  0.00    -0.206 F 
ATOM     57  C   UNL A   1      42.614  22.027  25.518  1.00  0.00     0.059 A 
ATOM     58  C   UNL A   1      42.882  21.356  27.837  1.00  0.00     0.059 A 
ATOM     59  F   UNL A   1      43.536  22.946  29.433  1.00  0.00    -0.206 F 
ATOM     60  C   UNL A   1      42.582  21.046  26.512  1.00  0.00     0.060 A 
BRANCH  60  61
ATOM     61  S   UNL A   1      42.207  19.345  26.037  1.00  0.00     0.124 S 
ATOM     62  O   UNL A   1      42.572  18.614  27.245  1.00  0.00    -0.237 OA
ATOM     63  O   UNL A   1      40.779  19.419  25.743  1.00  0.00    -0.237 OA
ATOM     64  O   UNL A   1      43.066  19.121  24.878  1.00  0.00    -0.744 OA
ENDBRANCH  60  61
ENDBRANCH  28  53
BRANCH  40  65
ATOM     65  C   UNL A   1      49.443  26.971  26.491  1.00  0.00     0.058 A 
ATOM     66  C   UNL A   1      50.404  26.451  27.369  1.00  0.00     0.135 A 
ATOM     67  C   UNL A   1      49.740  26.974  25.117  1.00  0.00     0.135 A 
ATOM     68  F   UNL A   1      50.175  26.438  28.692  1.00  0.00    -0.206 F 
ATOM     69  C   UNL A   1      51.612  25.941  26.903  1.00  0.00     0.059 A 
ATOM     70  C   UNL A   1      50.929  26.445  24.627  1.00  0.00     0.059 A 
ATOM     71  F   UNL A   1      48.852  27.458  24.235  1.00  0.00    -0.206 F 
ATOM     72  C   UNL A   1      51.859  25.929  25.527  1.00  0.00     0.060 A 
BRANCH  72  73
ATOM     73  S   UNL A   1      53.388  25.180  24.929  1.00  0.00     0.124 S 
ATOM     74  O   UNL A   1      54.384  25.816  25.784  1.00  0.00    -0.237 OA
ATOM     75  O   UNL A   1      53.155  23.760  25.174  1.00  0.00    -0.237 OA
ATOM     76  O   UNL A   1      53.429  25.568  23.522  1.00  0.00    -0.744 OA
ENDBRANCH  72  73
ENDBRANCH  40  65
ENDBRANCH  14  15
ENDBRANCH   7   9
ENDBRANCH   4   5
ENDBRANCH   3   4
ENDBRANCH   2   3
ENDBRANCH   1   2
BRANCH   1  77
ATOM     77  C   UNL A   1      33.146  30.481  26.782  1.00  0.00     0.021 C 
BRANCH  77  78
ATOM     78  C   UNL A   1      33.240  29.175  25.991  1.00  0.00     0.116 C 
BRANCH  78  79
ATOM     79  N   UNL A   1      33.299  29.453  24.569  1.00  0.00    -0.354 N 
ATOM     80  C   UNL A   1      33.106  28.587  23.532  1.00  0.00     0.250 C 
ATOM     81  H   UNL A   1      33.506  30.382  24.320  1.00  0.00     0.163 HD
ATOM     82  O   UNL A   1      33.369  28.965  22.389  1.00  0.00    -0.272 OA
BRANCH  80  83
ATOM     83  C   UNL A   1      32.573  27.188  23.844  1.00  0.00     0.226 C 
ATOM     84  C   UNL A   1      33.310  26.151  22.999  1.00  0.00     0.161 C 
ATOM     85  O   UNL A   1      31.159  27.160  23.572  1.00  0.00    -0.365 OA
ATOM     86  N   UNL A   1      32.747  24.821  23.229  1.00  0.00    -0.337 N 
ATOM     87  C   UNL A   1      30.602  25.863  23.835  1.00  0.00     0.183 C 
ATOM     88  C   UNL A   1      31.299  24.768  23.018  1.00  0.00     0.148 C 
BRANCH  86  89
ATOM     89  C   UNL A   1      33.489  23.647  23.152  1.00  0.00     0.229 C 
ATOM     90  O   UNL A   1      33.871  23.263  22.037  1.00  0.00    -0.274 OA
BRANCH  89  91
ATOM     91  C   UNL A   1      33.731  22.799  24.480  1.00  0.00     0.053 C 
ATOM     92  C   UNL A   1      35.084  22.010  24.488  1.00  0.00     0.017 C 
ATOM     93  C   UNL A   1      34.208  23.495  25.798  1.00  0.00     0.017 C 
ATOM     94  C   UNL A   1      35.327  22.453  25.936  1.00  0.00     0.002 C 
BRANCH  91  95
ATOM     95  C   UNL A   1      32.546  21.824  24.745  1.00  0.00     0.052 C 
BRANCH  95  96
ATOM     96  C   UNL A   1      32.729  20.433  24.164  1.00  0.00    -0.047 A 
ATOM     97  C   UNL A   1      32.221  20.148  22.886  1.00  0.00     0.004 A 
ATOM     98  C   UNL A   1      33.321  19.387  24.885  1.00  0.00     0.004 A 
ATOM     99  C   UNL A   1      32.314  18.864  22.343  1.00  0.00     0.000 A 
ATOM    100  C   UNL A   1      33.429  18.106  24.336  1.00  0.00     0.000 A 
ATOM    101  C   UNL A   1      32.923  17.842  23.067  1.00  0.00     0.000 A 
ENDBRANCH  95  96
ENDBRANCH  91  95
ENDBRANCH  89  91
ENDBRANCH  86  89
ENDBRANCH  80  83
ENDBRANCH  78  79
ENDBRANCH  77  78
ENDBRANCH   1  77
TORSDOF 20
ENDMDL
