MODEL 1
REMARK VINA RESULT:     -12.6      0.000      0.000
REMARK SMILES Cc1nc2sc3c(c2c2nc(CCC(=O)NCCCCCCNC(=O)c4ccc(-c5c6nc(c(-c7c(F)cc(S(=O)(=O)[O-])cc7F)c7ccc([nH]7)c(-c7c(F)cc(S(=O)(=O)[O-])cc7F)c7nc(c(-c8c(F)cc(S(=O)(=O)[O-])cc8F)c8ccc5[nH]8)C=C7)C=C6)cc4)nn12)[C@@H](C)CCC3
REMARK SMILES IDX 20 1 19 2 18 3 17 4 16 5 14 6 15 7 13 9 12 10 11 11 1 12
REMARK SMILES IDX 2 13 3 14 93 15 4 16 9 17 92 18 5 19 8 20 10 21 6 22 7 23
REMARK SMILES IDX 98 24 94 25 97 26 95 27 96 28 21 29 22 30 23 31 24 32 25 34
REMARK SMILES IDX 26 35 27 36 91 37 28 38 90 39 29 40 30 41 31 42 84 43 32 44
REMARK SMILES IDX 89 45 83 46 85 47 33 48 88 49 82 50 81 51 34 53 68 54 47 55
REMARK SMILES IDX 67 56 48 57 51 58 66 59 86 60 49 61 50 62 65 64 87 65 52 66
REMARK SMILES IDX 35 67 36 68 45 69 37 70 38 71 44 72 46 73 39 74 40 75 41 76
REMARK SMILES IDX 42 77 43 78 69 79 70 80 79 81 71 82 72 83 78 84 80 85 73 86
REMARK SMILES IDX 74 87 75 88 76 89 77 90 53 91 54 92 63 93 55 94 56 95 62 96
REMARK SMILES IDX 64 97 57 98 58 99 59 100 60 101 61 102
REMARK H PARENT 16 8 23 33 85 52 51 63
REMARK Flexibility Score: inf
ROOT
ATOM      1  C   UNL A   1      38.952  21.828  25.952  1.00  0.00     0.002 C 
ENDROOT
BRANCH   1   2
ATOM      2  C   UNL A   1      38.479  23.253  26.067  1.00  0.00     0.002 C 
BRANCH   2   3
ATOM      3  C   UNL A   1      36.976  23.371  25.904  1.00  0.00     0.021 C 
BRANCH   3   4
ATOM      4  C   UNL A   1      36.367  21.996  25.796  1.00  0.00     0.116 C 
BRANCH   4   5
ATOM      5  N   UNL A   1      35.414  21.811  26.887  1.00  0.00    -0.356 N 
ATOM      6  C   UNL A   1      34.057  21.612  26.769  1.00  0.00     0.220 C 
ATOM      7  O   UNL A   1      33.341  21.898  27.729  1.00  0.00    -0.275 OA
ATOM      8  H   UNL A   1      35.780  21.832  27.800  1.00  0.00     0.163 HD
BRANCH   6   9
ATOM      9  C   UNL A   1      33.510  20.926  25.518  1.00  0.00     0.108 C 
BRANCH   9  10
ATOM     10  C   UNL A   1      32.087  21.293  25.020  1.00  0.00     0.089 C 
BRANCH  10  11
ATOM     11  C   UNL A   1      31.925  22.499  24.110  1.00  0.00     0.152 A 
ATOM     12  C   UNL A   1      33.364  23.486  20.320  1.00  0.00     0.090 C 
ATOM     13  C   UNL A   1      33.018  24.457  21.426  1.00  0.00     0.131 A 
ATOM     14  N   UNL A   1      33.330  25.727  21.288  1.00  0.00    -0.222 NA
ATOM     15  N   UNL A   1      32.350  23.880  22.553  1.00  0.00    -0.199 N 
ATOM     16  C   UNL A   1      33.030  26.505  22.366  1.00  0.00     0.129 A 
ATOM     17  C   UNL A   1      31.845  24.573  23.658  1.00  0.00     0.168 A 
ATOM     18  N   UNL A   1      32.403  22.540  22.849  1.00  0.00    -0.150 NA
ATOM     19  S   UNL A   1      33.897  28.645  22.525  1.00  0.00    -0.120 S 
ATOM     20  C   UNL A   1      32.175  26.045  23.789  1.00  0.00     0.060 A 
ATOM     21  N   UNL A   1      31.450  23.714  24.576  1.00  0.00    -0.211 NA
ATOM     22  C   UNL A   1      32.993  28.838  24.690  1.00  0.00     0.011 A 
ATOM     23  C   UNL A   1      32.127  27.366  25.182  1.00  0.00    -0.018 A 
ATOM     24  C   UNL A   1      32.953  30.124  25.451  1.00  0.00     0.047 C 
ATOM     25  C   UNL A   1      31.474  27.407  26.609  1.00  0.00     0.018 C 
ATOM     26  C   UNL A   1      31.683  30.023  26.349  1.00  0.00     0.006 C 
ATOM     27  C   UNL A   1      31.933  26.436  27.720  1.00  0.00     0.013 C 
ATOM     28  C   UNL A   1      31.765  28.804  27.271  1.00  0.00     0.008 C 
ENDBRANCH  10  11
ENDBRANCH   9  10
ENDBRANCH   6   9
ENDBRANCH   4   5
ENDBRANCH   3   4
ENDBRANCH   2   3
ENDBRANCH   1   2
BRANCH   1  29
ATOM     29  C   UNL A   1      40.512  21.434  26.387  1.00  0.00     0.021 C 
BRANCH  29  30
ATOM     30  C   UNL A   1      41.814  19.603  26.356  1.00  0.00     0.116 C 
BRANCH  30  31
ATOM     31  N   UNL A   1      43.508  19.532  26.029  1.00  0.00    -0.352 N 
ATOM     32  C   UNL A   1      44.349  20.354  25.292  1.00  0.00     0.251 C 
ATOM     33  H   UNL A   1      43.963  18.763  26.442  1.00  0.00     0.163 HD
ATOM     34  O   UNL A   1      45.306  19.918  24.664  1.00  0.00    -0.269 OA
BRANCH  32  35
ATOM     35  C   UNL A   1      44.132  21.788  25.446  1.00  0.00     0.039 A 
ATOM     36  C   UNL A   1      43.579  22.639  24.496  1.00  0.00     0.014 A 
ATOM     37  C   UNL A   1      44.576  22.289  26.654  1.00  0.00     0.014 A 
ATOM     38  C   UNL A   1      43.498  23.984  24.847  1.00  0.00     0.010 A 
ATOM     39  C   UNL A   1      43.927  23.371  27.106  1.00  0.00     0.010 A 
ATOM     40  C   UNL A   1      43.706  24.351  26.193  1.00  0.00    -0.014 A 
BRANCH  40  41
ATOM     41  C   UNL A   1      43.357  25.624  26.792  1.00  0.00     0.031 A 
ATOM     42  C   UNL A   1      44.345  26.625  26.364  1.00  0.00     0.074 A 
ATOM     43  C   UNL A   1      42.240  25.855  27.530  1.00  0.00     0.049 A 
ATOM     44  N   UNL A   1      45.494  26.748  26.933  1.00  0.00    -0.248 NA
ATOM     45  C   UNL A   1      44.301  27.226  25.022  1.00  0.00     0.031 C 
ATOM     46  C   UNL A   1      41.087  24.982  27.807  1.00  0.00     0.029 A 
ATOM     47  N   UNL A   1      41.915  26.983  28.237  1.00  0.00    -0.354 N 
ATOM     48  C   UNL A   1      46.132  27.764  26.259  1.00  0.00     0.074 A 
ATOM     49  C   UNL A   1      45.511  27.800  24.964  1.00  0.00     0.031 C 
ATOM     50  C   UNL A   1      40.110  25.675  28.448  1.00  0.00     0.029 A 
ATOM     51  C   UNL A   1      40.615  26.997  28.775  1.00  0.00     0.049 A 
ATOM     52  H   UNL A   1      42.546  27.729  28.360  1.00  0.00     0.167 HD
ATOM     53  C   UNL A   1      46.775  28.691  27.019  1.00  0.00     0.037 A 
ATOM     54  C   UNL A   1      40.077  27.938  29.611  1.00  0.00     0.037 A 
ATOM     55  C   UNL A   1      46.888  28.192  28.382  1.00  0.00     0.049 A 
ATOM     56  C   UNL A   1      41.246  28.595  30.250  1.00  0.00     0.074 A 
ATOM     57  C   UNL A   1      47.566  27.177  29.026  1.00  0.00     0.029 A 
ATOM     58  N   UNL A   1      45.770  28.473  29.134  1.00  0.00    -0.354 N 
ATOM     59  N   UNL A   1      42.026  27.979  31.101  1.00  0.00    -0.248 NA
ATOM     60  C   UNL A   1      41.833  29.744  29.574  1.00  0.00     0.031 C 
ATOM     61  C   UNL A   1      46.719  26.753  30.098  1.00  0.00     0.029 A 
ATOM     62  C   UNL A   1      45.599  27.583  30.153  1.00  0.00     0.049 A 
ATOM     63  H   UNL A   1      45.165  29.229  28.956  1.00  0.00     0.167 HD
ATOM     64  C   UNL A   1      43.305  28.377  30.748  1.00  0.00     0.074 A 
ATOM     65  C   UNL A   1      43.117  29.552  29.890  1.00  0.00     0.031 C 
ATOM     66  C   UNL A   1      44.363  27.526  30.909  1.00  0.00     0.037 A 
BRANCH  53  67
ATOM     67  C   UNL A   1      46.711  30.184  26.768  1.00  0.00     0.058 A 
ATOM     68  C   UNL A   1      47.907  30.919  26.910  1.00  0.00     0.135 A 
ATOM     69  C   UNL A   1      45.527  30.953  26.722  1.00  0.00     0.135 A 
ATOM     70  F   UNL A   1      49.094  30.293  26.957  1.00  0.00    -0.206 F 
ATOM     71  C   UNL A   1      47.919  32.300  27.087  1.00  0.00     0.059 A 
ATOM     72  C   UNL A   1      45.521  32.337  26.858  1.00  0.00     0.059 A 
ATOM     73  F   UNL A   1      44.310  30.413  26.619  1.00  0.00    -0.206 F 
ATOM     74  C   UNL A   1      46.718  32.999  27.068  1.00  0.00     0.060 A 
BRANCH  74  75
ATOM     75  S   UNL A   1      46.737  34.778  27.318  1.00  0.00     0.124 S 
ATOM     76  O   UNL A   1      46.883  34.870  28.766  1.00  0.00    -0.237 OA
ATOM     77  O   UNL A   1      47.900  35.172  26.529  1.00  0.00    -0.237 OA
ATOM     78  O   UNL A   1      45.448  35.206  26.782  1.00  0.00    -0.744 OA
ENDBRANCH  74  75
ENDBRANCH  53  67
BRANCH  54  79
ATOM     79  C   UNL A   1      38.767  28.663  29.489  1.00  0.00     0.058 A 
ATOM     80  C   UNL A   1      37.914  28.845  30.605  1.00  0.00     0.135 A 
ATOM     81  C   UNL A   1      38.463  29.449  28.365  1.00  0.00     0.135 A 
ATOM     82  F   UNL A   1      38.115  28.136  31.728  1.00  0.00    -0.206 F 
ATOM     83  C   UNL A   1      36.884  29.801  30.631  1.00  0.00     0.059 A 
ATOM     84  C   UNL A   1      37.444  30.409  28.367  1.00  0.00     0.059 A 
ATOM     85  F   UNL A   1      39.208  29.365  27.253  1.00  0.00    -0.206 F 
ATOM     86  C   UNL A   1      36.676  30.603  29.512  1.00  0.00     0.060 A 
BRANCH  86  87
ATOM     87  S   UNL A   1      35.474  31.963  29.584  1.00  0.00     0.124 S 
ATOM     88  O   UNL A   1      36.270  33.102  29.140  1.00  0.00    -0.237 OA
ATOM     89  O   UNL A   1      34.438  31.512  28.662  1.00  0.00    -0.237 OA
ATOM     90  O   UNL A   1      35.081  31.991  30.991  1.00  0.00    -0.744 OA
ENDBRANCH  86  87
ENDBRANCH  54  79
BRANCH  66  91
ATOM     91  C   UNL A   1      44.238  26.407  31.903  1.00  0.00     0.058 A 
ATOM     92  C   UNL A   1      44.116  25.039  31.607  1.00  0.00     0.135 A 
ATOM     93  C   UNL A   1      44.425  26.762  33.248  1.00  0.00     0.135 A 
ATOM     94  F   UNL A   1      43.996  24.615  30.339  1.00  0.00    -0.206 F 
ATOM     95  C   UNL A   1      44.180  24.068  32.614  1.00  0.00     0.059 A 
ATOM     96  C   UNL A   1      44.522  25.816  34.257  1.00  0.00     0.059 A 
ATOM     97  F   UNL A   1      44.587  28.052  33.584  1.00  0.00    -0.206 F 
ATOM     98  C   UNL A   1      44.394  24.469  33.937  1.00  0.00     0.060 A 
BRANCH  98  99
ATOM     99  S   UNL A   1      44.552  23.227  35.239  1.00  0.00     0.124 S 
ATOM    100  O   UNL A   1      43.596  23.700  36.234  1.00  0.00    -0.237 OA
ATOM    101  O   UNL A   1      44.190  21.994  34.545  1.00  0.00    -0.237 OA
ATOM    102  O   UNL A   1      45.957  23.320  35.633  1.00  0.00    -0.744 OA
ENDBRANCH  98  99
ENDBRANCH  66  91
ENDBRANCH  40  41
ENDBRANCH  32  35
ENDBRANCH  30  31
ENDBRANCH  29  30
ENDBRANCH   1  29
TORSDOF 18
ENDMDL
MODEL 2
REMARK VINA RESULT:     -12.5      2.727      9.543
REMARK SMILES Cc1nc2sc3c(c2c2nc(CCC(=O)NCCCCCCNC(=O)c4ccc(-c5c6nc(c(-c7c(F)cc(S(=O)(=O)[O-])cc7F)c7ccc([nH]7)c(-c7c(F)cc(S(=O)(=O)[O-])cc7F)c7nc(c(-c8c(F)cc(S(=O)(=O)[O-])cc8F)c8ccc5[nH]8)C=C7)C=C6)cc4)nn12)[C@@H](C)CCC3
REMARK SMILES IDX 20 1 19 2 18 3 17 4 16 5 14 6 15 7 13 9 12 10 11 11 1 12
REMARK SMILES IDX 2 13 3 14 93 15 4 16 9 17 92 18 5 19 8 20 10 21 6 22 7 23
REMARK SMILES IDX 98 24 94 25 97 26 95 27 96 28 21 29 22 30 23 31 24 32 25 34
REMARK SMILES IDX 26 35 27 36 91 37 28 38 90 39 29 40 30 41 31 42 84 43 32 44
REMARK SMILES IDX 89 45 83 46 85 47 33 48 88 49 82 50 81 51 34 53 68 54 47 55
REMARK SMILES IDX 67 56 48 57 51 58 66 59 86 60 49 61 50 62 65 64 87 65 52 66
REMARK SMILES IDX 35 67 36 68 45 69 37 70 38 71 44 72 46 73 39 74 40 75 41 76
REMARK SMILES IDX 42 77 43 78 69 79 70 80 79 81 71 82 72 83 78 84 80 85 73 86
REMARK SMILES IDX 74 87 75 88 76 89 77 90 53 91 54 92 63 93 55 94 56 95 62 96
REMARK SMILES IDX 64 97 57 98 58 99 59 100 60 101 61 102
REMARK H PARENT 16 8 23 33 85 52 51 63
REMARK Flexibility Score: inf
ROOT
ATOM      1  C   UNL A   1      33.036  28.336  24.371  1.00  0.00     0.002 C 
ENDROOT
BRANCH   1   2
ATOM      2  C   UNL A   1      31.625  27.885  24.639  1.00  0.00     0.002 C 
BRANCH   2   3
ATOM      3  C   UNL A   1      31.430  27.439  26.076  1.00  0.00     0.021 C 
BRANCH   3   4
ATOM      4  C   UNL A   1      31.358  25.934  26.134  1.00  0.00     0.116 C 
BRANCH   4   5
ATOM      5  N   UNL A   1      31.548  25.397  24.789  1.00  0.00    -0.356 N 
ATOM      6  C   UNL A   1      32.561  24.564  24.371  1.00  0.00     0.220 C 
ATOM      7  O   UNL A   1      32.841  24.543  23.172  1.00  0.00    -0.275 OA
ATOM      8  H   UNL A   1      30.885  25.660  24.111  1.00  0.00     0.163 HD
BRANCH   6   9
ATOM      9  C   UNL A   1      33.202  23.607  25.375  1.00  0.00     0.108 C 
BRANCH   9  10
ATOM     10  C   UNL A   1      34.570  23.982  26.004  1.00  0.00     0.089 C 
BRANCH  10  11
ATOM     11  C   UNL A   1      35.805  23.212  25.569  1.00  0.00     0.152 A 
ATOM     12  C   UNL A   1      36.518  19.246  24.488  1.00  0.00     0.090 C 
ATOM     13  C   UNL A   1      37.511  20.191  25.127  1.00  0.00     0.131 A 
ATOM     14  N   UNL A   1      38.667  19.724  25.545  1.00  0.00    -0.222 NA
ATOM     15  N   UNL A   1      37.084  21.555  25.208  1.00  0.00    -0.199 N 
ATOM     16  C   UNL A   1      39.462  20.644  26.160  1.00  0.00     0.129 A 
ATOM     17  C   UNL A   1      37.847  22.633  25.668  1.00  0.00     0.168 A 
ATOM     18  N   UNL A   1      35.765  21.931  25.148  1.00  0.00    -0.150 NA
ATOM     19  S   UNL A   1      41.312  19.953  27.366  1.00  0.00    -0.120 S 
ATOM     20  C   UNL A   1      39.185  22.338  26.310  1.00  0.00     0.060 A 
ATOM     21  N   UNL A   1      37.085  23.705  25.763  1.00  0.00    -0.211 NA
ATOM     22  C   UNL A   1      41.658  22.168  28.083  1.00  0.00     0.011 A 
ATOM     23  C   UNL A   1      40.434  23.277  27.427  1.00  0.00    -0.018 A 
ATOM     24  C   UNL A   1      42.889  22.615  28.802  1.00  0.00     0.047 C 
ATOM     25  C   UNL A   1      40.592  24.784  27.839  1.00  0.00     0.018 C 
ATOM     26  C   UNL A   1      43.080  24.106  28.389  1.00  0.00     0.006 C 
ATOM     27  C   UNL A   1      39.504  25.498  28.672  1.00  0.00     0.013 C 
ATOM     28  C   UNL A   1      41.851  24.936  28.769  1.00  0.00     0.008 C 
ENDBRANCH  10  11
ENDBRANCH   9  10
ENDBRANCH   6   9
ENDBRANCH   4   5
ENDBRANCH   3   4
ENDBRANCH   2   3
ENDBRANCH   1   2
BRANCH   1  29
ATOM     29  C   UNL A   1      34.174  28.268  25.587  1.00  0.00     0.021 C 
BRANCH  29  30
ATOM     30  C   UNL A   1      34.567  29.323  27.532  1.00  0.00     0.116 C 
BRANCH  30  31
ATOM     31  N   UNL A   1      34.683  31.026  27.790  1.00  0.00    -0.352 N 
ATOM     32  C   UNL A   1      35.477  31.789  28.635  1.00  0.00     0.251 C 
ATOM     33  H   UNL A   1      34.069  31.558  27.232  1.00  0.00     0.163 HD
ATOM     34  O   UNL A   1      35.080  32.828  29.146  1.00  0.00    -0.269 OA
BRANCH  32  35
ATOM     35  C   UNL A   1      36.870  31.372  28.746  1.00  0.00     0.039 A 
ATOM     36  C   UNL A   1      37.841  31.965  29.544  1.00  0.00     0.014 A 
ATOM     37  C   UNL A   1      37.197  30.309  27.927  1.00  0.00     0.014 A 
ATOM     38  C   UNL A   1      39.120  31.419  29.466  1.00  0.00     0.010 A 
ATOM     39  C   UNL A   1      38.193  29.526  28.364  1.00  0.00     0.010 A 
ATOM     40  C   UNL A   1      39.291  30.172  28.831  1.00  0.00    -0.014 A 
BRANCH  40  41
ATOM     41  C   UNL A   1      40.458  29.319  28.931  1.00  0.00     0.031 A 
ATOM     42  C   UNL A   1      40.611  28.903  30.332  1.00  0.00     0.074 A 
ATOM     43  C   UNL A   1      41.205  28.896  27.877  1.00  0.00     0.049 A 
ATOM     44  N   UNL A   1      41.168  29.655  31.218  1.00  0.00    -0.248 NA
ATOM     45  C   UNL A   1      39.770  27.849  30.921  1.00  0.00     0.031 C 
ATOM     46  C   UNL A   1      40.987  29.066  26.430  1.00  0.00     0.029 A 
ATOM     47  N   UNL A   1      42.390  28.209  27.904  1.00  0.00    -0.354 N 
ATOM     48  C   UNL A   1      41.116  28.940  32.393  1.00  0.00     0.074 A 
ATOM     49  C   UNL A   1      40.022  28.024  32.225  1.00  0.00     0.031 C 
ATOM     50  C   UNL A   1      41.889  28.335  25.725  1.00  0.00     0.029 A 
ATOM     51  C   UNL A   1      42.852  27.765  26.652  1.00  0.00     0.049 A 
ATOM     52  H   UNL A   1      42.882  28.040  28.740  1.00  0.00     0.167 HD
ATOM     53  C   UNL A   1      42.248  28.923  33.147  1.00  0.00     0.037 A 
ATOM     54  C   UNL A   1      44.051  27.163  26.380  1.00  0.00     0.037 A 
ATOM     55  C   UNL A   1      43.161  29.947  32.658  1.00  0.00     0.049 A 
ATOM     56  C   UNL A   1      44.943  27.562  27.499  1.00  0.00     0.074 A 
ATOM     57  C   UNL A   1      43.193  31.326  32.619  1.00  0.00     0.029 A 
ATOM     58  N   UNL A   1      43.944  29.495  31.622  1.00  0.00    -0.354 N 
ATOM     59  N   UNL A   1      45.359  28.791  27.667  1.00  0.00    -0.248 NA
ATOM     60  C   UNL A   1      44.957  26.722  28.688  1.00  0.00     0.031 C 
ATOM     61  C   UNL A   1      43.889  31.672  31.420  1.00  0.00     0.029 A 
ATOM     62  C   UNL A   1      44.358  30.508  30.810  1.00  0.00     0.049 A 
ATOM     63  H   UNL A   1      44.178  28.548  31.483  1.00  0.00     0.167 HD
ATOM     64  C   UNL A   1      45.267  29.003  29.034  1.00  0.00     0.074 A 
ATOM     65  C   UNL A   1      45.136  27.664  29.619  1.00  0.00     0.031 C 
ATOM     66  C   UNL A   1      44.971  30.245  29.522  1.00  0.00     0.037 A 
BRANCH  53  67
ATOM     67  C   UNL A   1      42.801  27.681  33.816  1.00  0.00     0.058 A 
ATOM     68  C   UNL A   1      42.995  27.727  35.214  1.00  0.00     0.135 A 
ATOM     69  C   UNL A   1      43.436  26.609  33.150  1.00  0.00     0.135 A 
ATOM     70  F   UNL A   1      42.432  28.697  35.951  1.00  0.00    -0.206 F 
ATOM     71  C   UNL A   1      43.830  26.835  35.882  1.00  0.00     0.059 A 
ATOM     72  C   UNL A   1      44.243  25.686  33.805  1.00  0.00     0.059 A 
ATOM     73  F   UNL A   1      43.378  26.437  31.827  1.00  0.00    -0.206 F 
ATOM     74  C   UNL A   1      44.456  25.822  35.166  1.00  0.00     0.060 A 
BRANCH  74  75
ATOM     75  S   UNL A   1      45.548  24.687  36.030  1.00  0.00     0.124 S 
ATOM     76  O   UNL A   1      46.512  24.355  34.987  1.00  0.00    -0.237 OA
ATOM     77  O   UNL A   1      46.042  25.526  37.117  1.00  0.00    -0.237 OA
ATOM     78  O   UNL A   1      44.655  23.606  36.435  1.00  0.00    -0.744 OA
ENDBRANCH  74  75
ENDBRANCH  53  67
BRANCH  54  79
ATOM     79  C   UNL A   1      44.314  25.900  25.609  1.00  0.00     0.058 A 
ATOM     80  C   UNL A   1      45.620  25.367  25.483  1.00  0.00     0.135 A 
ATOM     81  C   UNL A   1      43.272  25.033  25.240  1.00  0.00     0.135 A 
ATOM     82  F   UNL A   1      46.687  26.118  25.804  1.00  0.00    -0.206 F 
ATOM     83  C   UNL A   1      45.868  24.038  25.098  1.00  0.00     0.059 A 
ATOM     84  C   UNL A   1      43.494  23.706  24.855  1.00  0.00     0.059 A 
ATOM     85  F   UNL A   1      41.993  25.430  25.325  1.00  0.00    -0.206 F 
ATOM     86  C   UNL A   1      44.791  23.202  24.815  1.00  0.00     0.060 A 
BRANCH  86  87
ATOM     87  S   UNL A   1      45.075  21.438  24.491  1.00  0.00     0.124 S 
ATOM     88  O   UNL A   1      46.499  21.299  24.775  1.00  0.00    -0.237 OA
ATOM     89  O   UNL A   1      44.171  20.797  25.438  1.00  0.00    -0.237 OA
ATOM     90  O   UNL A   1      44.706  21.291  23.084  1.00  0.00    -0.744 OA
ENDBRANCH  86  87
ENDBRANCH  54  79
BRANCH  66  91
ATOM     91  C   UNL A   1      45.247  31.440  28.655  1.00  0.00     0.058 A 
ATOM     92  C   UNL A   1      46.497  32.048  28.447  1.00  0.00     0.135 A 
ATOM     93  C   UNL A   1      44.177  31.877  27.860  1.00  0.00     0.135 A 
ATOM     94  F   UNL A   1      47.582  31.643  29.125  1.00  0.00    -0.206 F 
ATOM     95  C   UNL A   1      46.668  33.051  27.484  1.00  0.00     0.059 A 
ATOM     96  C   UNL A   1      44.329  32.846  26.880  1.00  0.00     0.059 A 
ATOM     97  F   UNL A   1      42.969  31.304  27.988  1.00  0.00    -0.206 F 
ATOM     98  C   UNL A   1      45.577  33.435  26.699  1.00  0.00     0.060 A 
BRANCH  98  99
ATOM     99  S   UNL A   1      45.795  34.674  25.402  1.00  0.00     0.124 S 
ATOM    100  O   UNL A   1      45.331  35.892  26.058  1.00  0.00    -0.237 OA
ATOM    101  O   UNL A   1      47.228  34.603  25.134  1.00  0.00    -0.237 OA
ATOM    102  O   UNL A   1      44.942  34.189  24.318  1.00  0.00    -0.744 OA
ENDBRANCH  98  99
ENDBRANCH  66  91
ENDBRANCH  40  41
ENDBRANCH  32  35
ENDBRANCH  30  31
ENDBRANCH  29  30
ENDBRANCH   1  29
TORSDOF 18
ENDMDL
MODEL 3
REMARK VINA RESULT:     -12.3      2.011      2.866
REMARK SMILES Cc1nc2sc3c(c2c2nc(CCC(=O)NCCCCCCNC(=O)c4ccc(-c5c6nc(c(-c7c(F)cc(S(=O)(=O)[O-])cc7F)c7ccc([nH]7)c(-c7c(F)cc(S(=O)(=O)[O-])cc7F)c7nc(c(-c8c(F)cc(S(=O)(=O)[O-])cc8F)c8ccc5[nH]8)C=C7)C=C6)cc4)nn12)[C@@H](C)CCC3
REMARK SMILES IDX 20 1 19 2 18 3 17 4 16 5 14 6 15 7 13 9 12 10 11 11 1 12
REMARK SMILES IDX 2 13 3 14 93 15 4 16 9 17 92 18 5 19 8 20 10 21 6 22 7 23
REMARK SMILES IDX 98 24 94 25 97 26 95 27 96 28 21 29 22 30 23 31 24 32 25 34
REMARK SMILES IDX 26 35 27 36 91 37 28 38 90 39 29 40 30 41 31 42 84 43 32 44
REMARK SMILES IDX 89 45 83 46 85 47 33 48 88 49 82 50 81 51 34 53 68 54 47 55
REMARK SMILES IDX 67 56 48 57 51 58 66 59 86 60 49 61 50 62 65 64 87 65 52 66
REMARK SMILES IDX 35 67 36 68 45 69 37 70 38 71 44 72 46 73 39 74 40 75 41 76
REMARK SMILES IDX 42 77 43 78 69 79 70 80 79 81 71 82 72 83 78 84 80 85 73 86
REMARK SMILES IDX 74 87 75 88 76 89 77 90 53 91 54 92 63 93 55 94 56 95 62 96
REMARK SMILES IDX 64 97 57 98 58 99 59 100 60 101 61 102
REMARK H PARENT 16 8 23 33 85 52 51 63
REMARK Flexibility Score: inf
ROOT
ATOM      1  C   UNL A   1      39.364  21.830  26.129  1.00  0.00     0.002 C 
ENDROOT
BRANCH   1   2
ATOM      2  C   UNL A   1      39.277  23.287  26.499  1.00  0.00     0.002 C 
BRANCH   2   3
ATOM      3  C   UNL A   1      37.845  23.790  26.506  1.00  0.00     0.021 C 
BRANCH   3   4
ATOM      4  C   UNL A   1      36.984  22.881  25.668  1.00  0.00     0.116 C 
BRANCH   4   5
ATOM      5  N   UNL A   1      35.914  22.338  26.502  1.00  0.00    -0.356 N 
ATOM      6  C   UNL A   1      34.636  22.834  26.626  1.00  0.00     0.220 C 
ATOM      7  O   UNL A   1      34.002  22.559  27.646  1.00  0.00    -0.275 OA
ATOM      8  H   UNL A   1      36.130  21.536  27.030  1.00  0.00     0.163 HD
BRANCH   6   9
ATOM      9  C   UNL A   1      34.009  23.584  25.453  1.00  0.00     0.108 C 
BRANCH   9  10
ATOM     10  C   UNL A   1      32.846  24.573  25.727  1.00  0.00     0.089 C 
BRANCH  10  11
ATOM     11  C   UNL A   1      33.077  26.054  25.481  1.00  0.00     0.152 A 
ATOM     12  C   UNL A   1      34.968  29.091  27.628  1.00  0.00     0.090 C 
ATOM     13  C   UNL A   1      33.812  29.261  26.669  1.00  0.00     0.131 A 
ATOM     14  N   UNL A   1      33.208  30.426  26.589  1.00  0.00    -0.222 NA
ATOM     15  N   UNL A   1      33.482  28.096  25.905  1.00  0.00    -0.199 N 
ATOM     16  C   UNL A   1      32.141  30.455  25.741  1.00  0.00     0.129 A 
ATOM     17  C   UNL A   1      32.521  28.018  24.891  1.00  0.00     0.168 A 
ATOM     18  N   UNL A   1      33.837  26.825  26.285  1.00  0.00    -0.150 NA
ATOM     19  S   UNL A   1      30.672  32.243  25.792  1.00  0.00    -0.120 S 
ATOM     20  C   UNL A   1      31.608  29.207  24.680  1.00  0.00     0.060 A 
ATOM     21  N   UNL A   1      32.365  26.761  24.526  1.00  0.00    -0.211 NA
ATOM     22  C   UNL A   1      29.283  31.129  24.251  1.00  0.00     0.011 A 
ATOM     23  C   UNL A   1      29.941  29.544  23.789  1.00  0.00    -0.018 A 
ATOM     24  C   UNL A   1      28.122  31.781  23.573  1.00  0.00     0.047 C 
ATOM     25  C   UNL A   1      29.089  28.732  22.749  1.00  0.00     0.018 C 
ATOM     26  C   UNL A   1      28.013  31.073  22.189  1.00  0.00     0.006 C 
ATOM     27  C   UNL A   1      28.467  27.368  23.126  1.00  0.00     0.013 C 
ATOM     28  C   UNL A   1      27.812  29.566  22.364  1.00  0.00     0.008 C 
ENDBRANCH  10  11
ENDBRANCH   9  10
ENDBRANCH   6   9
ENDBRANCH   4   5
ENDBRANCH   3   4
ENDBRANCH   2   3
ENDBRANCH   1   2
BRANCH   1  29
ATOM     29  C   UNL A   1      40.404  20.825  26.956  1.00  0.00     0.021 C 
BRANCH  29  30
ATOM     30  C   UNL A   1      42.280  19.672  26.508  1.00  0.00     0.116 C 
BRANCH  30  31
ATOM     31  N   UNL A   1      43.616  20.188  25.544  1.00  0.00    -0.352 N 
ATOM     32  C   UNL A   1      43.960  21.423  25.013  1.00  0.00     0.251 C 
ATOM     33  H   UNL A   1      44.256  19.470  25.330  1.00  0.00     0.163 HD
ATOM     34  O   UNL A   1      44.527  21.537  23.933  1.00  0.00    -0.269 OA
BRANCH  32  35
ATOM     35  C   UNL A   1      43.762  22.570  25.891  1.00  0.00     0.039 A 
ATOM     36  C   UNL A   1      44.546  22.907  26.988  1.00  0.00     0.014 A 
ATOM     37  C   UNL A   1      42.652  23.327  25.571  1.00  0.00     0.014 A 
ATOM     38  C   UNL A   1      44.150  24.032  27.707  1.00  0.00     0.010 A 
ATOM     39  C   UNL A   1      42.722  24.625  25.898  1.00  0.00     0.010 A 
ATOM     40  C   UNL A   1      43.188  24.896  27.143  1.00  0.00    -0.014 A 
BRANCH  40  41
ATOM     41  C   UNL A   1      42.894  26.245  27.584  1.00  0.00     0.031 A 
ATOM     42  C   UNL A   1      43.886  27.154  26.992  1.00  0.00     0.074 A 
ATOM     43  C   UNL A   1      41.813  26.602  28.327  1.00  0.00     0.049 A 
ATOM     44  N   UNL A   1      45.060  27.317  27.496  1.00  0.00    -0.248 NA
ATOM     45  C   UNL A   1      43.801  27.577  25.585  1.00  0.00     0.031 C 
ATOM     46  C   UNL A   1      40.652  25.806  28.759  1.00  0.00     0.029 A 
ATOM     47  N   UNL A   1      41.545  27.821  28.892  1.00  0.00    -0.354 N 
ATOM     48  C   UNL A   1      45.694  28.218  26.671  1.00  0.00     0.074 A 
ATOM     49  C   UNL A   1      45.021  28.104  25.407  1.00  0.00     0.031 C 
ATOM     50  C   UNL A   1      39.719  26.603  29.341  1.00  0.00     0.029 A 
ATOM     51  C   UNL A   1      40.268  27.942  29.472  1.00  0.00     0.049 A 
ATOM     52  H   UNL A   1      42.197  28.558  28.893  1.00  0.00     0.167 HD
ATOM     53  C   UNL A   1      46.389  29.217  27.279  1.00  0.00     0.037 A 
ATOM     54  C   UNL A   1      39.788  28.999  30.198  1.00  0.00     0.037 A 
ATOM     55  C   UNL A   1      46.546  28.896  28.690  1.00  0.00     0.049 A 
ATOM     56  C   UNL A   1      40.997  29.699  30.701  1.00  0.00     0.074 A 
ATOM     57  C   UNL A   1      47.226  27.954  29.435  1.00  0.00     0.029 A 
ATOM     58  N   UNL A   1      45.467  29.304  29.441  1.00  0.00    -0.354 N 
ATOM     59  N   UNL A   1      41.796  29.177  31.595  1.00  0.00    -0.248 NA
ATOM     60  C   UNL A   1      41.582  30.733  29.859  1.00  0.00     0.031 C 
ATOM     61  C   UNL A   1      46.414  27.697  30.584  1.00  0.00     0.029 A 
ATOM     62  C   UNL A   1      45.317  28.559  30.573  1.00  0.00     0.049 A 
ATOM     63  H   UNL A   1      44.873  30.047  29.189  1.00  0.00     0.167 HD
ATOM     64  C   UNL A   1      43.069  29.489  31.145  1.00  0.00     0.074 A 
ATOM     65  C   UNL A   1      42.873  30.547  30.149  1.00  0.00     0.031 C 
ATOM     66  C   UNL A   1      44.112  28.636  31.376  1.00  0.00     0.037 A 
BRANCH  53  67
ATOM     67  C   UNL A   1      46.349  30.666  26.838  1.00  0.00     0.058 A 
ATOM     68  C   UNL A   1      47.560  31.390  26.872  1.00  0.00     0.135 A 
ATOM     69  C   UNL A   1      45.180  31.447  26.704  1.00  0.00     0.135 A 
ATOM     70  F   UNL A   1      48.736  30.751  26.988  1.00  0.00    -0.206 F 
ATOM     71  C   UNL A   1      47.600  32.781  26.869  1.00  0.00     0.059 A 
ATOM     72  C   UNL A   1      45.201  32.836  26.660  1.00  0.00     0.059 A 
ATOM     73  F   UNL A   1      43.951  30.922  26.683  1.00  0.00    -0.206 F 
ATOM     74  C   UNL A   1      46.412  33.496  26.771  1.00  0.00     0.060 A 
BRANCH  74  75
ATOM     75  S   UNL A   1      46.467  35.292  26.789  1.00  0.00     0.124 S 
ATOM     76  O   UNL A   1      45.102  35.631  26.408  1.00  0.00    -0.237 OA
ATOM     77  O   UNL A   1      46.834  35.559  28.176  1.00  0.00    -0.237 OA
ATOM     78  O   UNL A   1      47.497  35.605  25.803  1.00  0.00    -0.744 OA
ENDBRANCH  74  75
ENDBRANCH  53  67
BRANCH  54  79
ATOM     79  C   UNL A   1      38.490  29.739  30.032  1.00  0.00     0.058 A 
ATOM     80  C   UNL A   1      37.693  30.095  31.147  1.00  0.00     0.135 A 
ATOM     81  C   UNL A   1      38.156  30.374  28.824  1.00  0.00     0.135 A 
ATOM     82  F   UNL A   1      37.928  29.540  32.347  1.00  0.00    -0.206 F 
ATOM     83  C   UNL A   1      36.688  31.076  31.084  1.00  0.00     0.059 A 
ATOM     84  C   UNL A   1      37.160  31.354  28.737  1.00  0.00     0.059 A 
ATOM     85  F   UNL A   1      38.848  30.116  27.705  1.00  0.00    -0.206 F 
ATOM     86  C   UNL A   1      36.450  31.725  29.875  1.00  0.00     0.060 A 
BRANCH  86  87
ATOM     87  S   UNL A   1      35.285  33.117  29.810  1.00  0.00     0.124 S 
ATOM     88  O   UNL A   1      34.863  33.231  31.202  1.00  0.00    -0.237 OA
ATOM     89  O   UNL A   1      36.121  34.201  29.307  1.00  0.00    -0.237 OA
ATOM     90  O   UNL A   1      34.254  32.650  28.885  1.00  0.00    -0.744 OA
ENDBRANCH  86  87
ENDBRANCH  54  79
BRANCH  66  91
ATOM     91  C   UNL A   1      44.002  27.659  32.512  1.00  0.00     0.058 A 
ATOM     92  C   UNL A   1      43.941  27.975  33.879  1.00  0.00     0.135 A 
ATOM     93  C   UNL A   1      43.775  26.322  32.148  1.00  0.00     0.135 A 
ATOM     94  F   UNL A   1      44.085  29.241  34.302  1.00  0.00    -0.206 F 
ATOM     95  C   UNL A   1      43.665  26.996  34.842  1.00  0.00     0.059 A 
ATOM     96  C   UNL A   1      43.471  25.342  33.080  1.00  0.00     0.059 A 
ATOM     97  F   UNL A   1      43.782  25.970  30.852  1.00  0.00    -0.206 F 
ATOM     98  C   UNL A   1      43.422  25.683  34.428  1.00  0.00     0.060 A 
BRANCH  98  99
ATOM     99  S   UNL A   1      42.992  24.421  35.648  1.00  0.00     0.124 S 
ATOM    100  O   UNL A   1      41.661  24.842  36.072  1.00  0.00    -0.237 OA
ATOM    101  O   UNL A   1      43.050  23.191  34.864  1.00  0.00    -0.237 OA
ATOM    102  O   UNL A   1      44.038  24.554  36.661  1.00  0.00    -0.744 OA
ENDBRANCH  98  99
ENDBRANCH  66  91
ENDBRANCH  40  41
ENDBRANCH  32  35
ENDBRANCH  30  31
ENDBRANCH  29  30
ENDBRANCH   1  29
TORSDOF 18
ENDMDL
