MODEL 1
REMARK VINA RESULT:     -10.9      0.000      0.000
REMARK SMILES Cc1nc(CSCC(=O)N2CCCC[C@@H]2C(=O)NCCCCCCNC(=O)c2ccc(-c3c4nc(c(-c5c(F)cc(S(=O)(=O)[O-])cc5F)c5ccc([nH]5)c(-c5c(F)cc(S(=O)(=O)[O-])cc5F)c5nc(c(-c6c(F)cc(S(=O)(=O)[O-])cc6F)c6ccc3[nH]6)C=C5)C=C4)cc2)cs1
REMARK SMILES IDX 20 1 19 2 18 3 16 4 17 5 15 7 10 8 11 9 12 10 14 11 13 12
REMARK SMILES IDX 8 13 9 14 7 15 6 16 5 17 4 18 1 19 2 20 3 21 95 22 94 23
REMARK SMILES IDX 21 24 22 25 23 26 24 27 25 28 26 29 27 31 28 32 29 33 93 34
REMARK SMILES IDX 30 35 92 36 31 37 32 38 33 39 86 40 34 41 91 42 85 43 87 44
REMARK SMILES IDX 35 45 90 46 84 47 83 48 36 50 70 51 49 52 69 53 50 54 53 55
REMARK SMILES IDX 68 56 88 57 51 58 52 59 67 61 89 62 54 63 37 64 38 65 47 66
REMARK SMILES IDX 39 67 40 68 46 69 48 70 41 71 42 72 43 73 44 74 45 75 71 76
REMARK SMILES IDX 72 77 81 78 73 79 74 80 80 81 82 82 75 83 76 84 77 85 78 86
REMARK SMILES IDX 79 87 55 88 56 89 65 90 57 91 58 92 64 93 66 94 59 95 60 96
REMARK SMILES IDX 61 97 62 98 63 99
REMARK H PARENT 18 6 25 30 87 49 53 60
REMARK Flexibility Score: inf
ROOT
ATOM      1  C   UNL A   1      33.683  28.603  26.730  1.00  0.00     0.021 C 
ENDROOT
BRANCH   1   2
ATOM      2  C   UNL A   1      33.225  27.525  25.755  1.00  0.00     0.116 C 
BRANCH   2   3
ATOM      3  N   UNL A   1      32.281  26.620  26.397  1.00  0.00    -0.354 N 
ATOM      4  C   UNL A   1      31.696  25.480  25.934  1.00  0.00     0.242 C 
ATOM      5  O   UNL A   1      30.858  24.943  26.667  1.00  0.00    -0.273 OA
ATOM      6  H   UNL A   1      32.024  26.874  27.314  1.00  0.00     0.163 HD
BRANCH   4   7
ATOM      7  C   UNL A   1      31.890  25.001  24.480  1.00  0.00     0.174 C 
ATOM      8  N   UNL A   1      33.283  24.715  24.078  1.00  0.00    -0.330 N 
ATOM      9  C   UNL A   1      33.566  24.762  22.644  1.00  0.00     0.120 C 
ATOM     10  C   UNL A   1      33.105  26.049  21.989  1.00  0.00     0.022 C 
ATOM     11  C   UNL A   1      31.257  26.171  23.667  1.00  0.00     0.035 C 
ATOM     12  C   UNL A   1      31.611  26.223  22.191  1.00  0.00     0.004 C 
BRANCH   8  13
ATOM     13  C   UNL A   1      34.212  23.974  24.808  1.00  0.00     0.233 C 
ATOM     14  O   UNL A   1      35.159  24.573  25.336  1.00  0.00    -0.274 OA
BRANCH  13  15
ATOM     15  C   UNL A   1      34.265  22.453  24.738  1.00  0.00     0.170 C 
BRANCH  15  16
ATOM     16  S   UNL A   1      32.923  21.533  23.953  1.00  0.00    -0.146 SA
BRANCH  16  17
ATOM     17  C   UNL A   1      32.482  20.334  25.233  1.00  0.00     0.127 C 
BRANCH  17  18
ATOM     18  C   UNL A   1      33.092  18.982  25.132  1.00  0.00     0.061 A 
ATOM     19  C   UNL A   1      32.361  15.461  25.759  1.00  0.00     0.079 C 
ATOM     20  C   UNL A   1      32.931  16.780  25.374  1.00  0.00     0.090 A 
ATOM     21  N   UNL A   1      32.400  17.931  25.715  1.00  0.00    -0.246 NA
ATOM     22  S   UNL A   1      34.341  16.886  24.400  1.00  0.00    -0.127 S 
ATOM     23  C   UNL A   1      34.188  18.597  24.384  1.00  0.00     0.091 A 
ENDBRANCH  17  18
ENDBRANCH  16  17
ENDBRANCH  15  16
ENDBRANCH  13  15
ENDBRANCH   8  13
ENDBRANCH   4   7
ENDBRANCH   2   3
ENDBRANCH   1   2
BRANCH   1  24
ATOM     24  C   UNL A   1      32.536  29.470  27.268  1.00  0.00     0.002 C 
BRANCH  24  25
ATOM     25  C   UNL A   1      32.039  30.554  26.306  1.00  0.00     0.002 C 
BRANCH  25  26
ATOM     26  C   UNL A   1      31.676  31.890  26.954  1.00  0.00     0.021 C 
BRANCH  26  27
ATOM     27  C   UNL A   1      32.854  32.664  27.528  1.00  0.00     0.116 C 
BRANCH  27  28
ATOM     28  N   UNL A   1      32.549  34.070  27.748  1.00  0.00    -0.352 N 
ATOM     29  C   UNL A   1      33.109  34.929  28.661  1.00  0.00     0.251 C 
ATOM     30  H   UNL A   1      31.853  34.454  27.168  1.00  0.00     0.163 HD
ATOM     31  O   UNL A   1      32.642  36.051  28.830  1.00  0.00    -0.269 OA
BRANCH  29  32
ATOM     32  C   UNL A   1      34.263  34.468  29.463  1.00  0.00     0.039 A 
ATOM     33  C   UNL A   1      34.041  33.960  30.743  1.00  0.00     0.014 A 
ATOM     34  C   UNL A   1      35.553  34.497  28.925  1.00  0.00     0.014 A 
ATOM     35  C   UNL A   1      35.109  33.423  31.464  1.00  0.00     0.010 A 
ATOM     36  C   UNL A   1      36.598  33.888  29.611  1.00  0.00     0.010 A 
ATOM     37  C   UNL A   1      36.389  33.352  30.890  1.00  0.00    -0.014 A 
BRANCH  37  38
ATOM     38  C   UNL A   1      37.528  32.732  31.614  1.00  0.00     0.031 A 
ATOM     39  C   UNL A   1      38.210  31.519  31.045  1.00  0.00     0.074 A 
ATOM     40  C   UNL A   1      37.905  33.220  32.812  1.00  0.00     0.049 A 
ATOM     41  N   UNL A   1      39.181  30.802  31.548  1.00  0.00    -0.248 NA
ATOM     42  C   UNL A   1      37.711  31.028  29.750  1.00  0.00     0.031 C 
ATOM     43  C   UNL A   1      37.292  34.365  33.490  1.00  0.00     0.029 A 
ATOM     44  N   UNL A   1      38.891  32.812  33.675  1.00  0.00    -0.354 N 
ATOM     45  C   UNL A   1      39.399  29.770  30.644  1.00  0.00     0.074 A 
ATOM     46  C   UNL A   1      38.414  29.917  29.593  1.00  0.00     0.031 C 
ATOM     47  C   UNL A   1      37.939  34.588  34.646  1.00  0.00     0.029 A 
ATOM     48  C   UNL A   1      38.983  33.581  34.811  1.00  0.00     0.049 A 
ATOM     49  H   UNL A   1      39.477  32.042  33.497  1.00  0.00     0.167 HD
ATOM     50  C   UNL A   1      40.347  28.803  30.670  1.00  0.00     0.037 A 
ATOM     51  C   UNL A   1      39.815  33.485  35.867  1.00  0.00     0.037 A 
ATOM     52  C   UNL A   1      41.332  28.674  31.712  1.00  0.00     0.049 A 
ATOM     53  C   UNL A   1      40.850  32.395  35.887  1.00  0.00     0.074 A 
ATOM     54  C   UNL A   1      42.372  27.767  31.808  1.00  0.00     0.029 A 
ATOM     55  N   UNL A   1      41.392  29.471  32.847  1.00  0.00    -0.354 N 
ATOM     56  N   UNL A   1      41.086  31.465  34.992  1.00  0.00    -0.248 NA
ATOM     57  C   UNL A   1      41.735  32.342  37.059  1.00  0.00     0.031 C 
ATOM     58  C   UNL A   1      43.028  27.982  33.025  1.00  0.00     0.029 A 
ATOM     59  C   UNL A   1      42.435  29.060  33.662  1.00  0.00     0.049 A 
ATOM     60  H   UNL A   1      40.783  30.220  33.044  1.00  0.00     0.167 HD
ATOM     61  C   UNL A   1      42.166  30.735  35.476  1.00  0.00     0.074 A 
ATOM     62  C   UNL A   1      42.539  31.335  36.742  1.00  0.00     0.031 C 
ATOM     63  C   UNL A   1      42.794  29.668  34.921  1.00  0.00     0.037 A 
BRANCH  50  64
ATOM     64  C   UNL A   1      40.346  27.806  29.540  1.00  0.00     0.058 A 
ATOM     65  C   UNL A   1      39.492  26.691  29.536  1.00  0.00     0.135 A 
ATOM     66  C   UNL A   1      41.226  27.957  28.455  1.00  0.00     0.135 A 
ATOM     67  F   UNL A   1      38.639  26.489  30.553  1.00  0.00    -0.206 F 
ATOM     68  C   UNL A   1      39.550  25.732  28.530  1.00  0.00     0.059 A 
ATOM     69  C   UNL A   1      41.277  27.028  27.420  1.00  0.00     0.059 A 
ATOM     70  F   UNL A   1      42.062  29.006  28.402  1.00  0.00    -0.206 F 
ATOM     71  C   UNL A   1      40.454  25.905  27.481  1.00  0.00     0.060 A 
BRANCH  71  72
ATOM     72  S   UNL A   1      40.550  24.630  26.207  1.00  0.00     0.124 S 
ATOM     73  O   UNL A   1      39.140  24.296  26.025  1.00  0.00    -0.237 OA
ATOM     74  O   UNL A   1      41.180  25.339  25.099  1.00  0.00    -0.237 OA
ATOM     75  O   UNL A   1      41.365  23.590  26.827  1.00  0.00    -0.744 OA
ENDBRANCH  71  72
ENDBRANCH  50  64
BRANCH  51  76
ATOM     76  C   UNL A   1      39.727  34.485  36.965  1.00  0.00     0.058 A 
ATOM     77  C   UNL A   1      40.509  35.650  36.934  1.00  0.00     0.135 A 
ATOM     78  C   UNL A   1      38.831  34.327  38.033  1.00  0.00     0.135 A 
ATOM     79  F   UNL A   1      41.386  35.842  35.937  1.00  0.00    -0.206 F 
ATOM     80  C   UNL A   1      40.407  36.623  37.923  1.00  0.00     0.059 A 
ATOM     81  C   UNL A   1      38.694  35.297  39.022  1.00  0.00     0.059 A 
ATOM     82  F   UNL A   1      38.051  33.237  38.101  1.00  0.00    -0.206 F 
ATOM     83  C   UNL A   1      39.488  36.441  38.959  1.00  0.00     0.060 A 
BRANCH  83  84
ATOM     84  S   UNL A   1      39.307  37.750  40.190  1.00  0.00     0.124 S 
ATOM     85  O   UNL A   1      40.592  38.433  40.085  1.00  0.00    -0.237 OA
ATOM     86  O   UNL A   1      38.151  38.485  39.685  1.00  0.00    -0.237 OA
ATOM     87  O   UNL A   1      39.081  37.016  41.430  1.00  0.00    -0.744 OA
ENDBRANCH  83  84
ENDBRANCH  51  76
BRANCH  63  88
ATOM     88  C   UNL A   1      43.974  29.096  35.660  1.00  0.00     0.058 A 
ATOM     89  C   UNL A   1      43.836  28.041  36.574  1.00  0.00     0.135 A 
ATOM     90  C   UNL A   1      45.269  29.577  35.404  1.00  0.00     0.135 A 
ATOM     91  F   UNL A   1      42.621  27.549  36.860  1.00  0.00    -0.206 F 
ATOM     92  C   UNL A   1      44.937  27.495  37.226  1.00  0.00     0.059 A 
ATOM     93  C   UNL A   1      46.388  29.027  36.022  1.00  0.00     0.059 A 
ATOM     94  F   UNL A   1      45.460  30.579  34.532  1.00  0.00    -0.206 F 
ATOM     95  C   UNL A   1      46.210  27.993  36.940  1.00  0.00     0.060 A 
BRANCH  95  96
ATOM     96  S   UNL A   1      47.635  27.250  37.764  1.00  0.00     0.124 S 
ATOM     97  O   UNL A   1      48.677  27.415  36.757  1.00  0.00    -0.237 OA
ATOM     98  O   UNL A   1      47.771  28.079  38.958  1.00  0.00    -0.237 OA
ATOM     99  O   UNL A   1      47.208  25.876  38.009  1.00  0.00    -0.744 OA
ENDBRANCH  95  96
ENDBRANCH  63  88
ENDBRANCH  37  38
ENDBRANCH  29  32
ENDBRANCH  27  28
ENDBRANCH  26  27
ENDBRANCH  25  26
ENDBRANCH  24  25
ENDBRANCH   1  24
TORSDOF 21
ENDMDL
MODEL 2
REMARK VINA RESULT:     -10.7      2.576      8.872
REMARK SMILES Cc1nc(CSCC(=O)N2CCCC[C@@H]2C(=O)NCCCCCCNC(=O)c2ccc(-c3c4nc(c(-c5c(F)cc(S(=O)(=O)[O-])cc5F)c5ccc([nH]5)c(-c5c(F)cc(S(=O)(=O)[O-])cc5F)c5nc(c(-c6c(F)cc(S(=O)(=O)[O-])cc6F)c6ccc3[nH]6)C=C5)C=C4)cc2)cs1
REMARK SMILES IDX 20 1 19 2 18 3 16 4 17 5 15 7 10 8 11 9 12 10 14 11 13 12
REMARK SMILES IDX 8 13 9 14 7 15 6 16 5 17 4 18 1 19 2 20 3 21 95 22 94 23
REMARK SMILES IDX 21 24 22 25 23 26 24 27 25 28 26 29 27 31 28 32 29 33 93 34
REMARK SMILES IDX 30 35 92 36 31 37 32 38 33 39 86 40 34 41 91 42 85 43 87 44
REMARK SMILES IDX 35 45 90 46 84 47 83 48 36 50 70 51 49 52 69 53 50 54 53 55
REMARK SMILES IDX 68 56 88 57 51 58 52 59 67 61 89 62 54 63 37 64 38 65 47 66
REMARK SMILES IDX 39 67 40 68 46 69 48 70 41 71 42 72 43 73 44 74 45 75 71 76
REMARK SMILES IDX 72 77 81 78 73 79 74 80 80 81 82 82 75 83 76 84 77 85 78 86
REMARK SMILES IDX 79 87 55 88 56 89 65 90 57 91 58 92 64 93 66 94 59 95 60 96
REMARK SMILES IDX 61 97 62 98 63 99
REMARK H PARENT 18 6 25 30 87 49 53 60
REMARK Flexibility Score: inf
ROOT
ATOM      1  C   UNL A   1      36.086  23.704  24.452  1.00  0.00     0.021 C 
ENDROOT
BRANCH   1   2
ATOM      2  C   UNL A   1      34.757  24.445  24.547  1.00  0.00     0.116 C 
BRANCH   2   3
ATOM      3  N   UNL A   1      34.287  24.826  23.221  1.00  0.00    -0.354 N 
ATOM      4  C   UNL A   1      33.146  24.489  22.557  1.00  0.00     0.242 C 
ATOM      5  O   UNL A   1      33.034  24.892  21.395  1.00  0.00    -0.273 OA
ATOM      6  H   UNL A   1      34.894  25.423  22.724  1.00  0.00     0.163 HD
BRANCH   4   7
ATOM      7  C   UNL A   1      32.144  23.468  23.135  1.00  0.00     0.174 C 
ATOM      8  N   UNL A   1      31.589  23.793  24.465  1.00  0.00    -0.330 N 
ATOM      9  C   UNL A   1      31.069  22.669  25.244  1.00  0.00     0.120 C 
ATOM     10  C   UNL A   1      32.060  21.529  25.375  1.00  0.00     0.022 C 
ATOM     11  C   UNL A   1      32.984  22.155  23.138  1.00  0.00     0.035 C 
ATOM     12  C   UNL A   1      32.447  21.023  23.996  1.00  0.00     0.004 C 
BRANCH   8  13
ATOM     13  C   UNL A   1      31.083  25.030  24.864  1.00  0.00     0.233 C 
ATOM     14  O   UNL A   1      31.211  25.366  26.049  1.00  0.00    -0.274 OA
BRANCH  13  15
ATOM     15  C   UNL A   1      30.144  25.840  23.979  1.00  0.00     0.170 C 
BRANCH  15  16
ATOM     16  S   UNL A   1      30.480  27.586  23.656  1.00  0.00    -0.146 SA
BRANCH  16  17
ATOM     17  C   UNL A   1      32.231  27.723  24.082  1.00  0.00     0.127 C 
BRANCH  17  18
ATOM     18  C   UNL A   1      32.579  28.581  25.246  1.00  0.00     0.061 A 
ATOM     19  C   UNL A   1      35.339  29.352  27.508  1.00  0.00     0.079 C 
ATOM     20  C   UNL A   1      34.067  29.280  26.740  1.00  0.00     0.090 A 
ATOM     21  N   UNL A   1      33.788  28.331  25.877  1.00  0.00    -0.246 NA
ATOM     22  S   UNL A   1      32.860  30.490  26.909  1.00  0.00    -0.127 S 
ATOM     23  C   UNL A   1      31.928  29.716  25.691  1.00  0.00     0.091 A 
ENDBRANCH  17  18
ENDBRANCH  16  17
ENDBRANCH  15  16
ENDBRANCH  13  15
ENDBRANCH   8  13
ENDBRANCH   4   7
ENDBRANCH   2   3
ENDBRANCH   1   2
BRANCH   1  24
ATOM     24  C   UNL A   1      36.644  23.271  25.814  1.00  0.00     0.002 C 
BRANCH  24  25
ATOM     25  C   UNL A   1      38.062  23.764  26.119  1.00  0.00     0.002 C 
BRANCH  25  26
ATOM     26  C   UNL A   1      39.079  22.673  26.452  1.00  0.00     0.021 C 
BRANCH  26  27
ATOM     27  C   UNL A   1      40.347  23.166  27.136  1.00  0.00     0.116 C 
BRANCH  27  28
ATOM     28  N   UNL A   1      41.351  23.631  26.191  1.00  0.00    -0.352 N 
ATOM     29  C   UNL A   1      41.907  24.883  26.090  1.00  0.00     0.251 C 
ATOM     30  H   UNL A   1      41.671  22.965  25.543  1.00  0.00     0.163 HD
ATOM     31  O   UNL A   1      42.635  25.167  25.143  1.00  0.00    -0.269 OA
BRANCH  29  32
ATOM     32  C   UNL A   1      41.589  25.894  27.121  1.00  0.00     0.039 A 
ATOM     33  C   UNL A   1      40.625  25.599  28.086  1.00  0.00     0.014 A 
ATOM     34  C   UNL A   1      42.281  27.108  27.157  1.00  0.00     0.014 A 
ATOM     35  C   UNL A   1      40.396  26.501  29.126  1.00  0.00     0.010 A 
ATOM     36  C   UNL A   1      42.109  27.966  28.238  1.00  0.00     0.010 A 
ATOM     37  C   UNL A   1      41.160  27.675  29.230  1.00  0.00    -0.014 A 
BRANCH  37  38
ATOM     38  C   UNL A   1      40.975  28.621  30.360  1.00  0.00     0.031 A 
ATOM     39  C   UNL A   1      41.867  28.532  31.567  1.00  0.00     0.074 A 
ATOM     40  C   UNL A   1      39.968  29.515  30.327  1.00  0.00     0.049 A 
ATOM     41  N   UNL A   1      41.831  29.227  32.675  1.00  0.00    -0.248 NA
ATOM     42  C   UNL A   1      42.919  27.503  31.538  1.00  0.00     0.031 C 
ATOM     43  C   UNL A   1      39.009  29.668  29.230  1.00  0.00     0.029 A 
ATOM     44  N   UNL A   1      39.578  30.459  31.242  1.00  0.00    -0.354 N 
ATOM     45  C   UNL A   1      42.841  28.710  33.478  1.00  0.00     0.074 A 
ATOM     46  C   UNL A   1      43.428  27.602  32.756  1.00  0.00     0.031 C 
ATOM     47  C   UNL A   1      38.165  30.672  29.522  1.00  0.00     0.029 A 
ATOM     48  C   UNL A   1      38.495  31.205  30.840  1.00  0.00     0.049 A 
ATOM     49  H   UNL A   1      40.032  30.591  32.106  1.00  0.00     0.167 HD
ATOM     50  C   UNL A   1      43.261  29.135  34.694  1.00  0.00     0.037 A 
ATOM     51  C   UNL A   1      37.842  32.205  31.464  1.00  0.00     0.037 A 
ATOM     52  C   UNL A   1      42.680  30.249  35.398  1.00  0.00     0.049 A 
ATOM     53  C   UNL A   1      38.311  32.651  32.821  1.00  0.00     0.074 A 
ATOM     54  C   UNL A   1      43.064  30.798  36.609  1.00  0.00     0.029 A 
ATOM     55  N   UNL A   1      41.583  30.978  34.959  1.00  0.00    -0.354 N 
ATOM     56  N   UNL A   1      39.309  32.196  33.541  1.00  0.00    -0.248 NA
ATOM     57  C   UNL A   1      37.566  33.750  33.452  1.00  0.00     0.031 C 
ATOM     58  C   UNL A   1      42.168  31.825  36.926  1.00  0.00     0.029 A 
ATOM     59  C   UNL A   1      41.260  31.955  35.888  1.00  0.00     0.049 A 
ATOM     60  H   UNL A   1      41.105  30.824  34.113  1.00  0.00     0.167 HD
ATOM     61  C   UNL A   1      39.334  32.972  34.694  1.00  0.00     0.074 A 
ATOM     62  C   UNL A   1      38.252  33.929  34.573  1.00  0.00     0.031 C 
ATOM     63  C   UNL A   1      40.178  32.901  35.753  1.00  0.00     0.037 A 
BRANCH  50  64
ATOM     64  C   UNL A   1      44.393  28.377  35.337  1.00  0.00     0.058 A 
ATOM     65  C   UNL A   1      45.733  28.764  35.170  1.00  0.00     0.135 A 
ATOM     66  C   UNL A   1      44.136  27.236  36.115  1.00  0.00     0.135 A 
ATOM     67  F   UNL A   1      46.039  29.839  34.426  1.00  0.00    -0.206 F 
ATOM     68  C   UNL A   1      46.779  28.015  35.699  1.00  0.00     0.059 A 
ATOM     69  C   UNL A   1      45.166  26.491  36.684  1.00  0.00     0.059 A 
ATOM     70  F   UNL A   1      42.875  26.821  36.314  1.00  0.00    -0.206 F 
ATOM     71  C   UNL A   1      46.485  26.874  36.447  1.00  0.00     0.060 A 
BRANCH  71  72
ATOM     72  S   UNL A   1      47.853  25.889  37.090  1.00  0.00     0.124 S 
ATOM     73  O   UNL A   1      48.938  26.282  36.195  1.00  0.00    -0.237 OA
ATOM     74  O   UNL A   1      47.964  26.364  38.465  1.00  0.00    -0.237 OA
ATOM     75  O   UNL A   1      47.383  24.515  36.940  1.00  0.00    -0.744 OA
ENDBRANCH  71  72
ENDBRANCH  50  64
BRANCH  51  76
ATOM     76  C   UNL A   1      36.705  32.879  30.781  1.00  0.00     0.058 A 
ATOM     77  C   UNL A   1      35.384  32.639  31.187  1.00  0.00     0.135 A 
ATOM     78  C   UNL A   1      36.914  33.808  29.750  1.00  0.00     0.135 A 
ATOM     79  F   UNL A   1      35.133  31.752  32.162  1.00  0.00    -0.206 F 
ATOM     80  C   UNL A   1      34.309  33.295  30.597  1.00  0.00     0.059 A 
ATOM     81  C   UNL A   1      35.857  34.495  29.161  1.00  0.00     0.059 A 
ATOM     82  F   UNL A   1      38.160  34.083  29.335  1.00  0.00    -0.206 F 
ATOM     83  C   UNL A   1      34.557  34.231  29.591  1.00  0.00     0.060 A 
BRANCH  83  84
ATOM     84  S   UNL A   1      33.159  35.135  28.891  1.00  0.00     0.124 S 
ATOM     85  O   UNL A   1      32.610  34.156  27.960  1.00  0.00    -0.237 OA
ATOM     86  O   UNL A   1      32.353  35.411  30.076  1.00  0.00    -0.237 OA
ATOM     87  O   UNL A   1      33.786  36.304  28.282  1.00  0.00    -0.744 OA
ENDBRANCH  83  84
ENDBRANCH  51  76
BRANCH  63  88
ATOM     88  C   UNL A   1      39.991  33.907  36.858  1.00  0.00     0.058 A 
ATOM     89  C   UNL A   1      39.161  33.652  37.960  1.00  0.00     0.135 A 
ATOM     90  C   UNL A   1      40.699  35.120  36.837  1.00  0.00     0.135 A 
ATOM     91  F   UNL A   1      38.457  32.511  38.027  1.00  0.00    -0.206 F 
ATOM     92  C   UNL A   1      39.022  34.573  38.994  1.00  0.00     0.059 A 
ATOM     93  C   UNL A   1      40.598  36.044  37.873  1.00  0.00     0.059 A 
ATOM     94  F   UNL A   1      41.514  35.411  35.811  1.00  0.00    -0.206 F 
ATOM     95  C   UNL A   1      39.748  35.765  38.942  1.00  0.00     0.060 A 
BRANCH  95  96
ATOM     96  S   UNL A   1      39.588  36.935  40.309  1.00  0.00     0.124 S 
ATOM     97  O   UNL A   1      39.297  36.044  41.426  1.00  0.00    -0.237 OA
ATOM     98  O   UNL A   1      40.902  37.570  40.330  1.00  0.00    -0.237 OA
ATOM     99  O   UNL A   1      38.488  37.799  39.889  1.00  0.00    -0.744 OA
ENDBRANCH  95  96
ENDBRANCH  63  88
ENDBRANCH  37  38
ENDBRANCH  29  32
ENDBRANCH  27  28
ENDBRANCH  26  27
ENDBRANCH  25  26
ENDBRANCH  24  25
ENDBRANCH   1  24
TORSDOF 21
ENDMDL
MODEL 3
REMARK VINA RESULT:     -10.7      2.119      4.455
REMARK SMILES Cc1nc(CSCC(=O)N2CCCC[C@@H]2C(=O)NCCCCCCNC(=O)c2ccc(-c3c4nc(c(-c5c(F)cc(S(=O)(=O)[O-])cc5F)c5ccc([nH]5)c(-c5c(F)cc(S(=O)(=O)[O-])cc5F)c5nc(c(-c6c(F)cc(S(=O)(=O)[O-])cc6F)c6ccc3[nH]6)C=C5)C=C4)cc2)cs1
REMARK SMILES IDX 20 1 19 2 18 3 16 4 17 5 15 7 10 8 11 9 12 10 14 11 13 12
REMARK SMILES IDX 8 13 9 14 7 15 6 16 5 17 4 18 1 19 2 20 3 21 95 22 94 23
REMARK SMILES IDX 21 24 22 25 23 26 24 27 25 28 26 29 27 31 28 32 29 33 93 34
REMARK SMILES IDX 30 35 92 36 31 37 32 38 33 39 86 40 34 41 91 42 85 43 87 44
REMARK SMILES IDX 35 45 90 46 84 47 83 48 36 50 70 51 49 52 69 53 50 54 53 55
REMARK SMILES IDX 68 56 88 57 51 58 52 59 67 61 89 62 54 63 37 64 38 65 47 66
REMARK SMILES IDX 39 67 40 68 46 69 48 70 41 71 42 72 43 73 44 74 45 75 71 76
REMARK SMILES IDX 72 77 81 78 73 79 74 80 80 81 82 82 75 83 76 84 77 85 78 86
REMARK SMILES IDX 79 87 55 88 56 89 65 90 57 91 58 92 64 93 66 94 59 95 60 96
REMARK SMILES IDX 61 97 62 98 63 99
REMARK H PARENT 18 6 25 30 87 49 53 60
REMARK Flexibility Score: inf
ROOT
ATOM      1  C   UNL A   1      33.931  28.307  25.980  1.00  0.00     0.021 C 
ENDROOT
BRANCH   1   2
ATOM      2  C   UNL A   1      33.585  26.834  26.157  1.00  0.00     0.116 C 
BRANCH   2   3
ATOM      3  N   UNL A   1      34.645  25.990  25.620  1.00  0.00    -0.354 N 
ATOM      4  C   UNL A   1      34.590  24.743  25.074  1.00  0.00     0.242 C 
ATOM      5  O   UNL A   1      35.665  24.216  24.769  1.00  0.00    -0.273 OA
ATOM      6  H   UNL A   1      35.546  26.384  25.660  1.00  0.00     0.163 HD
BRANCH   4   7
ATOM      7  C   UNL A   1      33.280  23.928  25.044  1.00  0.00     0.174 C 
ATOM      8  N   UNL A   1      32.135  24.574  24.370  1.00  0.00    -0.330 N 
ATOM      9  C   UNL A   1      30.805  24.099  24.750  1.00  0.00     0.120 C 
ATOM     10  C   UNL A   1      30.578  24.105  26.249  1.00  0.00     0.022 C 
ATOM     11  C   UNL A   1      33.020  23.674  26.560  1.00  0.00     0.035 C 
ATOM     12  C   UNL A   1      31.616  23.231  26.930  1.00  0.00     0.004 C 
BRANCH   8  13
ATOM     13  C   UNL A   1      32.166  25.216  23.131  1.00  0.00     0.233 C 
ATOM     14  O   UNL A   1      32.467  24.551  22.131  1.00  0.00    -0.274 OA
BRANCH  13  15
ATOM     15  C   UNL A   1      32.127  26.734  23.008  1.00  0.00     0.170 C 
BRANCH  15  16
ATOM     16  S   UNL A   1      30.795  27.674  23.786  1.00  0.00    -0.146 SA
BRANCH  16  17
ATOM     17  C   UNL A   1      29.902  28.327  22.357  1.00  0.00     0.127 C 
BRANCH  17  18
ATOM     18  C   UNL A   1      29.478  29.752  22.418  1.00  0.00     0.061 A 
ATOM     19  C   UNL A   1      27.866  32.344  20.416  1.00  0.00     0.079 C 
ATOM     20  C   UNL A   1      28.508  31.509  21.466  1.00  0.00     0.090 A 
ATOM     21  N   UNL A   1      29.048  30.334  21.236  1.00  0.00    -0.246 NA
ATOM     22  S   UNL A   1      28.556  32.025  23.103  1.00  0.00    -0.127 S 
ATOM     23  C   UNL A   1      29.295  30.537  23.540  1.00  0.00     0.091 A 
ENDBRANCH  17  18
ENDBRANCH  16  17
ENDBRANCH  15  16
ENDBRANCH  13  15
ENDBRANCH   8  13
ENDBRANCH   4   7
ENDBRANCH   2   3
ENDBRANCH   1   2
BRANCH   1  24
ATOM     24  C   UNL A   1      33.104  29.243  26.872  1.00  0.00     0.002 C 
BRANCH  24  25
ATOM     25  C   UNL A   1      32.283  30.296  26.120  1.00  0.00     0.002 C 
BRANCH  25  26
ATOM     26  C   UNL A   1      31.886  31.524  26.937  1.00  0.00     0.021 C 
BRANCH  26  27
ATOM     27  C   UNL A   1      33.051  32.368  27.434  1.00  0.00     0.116 C 
BRANCH  27  28
ATOM     28  N   UNL A   1      32.688  33.761  27.644  1.00  0.00    -0.352 N 
ATOM     29  C   UNL A   1      33.180  34.636  28.582  1.00  0.00     0.251 C 
ATOM     30  H   UNL A   1      32.002  34.122  27.038  1.00  0.00     0.163 HD
ATOM     31  O   UNL A   1      32.667  35.740  28.734  1.00  0.00    -0.269 OA
BRANCH  29  32
ATOM     32  C   UNL A   1      34.317  34.214  29.427  1.00  0.00     0.039 A 
ATOM     33  C   UNL A   1      34.061  33.560  30.633  1.00  0.00     0.014 A 
ATOM     34  C   UNL A   1      35.632  34.425  29.000  1.00  0.00     0.014 A 
ATOM     35  C   UNL A   1      35.126  33.062  31.385  1.00  0.00     0.010 A 
ATOM     36  C   UNL A   1      36.685  33.856  29.709  1.00  0.00     0.010 A 
ATOM     37  C   UNL A   1      36.444  33.176  30.912  1.00  0.00    -0.014 A 
BRANCH  37  38
ATOM     38  C   UNL A   1      37.588  32.602  31.665  1.00  0.00     0.031 A 
ATOM     39  C   UNL A   1      38.320  31.405  31.124  1.00  0.00     0.074 A 
ATOM     40  C   UNL A   1      37.927  33.117  32.863  1.00  0.00     0.049 A 
ATOM     41  N   UNL A   1      39.304  30.727  31.655  1.00  0.00    -0.248 NA
ATOM     42  C   UNL A   1      37.861  30.882  29.826  1.00  0.00     0.031 C 
ATOM     43  C   UNL A   1      37.265  34.250  33.514  1.00  0.00     0.029 A 
ATOM     44  N   UNL A   1      38.909  32.753  33.749  1.00  0.00    -0.354 N 
ATOM     45  C   UNL A   1      39.572  29.691  30.768  1.00  0.00     0.074 A 
ATOM     46  C   UNL A   1      38.603  29.793  29.697  1.00  0.00     0.031 C 
ATOM     47  C   UNL A   1      37.882  34.509  34.679  1.00  0.00     0.029 A 
ATOM     48  C   UNL A   1      38.955  33.538  34.877  1.00  0.00     0.049 A 
ATOM     49  H   UNL A   1      39.523  32.000  33.592  1.00  0.00     0.167 HD
ATOM     50  C   UNL A   1      40.550  28.755  30.824  1.00  0.00     0.037 A 
ATOM     51  C   UNL A   1      39.769  33.483  35.949  1.00  0.00     0.037 A 
ATOM     52  C   UNL A   1      41.518  28.672  31.886  1.00  0.00     0.049 A 
ATOM     53  C   UNL A   1      40.838  32.427  36.002  1.00  0.00     0.074 A 
ATOM     54  C   UNL A   1      42.586  27.800  32.013  1.00  0.00     0.029 A 
ATOM     55  N   UNL A   1      41.531  29.485  33.012  1.00  0.00    -0.354 N 
ATOM     56  N   UNL A   1      41.121  31.494  35.124  1.00  0.00    -0.248 NA
ATOM     57  C   UNL A   1      41.702  32.417  37.191  1.00  0.00     0.031 C 
ATOM     58  C   UNL A   1      43.211  28.052  33.239  1.00  0.00     0.029 A 
ATOM     59  C   UNL A   1      42.571  29.117  33.850  1.00  0.00     0.049 A 
ATOM     60  H   UNL A   1      40.895  30.215  33.187  1.00  0.00     0.167 HD
ATOM     61  C   UNL A   1      42.214  30.805  35.637  1.00  0.00     0.074 A 
ATOM     62  C   UNL A   1      42.544  31.433  36.902  1.00  0.00     0.031 C 
ATOM     63  C   UNL A   1      42.887  29.753  35.108  1.00  0.00     0.037 A 
BRANCH  50  64
ATOM     64  C   UNL A   1      40.603  27.745  29.708  1.00  0.00     0.058 A 
ATOM     65  C   UNL A   1      41.594  27.791  28.713  1.00  0.00     0.135 A 
ATOM     66  C   UNL A   1      39.639  26.728  29.620  1.00  0.00     0.135 A 
ATOM     67  F   UNL A   1      42.534  28.750  28.738  1.00  0.00    -0.206 F 
ATOM     68  C   UNL A   1      41.592  26.905  27.641  1.00  0.00     0.059 A 
ATOM     69  C   UNL A   1      39.638  25.808  28.575  1.00  0.00     0.059 A 
ATOM     70  F   UNL A   1      38.670  26.630  30.545  1.00  0.00    -0.206 F 
ATOM     71  C   UNL A   1      40.603  25.922  27.576  1.00  0.00     0.060 A 
BRANCH  71  72
ATOM     72  S   UNL A   1      40.588  24.807  26.157  1.00  0.00     0.124 S 
ATOM     73  O   UNL A   1      39.165  24.495  26.050  1.00  0.00    -0.237 OA
ATOM     74  O   UNL A   1      41.133  25.645  25.094  1.00  0.00    -0.237 OA
ATOM     75  O   UNL A   1      41.442  23.703  26.582  1.00  0.00    -0.744 OA
ENDBRANCH  71  72
ENDBRANCH  50  64
BRANCH  51  76
ATOM     76  C   UNL A   1      39.628  34.492  37.032  1.00  0.00     0.058 A 
ATOM     77  C   UNL A   1      38.840  34.224  38.161  1.00  0.00     0.135 A 
ATOM     78  C   UNL A   1      40.312  35.717  36.989  1.00  0.00     0.135 A 
ATOM     79  F   UNL A   1      38.159  33.070  38.244  1.00  0.00    -0.206 F 
ATOM     80  C   UNL A   1      38.734  35.131  39.209  1.00  0.00     0.059 A 
ATOM     81  C   UNL A   1      40.241  36.631  38.035  1.00  0.00     0.059 A 
ATOM     82  F   UNL A   1      41.090  36.016  35.937  1.00  0.00    -0.206 F 
ATOM     83  C   UNL A   1      39.447  36.330  39.142  1.00  0.00     0.060 A 
BRANCH  83  84
ATOM     84  S   UNL A   1      39.365  37.462  40.546  1.00  0.00     0.124 S 
ATOM     85  O   UNL A   1      40.732  37.967  40.598  1.00  0.00    -0.237 OA
ATOM     86  O   UNL A   1      38.349  38.414  40.110  1.00  0.00    -0.237 OA
ATOM     87  O   UNL A   1      38.969  36.597  41.652  1.00  0.00    -0.744 OA
ENDBRANCH  83  84
ENDBRANCH  51  76
BRANCH  63  88
ATOM     88  C   UNL A   1      44.071  29.229  35.876  1.00  0.00     0.058 A 
ATOM     89  C   UNL A   1      45.342  29.813  35.768  1.00  0.00     0.135 A 
ATOM     90  C   UNL A   1      43.914  28.160  36.774  1.00  0.00     0.135 A 
ATOM     91  F   UNL A   1      45.548  30.832  34.920  1.00  0.00    -0.206 F 
ATOM     92  C   UNL A   1      46.422  29.344  36.509  1.00  0.00     0.059 A 
ATOM     93  C   UNL A   1      44.974  27.693  37.546  1.00  0.00     0.059 A 
ATOM     94  F   UNL A   1      42.718  27.570  36.924  1.00  0.00    -0.206 F 
ATOM     95  C   UNL A   1      46.227  28.285  37.398  1.00  0.00     0.060 A 
BRANCH  95  96
ATOM     96  S   UNL A   1      47.629  27.711  38.381  1.00  0.00     0.124 S 
ATOM     97  O   UNL A   1      47.433  28.441  39.628  1.00  0.00    -0.237 OA
ATOM     98  O   UNL A   1      47.395  26.271  38.446  1.00  0.00    -0.237 OA
ATOM     99  O   UNL A   1      48.787  28.116  37.590  1.00  0.00    -0.744 OA
ENDBRANCH  95  96
ENDBRANCH  63  88
ENDBRANCH  37  38
ENDBRANCH  29  32
ENDBRANCH  27  28
ENDBRANCH  26  27
ENDBRANCH  25  26
ENDBRANCH  24  25
ENDBRANCH   1  24
TORSDOF 21
ENDMDL
