MODEL 1
REMARK VINA RESULT:     -11.7      0.000      0.000
REMARK SMILES C[C@@H](C(=O)NCCCCCCNC(=O)c1ccc(-c2c3nc(c(-c4c(F)cc(S(=O)(=O)[O-])cc4F)c4ccc([nH]4)c(-c4c(F)cc(S(=O)(=O)[O-])cc4F)c4nc(c(-c5c(F)cc(S(=O)(=O)[O-])cc5F)c5ccc2[nH]5)C=C4)C=C3)cc1)c1ccc(-c2ccccc2)c(F)c1
REMARK SMILES IDX 9 1 8 2 7 3 6 4 5 5 3 6 4 7 2 9 1 10 81 11 82 12 93 13 83 14
REMARK SMILES IDX 91 15 84 16 92 17 85 18 86 19 90 20 87 21 89 22 88 23 10 24
REMARK SMILES IDX 11 25 12 26 13 27 14 29 15 30 16 31 80 32 17 33 79 34 18 35
REMARK SMILES IDX 19 36 20 37 73 38 21 39 78 40 72 41 74 42 22 43 77 44 71 45
REMARK SMILES IDX 70 46 23 48 57 49 36 50 56 51 37 52 40 53 55 54 75 55 38 56
REMARK SMILES IDX 39 57 54 59 76 60 41 61 24 62 25 63 34 64 26 65 27 66 33 67
REMARK SMILES IDX 35 68 28 69 29 70 30 71 31 72 32 73 58 74 59 75 68 76 60 77
REMARK SMILES IDX 61 78 67 79 69 80 62 81 63 82 64 83 65 84 66 85 42 86 43 87
REMARK SMILES IDX 52 88 44 89 45 90 51 91 53 92 46 93 47 94 48 95 49 96 50 97
REMARK H PARENT 5 8 12 28 74 47 40 58
REMARK Flexibility Score: inf
ROOT
ATOM      1  C   UNL A   1      35.998  23.267  25.945  1.00  0.00     0.002 C 
ENDROOT
BRANCH   1   2
ATOM      2  C   UNL A   1      35.275  22.135  25.212  1.00  0.00     0.002 C 
BRANCH   2   3
ATOM      3  C   UNL A   1      34.783  22.484  23.801  1.00  0.00     0.021 C 
BRANCH   3   4
ATOM      4  C   UNL A   1      33.406  21.909  23.452  1.00  0.00     0.116 C 
BRANCH   4   5
ATOM      5  N   UNL A   1      32.512  22.967  23.022  1.00  0.00    -0.356 N 
ATOM      6  C   UNL A   1      31.638  23.722  23.753  1.00  0.00     0.227 C 
ATOM      7  O   UNL A   1      30.761  24.319  23.124  1.00  0.00    -0.274 OA
ATOM      8  H   UNL A   1      32.538  23.172  22.060  1.00  0.00     0.163 HD
BRANCH   6   9
ATOM      9  C   UNL A   1      31.797  23.807  25.284  1.00  0.00     0.105 C 
ATOM     10  C   UNL A   1      30.477  23.359  25.929  1.00  0.00     0.023 C 
BRANCH   9  11
ATOM     11  C   UNL A   1      32.266  25.178  25.796  1.00  0.00    -0.033 A 
ATOM     12  C   UNL A   1      33.551  25.670  25.511  1.00  0.00     0.005 A 
ATOM     13  C   UNL A   1      31.445  25.977  26.608  1.00  0.00     0.044 A 
ATOM     14  C   UNL A   1      33.952  26.950  25.916  1.00  0.00     0.012 A 
ATOM     15  C   UNL A   1      31.855  27.246  27.022  1.00  0.00     0.131 A 
ATOM     16  C   UNL A   1      33.098  27.774  26.663  1.00  0.00     0.017 A 
ATOM     17  F   UNL A   1      30.999  27.969  27.762  1.00  0.00    -0.206 F 
BRANCH  16  18
ATOM     18  C   UNL A   1      33.489  29.141  27.029  1.00  0.00    -0.015 A 
ATOM     19  C   UNL A   1      34.792  29.415  27.481  1.00  0.00     0.009 A 
ATOM     20  C   UNL A   1      32.589  30.211  26.918  1.00  0.00     0.009 A 
ATOM     21  C   UNL A   1      35.180  30.716  27.808  1.00  0.00     0.001 A 
ATOM     22  C   UNL A   1      32.975  31.512  27.248  1.00  0.00     0.001 A 
ATOM     23  C   UNL A   1      34.270  31.764  27.692  1.00  0.00     0.000 A 
ENDBRANCH  16  18
ENDBRANCH   9  11
ENDBRANCH   6   9
ENDBRANCH   4   5
ENDBRANCH   3   4
ENDBRANCH   2   3
ENDBRANCH   1   2
BRANCH   1  24
ATOM     24  C   UNL A   1      37.438  23.518  25.487  1.00  0.00     0.021 C 
BRANCH  24  25
ATOM     25  C   UNL A   1      38.351  24.148  26.537  1.00  0.00     0.116 C 
BRANCH  25  26
ATOM     26  N   UNL A   1      39.756  24.029  26.186  1.00  0.00    -0.352 N 
ATOM     27  C   UNL A   1      40.818  24.812  26.557  1.00  0.00     0.251 C 
ATOM     28  H   UNL A   1      39.980  23.274  25.594  1.00  0.00     0.163 HD
ATOM     29  O   UNL A   1      41.908  24.658  26.001  1.00  0.00    -0.269 OA
BRANCH  27  30
ATOM     30  C   UNL A   1      40.662  25.850  27.600  1.00  0.00     0.039 A 
ATOM     31  C   UNL A   1      39.680  25.674  28.578  1.00  0.00     0.014 A 
ATOM     32  C   UNL A   1      41.454  27.002  27.605  1.00  0.00     0.014 A 
ATOM     33  C   UNL A   1      39.529  26.624  29.590  1.00  0.00     0.010 A 
ATOM     34  C   UNL A   1      41.343  27.921  28.649  1.00  0.00     0.010 A 
ATOM     35  C   UNL A   1      40.379  27.742  29.652  1.00  0.00    -0.014 A 
BRANCH  35  36
ATOM     36  C   UNL A   1      40.274  28.710  30.774  1.00  0.00     0.031 A 
ATOM     37  C   UNL A   1      41.142  28.569  31.994  1.00  0.00     0.074 A 
ATOM     38  C   UNL A   1      39.366  29.705  30.702  1.00  0.00     0.049 A 
ATOM     39  N   UNL A   1      41.175  29.310  33.072  1.00  0.00    -0.248 NA
ATOM     40  C   UNL A   1      42.081  27.436  32.017  1.00  0.00     0.031 C 
ATOM     41  C   UNL A   1      38.426  29.915  29.597  1.00  0.00     0.029 A 
ATOM     42  N   UNL A   1      39.080  30.724  31.575  1.00  0.00    -0.354 N 
ATOM     43  C   UNL A   1      42.137  28.739  33.898  1.00  0.00     0.074 A 
ATOM     44  C   UNL A   1      42.625  27.558  33.222  1.00  0.00     0.031 C 
ATOM     45  C   UNL A   1      37.684  31.003  29.851  1.00  0.00     0.029 A 
ATOM     46  C   UNL A   1      38.073  31.555  31.145  1.00  0.00     0.049 A 
ATOM     47  H   UNL A   1      39.553  30.849  32.431  1.00  0.00     0.167 HD
ATOM     48  C   UNL A   1      42.590  29.175  35.099  1.00  0.00     0.037 A 
ATOM     49  C   UNL A   1      37.523  32.639  31.726  1.00  0.00     0.037 A 
ATOM     50  C   UNL A   1      42.114  30.362  35.763  1.00  0.00     0.049 A 
ATOM     51  C   UNL A   1      38.055  33.108  33.053  1.00  0.00     0.074 A 
ATOM     52  C   UNL A   1      42.537  30.906  36.964  1.00  0.00     0.029 A 
ATOM     53  N   UNL A   1      41.114  31.193  35.282  1.00  0.00    -0.354 N 
ATOM     54  N   UNL A   1      39.003  32.585  33.792  1.00  0.00    -0.248 NA
ATOM     55  C   UNL A   1      37.451  34.322  33.618  1.00  0.00     0.031 C 
ATOM     56  C   UNL A   1      41.772  32.049  37.225  1.00  0.00     0.029 A 
ATOM     57  C   UNL A   1      40.899  32.239  36.165  1.00  0.00     0.049 A 
ATOM     58  H   UNL A   1      40.627  31.060  34.436  1.00  0.00     0.167 HD
ATOM     59  C   UNL A   1      39.121  33.415  34.901  1.00  0.00     0.074 A 
ATOM     60  C   UNL A   1      38.164  34.488  34.723  1.00  0.00     0.031 C 
ATOM     61  C   UNL A   1      39.942  33.298  35.973  1.00  0.00     0.037 A 
BRANCH  48  62
ATOM     62  C   UNL A   1      43.678  28.380  35.767  1.00  0.00     0.058 A 
ATOM     63  C   UNL A   1      43.376  27.315  36.630  1.00  0.00     0.135 A 
ATOM     64  C   UNL A   1      45.030  28.641  35.496  1.00  0.00     0.135 A 
ATOM     65  F   UNL A   1      42.100  27.033  36.937  1.00  0.00    -0.206 F 
ATOM     66  C   UNL A   1      44.377  26.544  37.213  1.00  0.00     0.059 A 
ATOM     67  C   UNL A   1      46.048  27.868  36.050  1.00  0.00     0.059 A 
ATOM     68  F   UNL A   1      45.374  29.649  34.680  1.00  0.00    -0.206 F 
ATOM     69  C   UNL A   1      45.711  26.826  36.913  1.00  0.00     0.060 A 
BRANCH  69  70
ATOM     70  S   UNL A   1      46.995  25.797  37.654  1.00  0.00     0.124 S 
ATOM     71  O   UNL A   1      47.231  24.818  36.598  1.00  0.00    -0.237 OA
ATOM     72  O   UNL A   1      48.073  26.756  37.881  1.00  0.00    -0.237 OA
ATOM     73  O   UNL A   1      46.361  25.278  38.861  1.00  0.00    -0.744 OA
ENDBRANCH  69  70
ENDBRANCH  48  62
BRANCH  49  74
ATOM     74  C   UNL A   1      36.411  33.363  31.056  1.00  0.00     0.058 A 
ATOM     75  C   UNL A   1      36.640  34.149  29.916  1.00  0.00     0.135 A 
ATOM     76  C   UNL A   1      35.100  33.294  31.551  1.00  0.00     0.135 A 
ATOM     77  F   UNL A   1      37.878  34.248  29.409  1.00  0.00    -0.206 F 
ATOM     78  C   UNL A   1      35.615  34.865  29.308  1.00  0.00     0.059 A 
ATOM     79  C   UNL A   1      34.053  33.981  30.944  1.00  0.00     0.059 A 
ATOM     80  F   UNL A   1      34.825  32.540  32.626  1.00  0.00    -0.206 F 
ATOM     81  C   UNL A   1      34.324  34.778  29.833  1.00  0.00     0.060 A 
BRANCH  81  82
ATOM     82  S   UNL A   1      32.993  35.693  29.025  1.00  0.00     0.124 S 
ATOM     83  O   UNL A   1      32.419  34.669  28.158  1.00  0.00    -0.237 OA
ATOM     84  O   UNL A   1      32.171  36.107  30.157  1.00  0.00    -0.237 OA
ATOM     85  O   UNL A   1      33.698  36.776  28.345  1.00  0.00    -0.744 OA
ENDBRANCH  81  82
ENDBRANCH  49  74
BRANCH  61  86
ATOM     86  C   UNL A   1      39.852  34.370  37.024  1.00  0.00     0.058 A 
ATOM     87  C   UNL A   1      39.065  34.204  38.174  1.00  0.00     0.135 A 
ATOM     88  C   UNL A   1      40.572  35.567  36.886  1.00  0.00     0.135 A 
ATOM     89  F   UNL A   1      38.353  33.080  38.351  1.00  0.00    -0.206 F 
ATOM     90  C   UNL A   1      38.966  35.204  39.136  1.00  0.00     0.059 A 
ATOM     91  C   UNL A   1      40.508  36.571  37.847  1.00  0.00     0.059 A 
ATOM     92  F   UNL A   1      41.348  35.770  35.811  1.00  0.00    -0.206 F 
ATOM     93  C   UNL A   1      39.687  36.388  38.961  1.00  0.00     0.060 A 
BRANCH  93  94
ATOM     94  S   UNL A   1      39.554  37.678  40.216  1.00  0.00     0.124 S 
ATOM     95  O   UNL A   1      40.943  38.104  40.346  1.00  0.00    -0.237 OA
ATOM     96  O   UNL A   1      38.652  38.638  39.587  1.00  0.00    -0.237 OA
ATOM     97  O   UNL A   1      39.001  36.972  41.369  1.00  0.00    -0.744 OA
ENDBRANCH  93  94
ENDBRANCH  61  86
ENDBRANCH  35  36
ENDBRANCH  27  30
ENDBRANCH  25  26
ENDBRANCH  24  25
ENDBRANCH   1  24
TORSDOF 18
ENDMDL
MODEL 2
REMARK VINA RESULT:     -11.6      3.579     10.027
REMARK SMILES C[C@@H](C(=O)NCCCCCCNC(=O)c1ccc(-c2c3nc(c(-c4c(F)cc(S(=O)(=O)[O-])cc4F)c4ccc([nH]4)c(-c4c(F)cc(S(=O)(=O)[O-])cc4F)c4nc(c(-c5c(F)cc(S(=O)(=O)[O-])cc5F)c5ccc2[nH]5)C=C4)C=C3)cc1)c1ccc(-c2ccccc2)c(F)c1
REMARK SMILES IDX 9 1 8 2 7 3 6 4 5 5 3 6 4 7 2 9 1 10 81 11 82 12 93 13 83 14
REMARK SMILES IDX 91 15 84 16 92 17 85 18 86 19 90 20 87 21 89 22 88 23 10 24
REMARK SMILES IDX 11 25 12 26 13 27 14 29 15 30 16 31 80 32 17 33 79 34 18 35
REMARK SMILES IDX 19 36 20 37 73 38 21 39 78 40 72 41 74 42 22 43 77 44 71 45
REMARK SMILES IDX 70 46 23 48 57 49 36 50 56 51 37 52 40 53 55 54 75 55 38 56
REMARK SMILES IDX 39 57 54 59 76 60 41 61 24 62 25 63 34 64 26 65 27 66 33 67
REMARK SMILES IDX 35 68 28 69 29 70 30 71 31 72 32 73 58 74 59 75 68 76 60 77
REMARK SMILES IDX 61 78 67 79 69 80 62 81 63 82 64 83 65 84 66 85 42 86 43 87
REMARK SMILES IDX 52 88 44 89 45 90 51 91 53 92 46 93 47 94 48 95 49 96 50 97
REMARK H PARENT 5 8 12 28 74 47 40 58
REMARK Flexibility Score: inf
ROOT
ATOM      1  C   UNL A   1      31.661  27.771  26.391  1.00  0.00     0.002 C 
ENDROOT
BRANCH   1   2
ATOM      2  C   UNL A   1      30.831  26.641  25.780  1.00  0.00     0.002 C 
BRANCH   2   3
ATOM      3  C   UNL A   1      30.648  26.716  24.259  1.00  0.00     0.021 C 
BRANCH   3   4
ATOM      4  C   UNL A   1      30.360  25.368  23.590  1.00  0.00     0.116 C 
BRANCH   4   5
ATOM      5  N   UNL A   1      31.363  25.081  22.583  1.00  0.00    -0.356 N 
ATOM      6  C   UNL A   1      32.680  24.746  22.733  1.00  0.00     0.227 C 
ATOM      7  O   UNL A   1      33.401  24.875  21.741  1.00  0.00    -0.274 OA
ATOM      8  H   UNL A   1      31.050  25.135  21.651  1.00  0.00     0.163 HD
BRANCH   6   9
ATOM      9  C   UNL A   1      33.184  24.218  24.091  1.00  0.00     0.105 C 
ATOM     10  C   UNL A   1      34.510  24.922  24.417  1.00  0.00     0.023 C 
BRANCH   9  11
ATOM     11  C   UNL A   1      33.296  22.688  24.173  1.00  0.00    -0.033 A 
ATOM     12  C   UNL A   1      34.221  22.062  25.025  1.00  0.00     0.005 A 
ATOM     13  C   UNL A   1      32.507  21.852  23.367  1.00  0.00     0.044 A 
ATOM     14  C   UNL A   1      34.272  20.667  25.153  1.00  0.00     0.012 A 
ATOM     15  C   UNL A   1      32.572  20.462  23.487  1.00  0.00     0.131 A 
ATOM     16  C   UNL A   1      33.428  19.840  24.399  1.00  0.00     0.017 A 
ATOM     17  F   UNL A   1      31.757  19.728  22.712  1.00  0.00    -0.206 F 
BRANCH  16  18
ATOM     18  C   UNL A   1      33.431  18.383  24.583  1.00  0.00    -0.015 A 
ATOM     19  C   UNL A   1      32.707  17.792  25.633  1.00  0.00     0.009 A 
ATOM     20  C   UNL A   1      34.135  17.541  23.709  1.00  0.00     0.009 A 
ATOM     21  C   UNL A   1      32.684  16.406  25.800  1.00  0.00     0.001 A 
ATOM     22  C   UNL A   1      34.117  16.154  23.878  1.00  0.00     0.001 A 
ATOM     23  C   UNL A   1      33.391  15.587  24.922  1.00  0.00     0.000 A 
ENDBRANCH  16  18
ENDBRANCH   9  11
ENDBRANCH   6   9
ENDBRANCH   4   5
ENDBRANCH   3   4
ENDBRANCH   2   3
ENDBRANCH   1   2
BRANCH   1  24
ATOM     24  C   UNL A   1      33.150  27.457  26.572  1.00  0.00     0.021 C 
BRANCH  24  25
ATOM     25  C   UNL A   1      34.106  28.473  25.952  1.00  0.00     0.116 C 
BRANCH  25  26
ATOM     26  N   UNL A   1      33.802  29.834  26.361  1.00  0.00    -0.352 N 
ATOM     27  C   UNL A   1      34.399  30.611  27.320  1.00  0.00     0.251 C 
ATOM     28  H   UNL A   1      33.059  30.263  25.878  1.00  0.00     0.163 HD
ATOM     29  O   UNL A   1      33.874  31.677  27.649  1.00  0.00    -0.269 OA
BRANCH  27  30
ATOM     30  C   UNL A   1      35.650  30.172  27.975  1.00  0.00     0.039 A 
ATOM     31  C   UNL A   1      36.858  30.343  27.295  1.00  0.00     0.014 A 
ATOM     32  C   UNL A   1      35.639  29.572  29.238  1.00  0.00     0.014 A 
ATOM     33  C   UNL A   1      38.057  29.963  27.900  1.00  0.00     0.010 A 
ATOM     34  C   UNL A   1      36.842  29.247  29.867  1.00  0.00     0.010 A 
ATOM     35  C   UNL A   1      38.063  29.439  29.205  1.00  0.00    -0.014 A 
BRANCH  35  36
ATOM     36  C   UNL A   1      39.344  29.111  29.882  1.00  0.00     0.031 A 
ATOM     37  C   UNL A   1      39.785  29.874  31.101  1.00  0.00     0.074 A 
ATOM     38  C   UNL A   1      40.127  28.138  29.374  1.00  0.00     0.049 A 
ATOM     39  N   UNL A   1      40.876  29.735  31.810  1.00  0.00    -0.248 NA
ATOM     40  C   UNL A   1      38.897  30.947  31.574  1.00  0.00     0.031 C 
ATOM     41  C   UNL A   1      39.838  27.364  28.164  1.00  0.00     0.029 A 
ATOM     42  N   UNL A   1      41.328  27.635  29.807  1.00  0.00    -0.354 N 
ATOM     43  C   UNL A   1      40.805  30.696  32.812  1.00  0.00     0.074 A 
ATOM     44  C   UNL A   1      39.591  31.449  32.587  1.00  0.00     0.031 C 
ATOM     45  C   UNL A   1      40.822  26.474  27.963  1.00  0.00     0.029 A 
ATOM     46  C   UNL A   1      41.825  26.629  29.012  1.00  0.00     0.049 A 
ATOM     47  H   UNL A   1      41.792  27.964  30.611  1.00  0.00     0.167 HD
ATOM     48  C   UNL A   1      41.661  30.913  33.841  1.00  0.00     0.037 A 
ATOM     49  C   UNL A   1      42.961  25.913  29.114  1.00  0.00     0.037 A 
ATOM     50  C   UNL A   1      42.860  30.150  34.072  1.00  0.00     0.049 A 
ATOM     51  C   UNL A   1      43.886  26.165  30.273  1.00  0.00     0.074 A 
ATOM     52  C   UNL A   1      43.772  30.271  35.108  1.00  0.00     0.029 A 
ATOM     53  N   UNL A   1      43.316  29.121  33.262  1.00  0.00    -0.354 N 
ATOM     54  N   UNL A   1      43.773  27.042  31.242  1.00  0.00    -0.248 NA
ATOM     55  C   UNL A   1      45.086  25.323  30.361  1.00  0.00     0.031 C 
ATOM     56  C   UNL A   1      44.793  29.335  34.907  1.00  0.00     0.029 A 
ATOM     57  C   UNL A   1      44.497  28.605  33.768  1.00  0.00     0.049 A 
ATOM     58  H   UNL A   1      42.864  28.803  32.446  1.00  0.00     0.167 HD
ATOM     59  C   UNL A   1      44.877  26.846  32.062  1.00  0.00     0.074 A 
ATOM     60  C   UNL A   1      45.632  25.751  31.491  1.00  0.00     0.031 C 
ATOM     61  C   UNL A   1      45.237  27.514  33.185  1.00  0.00     0.037 A 
BRANCH  48  62
ATOM     62  C   UNL A   1      41.319  32.006  34.816  1.00  0.00     0.058 A 
ATOM     63  C   UNL A   1      41.825  33.306  34.661  1.00  0.00     0.135 A 
ATOM     64  C   UNL A   1      40.430  31.771  35.877  1.00  0.00     0.135 A 
ATOM     65  F   UNL A   1      42.692  33.581  33.673  1.00  0.00    -0.206 F 
ATOM     66  C   UNL A   1      41.474  34.332  35.531  1.00  0.00     0.059 A 
ATOM     67  C   UNL A   1      40.047  32.789  36.747  1.00  0.00     0.059 A 
ATOM     68  F   UNL A   1      39.919  30.546  36.073  1.00  0.00    -0.206 F 
ATOM     69  C   UNL A   1      40.580  34.065  36.570  1.00  0.00     0.060 A 
BRANCH  69  70
ATOM     70  S   UNL A   1      40.113  35.416  37.672  1.00  0.00     0.124 S 
ATOM     71  O   UNL A   1      38.912  34.876  38.303  1.00  0.00    -0.237 OA
ATOM     72  O   UNL A   1      41.284  35.536  38.535  1.00  0.00    -0.237 OA
ATOM     73  O   UNL A   1      39.893  36.536  36.762  1.00  0.00    -0.744 OA
ENDBRANCH  69  70
ENDBRANCH  48  62
BRANCH  49  74
ATOM     74  C   UNL A   1      43.288  24.880  28.095  1.00  0.00     0.058 A 
ATOM     75  C   UNL A   1      42.815  23.565  28.219  1.00  0.00     0.135 A 
ATOM     76  C   UNL A   1      44.090  25.185  26.986  1.00  0.00     0.135 A 
ATOM     77  F   UNL A   1      42.047  23.225  29.265  1.00  0.00    -0.206 F 
ATOM     78  C   UNL A   1      43.150  22.580  27.296  1.00  0.00     0.059 A 
ATOM     79  C   UNL A   1      44.418  24.224  26.035  1.00  0.00     0.059 A 
ATOM     80  F   UNL A   1      44.551  26.433  26.811  1.00  0.00    -0.206 F 
ATOM     81  C   UNL A   1      43.957  22.919  26.208  1.00  0.00     0.060 A 
BRANCH  81  82
ATOM     82  S   UNL A   1      44.371  21.643  25.000  1.00  0.00     0.124 S 
ATOM     83  O   UNL A   1      45.776  21.394  25.307  1.00  0.00    -0.237 OA
ATOM     84  O   UNL A   1      43.441  20.574  25.347  1.00  0.00    -0.237 OA
ATOM     85  O   UNL A   1      44.110  22.298  23.721  1.00  0.00    -0.744 OA
ENDBRANCH  81  82
ENDBRANCH  49  74
BRANCH  61  86
ATOM     86  C   UNL A   1      46.494  27.064  33.877  1.00  0.00     0.058 A 
ATOM     87  C   UNL A   1      47.739  27.644  33.586  1.00  0.00     0.135 A 
ATOM     88  C   UNL A   1      46.451  26.052  34.848  1.00  0.00     0.135 A 
ATOM     89  F   UNL A   1      47.835  28.611  32.660  1.00  0.00    -0.206 F 
ATOM     90  C   UNL A   1      48.904  27.212  34.211  1.00  0.00     0.059 A 
ATOM     91  C   UNL A   1      47.599  25.622  35.504  1.00  0.00     0.059 A 
ATOM     92  F   UNL A   1      45.284  25.473  35.170  1.00  0.00    -0.206 F 
ATOM     93  C   UNL A   1      48.825  26.195  35.165  1.00  0.00     0.060 A 
BRANCH  93  94
ATOM     94  S   UNL A   1      50.343  25.644  35.973  1.00  0.00     0.124 S 
ATOM     95  O   UNL A   1      49.999  24.274  36.338  1.00  0.00    -0.237 OA
ATOM     96  O   UNL A   1      51.334  25.787  34.911  1.00  0.00    -0.237 OA
ATOM     97  O   UNL A   1      50.490  26.575  37.088  1.00  0.00    -0.744 OA
ENDBRANCH  93  94
ENDBRANCH  61  86
ENDBRANCH  35  36
ENDBRANCH  27  30
ENDBRANCH  25  26
ENDBRANCH  24  25
ENDBRANCH   1  24
TORSDOF 18
ENDMDL
MODEL 3
REMARK VINA RESULT:     -11.5      1.251      2.037
REMARK SMILES C[C@@H](C(=O)NCCCCCCNC(=O)c1ccc(-c2c3nc(c(-c4c(F)cc(S(=O)(=O)[O-])cc4F)c4ccc([nH]4)c(-c4c(F)cc(S(=O)(=O)[O-])cc4F)c4nc(c(-c5c(F)cc(S(=O)(=O)[O-])cc5F)c5ccc2[nH]5)C=C4)C=C3)cc1)c1ccc(-c2ccccc2)c(F)c1
REMARK SMILES IDX 9 1 8 2 7 3 6 4 5 5 3 6 4 7 2 9 1 10 81 11 82 12 93 13 83 14
REMARK SMILES IDX 91 15 84 16 92 17 85 18 86 19 90 20 87 21 89 22 88 23 10 24
REMARK SMILES IDX 11 25 12 26 13 27 14 29 15 30 16 31 80 32 17 33 79 34 18 35
REMARK SMILES IDX 19 36 20 37 73 38 21 39 78 40 72 41 74 42 22 43 77 44 71 45
REMARK SMILES IDX 70 46 23 48 57 49 36 50 56 51 37 52 40 53 55 54 75 55 38 56
REMARK SMILES IDX 39 57 54 59 76 60 41 61 24 62 25 63 34 64 26 65 27 66 33 67
REMARK SMILES IDX 35 68 28 69 29 70 30 71 31 72 32 73 58 74 59 75 68 76 60 77
REMARK SMILES IDX 61 78 67 79 69 80 62 81 63 82 64 83 65 84 66 85 42 86 43 87
REMARK SMILES IDX 52 88 44 89 45 90 51 91 53 92 46 93 47 94 48 95 49 96 50 97
REMARK H PARENT 5 8 12 28 74 47 40 58
REMARK Flexibility Score: inf
ROOT
ATOM      1  C   UNL A   1      37.439  23.735  25.606  1.00  0.00     0.002 C 
ENDROOT
BRANCH   1   2
ATOM      2  C   UNL A   1      35.971  23.367  25.831  1.00  0.00     0.002 C 
BRANCH   2   3
ATOM      3  C   UNL A   1      35.697  21.869  26.016  1.00  0.00     0.021 C 
BRANCH   3   4
ATOM      4  C   UNL A   1      35.107  21.177  24.782  1.00  0.00     0.116 C 
BRANCH   4   5
ATOM      5  N   UNL A   1      34.351  20.004  25.175  1.00  0.00    -0.356 N 
ATOM      6  C   UNL A   1      32.998  19.818  25.238  1.00  0.00     0.227 C 
ATOM      7  O   UNL A   1      32.601  18.862  25.909  1.00  0.00    -0.274 OA
ATOM      8  H   UNL A   1      34.893  19.225  25.437  1.00  0.00     0.163 HD
BRANCH   6   9
ATOM      9  C   UNL A   1      32.059  20.772  24.473  1.00  0.00     0.105 C 
ATOM     10  C   UNL A   1      32.343  20.620  22.971  1.00  0.00     0.023 C 
BRANCH   9  11
ATOM     11  C   UNL A   1      32.127  22.234  24.939  1.00  0.00    -0.033 A 
ATOM     12  C   UNL A   1      32.065  22.577  26.300  1.00  0.00     0.005 A 
ATOM     13  C   UNL A   1      32.208  23.292  24.020  1.00  0.00     0.044 A 
ATOM     14  C   UNL A   1      32.200  23.904  26.728  1.00  0.00     0.012 A 
ATOM     15  C   UNL A   1      32.327  24.616  24.451  1.00  0.00     0.131 A 
ATOM     16  C   UNL A   1      32.357  24.949  25.807  1.00  0.00     0.017 A 
ATOM     17  F   UNL A   1      32.441  25.571  23.515  1.00  0.00    -0.206 F 
BRANCH  16  18
ATOM     18  C   UNL A   1      32.568  26.331  26.257  1.00  0.00    -0.015 A 
ATOM     19  C   UNL A   1      33.806  26.968  26.059  1.00  0.00     0.009 A 
ATOM     20  C   UNL A   1      31.540  27.061  26.873  1.00  0.00     0.009 A 
ATOM     21  C   UNL A   1      34.007  28.289  26.460  1.00  0.00     0.001 A 
ATOM     22  C   UNL A   1      31.742  28.383  27.280  1.00  0.00     0.001 A 
ATOM     23  C   UNL A   1      32.975  28.996  27.072  1.00  0.00     0.000 A 
ENDBRANCH  16  18
ENDBRANCH   9  11
ENDBRANCH   6   9
ENDBRANCH   4   5
ENDBRANCH   3   4
ENDBRANCH   2   3
ENDBRANCH   1   2
BRANCH   1  24
ATOM     24  C   UNL A   1      38.452  22.733  26.167  1.00  0.00     0.021 C 
BRANCH  24  25
ATOM     25  C   UNL A   1      39.557  23.342  27.027  1.00  0.00     0.116 C 
BRANCH  25  26
ATOM     26  N   UNL A   1      40.724  23.709  26.243  1.00  0.00    -0.352 N 
ATOM     27  C   UNL A   1      41.469  24.859  26.273  1.00  0.00     0.251 C 
ATOM     28  H   UNL A   1      41.025  23.033  25.593  1.00  0.00     0.163 HD
ATOM     29  O   UNL A   1      42.311  25.059  25.395  1.00  0.00    -0.269 OA
BRANCH  27  30
ATOM     30  C   UNL A   1      41.258  25.868  27.335  1.00  0.00     0.039 A 
ATOM     31  C   UNL A   1      40.190  25.696  28.219  1.00  0.00     0.014 A 
ATOM     32  C   UNL A   1      42.084  26.990  27.448  1.00  0.00     0.014 A 
ATOM     33  C   UNL A   1      39.982  26.617  29.247  1.00  0.00     0.010 A 
ATOM     34  C   UNL A   1      41.912  27.879  28.511  1.00  0.00     0.010 A 
ATOM     35  C   UNL A   1      40.860  27.702  29.421  1.00  0.00    -0.014 A 
BRANCH  35  36
ATOM     36  C   UNL A   1      40.689  28.637  30.563  1.00  0.00     0.031 A 
ATOM     37  C   UNL A   1      41.540  28.505  31.797  1.00  0.00     0.074 A 
ATOM     38  C   UNL A   1      39.740  29.591  30.496  1.00  0.00     0.049 A 
ATOM     39  N   UNL A   1      41.518  29.219  32.892  1.00  0.00    -0.248 NA
ATOM     40  C   UNL A   1      42.528  27.415  31.812  1.00  0.00     0.031 C 
ATOM     41  C   UNL A   1      38.812  29.786  29.378  1.00  0.00     0.029 A 
ATOM     42  N   UNL A   1      39.392  30.575  31.387  1.00  0.00    -0.354 N 
ATOM     43  C   UNL A   1      42.489  28.672  33.724  1.00  0.00     0.074 A 
ATOM     44  C   UNL A   1      43.043  27.531  33.029  1.00  0.00     0.031 C 
ATOM     45  C   UNL A   1      38.017  30.834  29.641  1.00  0.00     0.029 A 
ATOM     46  C   UNL A   1      38.356  31.371  30.956  1.00  0.00     0.049 A 
ATOM     47  H   UNL A   1      39.841  30.700  32.255  1.00  0.00     0.167 HD
ATOM     48  C   UNL A   1      42.899  29.098  34.944  1.00  0.00     0.037 A 
ATOM     49  C   UNL A   1      37.747  32.414  31.551  1.00  0.00     0.037 A 
ATOM     50  C   UNL A   1      42.358  30.246  35.625  1.00  0.00     0.049 A 
ATOM     51  C   UNL A   1      38.232  32.874  32.899  1.00  0.00     0.074 A 
ATOM     52  C   UNL A   1      42.733  30.778  36.847  1.00  0.00     0.029 A 
ATOM     53  N   UNL A   1      41.330  31.044  35.144  1.00  0.00    -0.354 N 
ATOM     54  N   UNL A   1      39.188  32.376  33.645  1.00  0.00    -0.248 NA
ATOM     55  C   UNL A   1      37.563  34.046  33.481  1.00  0.00     0.031 C 
ATOM     56  C   UNL A   1      41.912  31.879  37.119  1.00  0.00     0.029 A 
ATOM     57  C   UNL A   1      41.052  32.057  36.047  1.00  0.00     0.049 A 
ATOM     58  H   UNL A   1      40.866  30.910  34.286  1.00  0.00     0.167 HD
ATOM     59  C   UNL A   1      39.247  33.183  34.776  1.00  0.00     0.074 A 
ATOM     60  C   UNL A   1      38.247  34.216  34.603  1.00  0.00     0.031 C 
ATOM     61  C   UNL A   1      40.052  33.077  35.861  1.00  0.00     0.037 A 
BRANCH  48  62
ATOM     62  C   UNL A   1      44.009  28.336  35.615  1.00  0.00     0.058 A 
ATOM     63  C   UNL A   1      45.356  28.631  35.355  1.00  0.00     0.135 A 
ATOM     64  C   UNL A   1      43.726  27.347  36.570  1.00  0.00     0.135 A 
ATOM     65  F   UNL A   1      45.682  29.556  34.438  1.00  0.00    -0.206 F 
ATOM     66  C   UNL A   1      46.386  27.963  36.009  1.00  0.00     0.059 A 
ATOM     67  C   UNL A   1      44.741  26.682  37.254  1.00  0.00     0.059 A 
ATOM     68  F   UNL A   1      42.455  27.024  36.854  1.00  0.00    -0.206 F 
ATOM     69  C   UNL A   1      46.068  26.992  36.960  1.00  0.00     0.060 A 
BRANCH  69  70
ATOM     70  S   UNL A   1      47.417  26.156  37.820  1.00  0.00     0.124 S 
ATOM     71  O   UNL A   1      47.657  25.012  36.946  1.00  0.00    -0.237 OA
ATOM     72  O   UNL A   1      48.462  27.176  37.830  1.00  0.00    -0.237 OA
ATOM     73  O   UNL A   1      46.844  25.839  39.125  1.00  0.00    -0.744 OA
ENDBRANCH  69  70
ENDBRANCH  48  62
BRANCH  49  74
ATOM     74  C   UNL A   1      36.616  33.104  30.876  1.00  0.00     0.058 A 
ATOM     75  C   UNL A   1      36.831  33.923  29.757  1.00  0.00     0.135 A 
ATOM     76  C   UNL A   1      35.302  32.969  31.346  1.00  0.00     0.135 A 
ATOM     77  F   UNL A   1      38.072  34.085  29.274  1.00  0.00    -0.206 F 
ATOM     78  C   UNL A   1      35.787  34.608  29.145  1.00  0.00     0.059 A 
ATOM     79  C   UNL A   1      34.237  33.624  30.734  1.00  0.00     0.059 A 
ATOM     80  F   UNL A   1      35.040  32.181  32.400  1.00  0.00    -0.206 F 
ATOM     81  C   UNL A   1      34.492  34.455  29.644  1.00  0.00     0.060 A 
BRANCH  81  82
ATOM     82  S   UNL A   1      33.137  35.329  28.832  1.00  0.00     0.124 S 
ATOM     83  O   UNL A   1      33.847  36.412  28.161  1.00  0.00    -0.237 OA
ATOM     84  O   UNL A   1      32.578  34.297  27.965  1.00  0.00    -0.237 OA
ATOM     85  O   UNL A   1      32.282  35.728  29.948  1.00  0.00    -0.744 OA
ENDBRANCH  81  82
ENDBRANCH  49  74
BRANCH  61  86
ATOM     86  C   UNL A   1      39.894  34.117  36.935  1.00  0.00     0.058 A 
ATOM     87  C   UNL A   1      39.051  33.910  38.038  1.00  0.00     0.135 A 
ATOM     88  C   UNL A   1      40.603  35.326  36.868  1.00  0.00     0.135 A 
ATOM     89  F   UNL A   1      38.345  32.772  38.146  1.00  0.00    -0.206 F 
ATOM     90  C   UNL A   1      38.888  34.881  39.020  1.00  0.00     0.059 A 
ATOM     91  C   UNL A   1      40.477  36.301  37.851  1.00  0.00     0.059 A 
ATOM     92  F   UNL A   1      41.432  35.568  35.840  1.00  0.00    -0.206 F 
ATOM     93  C   UNL A   1      39.602  36.077  38.915  1.00  0.00     0.060 A 
BRANCH  93  94
ATOM     94  S   UNL A   1      39.387  37.330  40.197  1.00  0.00     0.124 S 
ATOM     95  O   UNL A   1      40.767  37.735  40.444  1.00  0.00    -0.237 OA
ATOM     96  O   UNL A   1      38.545  38.319  39.533  1.00  0.00    -0.237 OA
ATOM     97  O   UNL A   1      38.743  36.596  41.283  1.00  0.00    -0.744 OA
ENDBRANCH  93  94
ENDBRANCH  61  86
ENDBRANCH  35  36
ENDBRANCH  27  30
ENDBRANCH  25  26
ENDBRANCH  24  25
ENDBRANCH   1  24
TORSDOF 18
ENDMDL
