MODEL 1
REMARK VINA RESULT:     -11.1      0.000      0.000
REMARK SMILES [NH3+][C@H]1C=C[C@@H](C(=O)N2CCC(CC(=O)NCCCCCCNC(=O)c3ccc(-c4c5nc(c(-c6c(F)cc(S(=O)(=O)[O-])cc6F)c6ccc([nH]6)c(-c6c(F)cc(S(=O)(=O)[O-])cc6F)c6nc(c(-c7c(F)cc(S(=O)(=O)[O-])cc7F)c7ccc4[nH]7)C=C6)C=C5)cc3)CC2)C1
REMARK SMILES IDX 18 1 17 2 16 3 15 4 13 5 14 6 12 8 11 9 6 10 7 11 8 12 9 13
REMARK SMILES IDX 92 14 10 15 91 16 5 17 2 18 3 19 93 20 4 21 1 22 19 26 20 27
REMARK SMILES IDX 21 28 22 29 23 30 24 32 25 33 26 34 90 35 27 36 89 37 28 38
REMARK SMILES IDX 29 39 30 40 83 41 31 42 88 43 82 44 84 45 32 46 87 47 81 48
REMARK SMILES IDX 80 49 33 51 67 52 46 53 66 54 47 55 50 56 65 57 85 58 48 59
REMARK SMILES IDX 49 60 64 62 86 63 51 64 34 65 35 66 44 67 36 68 37 69 43 70
REMARK SMILES IDX 45 71 38 72 39 73 40 74 41 75 42 76 68 77 69 78 78 79 70 80
REMARK SMILES IDX 71 81 77 82 79 83 72 84 73 85 74 86 75 87 76 88 52 89 53 90
REMARK SMILES IDX 62 91 54 92 55 93 61 94 63 95 56 96 57 97 58 98 59 99 60 100
REMARK H PARENT 15 7 1 23 1 24 1 25 22 31 84 50 50 61
REMARK Flexibility Score: inf
ROOT
ATOM      1  C   UNL A   1      41.145  21.756  27.901  1.00  0.00     0.002 C 
ENDROOT
BRANCH   1   2
ATOM      2  C   UNL A   1      40.143  22.453  26.982  1.00  0.00     0.021 C 
BRANCH   2   3
ATOM      3  C   UNL A   1      39.192  21.505  26.244  1.00  0.00     0.116 C 
BRANCH   3   4
ATOM      4  N   UNL A   1      38.511  22.202  25.165  1.00  0.00    -0.356 N 
ATOM      5  C   UNL A   1      37.299  21.961  24.590  1.00  0.00     0.220 C 
ATOM      6  O   UNL A   1      36.981  22.616  23.594  1.00  0.00    -0.275 OA
ATOM      7  H   UNL A   1      39.001  22.970  24.793  1.00  0.00     0.163 HD
BRANCH   5   8
ATOM      8  C   UNL A   1      36.356  20.922  25.170  1.00  0.00     0.103 C 
BRANCH   8   9
ATOM      9  C   UNL A   1      34.980  21.477  25.584  1.00  0.00     0.002 C 
ATOM     10  C   UNL A   1      33.214  24.831  24.675  1.00  0.00     0.229 C 
ATOM     11  O   UNL A   1      34.327  25.176  24.277  1.00  0.00    -0.274 OA
ATOM     12  N   UNL A   1      33.028  23.642  25.369  1.00  0.00    -0.342 N 
ATOM     13  C   UNL A   1      33.764  23.478  26.605  1.00  0.00     0.120 C 
ATOM     14  C   UNL A   1      32.798  22.409  24.637  1.00  0.00     0.120 C 
ATOM     15  C   UNL A   1      35.103  22.789  26.370  1.00  0.00     0.026 C 
ATOM     16  C   UNL A   1      34.110  21.686  24.331  1.00  0.00     0.026 C 
BRANCH  10  17
ATOM     17  C   UNL A   1      31.998  25.766  24.582  1.00  0.00     0.107 C 
ATOM     18  C   UNL A   1      29.847  25.731  25.797  1.00  0.00     0.205 C 
ATOM     19  C   UNL A   1      30.820  26.674  26.408  1.00  0.00     0.033 C 
ATOM     20  C   UNL A   1      30.627  25.083  24.642  1.00  0.00     0.087 C 
ATOM     21  C   UNL A   1      31.973  26.723  25.736  1.00  0.00    -0.012 C 
BRANCH  18  22
ATOM     22  N   UNL A   1      29.382  24.745  26.759  1.00  0.00    -0.352 N 
ATOM     23  H   UNL A   1      29.867  24.879  27.645  1.00  0.00     0.345 HD
ATOM     24  H   UNL A   1      29.574  23.808  26.404  1.00  0.00     0.345 HD
ATOM     25  H   UNL A   1      28.378  24.855  26.900  1.00  0.00     0.345 HD
ENDBRANCH  18  22
ENDBRANCH  10  17
ENDBRANCH   8   9
ENDBRANCH   5   8
ENDBRANCH   3   4
ENDBRANCH   2   3
ENDBRANCH   1   2
BRANCH   1  26
ATOM     26  C   UNL A   1      42.258  22.654  28.445  1.00  0.00     0.002 C 
BRANCH  26  27
ATOM     27  C   UNL A   1      43.520  22.747  27.580  1.00  0.00     0.021 C 
BRANCH  27  28
ATOM     28  C   UNL A   1      43.894  24.152  27.111  1.00  0.00     0.116 C 
BRANCH  28  29
ATOM     29  N   UNL A   1      43.051  24.607  26.017  1.00  0.00    -0.352 N 
ATOM     30  C   UNL A   1      42.025  25.518  26.020  1.00  0.00     0.251 C 
ATOM     31  H   UNL A   1      43.246  24.200  25.143  1.00  0.00     0.163 HD
ATOM     32  O   UNL A   1      41.294  25.615  25.038  1.00  0.00    -0.269 OA
BRANCH  30  33
ATOM     33  C   UNL A   1      41.790  26.373  27.204  1.00  0.00     0.039 A 
ATOM     34  C   UNL A   1      42.560  27.529  27.365  1.00  0.00     0.014 A 
ATOM     35  C   UNL A   1      40.847  26.019  28.175  1.00  0.00     0.014 A 
ATOM     36  C   UNL A   1      42.348  28.355  28.471  1.00  0.00     0.010 A 
ATOM     37  C   UNL A   1      40.595  26.876  29.245  1.00  0.00     0.010 A 
ATOM     38  C   UNL A   1      41.349  28.048  29.409  1.00  0.00    -0.014 A 
BRANCH  38  39
ATOM     39  C   UNL A   1      41.093  28.933  30.574  1.00  0.00     0.031 A 
ATOM     40  C   UNL A   1      41.914  28.789  31.827  1.00  0.00     0.074 A 
ATOM     41  C   UNL A   1      40.090  29.832  30.522  1.00  0.00     0.049 A 
ATOM     42  N   UNL A   1      41.806  29.429  32.964  1.00  0.00    -0.248 NA
ATOM     43  C   UNL A   1      42.980  27.775  31.810  1.00  0.00     0.031 C 
ATOM     44  C   UNL A   1      39.193  30.032  29.380  1.00  0.00     0.029 A 
ATOM     45  N   UNL A   1      39.649  30.737  31.452  1.00  0.00    -0.354 N 
ATOM     46  C   UNL A   1      42.780  28.889  33.797  1.00  0.00     0.074 A 
ATOM     47  C   UNL A   1      43.434  27.836  33.053  1.00  0.00     0.031 C 
ATOM     48  C   UNL A   1      38.320  31.010  29.673  1.00  0.00     0.029 A 
ATOM     49  C   UNL A   1      38.576  31.486  31.029  1.00  0.00     0.049 A 
ATOM     50  H   UNL A   1      40.061  30.842  32.340  1.00  0.00     0.167 HD
ATOM     51  C   UNL A   1      43.114  29.255  35.058  1.00  0.00     0.037 A 
ATOM     52  C   UNL A   1      37.876  32.446  31.664  1.00  0.00     0.037 A 
ATOM     53  C   UNL A   1      42.475  30.321  35.786  1.00  0.00     0.049 A 
ATOM     54  C   UNL A   1      38.277  32.846  33.059  1.00  0.00     0.074 A 
ATOM     55  C   UNL A   1      42.768  30.797  37.052  1.00  0.00     0.029 A 
ATOM     56  N   UNL A   1      41.417  31.080  35.309  1.00  0.00    -0.354 N 
ATOM     57  N   UNL A   1      39.235  32.360  33.812  1.00  0.00    -0.248 NA
ATOM     58  C   UNL A   1      37.510  33.932  33.685  1.00  0.00     0.031 C 
ATOM     59  C   UNL A   1      41.867  31.825  37.353  1.00  0.00     0.029 A 
ATOM     60  C   UNL A   1      41.039  32.016  36.258  1.00  0.00     0.049 A 
ATOM     61  H   UNL A   1      40.995  30.970  34.427  1.00  0.00     0.167 HD
ATOM     62  C   UNL A   1      39.203  33.100  34.989  1.00  0.00     0.074 A 
ATOM     63  C   UNL A   1      38.139  34.072  34.844  1.00  0.00     0.031 C 
ATOM     64  C   UNL A   1      39.984  32.984  36.092  1.00  0.00     0.037 A 
BRANCH  51  65
ATOM     65  C   UNL A   1      44.230  28.499  35.727  1.00  0.00     0.058 A 
ATOM     66  C   UNL A   1      45.569  28.906  35.602  1.00  0.00     0.135 A 
ATOM     67  C   UNL A   1      43.961  27.372  36.519  1.00  0.00     0.135 A 
ATOM     68  F   UNL A   1      45.885  29.968  34.844  1.00  0.00    -0.206 F 
ATOM     69  C   UNL A   1      46.603  28.204  36.212  1.00  0.00     0.059 A 
ATOM     70  C   UNL A   1      44.976  26.669  37.160  1.00  0.00     0.059 A 
ATOM     71  F   UNL A   1      42.699  26.940  36.672  1.00  0.00    -0.206 F 
ATOM     72  C   UNL A   1      46.297  27.083  36.986  1.00  0.00     0.060 A 
BRANCH  72  73
ATOM     73  S   UNL A   1      47.649  26.179  37.769  1.00  0.00     0.124 S 
ATOM     74  O   UNL A   1      48.276  27.229  38.566  1.00  0.00    -0.237 OA
ATOM     75  O   UNL A   1      46.944  25.149  38.524  1.00  0.00    -0.237 OA
ATOM     76  O   UNL A   1      48.435  25.696  36.638  1.00  0.00    -0.744 OA
ENDBRANCH  72  73
ENDBRANCH  51  65
BRANCH  52  77
ATOM     77  C   UNL A   1      36.741  33.116  30.976  1.00  0.00     0.058 A 
ATOM     78  C   UNL A   1      35.414  32.827  31.327  1.00  0.00     0.135 A 
ATOM     79  C   UNL A   1      36.958  34.061  29.961  1.00  0.00     0.135 A 
ATOM     80  F   UNL A   1      35.156  31.927  32.288  1.00  0.00    -0.206 F 
ATOM     81  C   UNL A   1      34.340  33.434  30.683  1.00  0.00     0.059 A 
ATOM     82  C   UNL A   1      35.902  34.699  29.319  1.00  0.00     0.059 A 
ATOM     83  F   UNL A   1      38.210  34.386  29.601  1.00  0.00    -0.206 F 
ATOM     84  C   UNL A   1      34.596  34.370  29.679  1.00  0.00     0.060 A 
BRANCH  84  85
ATOM     85  S   UNL A   1      33.198  35.184  28.876  1.00  0.00     0.124 S 
ATOM     86  O   UNL A   1      32.393  35.587  30.025  1.00  0.00    -0.237 OA
ATOM     87  O   UNL A   1      33.849  36.266  28.142  1.00  0.00    -0.237 OA
ATOM     88  O   UNL A   1      32.628  34.128  28.044  1.00  0.00    -0.744 OA
ENDBRANCH  84  85
ENDBRANCH  52  77
BRANCH  64  89
ATOM     89  C   UNL A   1      39.743  33.958  37.211  1.00  0.00     0.058 A 
ATOM     90  C   UNL A   1      38.962  33.619  38.327  1.00  0.00     0.135 A 
ATOM     91  C   UNL A   1      40.332  35.232  37.181  1.00  0.00     0.135 A 
ATOM     92  F   UNL A   1      38.373  32.416  38.399  1.00  0.00    -0.206 F 
ATOM     93  C   UNL A   1      38.752  34.522  39.364  1.00  0.00     0.059 A 
ATOM     94  C   UNL A   1      40.155  36.141  38.219  1.00  0.00     0.059 A 
ATOM     95  F   UNL A   1      41.096  35.600  36.141  1.00  0.00    -0.206 F 
ATOM     96  C   UNL A   1      39.350  35.782  39.301  1.00  0.00     0.060 A 
BRANCH  96  97
ATOM     97  S   UNL A   1      39.090  36.938  40.662  1.00  0.00     0.124 S 
ATOM     98  O   UNL A   1      40.462  37.268  41.033  1.00  0.00    -0.237 OA
ATOM     99  O   UNL A   1      38.330  38.009  40.025  1.00  0.00    -0.237 OA
ATOM    100  O   UNL A   1      38.348  36.148  41.640  1.00  0.00    -0.744 OA
ENDBRANCH  96  97
ENDBRANCH  64  89
ENDBRANCH  38  39
ENDBRANCH  30  33
ENDBRANCH  28  29
ENDBRANCH  27  28
ENDBRANCH  26  27
ENDBRANCH   1  26
TORSDOF 19
ENDMDL
MODEL 2
REMARK VINA RESULT:     -11.1      6.220     12.271
REMARK SMILES [NH3+][C@H]1C=C[C@@H](C(=O)N2CCC(CC(=O)NCCCCCCNC(=O)c3ccc(-c4c5nc(c(-c6c(F)cc(S(=O)(=O)[O-])cc6F)c6ccc([nH]6)c(-c6c(F)cc(S(=O)(=O)[O-])cc6F)c6nc(c(-c7c(F)cc(S(=O)(=O)[O-])cc7F)c7ccc4[nH]7)C=C6)C=C5)cc3)CC2)C1
REMARK SMILES IDX 18 1 17 2 16 3 15 4 13 5 14 6 12 8 11 9 6 10 7 11 8 12 9 13
REMARK SMILES IDX 92 14 10 15 91 16 5 17 2 18 3 19 93 20 4 21 1 22 19 26 20 27
REMARK SMILES IDX 21 28 22 29 23 30 24 32 25 33 26 34 90 35 27 36 89 37 28 38
REMARK SMILES IDX 29 39 30 40 83 41 31 42 88 43 82 44 84 45 32 46 87 47 81 48
REMARK SMILES IDX 80 49 33 51 67 52 46 53 66 54 47 55 50 56 65 57 85 58 48 59
REMARK SMILES IDX 49 60 64 62 86 63 51 64 34 65 35 66 44 67 36 68 37 69 43 70
REMARK SMILES IDX 45 71 38 72 39 73 40 74 41 75 42 76 68 77 69 78 78 79 70 80
REMARK SMILES IDX 71 81 77 82 79 83 72 84 73 85 74 86 75 87 76 88 52 89 53 90
REMARK SMILES IDX 62 91 54 92 55 93 61 94 63 95 56 96 57 97 58 98 59 99 60 100
REMARK H PARENT 15 7 1 23 1 24 1 25 22 31 84 50 50 61
REMARK Flexibility Score: inf
ROOT
ATOM      1  C   UNL A   1      35.029  33.254  27.990  1.00  0.00     0.002 C 
ENDROOT
BRANCH   1   2
ATOM      2  C   UNL A   1      35.301  31.775  27.719  1.00  0.00     0.021 C 
BRANCH   2   3
ATOM      3  C   UNL A   1      34.157  30.836  28.116  1.00  0.00     0.116 C 
BRANCH   3   4
ATOM      4  N   UNL A   1      33.068  30.923  27.157  1.00  0.00    -0.356 N 
ATOM      5  C   UNL A   1      32.354  29.936  26.546  1.00  0.00     0.220 C 
ATOM      6  O   UNL A   1      31.552  30.252  25.664  1.00  0.00    -0.275 OA
ATOM      7  H   UNL A   1      32.804  31.839  26.911  1.00  0.00     0.163 HD
BRANCH   5   8
ATOM      8  C   UNL A   1      32.529  28.484  26.953  1.00  0.00     0.103 C 
BRANCH   8   9
ATOM      9  C   UNL A   1      32.481  27.487  25.780  1.00  0.00     0.002 C 
ATOM     10  C   UNL A   1      34.741  24.420  24.957  1.00  0.00     0.229 C 
ATOM     11  O   UNL A   1      35.497  24.894  25.805  1.00  0.00    -0.274 OA
ATOM     12  N   UNL A   1      33.622  25.112  24.513  1.00  0.00    -0.342 N 
ATOM     13  C   UNL A   1      33.845  26.409  23.908  1.00  0.00     0.120 C 
ATOM     14  C   UNL A   1      32.368  24.993  25.237  1.00  0.00     0.120 C 
ATOM     15  C   UNL A   1      33.765  27.527  24.940  1.00  0.00     0.026 C 
ATOM     16  C   UNL A   1      32.242  26.065  26.320  1.00  0.00     0.026 C 
BRANCH  10  17
ATOM     17  C   UNL A   1      35.078  23.117  24.214  1.00  0.00     0.107 C 
ATOM     18  C   UNL A   1      37.066  21.656  24.352  1.00  0.00     0.205 C 
ATOM     19  C   UNL A   1      35.947  21.161  25.197  1.00  0.00     0.033 C 
ATOM     20  C   UNL A   1      36.533  22.969  23.756  1.00  0.00     0.087 C 
ATOM     21  C   UNL A   1      34.858  21.927  25.101  1.00  0.00    -0.012 C 
BRANCH  18  22
ATOM     22  N   UNL A   1      38.273  21.866  25.134  1.00  0.00    -0.352 N 
ATOM     23  H   UNL A   1      38.132  22.643  25.778  1.00  0.00     0.345 HD
ATOM     24  H   UNL A   1      39.050  22.080  24.508  1.00  0.00     0.345 HD
ATOM     25  H   UNL A   1      38.488  21.020  25.662  1.00  0.00     0.345 HD
ENDBRANCH  18  22
ENDBRANCH  10  17
ENDBRANCH   8   9
ENDBRANCH   5   8
ENDBRANCH   3   4
ENDBRANCH   2   3
ENDBRANCH   1   2
BRANCH   1  26
ATOM     26  C   UNL A   1      35.286  33.707  29.429  1.00  0.00     0.002 C 
BRANCH  26  27
ATOM     27  C   UNL A   1      36.743  34.034  29.773  1.00  0.00     0.021 C 
BRANCH  27  28
ATOM     28  C   UNL A   1      37.243  33.486  31.109  1.00  0.00     0.116 C 
BRANCH  28  29
ATOM     29  N   UNL A   1      36.521  32.291  31.515  1.00  0.00    -0.352 N 
ATOM     30  C   UNL A   1      36.811  30.969  31.285  1.00  0.00     0.251 C 
ATOM     31  H   UNL A   1      35.702  32.455  32.035  1.00  0.00     0.163 HD
ATOM     32  O   UNL A   1      35.970  30.110  31.530  1.00  0.00    -0.269 OA
BRANCH  30  33
ATOM     33  C   UNL A   1      38.127  30.580  30.732  1.00  0.00     0.039 A 
ATOM     34  C   UNL A   1      39.166  30.272  31.616  1.00  0.00     0.014 A 
ATOM     35  C   UNL A   1      38.353  30.558  29.352  1.00  0.00     0.014 A 
ATOM     36  C   UNL A   1      40.413  29.892  31.116  1.00  0.00     0.010 A 
ATOM     37  C   UNL A   1      39.579  30.121  28.855  1.00  0.00     0.010 A 
ATOM     38  C   UNL A   1      40.625  29.792  29.732  1.00  0.00    -0.014 A 
BRANCH  38  39
ATOM     39  C   UNL A   1      41.937  29.362  29.186  1.00  0.00     0.031 A 
ATOM     40  C   UNL A   1      43.060  30.354  29.046  1.00  0.00     0.074 A 
ATOM     41  C   UNL A   1      42.102  28.090  28.770  1.00  0.00     0.049 A 
ATOM     42  N   UNL A   1      44.256  30.183  28.544  1.00  0.00    -0.248 NA
ATOM     43  C   UNL A   1      42.795  31.726  29.510  1.00  0.00     0.031 C 
ATOM     44  C   UNL A   1      41.074  27.048  28.808  1.00  0.00     0.029 A 
ATOM     45  N   UNL A   1      43.192  27.460  28.224  1.00  0.00    -0.354 N 
ATOM     46  C   UNL A   1      44.881  31.424  28.620  1.00  0.00     0.074 A 
ATOM     47  C   UNL A   1      43.914  32.349  29.170  1.00  0.00     0.031 C 
ATOM     48  C   UNL A   1      41.587  25.905  28.323  1.00  0.00     0.029 A 
ATOM     49  C   UNL A   1      42.968  26.140  27.914  1.00  0.00     0.049 A 
ATOM     50  H   UNL A   1      44.053  27.912  28.069  1.00  0.00     0.167 HD
ATOM     51  C   UNL A   1      46.151  31.756  28.286  1.00  0.00     0.037 A 
ATOM     52  C   UNL A   1      43.785  25.223  27.359  1.00  0.00     0.037 A 
ATOM     53  C   UNL A   1      47.117  30.825  27.761  1.00  0.00     0.049 A 
ATOM     54  C   UNL A   1      45.196  25.611  27.011  1.00  0.00     0.074 A 
ATOM     55  C   UNL A   1      48.442  31.053  27.431  1.00  0.00     0.029 A 
ATOM     56  N   UNL A   1      46.863  29.488  27.495  1.00  0.00    -0.354 N 
ATOM     57  N   UNL A   1      45.786  26.776  27.139  1.00  0.00    -0.248 NA
ATOM     58  C   UNL A   1      46.057  24.559  26.454  1.00  0.00     0.031 C 
ATOM     59  C   UNL A   1      48.981  29.859  26.937  1.00  0.00     0.029 A 
ATOM     60  C   UNL A   1      48.003  28.879  26.998  1.00  0.00     0.049 A 
ATOM     61  H   UNL A   1      46.000  29.038  27.639  1.00  0.00     0.167 HD
ATOM     62  C   UNL A   1      47.093  26.589  26.705  1.00  0.00     0.074 A 
ATOM     63  C   UNL A   1      47.211  25.197  26.321  1.00  0.00     0.031 C 
ATOM     64  C   UNL A   1      48.106  27.489  26.631  1.00  0.00     0.037 A 
BRANCH  51  65
ATOM     65  C   UNL A   1      46.570  33.187  28.488  1.00  0.00     0.058 A 
ATOM     66  C   UNL A   1      46.531  34.118  27.436  1.00  0.00     0.135 A 
ATOM     67  C   UNL A   1      46.993  33.641  29.747  1.00  0.00     0.135 A 
ATOM     68  F   UNL A   1      46.149  33.734  26.208  1.00  0.00    -0.206 F 
ATOM     69  C   UNL A   1      46.925  35.439  27.619  1.00  0.00     0.059 A 
ATOM     70  C   UNL A   1      47.368  34.964  29.959  1.00  0.00     0.059 A 
ATOM     71  F   UNL A   1      47.049  32.793  30.787  1.00  0.00    -0.206 F 
ATOM     72  C   UNL A   1      47.347  35.852  28.884  1.00  0.00     0.060 A 
BRANCH  72  73
ATOM     73  S   UNL A   1      47.860  37.568  29.105  1.00  0.00     0.124 S 
ATOM     74  O   UNL A   1      48.171  37.596  30.531  1.00  0.00    -0.237 OA
ATOM     75  O   UNL A   1      49.004  37.674  28.206  1.00  0.00    -0.237 OA
ATOM     76  O   UNL A   1      46.681  38.330  28.705  1.00  0.00    -0.744 OA
ENDBRANCH  72  73
ENDBRANCH  51  65
BRANCH  52  77
ATOM     77  C   UNL A   1      43.295  23.838  27.124  1.00  0.00     0.058 A 
ATOM     78  C   UNL A   1      42.907  23.419  25.843  1.00  0.00     0.135 A 
ATOM     79  C   UNL A   1      43.212  22.907  28.171  1.00  0.00     0.135 A 
ATOM     80  F   UNL A   1      42.964  24.276  24.812  1.00  0.00    -0.206 F 
ATOM     81  C   UNL A   1      42.434  22.132  25.609  1.00  0.00     0.059 A 
ATOM     82  C   UNL A   1      42.765  21.607  27.958  1.00  0.00     0.059 A 
ATOM     83  F   UNL A   1      43.588  23.253  29.412  1.00  0.00    -0.206 F 
ATOM     84  C   UNL A   1      42.366  21.233  26.674  1.00  0.00     0.060 A 
BRANCH  84  85
ATOM     85  S   UNL A   1      41.789  19.552  26.355  1.00  0.00     0.124 S 
ATOM     86  O   UNL A   1      40.351  19.755  26.219  1.00  0.00    -0.237 OA
ATOM     87  O   UNL A   1      42.504  19.207  25.129  1.00  0.00    -0.237 OA
ATOM     88  O   UNL A   1      42.214  18.820  27.545  1.00  0.00    -0.744 OA
ENDBRANCH  84  85
ENDBRANCH  52  77
BRANCH  64  89
ATOM     89  C   UNL A   1      49.439  26.986  26.153  1.00  0.00     0.058 A 
ATOM     90  C   UNL A   1      50.331  26.330  27.015  1.00  0.00     0.135 A 
ATOM     91  C   UNL A   1      49.810  27.130  24.807  1.00  0.00     0.135 A 
ATOM     92  F   UNL A   1      50.026  26.173  28.313  1.00  0.00    -0.206 F 
ATOM     93  C   UNL A   1      51.559  25.858  26.564  1.00  0.00     0.059 A 
ATOM     94  C   UNL A   1      51.023  26.643  24.329  1.00  0.00     0.059 A 
ATOM     95  F   UNL A   1      48.988  27.740  23.939  1.00  0.00    -0.206 F 
ATOM     96  C   UNL A   1      51.898  26.020  25.219  1.00  0.00     0.060 A 
BRANCH  96  97
ATOM     97  S   UNL A   1      53.484  25.383  24.639  1.00  0.00     0.124 S 
ATOM     98  O   UNL A   1      53.387  25.622  23.202  1.00  0.00    -0.237 OA
ATOM     99  O   UNL A   1      54.441  26.218  25.357  1.00  0.00    -0.237 OA
ATOM    100  O   UNL A   1      53.455  23.982  25.046  1.00  0.00    -0.744 OA
ENDBRANCH  96  97
ENDBRANCH  64  89
ENDBRANCH  38  39
ENDBRANCH  30  33
ENDBRANCH  28  29
ENDBRANCH  27  28
ENDBRANCH  26  27
ENDBRANCH   1  26
TORSDOF 19
ENDMDL
MODEL 3
REMARK VINA RESULT:     -10.8      6.324     12.093
REMARK SMILES [NH3+][C@H]1C=C[C@@H](C(=O)N2CCC(CC(=O)NCCCCCCNC(=O)c3ccc(-c4c5nc(c(-c6c(F)cc(S(=O)(=O)[O-])cc6F)c6ccc([nH]6)c(-c6c(F)cc(S(=O)(=O)[O-])cc6F)c6nc(c(-c7c(F)cc(S(=O)(=O)[O-])cc7F)c7ccc4[nH]7)C=C6)C=C5)cc3)CC2)C1
REMARK SMILES IDX 18 1 17 2 16 3 15 4 13 5 14 6 12 8 11 9 6 10 7 11 8 12 9 13
REMARK SMILES IDX 92 14 10 15 91 16 5 17 2 18 3 19 93 20 4 21 1 22 19 26 20 27
REMARK SMILES IDX 21 28 22 29 23 30 24 32 25 33 26 34 90 35 27 36 89 37 28 38
REMARK SMILES IDX 29 39 30 40 83 41 31 42 88 43 82 44 84 45 32 46 87 47 81 48
REMARK SMILES IDX 80 49 33 51 67 52 46 53 66 54 47 55 50 56 65 57 85 58 48 59
REMARK SMILES IDX 49 60 64 62 86 63 51 64 34 65 35 66 44 67 36 68 37 69 43 70
REMARK SMILES IDX 45 71 38 72 39 73 40 74 41 75 42 76 68 77 69 78 78 79 70 80
REMARK SMILES IDX 71 81 77 82 79 83 72 84 73 85 74 86 75 87 76 88 52 89 53 90
REMARK SMILES IDX 62 91 54 92 55 93 61 94 63 95 56 96 57 97 58 98 59 99 60 100
REMARK H PARENT 15 7 1 23 1 24 1 25 22 31 84 50 50 61
REMARK Flexibility Score: inf
ROOT
ATOM      1  C   UNL A   1      34.593  29.324  27.683  1.00  0.00     0.002 C 
ENDROOT
BRANCH   1   2
ATOM      2  C   UNL A   1      34.420  28.232  26.628  1.00  0.00     0.021 C 
BRANCH   2   3
ATOM      3  C   UNL A   1      32.992  28.087  26.093  1.00  0.00     0.116 C 
BRANCH   3   4
ATOM      4  N   UNL A   1      33.004  27.878  24.654  1.00  0.00    -0.356 N 
ATOM      5  C   UNL A   1      33.522  26.852  23.919  1.00  0.00     0.220 C 
ATOM      6  O   UNL A   1      33.525  26.954  22.691  1.00  0.00    -0.275 OA
ATOM      7  H   UNL A   1      32.570  28.587  24.128  1.00  0.00     0.163 HD
BRANCH   5   8
ATOM      8  C   UNL A   1      34.067  25.608  24.598  1.00  0.00     0.103 C 
BRANCH   8   9
ATOM      9  C   UNL A   1      33.195  24.352  24.410  1.00  0.00     0.002 C 
ATOM     10  C   UNL A   1      34.036  20.578  24.907  1.00  0.00     0.229 C 
ATOM     11  O   UNL A   1      35.206  20.960  24.934  1.00  0.00    -0.274 OA
ATOM     12  N   UNL A   1      32.998  21.440  24.576  1.00  0.00    -0.342 N 
ATOM     13  C   UNL A   1      33.053  22.069  23.273  1.00  0.00     0.120 C 
ATOM     14  C   UNL A   1      32.377  22.250  25.609  1.00  0.00     0.120 C 
ATOM     15  C   UNL A   1      33.762  23.416  23.333  1.00  0.00     0.026 C 
ATOM     16  C   UNL A   1      33.070  23.606  25.751  1.00  0.00     0.026 C 
BRANCH  10  17
ATOM     17  C   UNL A   1      33.668  19.095  25.069  1.00  0.00     0.107 C 
ATOM     18  C   UNL A   1      32.566  17.532  23.505  1.00  0.00     0.205 C 
ATOM     19  C   UNL A   1      34.047  17.403  23.475  1.00  0.00     0.033 C 
ATOM     20  C   UNL A   1      32.309  18.680  24.495  1.00  0.00     0.087 C 
ATOM     21  C   UNL A   1      34.647  18.222  24.343  1.00  0.00    -0.012 C 
BRANCH  18  22
ATOM     22  N   UNL A   1      32.028  17.822  22.186  1.00  0.00    -0.352 N 
ATOM     23  H   UNL A   1      31.871  16.950  21.683  1.00  0.00     0.345 HD
ATOM     24  H   UNL A   1      32.692  18.398  21.668  1.00  0.00     0.345 HD
ATOM     25  H   UNL A   1      31.146  18.325  22.281  1.00  0.00     0.345 HD
ENDBRANCH  18  22
ENDBRANCH  10  17
ENDBRANCH   8   9
ENDBRANCH   5   8
ENDBRANCH   3   4
ENDBRANCH   2   3
ENDBRANCH   1   2
BRANCH   1  26
ATOM     26  C   UNL A   1      34.696  30.748  27.131  1.00  0.00     0.002 C 
BRANCH  26  27
ATOM     27  C   UNL A   1      34.646  31.870  28.173  1.00  0.00     0.021 C 
BRANCH  27  28
ATOM     28  C   UNL A   1      35.897  32.023  29.035  1.00  0.00     0.116 C 
BRANCH  28  29
ATOM     29  N   UNL A   1      35.706  31.500  30.378  1.00  0.00    -0.352 N 
ATOM     30  C   UNL A   1      36.459  30.596  31.083  1.00  0.00     0.251 C 
ATOM     31  H   UNL A   1      34.917  31.848  30.853  1.00  0.00     0.163 HD
ATOM     32  O   UNL A   1      36.020  30.121  32.127  1.00  0.00    -0.269 OA
BRANCH  30  33
ATOM     33  C   UNL A   1      37.789  30.184  30.585  1.00  0.00     0.039 A 
ATOM     34  C   UNL A   1      37.958  29.963  29.215  1.00  0.00     0.014 A 
ATOM     35  C   UNL A   1      38.857  29.974  31.464  1.00  0.00     0.014 A 
ATOM     36  C   UNL A   1      39.209  29.583  28.722  1.00  0.00     0.010 A 
ATOM     37  C   UNL A   1      40.118  29.654  30.964  1.00  0.00     0.010 A 
ATOM     38  C   UNL A   1      40.304  29.447  29.589  1.00  0.00    -0.014 A 
BRANCH  38  39
ATOM     39  C   UNL A   1      41.646  29.072  29.075  1.00  0.00     0.031 A 
ATOM     40  C   UNL A   1      42.733  30.108  28.972  1.00  0.00     0.074 A 
ATOM     41  C   UNL A   1      41.871  27.811  28.654  1.00  0.00     0.049 A 
ATOM     42  N   UNL A   1      43.948  29.987  28.499  1.00  0.00    -0.248 NA
ATOM     43  C   UNL A   1      42.404  31.464  29.437  1.00  0.00     0.031 C 
ATOM     44  C   UNL A   1      40.883  26.729  28.658  1.00  0.00     0.029 A 
ATOM     45  N   UNL A   1      42.998  27.228  28.133  1.00  0.00    -0.354 N 
ATOM     46  C   UNL A   1      44.522  31.250  28.601  1.00  0.00     0.074 A 
ATOM     47  C   UNL A   1      43.506  32.132  29.132  1.00  0.00     0.031 C 
ATOM     48  C   UNL A   1      41.452  25.611  28.179  1.00  0.00     0.029 A 
ATOM     49  C   UNL A   1      42.833  25.902  27.807  1.00  0.00     0.049 A 
ATOM     50  H   UNL A   1      43.845  27.713  28.004  1.00  0.00     0.167 HD
ATOM     51  C   UNL A   1      45.787  31.633  28.302  1.00  0.00     0.037 A 
ATOM     52  C   UNL A   1      43.699  25.021  27.268  1.00  0.00     0.037 A 
ATOM     53  C   UNL A   1      46.801  30.744  27.797  1.00  0.00     0.049 A 
ATOM     54  C   UNL A   1      45.103  25.466  26.959  1.00  0.00     0.074 A 
ATOM     55  C   UNL A   1      48.124  31.025  27.503  1.00  0.00     0.029 A 
ATOM     56  N   UNL A   1      46.606  29.401  27.515  1.00  0.00    -0.354 N 
ATOM     57  N   UNL A   1      45.643  26.652  27.111  1.00  0.00    -0.248 NA
ATOM     58  C   UNL A   1      46.017  24.452  26.418  1.00  0.00     0.031 C 
ATOM     59  C   UNL A   1      48.721  29.857  27.015  1.00  0.00     0.029 A 
ATOM     60  C   UNL A   1      47.781  28.839  27.043  1.00  0.00     0.049 A 
ATOM     61  H   UNL A   1      45.757  28.916  27.632  1.00  0.00     0.167 HD
ATOM     62  C   UNL A   1      46.968  26.519  26.710  1.00  0.00     0.074 A 
ATOM     63  C   UNL A   1      47.149  25.136  26.320  1.00  0.00     0.031 C 
ATOM     64  C   UNL A   1      47.947  27.458  26.669  1.00  0.00     0.037 A 
BRANCH  51  65
ATOM     65  C   UNL A   1      46.145  33.077  28.525  1.00  0.00     0.058 A 
ATOM     66  C   UNL A   1      46.001  34.034  27.507  1.00  0.00     0.135 A 
ATOM     67  C   UNL A   1      46.614  33.516  29.773  1.00  0.00     0.135 A 
ATOM     68  F   UNL A   1      45.571  33.666  26.289  1.00  0.00    -0.206 F 
ATOM     69  C   UNL A   1      46.339  35.368  27.708  1.00  0.00     0.059 A 
ATOM     70  C   UNL A   1      46.934  34.850  30.005  1.00  0.00     0.059 A 
ATOM     71  F   UNL A   1      46.770  32.644  30.781  1.00  0.00    -0.206 F 
ATOM     72  C   UNL A   1      46.809  35.766  28.961  1.00  0.00     0.060 A 
BRANCH  72  73
ATOM     73  S   UNL A   1      47.248  37.500  29.207  1.00  0.00     0.124 S 
ATOM     74  O   UNL A   1      48.598  37.538  28.653  1.00  0.00    -0.237 OA
ATOM     75  O   UNL A   1      46.227  38.196  28.431  1.00  0.00    -0.237 OA
ATOM     76  O   UNL A   1      47.158  37.672  30.653  1.00  0.00    -0.744 OA
ENDBRANCH  72  73
ENDBRANCH  51  65
BRANCH  52  77
ATOM     77  C   UNL A   1      43.269  23.621  27.010  1.00  0.00     0.058 A 
ATOM     78  C   UNL A   1      43.004  23.177  25.706  1.00  0.00     0.135 A 
ATOM     79  C   UNL A   1      43.122  22.699  28.058  1.00  0.00     0.135 A 
ATOM     80  F   UNL A   1      43.127  24.024  24.673  1.00  0.00    -0.206 F 
ATOM     81  C   UNL A   1      42.588  21.874  25.450  1.00  0.00     0.059 A 
ATOM     82  C   UNL A   1      42.730  21.385  27.825  1.00  0.00     0.059 A 
ATOM     83  F   UNL A   1      43.380  23.069  29.322  1.00  0.00    -0.206 F 
ATOM     84  C   UNL A   1      42.453  20.985  26.517  1.00  0.00     0.060 A 
BRANCH  84  85
ATOM     85  S   UNL A   1      41.952  19.285  26.172  1.00  0.00     0.124 S 
ATOM     86  O   UNL A   1      42.341  18.608  27.405  1.00  0.00    -0.237 OA
ATOM     87  O   UNL A   1      40.517  19.425  25.946  1.00  0.00    -0.237 OA
ATOM     88  O   UNL A   1      42.734  18.940  24.988  1.00  0.00    -0.744 OA
ENDBRANCH  84  85
ENDBRANCH  52  77
BRANCH  64  89
ATOM     89  C   UNL A   1      49.310  27.010  26.223  1.00  0.00     0.058 A 
ATOM     90  C   UNL A   1      50.263  26.530  27.135  1.00  0.00     0.135 A 
ATOM     91  C   UNL A   1      49.652  27.027  24.861  1.00  0.00     0.135 A 
ATOM     92  F   UNL A   1      49.987  26.499  28.447  1.00  0.00    -0.206 F 
ATOM     93  C   UNL A   1      51.520  26.107  26.713  1.00  0.00     0.059 A 
ATOM     94  C   UNL A   1      50.894  26.586  24.416  1.00  0.00     0.059 A 
ATOM     95  F   UNL A   1      48.772  27.467  23.948  1.00  0.00    -0.206 F 
ATOM     96  C   UNL A   1      51.827  26.141  25.352  1.00  0.00     0.060 A 
BRANCH  96  97
ATOM     97  S   UNL A   1      53.452  25.568  24.813  1.00  0.00     0.124 S 
ATOM     98  O   UNL A   1      54.336  26.335  25.684  1.00  0.00    -0.237 OA
ATOM     99  O   UNL A   1      53.386  24.135  25.081  1.00  0.00    -0.237 OA
ATOM    100  O   UNL A   1      53.489  25.934  23.400  1.00  0.00    -0.744 OA
ENDBRANCH  96  97
ENDBRANCH  64  89
ENDBRANCH  38  39
ENDBRANCH  30  33
ENDBRANCH  28  29
ENDBRANCH  27  28
ENDBRANCH  26  27
ENDBRANCH   1  26
TORSDOF 19
ENDMDL
