MODEL 1
REMARK VINA RESULT:     -11.7      0.000      0.000
REMARK SMILES CCOc1cc(C[NH+]2CCC3(CC2)[C@H](C(=O)NCCCCCCNC(=O)c2ccc(-c4c5nc(c(-c6c(F)cc(S(=O)(=O)[O-])cc6F)c6ccc([nH]6)c(-c6c(F)cc(S(=O)(=O)[O-])cc6F)c6nc(c(-c7c(F)cc(S(=O)(=O)[O-])cc7F)c7ccc4[nH]7)C=C6)C=C5)cc2)CC(=O)N3C)ccc1OC
REMARK SMILES IDX 20 1 19 2 18 3 17 4 15 5 16 6 14 8 8 9 9 10 13 11 10 13
REMARK SMILES IDX 12 14 11 15 96 16 93 17 94 18 97 19 95 20 7 21 6 22 4 23
REMARK SMILES IDX 5 24 100 25 99 26 98 27 3 28 2 29 1 30 101 31 102 32 21 33
REMARK SMILES IDX 22 34 23 35 24 36 25 37 26 39 27 40 28 41 92 42 29 43 91 44
REMARK SMILES IDX 30 45 31 46 32 47 85 48 33 49 90 50 84 51 86 52 34 53 89 54
REMARK SMILES IDX 83 55 82 56 35 58 69 59 48 60 68 61 49 62 52 63 67 64 87 65
REMARK SMILES IDX 50 66 51 67 66 69 88 70 53 71 36 72 37 73 46 74 38 75 39 76
REMARK SMILES IDX 45 77 47 78 40 79 41 80 42 81 43 82 44 83 70 84 71 85 80 86
REMARK SMILES IDX 72 87 73 88 79 89 81 90 74 91 75 92 76 93 77 94 78 95 54 96
REMARK SMILES IDX 55 97 64 98 56 99 57 100 63 101 65 102 58 103 59 104 60 105
REMARK SMILES IDX 61 106 62 107
REMARK H PARENT 17 7 8 12 24 38 86 57 52 68
REMARK Flexibility Score: inf
ROOT
ATOM      1  C   UNL A   1      34.545  32.781  28.155  1.00  0.00     0.002 C 
ENDROOT
BRANCH   1   2
ATOM      2  C   UNL A   1      34.604  31.263  28.317  1.00  0.00     0.021 C 
BRANCH   2   3
ATOM      3  C   UNL A   1      33.997  30.464  27.164  1.00  0.00     0.116 C 
BRANCH   3   4
ATOM      4  N   UNL A   1      32.835  29.733  27.596  1.00  0.00    -0.356 N 
ATOM      5  C   UNL A   1      32.029  28.830  27.011  1.00  0.00     0.226 C 
ATOM      6  O   UNL A   1      31.188  28.346  27.775  1.00  0.00    -0.275 OA
ATOM      7  H   UNL A   1      32.573  29.938  28.523  1.00  0.00     0.163 HD
BRANCH   5   8
ATOM      8  C   UNL A   1      32.148  28.297  25.581  1.00  0.00     0.114 C 
ATOM      9  N   UNL A   1      31.376  24.097  25.203  1.00  0.00    -0.331 N 
ATOM     10  C   UNL A   1      30.378  24.816  25.965  1.00  0.00     0.265 C 
ATOM     11  C   UNL A   1      31.695  24.767  23.953  1.00  0.00     0.265 C 
ATOM     12  H   UNL A   1      30.932  23.234  24.891  1.00  0.00     0.348 HD
ATOM     13  C   UNL A   1      30.727  26.275  26.214  1.00  0.00     0.091 C 
ATOM     14  C   UNL A   1      32.092  26.248  24.042  1.00  0.00     0.091 C 
ATOM     15  C   UNL A   1      31.278  27.111  25.045  1.00  0.00     0.065 C 
ATOM     16  N   UNL A   1      30.259  27.854  24.281  1.00  0.00    -0.339 N 
ATOM     17  C   UNL A   1      31.965  29.444  24.597  1.00  0.00     0.116 C 
ATOM     18  C   UNL A   1      30.632  29.162  23.972  1.00  0.00     0.223 C 
ATOM     19  C   UNL A   1      29.092  27.275  23.654  1.00  0.00     0.147 C 
ATOM     20  O   UNL A   1      30.014  29.945  23.280  1.00  0.00    -0.275 OA
BRANCH   9  21
ATOM     21  C   UNL A   1      32.444  23.431  25.957  1.00  0.00     0.299 C 
BRANCH  21  22
ATOM     22  C   UNL A   1      32.993  22.140  25.384  1.00  0.00     0.010 A 
ATOM     23  C   UNL A   1      34.898  20.882  24.543  1.00  0.00     0.161 A 
ATOM     24  C   UNL A   1      34.248  22.104  24.756  1.00  0.00     0.060 A 
ATOM     25  C   UNL A   1      34.219  19.678  24.764  1.00  0.00     0.160 A 
ATOM     26  C   UNL A   1      32.897  19.723  25.216  1.00  0.00     0.051 A 
ATOM     27  C   UNL A   1      32.301  20.936  25.564  1.00  0.00     0.013 A 
BRANCH  23  28
ATOM     28  O   UNL A   1      36.256  20.842  24.441  1.00  0.00    -0.490 OA
BRANCH  28  29
ATOM     29  C   UNL A   1      37.060  20.851  25.606  1.00  0.00     0.226 C 
ATOM     30  C   UNL A   1      38.111  21.919  25.323  1.00  0.00     0.049 C 
ENDBRANCH  28  29
ENDBRANCH  23  28
BRANCH  25  31
ATOM     31  O   UNL A   1      34.690  18.401  24.617  1.00  0.00    -0.493 OA
ATOM     32  C   UNL A   1      34.050  17.526  23.698  1.00  0.00     0.278 C 
ENDBRANCH  25  31
ENDBRANCH  21  22
ENDBRANCH   9  21
ENDBRANCH   5   8
ENDBRANCH   3   4
ENDBRANCH   2   3
ENDBRANCH   1   2
BRANCH   1  33
ATOM     33  C   UNL A   1      35.122  33.578  29.320  1.00  0.00     0.002 C 
BRANCH  33  34
ATOM     34  C   UNL A   1      36.647  33.675  29.338  1.00  0.00     0.021 C 
BRANCH  34  35
ATOM     35  C   UNL A   1      37.296  33.230  30.637  1.00  0.00     0.116 C 
BRANCH  35  36
ATOM     36  N   UNL A   1      36.585  32.129  31.252  1.00  0.00    -0.352 N 
ATOM     37  C   UNL A   1      36.901  30.798  31.191  1.00  0.00     0.251 C 
ATOM     38  H   UNL A   1      35.784  32.364  31.774  1.00  0.00     0.163 HD
ATOM     39  O   UNL A   1      36.114  29.950  31.598  1.00  0.00    -0.269 OA
BRANCH  37  40
ATOM     40  C   UNL A   1      38.199  30.409  30.606  1.00  0.00     0.039 A 
ATOM     41  C   UNL A   1      38.306  30.308  29.221  1.00  0.00     0.014 A 
ATOM     42  C   UNL A   1      39.309  30.176  31.428  1.00  0.00     0.014 A 
ATOM     43  C   UNL A   1      39.533  29.967  28.656  1.00  0.00     0.010 A 
ATOM     44  C   UNL A   1      40.550  29.928  30.858  1.00  0.00     0.010 A 
ATOM     45  C   UNL A   1      40.664  29.777  29.469  1.00  0.00    -0.014 A 
BRANCH  45  46
ATOM     46  C   UNL A   1      41.948  29.337  28.873  1.00  0.00     0.031 A 
ATOM     47  C   UNL A   1      43.084  30.319  28.745  1.00  0.00     0.074 A 
ATOM     48  C   UNL A   1      42.093  28.064  28.459  1.00  0.00     0.049 A 
ATOM     49  N   UNL A   1      44.297  30.124  28.295  1.00  0.00    -0.248 NA
ATOM     50  C   UNL A   1      42.815  31.709  29.149  1.00  0.00     0.031 C 
ATOM     51  C   UNL A   1      41.044  27.041  28.483  1.00  0.00     0.029 A 
ATOM     52  N   UNL A   1      43.184  27.409  27.948  1.00  0.00    -0.354 N 
ATOM     53  C   UNL A   1      44.927  31.362  28.358  1.00  0.00     0.074 A 
ATOM     54  C   UNL A   1      43.944  32.316  28.817  1.00  0.00     0.031 C 
ATOM     55  C   UNL A   1      41.555  25.879  28.046  1.00  0.00     0.029 A 
ATOM     56  C   UNL A   1      42.955  26.079  27.685  1.00  0.00     0.049 A 
ATOM     57  H   UNL A   1      44.050  27.850  27.783  1.00  0.00     0.167 HD
ATOM     58  C   UNL A   1      46.218  31.671  28.093  1.00  0.00     0.037 A 
ATOM     59  C   UNL A   1      43.787  25.129  27.218  1.00  0.00     0.037 A 
ATOM     60  C   UNL A   1      47.197  30.707  27.662  1.00  0.00     0.049 A 
ATOM     61  C   UNL A   1      45.223  25.491  26.947  1.00  0.00     0.074 A 
ATOM     62  C   UNL A   1      48.542  30.899  27.409  1.00  0.00     0.029 A 
ATOM     63  N   UNL A   1      46.931  29.366  27.422  1.00  0.00    -0.354 N 
ATOM     64  N   UNL A   1      45.820  26.654  27.074  1.00  0.00    -0.248 NA
ATOM     65  C   UNL A   1      46.102  24.409  26.489  1.00  0.00     0.031 C 
ATOM     66  C   UNL A   1      49.082  29.685  26.972  1.00  0.00     0.029 A 
ATOM     67  C   UNL A   1      48.085  28.721  27.010  1.00  0.00     0.049 A 
ATOM     68  H   UNL A   1      46.052  28.936  27.530  1.00  0.00     0.167 HD
ATOM     69  C   UNL A   1      47.153  26.434  26.741  1.00  0.00     0.074 A 
ATOM     70  C   UNL A   1      47.274  25.025  26.427  1.00  0.00     0.031 C 
ATOM     71  C   UNL A   1      48.185  27.315  26.703  1.00  0.00     0.037 A 
BRANCH  58  72
ATOM     72  C   UNL A   1      46.642  33.105  28.265  1.00  0.00     0.058 A 
ATOM     73  C   UNL A   1      46.554  34.034  27.214  1.00  0.00     0.135 A 
ATOM     74  C   UNL A   1      47.123  33.564  29.501  1.00  0.00     0.135 A 
ATOM     75  F   UNL A   1      46.120  33.647  26.003  1.00  0.00    -0.206 F 
ATOM     76  C   UNL A   1      46.958  35.355  27.373  1.00  0.00     0.059 A 
ATOM     77  C   UNL A   1      47.502  34.890  29.692  1.00  0.00     0.059 A 
ATOM     78  F   UNL A   1      47.234  32.722  30.540  1.00  0.00    -0.206 F 
ATOM     79  C   UNL A   1      47.431  35.774  28.617  1.00  0.00     0.060 A 
BRANCH  79  80
ATOM     80  S   UNL A   1      47.944  37.494  28.809  1.00  0.00     0.124 S 
ATOM     81  O   UNL A   1      47.862  37.663  30.257  1.00  0.00    -0.237 OA
ATOM     82  O   UNL A   1      49.291  37.483  28.248  1.00  0.00    -0.237 OA
ATOM     83  O   UNL A   1      46.952  38.234  28.035  1.00  0.00    -0.744 OA
ENDBRANCH  79  80
ENDBRANCH  58  72
BRANCH  59  84
ATOM     84  C   UNL A   1      43.293  23.740  27.016  1.00  0.00     0.058 A 
ATOM     85  C   UNL A   1      42.928  23.277  25.743  1.00  0.00     0.135 A 
ATOM     86  C   UNL A   1      43.182  22.845  28.092  1.00  0.00     0.135 A 
ATOM     87  F   UNL A   1      43.015  24.094  24.682  1.00  0.00    -0.206 F 
ATOM     88  C   UNL A   1      42.448  21.986  25.546  1.00  0.00     0.059 A 
ATOM     89  C   UNL A   1      42.733  21.541  27.915  1.00  0.00     0.059 A 
ATOM     90  F   UNL A   1      43.537  23.231  29.327  1.00  0.00    -0.206 F 
ATOM     91  C   UNL A   1      42.355  21.124  26.639  1.00  0.00     0.060 A 
BRANCH  91  92
ATOM     92  S   UNL A   1      41.767  19.439  26.366  1.00  0.00     0.124 S 
ATOM     93  O   UNL A   1      42.520  19.053  25.180  1.00  0.00    -0.237 OA
ATOM     94  O   UNL A   1      42.147  18.777  27.610  1.00  0.00    -0.237 OA
ATOM     95  O   UNL A   1      40.329  19.613  26.173  1.00  0.00    -0.744 OA
ENDBRANCH  91  92
ENDBRANCH  59  84
BRANCH  71  96
ATOM     96  C   UNL A   1      49.541  26.768  26.349  1.00  0.00     0.058 A 
ATOM     97  C   UNL A   1      50.357  26.131  27.296  1.00  0.00     0.135 A 
ATOM     98  C   UNL A   1      50.024  26.872  25.033  1.00  0.00     0.135 A 
ATOM     99  F   UNL A   1      49.944  26.006  28.568  1.00  0.00    -0.206 F 
ATOM    100  C   UNL A   1      51.625  25.664  26.966  1.00  0.00     0.059 A 
ATOM    101  C   UNL A   1      51.274  26.380  24.673  1.00  0.00     0.059 A 
ATOM    102  F   UNL A   1      49.276  27.455  24.082  1.00  0.00    -0.206 F 
ATOM    103  C   UNL A   1      52.076  25.799  25.652  1.00  0.00     0.060 A 
BRANCH 103 104
ATOM    104  S   UNL A   1      53.727  25.200  25.238  1.00  0.00     0.124 S 
ATOM    105  O   UNL A   1      53.549  23.756  25.339  1.00  0.00    -0.237 OA
ATOM    106  O   UNL A   1      53.922  25.722  23.890  1.00  0.00    -0.237 OA
ATOM    107  O   UNL A   1      54.574  25.803  26.265  1.00  0.00    -0.744 OA
ENDBRANCH 103 104
ENDBRANCH  71  96
ENDBRANCH  45  46
ENDBRANCH  37  40
ENDBRANCH  35  36
ENDBRANCH  34  35
ENDBRANCH  33  34
ENDBRANCH   1  33
TORSDOF 21
ENDMDL
MODEL 2
REMARK VINA RESULT:     -11.6      0.843      1.948
REMARK SMILES CCOc1cc(C[NH+]2CCC3(CC2)[C@H](C(=O)NCCCCCCNC(=O)c2ccc(-c4c5nc(c(-c6c(F)cc(S(=O)(=O)[O-])cc6F)c6ccc([nH]6)c(-c6c(F)cc(S(=O)(=O)[O-])cc6F)c6nc(c(-c7c(F)cc(S(=O)(=O)[O-])cc7F)c7ccc4[nH]7)C=C6)C=C5)cc2)CC(=O)N3C)ccc1OC
REMARK SMILES IDX 20 1 19 2 18 3 17 4 15 5 16 6 14 8 8 9 9 10 13 11 10 13
REMARK SMILES IDX 12 14 11 15 96 16 93 17 94 18 97 19 95 20 7 21 6 22 4 23
REMARK SMILES IDX 5 24 100 25 99 26 98 27 3 28 2 29 1 30 101 31 102 32 21 33
REMARK SMILES IDX 22 34 23 35 24 36 25 37 26 39 27 40 28 41 92 42 29 43 91 44
REMARK SMILES IDX 30 45 31 46 32 47 85 48 33 49 90 50 84 51 86 52 34 53 89 54
REMARK SMILES IDX 83 55 82 56 35 58 69 59 48 60 68 61 49 62 52 63 67 64 87 65
REMARK SMILES IDX 50 66 51 67 66 69 88 70 53 71 36 72 37 73 46 74 38 75 39 76
REMARK SMILES IDX 45 77 47 78 40 79 41 80 42 81 43 82 44 83 70 84 71 85 80 86
REMARK SMILES IDX 72 87 73 88 79 89 81 90 74 91 75 92 76 93 77 94 78 95 54 96
REMARK SMILES IDX 55 97 64 98 56 99 57 100 63 101 65 102 58 103 59 104 60 105
REMARK SMILES IDX 61 106 62 107
REMARK H PARENT 17 7 8 12 24 38 86 57 52 68
REMARK Flexibility Score: inf
ROOT
ATOM      1  C   UNL A   1      34.450  31.377  27.628  1.00  0.00     0.002 C 
ENDROOT
BRANCH   1   2
ATOM      2  C   UNL A   1      35.148  30.049  27.919  1.00  0.00     0.021 C 
BRANCH   2   3
ATOM      3  C   UNL A   1      34.783  28.905  26.974  1.00  0.00     0.116 C 
BRANCH   3   4
ATOM      4  N   UNL A   1      33.434  28.457  27.201  1.00  0.00    -0.356 N 
ATOM      5  C   UNL A   1      32.358  28.296  26.411  1.00  0.00     0.226 C 
ATOM      6  O   UNL A   1      31.396  27.772  26.982  1.00  0.00    -0.275 OA
ATOM      7  H   UNL A   1      33.261  28.215  28.139  1.00  0.00     0.163 HD
BRANCH   5   8
ATOM      8  C   UNL A   1      32.281  28.585  24.910  1.00  0.00     0.114 C 
ATOM      9  N   UNL A   1      32.288  25.081  22.442  1.00  0.00    -0.331 N 
ATOM     10  C   UNL A   1      31.349  25.029  23.540  1.00  0.00     0.265 C 
ATOM     11  C   UNL A   1      32.204  26.334  21.710  1.00  0.00     0.265 C 
ATOM     12  H   UNL A   1      31.968  24.396  21.757  1.00  0.00     0.348 HD
ATOM     13  C   UNL A   1      31.448  26.211  24.491  1.00  0.00     0.091 C 
ATOM     14  C   UNL A   1      32.311  27.626  22.534  1.00  0.00     0.091 C 
ATOM     15  C   UNL A   1      31.569  27.627  23.899  1.00  0.00     0.065 C 
ATOM     16  N   UNL A   1      30.288  28.334  23.719  1.00  0.00    -0.339 N 
ATOM     17  C   UNL A   1      31.676  29.966  24.693  1.00  0.00     0.116 C 
ATOM     18  C   UNL A   1      30.324  29.671  24.115  1.00  0.00     0.223 C 
ATOM     19  C   UNL A   1      29.153  27.839  22.971  1.00  0.00     0.147 C 
ATOM     20  O   UNL A   1      29.435  30.487  23.987  1.00  0.00    -0.275 OA
BRANCH   9  21
ATOM     21  C   UNL A   1      33.599  24.455  22.650  1.00  0.00     0.299 C 
BRANCH  21  22
ATOM     22  C   UNL A   1      33.612  23.025  23.151  1.00  0.00     0.010 A 
ATOM     23  C   UNL A   1      34.689  21.297  24.481  1.00  0.00     0.161 A 
ATOM     24  C   UNL A   1      34.769  22.469  23.718  1.00  0.00     0.060 A 
ATOM     25  C   UNL A   1      33.499  20.560  24.514  1.00  0.00     0.160 A 
ATOM     26  C   UNL A   1      32.398  21.026  23.791  1.00  0.00     0.051 A 
ATOM     27  C   UNL A   1      32.435  22.265  23.150  1.00  0.00     0.013 A 
BRANCH  23  28
ATOM     28  O   UNL A   1      35.627  21.041  25.435  1.00  0.00    -0.490 OA
BRANCH  28  29
ATOM     29  C   UNL A   1      36.919  20.596  25.066  1.00  0.00     0.226 C 
ATOM     30  C   UNL A   1      37.852  21.678  25.600  1.00  0.00     0.049 C 
ENDBRANCH  28  29
ENDBRANCH  23  28
BRANCH  25  31
ATOM     31  O   UNL A   1      33.237  19.407  25.203  1.00  0.00    -0.493 OA
ATOM     32  C   UNL A   1      33.691  18.166  24.679  1.00  0.00     0.278 C 
ENDBRANCH  25  31
ENDBRANCH  21  22
ENDBRANCH   9  21
ENDBRANCH   5   8
ENDBRANCH   3   4
ENDBRANCH   2   3
ENDBRANCH   1   2
BRANCH   1  33
ATOM     33  C   UNL A   1      34.721  32.484  28.642  1.00  0.00     0.002 C 
BRANCH  33  34
ATOM     34  C   UNL A   1      36.069  33.184  28.482  1.00  0.00     0.021 C 
BRANCH  34  35
ATOM     35  C   UNL A   1      36.976  33.099  29.697  1.00  0.00     0.116 C 
BRANCH  35  36
ATOM     36  N   UNL A   1      36.452  32.203  30.707  1.00  0.00    -0.352 N 
ATOM     37  C   UNL A   1      36.913  30.955  31.031  1.00  0.00     0.251 C 
ATOM     38  H   UNL A   1      35.677  32.529  31.219  1.00  0.00     0.163 HD
ATOM     39  O   UNL A   1      36.267  30.224  31.773  1.00  0.00    -0.269 OA
BRANCH  37  40
ATOM     40  C   UNL A   1      38.192  30.504  30.449  1.00  0.00     0.039 A 
ATOM     41  C   UNL A   1      39.270  30.270  31.300  1.00  0.00     0.014 A 
ATOM     42  C   UNL A   1      38.309  30.287  29.070  1.00  0.00     0.014 A 
ATOM     43  C   UNL A   1      40.474  29.819  30.765  1.00  0.00     0.010 A 
ATOM     44  C   UNL A   1      39.480  29.749  28.553  1.00  0.00     0.010 A 
ATOM     45  C   UNL A   1      40.589  29.553  29.389  1.00  0.00    -0.014 A 
BRANCH  45  46
ATOM     46  C   UNL A   1      41.892  29.150  28.811  1.00  0.00     0.031 A 
ATOM     47  C   UNL A   1      43.010  30.158  28.719  1.00  0.00     0.074 A 
ATOM     48  C   UNL A   1      42.072  27.887  28.380  1.00  0.00     0.049 A 
ATOM     49  N   UNL A   1      44.234  29.995  28.289  1.00  0.00    -0.248 NA
ATOM     50  C   UNL A   1      42.704  31.535  29.140  1.00  0.00     0.031 C 
ATOM     51  C   UNL A   1      41.044  26.842  28.368  1.00  0.00     0.029 A 
ATOM     52  N   UNL A   1      43.185  27.263  27.878  1.00  0.00    -0.354 N 
ATOM     53  C   UNL A   1      44.836  31.245  28.383  1.00  0.00     0.074 A 
ATOM     54  C   UNL A   1      43.825  32.170  28.838  1.00  0.00     0.031 C 
ATOM     55  C   UNL A   1      41.588  25.698  27.923  1.00  0.00     0.029 A 
ATOM     56  C   UNL A   1      42.990  25.934  27.591  1.00  0.00     0.049 A 
ATOM     57  H   UNL A   1      44.044  27.725  27.737  1.00  0.00     0.167 HD
ATOM     58  C   UNL A   1      46.125  31.585  28.147  1.00  0.00     0.037 A 
ATOM     59  C   UNL A   1      43.850  25.008  27.125  1.00  0.00     0.037 A 
ATOM     60  C   UNL A   1      47.132  30.649  27.719  1.00  0.00     0.049 A 
ATOM     61  C   UNL A   1      45.283  25.405  26.886  1.00  0.00     0.074 A 
ATOM     62  C   UNL A   1      48.478  30.873  27.495  1.00  0.00     0.029 A 
ATOM     63  N   UNL A   1      46.899  29.306  27.454  1.00  0.00    -0.354 N 
ATOM     64  N   UNL A   1      45.853  26.578  27.042  1.00  0.00    -0.248 NA
ATOM     65  C   UNL A   1      46.193  24.348  26.428  1.00  0.00     0.031 C 
ATOM     66  C   UNL A   1      49.050  29.677  27.049  1.00  0.00     0.029 A 
ATOM     67  C   UNL A   1      48.074  28.692  27.053  1.00  0.00     0.049 A 
ATOM     68  H   UNL A   1      46.028  28.856  27.538  1.00  0.00     0.167 HD
ATOM     69  C   UNL A   1      47.196  26.391  26.731  1.00  0.00     0.074 A 
ATOM     70  C   UNL A   1      47.353  24.990  26.397  1.00  0.00     0.031 C 
ATOM     71  C   UNL A   1      48.209  27.294  26.726  1.00  0.00     0.037 A 
BRANCH  58  72
ATOM     72  C   UNL A   1      46.516  33.025  28.349  1.00  0.00     0.058 A 
ATOM     73  C   UNL A   1      47.000  33.494  29.582  1.00  0.00     0.135 A 
ATOM     74  C   UNL A   1      46.425  33.945  27.292  1.00  0.00     0.135 A 
ATOM     75  F   UNL A   1      47.089  32.664  30.634  1.00  0.00    -0.206 F 
ATOM     76  C   UNL A   1      47.347  34.828  29.769  1.00  0.00     0.059 A 
ATOM     77  C   UNL A   1      46.798  35.276  27.448  1.00  0.00     0.059 A 
ATOM     78  F   UNL A   1      45.966  33.555  26.093  1.00  0.00    -0.206 F 
ATOM     79  C   UNL A   1      47.243  35.712  28.694  1.00  0.00     0.060 A 
BRANCH  79  80
ATOM     80  S   UNL A   1      47.706  37.438  28.952  1.00  0.00     0.124 S 
ATOM     81  O   UNL A   1      47.835  37.912  27.577  1.00  0.00    -0.237 OA
ATOM     82  O   UNL A   1      46.565  37.959  29.697  1.00  0.00    -0.237 OA
ATOM     83  O   UNL A   1      48.954  37.348  29.703  1.00  0.00    -0.744 OA
ENDBRANCH  79  80
ENDBRANCH  58  72
BRANCH  59  84
ATOM     84  C   UNL A   1      43.390  23.613  26.892  1.00  0.00     0.058 A 
ATOM     85  C   UNL A   1      43.189  22.727  27.963  1.00  0.00     0.135 A 
ATOM     86  C   UNL A   1      43.134  23.138  25.597  1.00  0.00     0.135 A 
ATOM     87  F   UNL A   1      43.421  23.132  29.221  1.00  0.00    -0.206 F 
ATOM     88  C   UNL A   1      42.776  21.414  27.756  1.00  0.00     0.059 A 
ATOM     89  C   UNL A   1      42.693  21.839  25.367  1.00  0.00     0.059 A 
ATOM     90  F   UNL A   1      43.291  23.950  24.540  1.00  0.00    -0.206 F 
ATOM     91  C   UNL A   1      42.529  20.980  26.453  1.00  0.00     0.060 A 
BRANCH  91  92
ATOM     92  S   UNL A   1      41.958  19.286  26.199  1.00  0.00     0.124 S 
ATOM     93  O   UNL A   1      40.532  19.487  25.974  1.00  0.00    -0.237 OA
ATOM     94  O   UNL A   1      42.737  18.871  25.037  1.00  0.00    -0.237 OA
ATOM     95  O   UNL A   1      42.312  18.622  27.451  1.00  0.00    -0.744 OA
ENDBRANCH  91  92
ENDBRANCH  59  84
BRANCH  71  96
ATOM     96  C   UNL A   1      49.583  26.781  26.389  1.00  0.00     0.058 A 
ATOM     97  C   UNL A   1      50.118  26.880  25.095  1.00  0.00     0.135 A 
ATOM     98  C   UNL A   1      50.381  26.192  27.383  1.00  0.00     0.135 A 
ATOM     99  F   UNL A   1      49.396  27.435  24.106  1.00  0.00    -0.206 F 
ATOM    100  C   UNL A   1      51.373  26.368  24.787  1.00  0.00     0.059 A 
ATOM    101  C   UNL A   1      51.653  25.704  27.105  1.00  0.00     0.059 A 
ATOM    102  F   UNL A   1      49.926  26.088  28.643  1.00  0.00    -0.206 F 
ATOM    103  C   UNL A   1      52.131  25.775  25.799  1.00  0.00     0.060 A 
BRANCH 103 104
ATOM    104  S   UNL A   1      53.753  25.102  25.384  1.00  0.00     0.124 S 
ATOM    105  O   UNL A   1      53.997  25.708  24.079  1.00  0.00    -0.237 OA
ATOM    106  O   UNL A   1      54.585  25.594  26.477  1.00  0.00    -0.237 OA
ATOM    107  O   UNL A   1      53.529  23.659  25.375  1.00  0.00    -0.744 OA
ENDBRANCH 103 104
ENDBRANCH  71  96
ENDBRANCH  45  46
ENDBRANCH  37  40
ENDBRANCH  35  36
ENDBRANCH  34  35
ENDBRANCH  33  34
ENDBRANCH   1  33
TORSDOF 21
ENDMDL
MODEL 3
REMARK VINA RESULT:     -11.5      2.356      9.329
REMARK SMILES CCOc1cc(C[NH+]2CCC3(CC2)[C@H](C(=O)NCCCCCCNC(=O)c2ccc(-c4c5nc(c(-c6c(F)cc(S(=O)(=O)[O-])cc6F)c6ccc([nH]6)c(-c6c(F)cc(S(=O)(=O)[O-])cc6F)c6nc(c(-c7c(F)cc(S(=O)(=O)[O-])cc7F)c7ccc4[nH]7)C=C6)C=C5)cc2)CC(=O)N3C)ccc1OC
REMARK SMILES IDX 20 1 19 2 18 3 17 4 15 5 16 6 14 8 8 9 9 10 13 11 10 13
REMARK SMILES IDX 12 14 11 15 96 16 93 17 94 18 97 19 95 20 7 21 6 22 4 23
REMARK SMILES IDX 5 24 100 25 99 26 98 27 3 28 2 29 1 30 101 31 102 32 21 33
REMARK SMILES IDX 22 34 23 35 24 36 25 37 26 39 27 40 28 41 92 42 29 43 91 44
REMARK SMILES IDX 30 45 31 46 32 47 85 48 33 49 90 50 84 51 86 52 34 53 89 54
REMARK SMILES IDX 83 55 82 56 35 58 69 59 48 60 68 61 49 62 52 63 67 64 87 65
REMARK SMILES IDX 50 66 51 67 66 69 88 70 53 71 36 72 37 73 46 74 38 75 39 76
REMARK SMILES IDX 45 77 47 78 40 79 41 80 42 81 43 82 44 83 70 84 71 85 80 86
REMARK SMILES IDX 72 87 73 88 79 89 81 90 74 91 75 92 76 93 77 94 78 95 54 96
REMARK SMILES IDX 55 97 64 98 56 99 57 100 63 101 65 102 58 103 59 104 60 105
REMARK SMILES IDX 61 106 62 107
REMARK H PARENT 17 7 8 12 24 38 86 57 52 68
REMARK Flexibility Score: inf
ROOT
ATOM      1  C   UNL A   1      38.133  23.196  25.555  1.00  0.00     0.002 C 
ENDROOT
BRANCH   1   2
ATOM      2  C   UNL A   1      36.920  23.856  26.209  1.00  0.00     0.021 C 
BRANCH   2   3
ATOM      3  C   UNL A   1      35.719  22.935  26.424  1.00  0.00     0.116 C 
BRANCH   3   4
ATOM      4  N   UNL A   1      35.937  21.649  25.815  1.00  0.00    -0.356 N 
ATOM      5  C   UNL A   1      35.125  20.715  25.292  1.00  0.00     0.226 C 
ATOM      6  O   UNL A   1      35.726  19.778  24.756  1.00  0.00    -0.275 OA
ATOM      7  H   UNL A   1      36.888  21.400  25.772  1.00  0.00     0.163 HD
BRANCH   5   8
ATOM      8  C   UNL A   1      33.598  20.781  25.206  1.00  0.00     0.114 C 
ATOM      9  N   UNL A   1      32.089  24.399  23.472  1.00  0.00    -0.331 N 
ATOM     10  C   UNL A   1      33.147  23.773  22.709  1.00  0.00     0.265 C 
ATOM     11  C   UNL A   1      31.065  23.446  23.867  1.00  0.00     0.265 C 
ATOM     12  H   UNL A   1      31.593  25.011  22.825  1.00  0.00     0.348 HD
ATOM     13  C   UNL A   1      33.773  22.569  23.396  1.00  0.00     0.091 C 
ATOM     14  C   UNL A   1      31.540  22.181  24.597  1.00  0.00     0.091 C 
ATOM     15  C   UNL A   1      32.846  21.535  24.059  1.00  0.00     0.065 C 
ATOM     16  N   UNL A   1      32.469  20.399  23.197  1.00  0.00    -0.339 N 
ATOM     17  C   UNL A   1      33.029  19.368  25.237  1.00  0.00     0.116 C 
ATOM     18  C   UNL A   1      32.518  19.164  23.843  1.00  0.00     0.223 C 
ATOM     19  C   UNL A   1      31.848  20.503  21.896  1.00  0.00     0.147 C 
ATOM     20  O   UNL A   1      32.172  18.095  23.384  1.00  0.00    -0.275 OA
BRANCH   9  21
ATOM     21  C   UNL A   1      32.473  25.470  24.398  1.00  0.00     0.299 C 
BRANCH  21  22
ATOM     22  C   UNL A   1      31.637  26.732  24.381  1.00  0.00     0.010 A 
ATOM     23  C   UNL A   1      31.398  29.078  24.982  1.00  0.00     0.161 A 
ATOM     24  C   UNL A   1      31.936  27.809  25.232  1.00  0.00     0.060 A 
ATOM     25  C   UNL A   1      30.402  29.240  24.012  1.00  0.00     0.160 A 
ATOM     26  C   UNL A   1      29.974  28.121  23.292  1.00  0.00     0.051 A 
ATOM     27  C   UNL A   1      30.610  26.888  23.442  1.00  0.00     0.013 A 
BRANCH  23  28
ATOM     28  O   UNL A   1      32.046  30.191  25.426  1.00  0.00    -0.490 OA
BRANCH  28  29
ATOM     29  C   UNL A   1      31.811  30.681  26.733  1.00  0.00     0.226 C 
ATOM     30  C   UNL A   1      31.359  32.121  26.514  1.00  0.00     0.049 C 
ENDBRANCH  28  29
ENDBRANCH  23  28
BRANCH  25  31
ATOM     31  O   UNL A   1      29.771  30.394  23.631  1.00  0.00    -0.493 OA
ATOM     32  C   UNL A   1      28.523  30.314  22.957  1.00  0.00     0.278 C 
ENDBRANCH  25  31
ENDBRANCH  21  22
ENDBRANCH   9  21
ENDBRANCH   5   8
ENDBRANCH   3   4
ENDBRANCH   2   3
ENDBRANCH   1   2
BRANCH   1  33
ATOM     33  C   UNL A   1      39.320  22.964  26.484  1.00  0.00     0.002 C 
BRANCH  33  34
ATOM     34  C   UNL A   1      39.535  21.509  26.898  1.00  0.00     0.021 C 
BRANCH  34  35
ATOM     35  C   UNL A   1      39.580  20.522  25.745  1.00  0.00     0.116 C 
BRANCH  35  36
ATOM     36  N   UNL A   1      40.540  19.462  25.972  1.00  0.00    -0.352 N 
ATOM     37  C   UNL A   1      41.875  19.593  26.244  1.00  0.00     0.251 C 
ATOM     38  H   UNL A   1      40.192  18.541  25.925  1.00  0.00     0.163 HD
ATOM     39  O   UNL A   1      42.615  18.616  26.228  1.00  0.00    -0.269 OA
BRANCH  37  40
ATOM     40  C   UNL A   1      42.405  20.940  26.534  1.00  0.00     0.039 A 
ATOM     41  C   UNL A   1      42.622  21.303  27.861  1.00  0.00     0.014 A 
ATOM     42  C   UNL A   1      42.711  21.823  25.491  1.00  0.00     0.014 A 
ATOM     43  C   UNL A   1      43.146  22.562  28.146  1.00  0.00     0.010 A 
ATOM     44  C   UNL A   1      43.319  23.040  25.774  1.00  0.00     0.010 A 
ATOM     45  C   UNL A   1      43.501  23.439  27.105  1.00  0.00    -0.014 A 
BRANCH  45  46
ATOM     46  C   UNL A   1      43.983  24.807  27.411  1.00  0.00     0.031 A 
ATOM     47  C   UNL A   1      45.434  25.151  27.190  1.00  0.00     0.074 A 
ATOM     48  C   UNL A   1      43.123  25.732  27.875  1.00  0.00     0.049 A 
ATOM     49  N   UNL A   1      46.044  26.296  27.353  1.00  0.00    -0.248 NA
ATOM     50  C   UNL A   1      46.321  24.059  26.756  1.00  0.00     0.031 C 
ATOM     51  C   UNL A   1      41.709  25.496  28.180  1.00  0.00     0.029 A 
ATOM     52  N   UNL A   1      43.307  27.060  28.162  1.00  0.00    -0.354 N 
ATOM     53  C   UNL A   1      47.380  26.059  27.047  1.00  0.00     0.074 A 
ATOM     54  C   UNL A   1      47.506  24.648  26.763  1.00  0.00     0.031 C 
ATOM     55  C   UNL A   1      41.146  26.651  28.571  1.00  0.00     0.029 A 
ATOM     56  C   UNL A   1      42.162  27.700  28.573  1.00  0.00     0.049 A 
ATOM     57  H   UNL A   1      44.178  27.513  28.082  1.00  0.00     0.167 HD
ATOM     58  C   UNL A   1      48.403  26.943  26.974  1.00  0.00     0.037 A 
ATOM     59  C   UNL A   1      41.955  28.989  28.901  1.00  0.00     0.037 A 
ATOM     60  C   UNL A   1      48.260  28.352  27.233  1.00  0.00     0.049 A 
ATOM     61  C   UNL A   1      43.103  29.958  28.795  1.00  0.00     0.074 A 
ATOM     62  C   UNL A   1      49.216  29.346  27.144  1.00  0.00     0.029 A 
ATOM     63  N   UNL A   1      47.080  28.966  27.631  1.00  0.00    -0.354 N 
ATOM     64  N   UNL A   1      44.347  29.730  28.441  1.00  0.00    -0.248 NA
ATOM     65  C   UNL A   1      42.814  31.362  29.113  1.00  0.00     0.031 C 
ATOM     66  C   UNL A   1      48.628  30.554  27.532  1.00  0.00     0.029 A 
ATOM     67  C   UNL A   1      47.288  30.323  27.806  1.00  0.00     0.049 A 
ATOM     68  H   UNL A   1      46.221  28.504  27.768  1.00  0.00     0.167 HD
ATOM     69  C   UNL A   1      44.981  30.967  28.463  1.00  0.00     0.074 A 
ATOM     70  C   UNL A   1      43.977  31.940  28.847  1.00  0.00     0.031 C 
ATOM     71  C   UNL A   1      46.274  31.275  28.188  1.00  0.00     0.037 A 
BRANCH  58  72
ATOM     72  C   UNL A   1      49.760  26.411  26.597  1.00  0.00     0.058 A 
ATOM     73  C   UNL A   1      50.658  25.923  27.562  1.00  0.00     0.135 A 
ATOM     74  C   UNL A   1      50.161  26.367  25.252  1.00  0.00     0.135 A 
ATOM     75  F   UNL A   1      50.336  25.958  28.865  1.00  0.00    -0.206 F 
ATOM     76  C   UNL A   1      51.915  25.443  27.211  1.00  0.00     0.059 A 
ATOM     77  C   UNL A   1      51.401  25.861  24.875  1.00  0.00     0.059 A 
ATOM     78  F   UNL A   1      49.347  26.823  24.288  1.00  0.00    -0.206 F 
ATOM     79  C   UNL A   1      52.278  25.416  25.863  1.00  0.00     0.060 A 
BRANCH  79  80
ATOM     80  S   UNL A   1      53.910  24.783  25.424  1.00  0.00     0.124 S 
ATOM     81  O   UNL A   1      54.269  25.653  24.308  1.00  0.00    -0.237 OA
ATOM     82  O   UNL A   1      54.666  24.988  26.655  1.00  0.00    -0.237 OA
ATOM     83  O   UNL A   1      53.653  23.389  25.075  1.00  0.00    -0.744 OA
ENDBRANCH  79  80
ENDBRANCH  58  72
BRANCH  59  84
ATOM     84  C   UNL A   1      40.602  29.444  29.320  1.00  0.00     0.058 A 
ATOM     85  C   UNL A   1      39.566  29.597  28.385  1.00  0.00     0.135 A 
ATOM     86  C   UNL A   1      40.314  29.728  30.664  1.00  0.00     0.135 A 
ATOM     87  F   UNL A   1      39.790  29.340  27.087  1.00  0.00    -0.206 F 
ATOM     88  C   UNL A   1      38.302  30.039  28.763  1.00  0.00     0.059 A 
ATOM     89  C   UNL A   1      39.050  30.143  31.070  1.00  0.00     0.059 A 
ATOM     90  F   UNL A   1      41.264  29.579  31.600  1.00  0.00    -0.206 F 
ATOM     91  C   UNL A   1      38.053  30.308  30.109  1.00  0.00     0.060 A 
BRANCH  91  92
ATOM     92  S   UNL A   1      36.399  30.845  30.594  1.00  0.00     0.124 S 
ATOM     93  O   UNL A   1      35.667  30.712  29.340  1.00  0.00    -0.237 OA
ATOM     94  O   UNL A   1      36.059  29.883  31.638  1.00  0.00    -0.237 OA
ATOM     95  O   UNL A   1      36.612  32.213  31.058  1.00  0.00    -0.744 OA
ENDBRANCH  91  92
ENDBRANCH  59  84
BRANCH  71  96
ATOM     96  C   UNL A   1      46.662  32.727  28.251  1.00  0.00     0.058 A 
ATOM     97  C   UNL A   1      46.480  33.594  27.162  1.00  0.00     0.135 A 
ATOM     98  C   UNL A   1      47.212  33.262  29.428  1.00  0.00     0.135 A 
ATOM     99  F   UNL A   1      45.958  33.135  26.013  1.00  0.00    -0.206 F 
ATOM    100  C   UNL A   1      46.878  34.926  27.219  1.00  0.00     0.059 A 
ATOM    101  C   UNL A   1      47.585  34.598  29.519  1.00  0.00     0.059 A 
ATOM    102  F   UNL A   1      47.391  32.482  30.506  1.00  0.00    -0.206 F 
ATOM    103  C   UNL A   1      47.435  35.416  28.401  1.00  0.00     0.060 A 
BRANCH 103 104
ATOM    104  S   UNL A   1      47.959  37.142  28.460  1.00  0.00     0.124 S 
ATOM    105  O   UNL A   1      46.788  37.823  27.917  1.00  0.00    -0.237 OA
ATOM    106  O   UNL A   1      48.209  37.346  29.883  1.00  0.00    -0.237 OA
ATOM    107  O   UNL A   1      49.149  37.164  27.612  1.00  0.00    -0.744 OA
ENDBRANCH 103 104
ENDBRANCH  71  96
ENDBRANCH  45  46
ENDBRANCH  37  40
ENDBRANCH  35  36
ENDBRANCH  34  35
ENDBRANCH  33  34
ENDBRANCH   1  33
TORSDOF 21
ENDMDL
