MODEL 1
REMARK VINA RESULT:     -12.0      0.000      0.000
REMARK SMILES CC(C)(C)OC(=O)Nc1ccc(-c2cccc(Cl)c2C(=O)NCCCCCCNC(=O)c2ccc(-c3c4nc(c(-c5c(F)cc(S(=O)(=O)[O-])cc5F)c5ccc([nH]5)c(-c5c(F)cc(S(=O)(=O)[O-])cc5F)c5nc(c(-c6c(F)cc(S(=O)(=O)[O-])cc6F)c6ccc3[nH]6)C=C5)C=C4)cc2)cc1
REMARK SMILES IDX 25 1 24 2 23 3 22 4 20 5 21 6 19 8 13 9 14 10 15 11 17 12
REMARK SMILES IDX 16 13 18 14 12 15 9 16 10 17 99 18 11 19 98 20 8 21 6 22
REMARK SMILES IDX 7 23 5 25 2 26 1 27 3 28 4 29 26 30 27 31 28 32 29 33 30 34
REMARK SMILES IDX 31 36 32 37 33 38 97 39 34 40 96 41 35 42 36 43 37 44 90 45
REMARK SMILES IDX 38 46 95 47 89 48 91 49 39 50 94 51 88 52 87 53 40 55 74 56
REMARK SMILES IDX 53 57 73 58 54 59 57 60 72 61 92 62 55 63 56 64 71 66 93 67
REMARK SMILES IDX 58 68 41 69 42 70 51 71 43 72 44 73 50 74 52 75 45 76 46 77
REMARK SMILES IDX 47 78 48 79 49 80 75 81 76 82 85 83 77 84 78 85 84 86 86 87
REMARK SMILES IDX 79 88 80 89 81 90 82 91 83 92 59 93 60 94 69 95 61 96 62 97
REMARK SMILES IDX 68 98 70 99 63 100 64 101 65 102 66 103 67 104
REMARK H PARENT 22 7 8 24 29 35 91 54 57 65
REMARK Flexibility Score: inf
ROOT
ATOM      1  C   UNL A   1      33.810  29.527  26.771  1.00  0.00     0.002 C 
ENDROOT
BRANCH   1   2
ATOM      2  C   UNL A   1      32.587  30.387  26.446  1.00  0.00     0.021 C 
BRANCH   2   3
ATOM      3  C   UNL A   1      31.624  29.927  25.361  1.00  0.00     0.116 C 
BRANCH   3   4
ATOM      4  N   UNL A   1      32.062  28.955  24.397  1.00  0.00    -0.352 N 
ATOM      5  C   UNL A   1      31.345  28.392  23.355  1.00  0.00     0.253 C 
ATOM      6  O   UNL A   1      32.024  28.063  22.375  1.00  0.00    -0.269 OA
ATOM      7  H   UNL A   1      32.993  28.651  24.490  1.00  0.00     0.163 HD
BRANCH   5   8
ATOM      8  C   UNL A   1      29.860  28.082  23.319  1.00  0.00     0.066 A 
ATOM      9  C   UNL A   1      29.195  26.943  23.858  1.00  0.00    -0.004 A 
ATOM     10  C   UNL A   1      27.773  26.923  23.906  1.00  0.00     0.009 A 
ATOM     11  C   UNL A   1      26.995  27.972  23.446  1.00  0.00     0.002 A 
ATOM     12  C   UNL A   1      29.029  29.124  22.811  1.00  0.00     0.054 A 
ATOM     13  C   UNL A   1      27.625  29.069  22.890  1.00  0.00     0.021 A 
ATOM     14  Cl  UNL A   1      29.631  30.528  21.975  1.00  0.00    -0.083 Cl
BRANCH   9  15
ATOM     15  C   UNL A   1      29.811  25.716  24.373  1.00  0.00    -0.017 A 
ATOM     16  C   UNL A   1      31.157  23.396  25.275  1.00  0.00     0.044 A 
ATOM     17  C   UNL A   1      30.952  23.603  23.911  1.00  0.00     0.027 A 
ATOM     18  C   UNL A   1      30.609  24.315  26.179  1.00  0.00     0.027 A 
ATOM     19  C   UNL A   1      30.269  24.736  23.466  1.00  0.00     0.011 A 
ATOM     20  C   UNL A   1      29.938  25.463  25.736  1.00  0.00     0.011 A 
BRANCH  16  21
ATOM     21  N   UNL A   1      31.973  22.304  25.627  1.00  0.00    -0.291 N 
ATOM     22  C   UNL A   1      33.312  22.231  25.905  1.00  0.00     0.412 C 
ATOM     23  O   UNL A   1      33.857  21.140  26.038  1.00  0.00    -0.224 OA
ATOM     24  H   UNL A   1      31.499  21.443  25.683  1.00  0.00     0.173 HD
BRANCH  22  25
ATOM     25  O   UNL A   1      33.924  23.422  26.008  1.00  0.00    -0.444 OA
BRANCH  25  26
ATOM     26  C   UNL A   1      34.670  24.015  24.921  1.00  0.00     0.106 C 
ATOM     27  C   UNL A   1      36.109  24.051  25.452  1.00  0.00     0.056 C 
ATOM     28  C   UNL A   1      34.185  25.441  24.658  1.00  0.00     0.056 C 
ATOM     29  C   UNL A   1      34.631  23.154  23.656  1.00  0.00     0.056 C 
ENDBRANCH  25  26
ENDBRANCH  22  25
ENDBRANCH  16  21
ENDBRANCH   9  15
ENDBRANCH   5   8
ENDBRANCH   3   4
ENDBRANCH   2   3
ENDBRANCH   1   2
BRANCH   1  30
ATOM     30  C   UNL A   1      34.934  30.128  27.623  1.00  0.00     0.002 C 
BRANCH  30  31
ATOM     31  C   UNL A   1      34.848  31.613  27.987  1.00  0.00     0.021 C 
BRANCH  31  32
ATOM     32  C   UNL A   1      35.855  32.148  29.005  1.00  0.00     0.116 C 
BRANCH  32  33
ATOM     33  N   UNL A   1      35.713  31.532  30.310  1.00  0.00    -0.352 N 
ATOM     34  C   UNL A   1      36.492  30.594  30.945  1.00  0.00     0.251 C 
ATOM     35  H   UNL A   1      34.932  31.837  30.827  1.00  0.00     0.163 HD
ATOM     36  O   UNL A   1      36.063  30.085  31.980  1.00  0.00    -0.269 OA
BRANCH  34  37
ATOM     37  C   UNL A   1      37.822  30.172  30.427  1.00  0.00     0.039 A 
ATOM     38  C   UNL A   1      38.823  29.862  31.356  1.00  0.00     0.014 A 
ATOM     39  C   UNL A   1      38.137  30.165  29.065  1.00  0.00     0.014 A 
ATOM     40  C   UNL A   1      40.111  29.515  30.926  1.00  0.00     0.010 A 
ATOM     41  C   UNL A   1      39.407  29.755  28.634  1.00  0.00     0.010 A 
ATOM     42  C   UNL A   1      40.415  29.434  29.559  1.00  0.00    -0.014 A 
BRANCH  42  43
ATOM     43  C   UNL A   1      41.777  29.024  29.101  1.00  0.00     0.031 A 
ATOM     44  C   UNL A   1      42.907  30.021  29.040  1.00  0.00     0.074 A 
ATOM     45  C   UNL A   1      42.006  27.753  28.712  1.00  0.00     0.049 A 
ATOM     46  N   UNL A   1      44.145  29.845  28.652  1.00  0.00    -0.248 NA
ATOM     47  C   UNL A   1      42.598  31.398  29.450  1.00  0.00     0.031 C 
ATOM     48  C   UNL A   1      40.997  26.696  28.680  1.00  0.00     0.029 A 
ATOM     49  N   UNL A   1      43.146  27.134  28.259  1.00  0.00    -0.354 N 
ATOM     50  C   UNL A   1      44.761  31.087  28.764  1.00  0.00     0.074 A 
ATOM     51  C   UNL A   1      43.743  32.019  29.201  1.00  0.00     0.031 C 
ATOM     52  C   UNL A   1      41.561  25.559  28.244  1.00  0.00     0.029 A 
ATOM     53  C   UNL A   1      42.964  25.813  27.924  1.00  0.00     0.049 A 
ATOM     54  H   UNL A   1      44.014  27.595  28.181  1.00  0.00     0.167 HD
ATOM     55  C   UNL A   1      46.059  31.420  28.542  1.00  0.00     0.037 A 
ATOM     56  C   UNL A   1      43.815  24.907  27.402  1.00  0.00     0.037 A 
ATOM     57  C   UNL A   1      47.073  30.491  28.110  1.00  0.00     0.049 A 
ATOM     58  C   UNL A   1      45.245  25.298  27.144  1.00  0.00     0.074 A 
ATOM     59  C   UNL A   1      48.423  30.723  27.910  1.00  0.00     0.029 A 
ATOM     60  N   UNL A   1      46.850  29.158  27.791  1.00  0.00    -0.354 N 
ATOM     61  N   UNL A   1      45.827  26.459  27.325  1.00  0.00    -0.248 NA
ATOM     62  C   UNL A   1      46.139  24.254  26.622  1.00  0.00     0.031 C 
ATOM     63  C   UNL A   1      49.003  29.552  27.412  1.00  0.00     0.029 A 
ATOM     64  C   UNL A   1      48.030  28.566  27.364  1.00  0.00     0.049 A 
ATOM     65  H   UNL A   1      45.981  28.700  27.858  1.00  0.00     0.167 HD
ATOM     66  C   UNL A   1      47.158  26.282  26.961  1.00  0.00     0.074 A 
ATOM     67  C   UNL A   1      47.298  24.897  26.562  1.00  0.00     0.031 C 
ATOM     68  C   UNL A   1      48.168  27.187  26.961  1.00  0.00     0.037 A 
BRANCH  55  69
ATOM     69  C   UNL A   1      46.450  32.862  28.748  1.00  0.00     0.058 A 
ATOM     70  C   UNL A   1      46.881  33.344  29.995  1.00  0.00     0.135 A 
ATOM     71  C   UNL A   1      46.402  33.773  27.681  1.00  0.00     0.135 A 
ATOM     72  F   UNL A   1      46.942  32.522  31.056  1.00  0.00    -0.206 F 
ATOM     73  C   UNL A   1      47.197  34.686  30.190  1.00  0.00     0.059 A 
ATOM     74  C   UNL A   1      46.748  35.112  27.843  1.00  0.00     0.059 A 
ATOM     75  F   UNL A   1      46.008  33.369  26.462  1.00  0.00    -0.206 F 
ATOM     76  C   UNL A   1      47.121  35.564  29.108  1.00  0.00     0.060 A 
BRANCH  76  77
ATOM     77  S   UNL A   1      47.496  37.308  29.384  1.00  0.00     0.124 S 
ATOM     78  O   UNL A   1      48.037  37.277  30.739  1.00  0.00    -0.237 OA
ATOM     79  O   UNL A   1      48.458  37.591  28.325  1.00  0.00    -0.237 OA
ATOM     80  O   UNL A   1      46.199  37.963  29.242  1.00  0.00    -0.744 OA
ENDBRANCH  76  77
ENDBRANCH  55  69
BRANCH  56  81
ATOM     81  C   UNL A   1      43.323  23.537  27.087  1.00  0.00     0.058 A 
ATOM     82  C   UNL A   1      43.047  23.144  25.768  1.00  0.00     0.135 A 
ATOM     83  C   UNL A   1      43.159  22.579  28.100  1.00  0.00     0.135 A 
ATOM     84  F   UNL A   1      43.173  24.026  24.765  1.00  0.00    -0.206 F 
ATOM     85  C   UNL A   1      42.625  21.853  25.467  1.00  0.00     0.059 A 
ATOM     86  C   UNL A   1      42.768  21.275  27.819  1.00  0.00     0.059 A 
ATOM     87  F   UNL A   1      43.420  22.900  29.377  1.00  0.00    -0.206 F 
ATOM     88  C   UNL A   1      42.499  20.921  26.498  1.00  0.00     0.060 A 
BRANCH  88  89
ATOM     89  S   UNL A   1      42.033  19.226  26.086  1.00  0.00     0.124 S 
ATOM     90  O   UNL A   1      42.837  18.979  24.895  1.00  0.00    -0.237 OA
ATOM     91  O   UNL A   1      42.431  18.500  27.287  1.00  0.00    -0.237 OA
ATOM     92  O   UNL A   1      40.592  19.316  25.867  1.00  0.00    -0.744 OA
ENDBRANCH  88  89
ENDBRANCH  56  81
BRANCH  68  93
ATOM     93  C   UNL A   1      49.536  26.708  26.541  1.00  0.00     0.058 A 
ATOM     94  C   UNL A   1      49.990  26.824  25.218  1.00  0.00     0.135 A 
ATOM     95  C   UNL A   1      50.423  26.174  27.491  1.00  0.00     0.135 A 
ATOM     96  F   UNL A   1      49.184  27.321  24.266  1.00  0.00    -0.206 F 
ATOM     97  C   UNL A   1      51.266  26.407  24.847  1.00  0.00     0.059 A 
ATOM     98  C   UNL A   1      51.714  25.781  27.148  1.00  0.00     0.059 A 
ATOM     99  F   UNL A   1      50.047  26.048  28.774  1.00  0.00    -0.206 F 
ATOM    100  C   UNL A   1      52.122  25.889  25.820  1.00  0.00     0.060 A 
BRANCH 100 101
ATOM    101  S   UNL A   1      53.785  25.385  25.331  1.00  0.00     0.124 S 
ATOM    102  O   UNL A   1      53.523  24.119  24.656  1.00  0.00    -0.237 OA
ATOM    103  O   UNL A   1      54.204  26.488  24.471  1.00  0.00    -0.237 OA
ATOM    104  O   UNL A   1      54.498  25.282  26.601  1.00  0.00    -0.744 OA
ENDBRANCH 100 101
ENDBRANCH  68  93
ENDBRANCH  42  43
ENDBRANCH  34  37
ENDBRANCH  32  33
ENDBRANCH  31  32
ENDBRANCH  30  31
ENDBRANCH   1  30
TORSDOF 20
ENDMDL
MODEL 2
REMARK VINA RESULT:     -11.7      6.207     11.783
REMARK SMILES CC(C)(C)OC(=O)Nc1ccc(-c2cccc(Cl)c2C(=O)NCCCCCCNC(=O)c2ccc(-c3c4nc(c(-c5c(F)cc(S(=O)(=O)[O-])cc5F)c5ccc([nH]5)c(-c5c(F)cc(S(=O)(=O)[O-])cc5F)c5nc(c(-c6c(F)cc(S(=O)(=O)[O-])cc6F)c6ccc3[nH]6)C=C5)C=C4)cc2)cc1
REMARK SMILES IDX 25 1 24 2 23 3 22 4 20 5 21 6 19 8 13 9 14 10 15 11 17 12
REMARK SMILES IDX 16 13 18 14 12 15 9 16 10 17 99 18 11 19 98 20 8 21 6 22
REMARK SMILES IDX 7 23 5 25 2 26 1 27 3 28 4 29 26 30 27 31 28 32 29 33 30 34
REMARK SMILES IDX 31 36 32 37 33 38 97 39 34 40 96 41 35 42 36 43 37 44 90 45
REMARK SMILES IDX 38 46 95 47 89 48 91 49 39 50 94 51 88 52 87 53 40 55 74 56
REMARK SMILES IDX 53 57 73 58 54 59 57 60 72 61 92 62 55 63 56 64 71 66 93 67
REMARK SMILES IDX 58 68 41 69 42 70 51 71 43 72 44 73 50 74 52 75 45 76 46 77
REMARK SMILES IDX 47 78 48 79 49 80 75 81 76 82 85 83 77 84 78 85 84 86 86 87
REMARK SMILES IDX 79 88 80 89 81 90 82 91 83 92 59 93 60 94 69 95 61 96 62 97
REMARK SMILES IDX 68 98 70 99 63 100 64 101 65 102 66 103 67 104
REMARK H PARENT 22 7 8 24 29 35 91 54 57 65
REMARK Flexibility Score: inf
ROOT
ATOM      1  C   UNL A   1      39.051  22.270  26.084  1.00  0.00     0.002 C 
ENDROOT
BRANCH   1   2
ATOM      2  C   UNL A   1      37.844  21.515  25.522  1.00  0.00     0.021 C 
BRANCH   2   3
ATOM      3  C   UNL A   1      36.525  22.253  25.344  1.00  0.00     0.116 C 
BRANCH   3   4
ATOM      4  N   UNL A   1      35.510  22.135  26.355  1.00  0.00    -0.352 N 
ATOM      5  C   UNL A   1      34.237  21.602  26.241  1.00  0.00     0.253 C 
ATOM      6  O   UNL A   1      33.790  21.096  27.277  1.00  0.00    -0.269 OA
ATOM      7  H   UNL A   1      35.752  22.478  27.246  1.00  0.00     0.163 HD
BRANCH   5   8
ATOM      8  C   UNL A   1      33.332  21.632  25.024  1.00  0.00     0.066 A 
ATOM      9  C   UNL A   1      32.743  22.773  24.405  1.00  0.00    -0.004 A 
ATOM     10  C   UNL A   1      32.087  22.626  23.151  1.00  0.00     0.009 A 
ATOM     11  C   UNL A   1      31.990  21.409  22.496  1.00  0.00     0.002 A 
ATOM     12  C   UNL A   1      33.173  20.387  24.346  1.00  0.00     0.054 A 
ATOM     13  C   UNL A   1      32.526  20.288  23.101  1.00  0.00     0.021 A 
ATOM     14  Cl  UNL A   1      33.678  18.854  24.999  1.00  0.00    -0.083 Cl
BRANCH   9  15
ATOM     15  C   UNL A   1      32.700  24.143  24.925  1.00  0.00    -0.017 A 
ATOM     16  C   UNL A   1      32.591  26.847  25.754  1.00  0.00     0.044 A 
ATOM     17  C   UNL A   1      33.590  26.421  24.878  1.00  0.00     0.027 A 
ATOM     18  C   UNL A   1      31.706  25.893  26.271  1.00  0.00     0.027 A 
ATOM     19  C   UNL A   1      33.658  25.082  24.487  1.00  0.00     0.011 A 
ATOM     20  C   UNL A   1      31.760  24.552  25.867  1.00  0.00     0.011 A 
BRANCH  16  21
ATOM     21  N   UNL A   1      32.512  28.233  25.985  1.00  0.00    -0.291 N 
ATOM     22  C   UNL A   1      31.760  29.207  25.385  1.00  0.00     0.412 C 
ATOM     23  O   UNL A   1      31.962  30.390  25.640  1.00  0.00    -0.224 OA
ATOM     24  H   UNL A   1      33.099  28.559  26.705  1.00  0.00     0.173 HD
BRANCH  22  25
ATOM     25  O   UNL A   1      30.829  28.745  24.533  1.00  0.00    -0.444 OA
BRANCH  25  26
ATOM     26  C   UNL A   1      31.061  28.626  23.111  1.00  0.00     0.106 C 
ATOM     27  C   UNL A   1      30.117  29.674  22.506  1.00  0.00     0.056 C 
ATOM     28  C   UNL A   1      30.662  27.234  22.621  1.00  0.00     0.056 C 
ATOM     29  C   UNL A   1      32.501  28.978  22.729  1.00  0.00     0.056 C 
ENDBRANCH  25  26
ENDBRANCH  22  25
ENDBRANCH  16  21
ENDBRANCH   9  15
ENDBRANCH   5   8
ENDBRANCH   3   4
ENDBRANCH   2   3
ENDBRANCH   1   2
BRANCH   1  30
ATOM     30  C   UNL A   1      40.314  21.480  26.449  1.00  0.00     0.002 C 
BRANCH  30  31
ATOM     31  C   UNL A   1      40.990  21.781  27.789  1.00  0.00     0.021 C 
BRANCH  31  32
ATOM     32  C   UNL A   1      42.308  22.555  27.756  1.00  0.00     0.116 C 
BRANCH  32  33
ATOM     33  N   UNL A   1      42.463  23.346  26.551  1.00  0.00    -0.352 N 
ATOM     34  C   UNL A   1      42.290  24.693  26.338  1.00  0.00     0.251 C 
ATOM     35  H   UNL A   1      42.738  22.835  25.756  1.00  0.00     0.163 HD
ATOM     36  O   UNL A   1      42.300  25.105  25.178  1.00  0.00    -0.269 OA
BRANCH  34  37
ATOM     37  C   UNL A   1      42.088  25.662  27.449  1.00  0.00     0.039 A 
ATOM     38  C   UNL A   1      40.914  25.561  28.207  1.00  0.00     0.014 A 
ATOM     39  C   UNL A   1      42.969  26.718  27.703  1.00  0.00     0.014 A 
ATOM     40  C   UNL A   1      40.644  26.482  29.228  1.00  0.00     0.010 A 
ATOM     41  C   UNL A   1      42.729  27.600  28.767  1.00  0.00     0.010 A 
ATOM     42  C   UNL A   1      41.558  27.501  29.538  1.00  0.00    -0.014 A 
BRANCH  42  43
ATOM     43  C   UNL A   1      41.288  28.457  30.654  1.00  0.00     0.031 A 
ATOM     44  C   UNL A   1      42.077  28.393  31.937  1.00  0.00     0.074 A 
ATOM     45  C   UNL A   1      40.310  29.378  30.533  1.00  0.00     0.049 A 
ATOM     46  N   UNL A   1      41.966  29.129  33.015  1.00  0.00    -0.248 NA
ATOM     47  C   UNL A   1      43.113  27.355  32.027  1.00  0.00     0.031 C 
ATOM     48  C   UNL A   1      39.442  29.526  29.367  1.00  0.00     0.029 A 
ATOM     49  N   UNL A   1      39.871  30.353  31.397  1.00  0.00    -0.354 N 
ATOM     50  C   UNL A   1      42.909  28.641  33.912  1.00  0.00     0.074 A 
ATOM     51  C   UNL A   1      43.543  27.508  33.272  1.00  0.00     0.031 C 
ATOM     52  C   UNL A   1      38.583  30.535  29.579  1.00  0.00     0.029 A 
ATOM     53  C   UNL A   1      38.810  31.083  30.914  1.00  0.00     0.049 A 
ATOM     54  H   UNL A   1      40.279  30.515  32.279  1.00  0.00     0.167 HD
ATOM     55  C   UNL A   1      43.233  29.102  35.146  1.00  0.00     0.037 A 
ATOM     56  C   UNL A   1      38.084  32.069  31.479  1.00  0.00     0.037 A 
ATOM     57  C   UNL A   1      42.603  30.234  35.782  1.00  0.00     0.049 A 
ATOM     58  C   UNL A   1      38.444  32.556  32.858  1.00  0.00     0.074 A 
ATOM     59  C   UNL A   1      42.900  30.807  37.006  1.00  0.00     0.029 A 
ATOM     60  N   UNL A   1      41.539  30.952  35.256  1.00  0.00    -0.354 N 
ATOM     61  N   UNL A   1      39.388  32.128  33.662  1.00  0.00    -0.248 NA
ATOM     62  C   UNL A   1      37.650  33.666  33.402  1.00  0.00     0.031 C 
ATOM     63  C   UNL A   1      41.977  31.829  37.249  1.00  0.00     0.029 A 
ATOM     64  C   UNL A   1      41.145  31.941  36.146  1.00  0.00     0.049 A 
ATOM     65  H   UNL A   1      41.123  30.785  34.379  1.00  0.00     0.167 HD
ATOM     66  C   UNL A   1      39.316  32.929  34.797  1.00  0.00     0.074 A 
ATOM     67  C   UNL A   1      38.245  33.877  34.569  1.00  0.00     0.031 C 
ATOM     68  C   UNL A   1      40.073  32.881  35.922  1.00  0.00     0.037 A 
BRANCH  55  69
ATOM     69  C   UNL A   1      44.312  28.366  35.901  1.00  0.00     0.058 A 
ATOM     70  C   UNL A   1      45.673  28.679  35.746  1.00  0.00     0.135 A 
ATOM     71  C   UNL A   1      43.979  27.340  36.800  1.00  0.00     0.135 A 
ATOM     72  F   UNL A   1      46.054  29.647  34.897  1.00  0.00    -0.206 F 
ATOM     73  C   UNL A   1      46.666  27.965  36.411  1.00  0.00     0.059 A 
ATOM     74  C   UNL A   1      44.953  26.637  37.504  1.00  0.00     0.059 A 
ATOM     75  F   UNL A   1      42.695  27.003  36.998  1.00  0.00    -0.206 F 
ATOM     76  C   UNL A   1      46.296  26.941  37.284  1.00  0.00     0.060 A 
BRANCH  76  77
ATOM     77  S   UNL A   1      47.596  25.999  38.109  1.00  0.00     0.124 S 
ATOM     78  O   UNL A   1      48.230  25.328  36.980  1.00  0.00    -0.237 OA
ATOM     79  O   UNL A   1      48.384  27.049  38.747  1.00  0.00    -0.237 OA
ATOM     80  O   UNL A   1      46.860  25.129  39.022  1.00  0.00    -0.744 OA
ENDBRANCH  76  77
ENDBRANCH  55  69
BRANCH  56  81
ATOM     81  C   UNL A   1      36.937  32.654  30.733  1.00  0.00     0.058 A 
ATOM     82  C   UNL A   1      37.121  33.686  29.799  1.00  0.00     0.135 A 
ATOM     83  C   UNL A   1      35.634  32.161  30.911  1.00  0.00     0.135 A 
ATOM     84  F   UNL A   1      38.343  34.202  29.602  1.00  0.00    -0.206 F 
ATOM     85  C   UNL A   1      36.055  34.207  29.071  1.00  0.00     0.059 A 
ATOM     86  C   UNL A   1      34.560  32.646  30.174  1.00  0.00     0.059 A 
ATOM     87  F   UNL A   1      35.405  31.168  31.785  1.00  0.00    -0.206 F 
ATOM     88  C   UNL A   1      34.780  33.673  29.258  1.00  0.00     0.060 A 
BRANCH  88  89
ATOM     89  S   UNL A   1      33.420  34.299  28.247  1.00  0.00     0.124 S 
ATOM     90  O   UNL A   1      34.112  35.225  27.360  1.00  0.00    -0.237 OA
ATOM     91  O   UNL A   1      32.914  33.078  27.628  1.00  0.00    -0.237 OA
ATOM     92  O   UNL A   1      32.526  34.911  29.227  1.00  0.00    -0.744 OA
ENDBRANCH  88  89
ENDBRANCH  56  81
BRANCH  68  93
ATOM     93  C   UNL A   1      39.794  33.903  36.995  1.00  0.00     0.058 A 
ATOM     94  C   UNL A   1      38.976  33.617  38.100  1.00  0.00     0.135 A 
ATOM     95  C   UNL A   1      40.399  35.170  36.943  1.00  0.00     0.135 A 
ATOM     96  F   UNL A   1      38.366  32.425  38.199  1.00  0.00    -0.206 F 
ATOM     97  C   UNL A   1      38.749  34.557  39.101  1.00  0.00     0.059 A 
ATOM     98  C   UNL A   1      40.212  36.114  37.950  1.00  0.00     0.059 A 
ATOM     99  F   UNL A   1      41.200  35.497  35.917  1.00  0.00    -0.206 F 
ATOM    100  C   UNL A   1      39.375  35.802  39.020  1.00  0.00     0.060 A 
BRANCH 100 101
ATOM    101  S   UNL A   1      39.099  36.998  40.344  1.00  0.00     0.124 S 
ATOM    102  O   UNL A   1      40.452  37.191  40.854  1.00  0.00    -0.237 OA
ATOM    103  O   UNL A   1      38.524  38.131  39.625  1.00  0.00    -0.237 OA
ATOM    104  O   UNL A   1      38.182  36.305  41.244  1.00  0.00    -0.744 OA
ENDBRANCH 100 101
ENDBRANCH  68  93
ENDBRANCH  42  43
ENDBRANCH  34  37
ENDBRANCH  32  33
ENDBRANCH  31  32
ENDBRANCH  30  31
ENDBRANCH   1  30
TORSDOF 20
ENDMDL
MODEL 3
REMARK VINA RESULT:     -11.5      0.595      7.937
REMARK SMILES CC(C)(C)OC(=O)Nc1ccc(-c2cccc(Cl)c2C(=O)NCCCCCCNC(=O)c2ccc(-c3c4nc(c(-c5c(F)cc(S(=O)(=O)[O-])cc5F)c5ccc([nH]5)c(-c5c(F)cc(S(=O)(=O)[O-])cc5F)c5nc(c(-c6c(F)cc(S(=O)(=O)[O-])cc6F)c6ccc3[nH]6)C=C5)C=C4)cc2)cc1
REMARK SMILES IDX 25 1 24 2 23 3 22 4 20 5 21 6 19 8 13 9 14 10 15 11 17 12
REMARK SMILES IDX 16 13 18 14 12 15 9 16 10 17 99 18 11 19 98 20 8 21 6 22
REMARK SMILES IDX 7 23 5 25 2 26 1 27 3 28 4 29 26 30 27 31 28 32 29 33 30 34
REMARK SMILES IDX 31 36 32 37 33 38 97 39 34 40 96 41 35 42 36 43 37 44 90 45
REMARK SMILES IDX 38 46 95 47 89 48 91 49 39 50 94 51 88 52 87 53 40 55 74 56
REMARK SMILES IDX 53 57 73 58 54 59 57 60 72 61 92 62 55 63 56 64 71 66 93 67
REMARK SMILES IDX 58 68 41 69 42 70 51 71 43 72 44 73 50 74 52 75 45 76 46 77
REMARK SMILES IDX 47 78 48 79 49 80 75 81 76 82 85 83 77 84 78 85 84 86 86 87
REMARK SMILES IDX 79 88 80 89 81 90 82 91 83 92 59 93 60 94 69 95 61 96 62 97
REMARK SMILES IDX 68 98 70 99 63 100 64 101 65 102 66 103 67 104
REMARK H PARENT 22 7 8 24 29 35 91 54 57 65
REMARK Flexibility Score: inf
ROOT
ATOM      1  C   UNL A   1      33.746  29.536  27.054  1.00  0.00     0.002 C 
ENDROOT
BRANCH   1   2
ATOM      2  C   UNL A   1      32.826  30.418  26.207  1.00  0.00     0.021 C 
BRANCH   2   3
ATOM      3  C   UNL A   1      31.787  29.760  25.311  1.00  0.00     0.116 C 
BRANCH   3   4
ATOM      4  N   UNL A   1      32.202  28.753  24.373  1.00  0.00    -0.352 N 
ATOM      5  C   UNL A   1      31.473  28.180  23.345  1.00  0.00     0.253 C 
ATOM      6  O   UNL A   1      32.144  27.811  22.374  1.00  0.00    -0.269 OA
ATOM      7  H   UNL A   1      33.125  28.429  24.476  1.00  0.00     0.163 HD
BRANCH   5   8
ATOM      8  C   UNL A   1      29.981  27.907  23.314  1.00  0.00     0.066 A 
ATOM      9  C   UNL A   1      29.284  26.814  23.907  1.00  0.00    -0.004 A 
ATOM     10  C   UNL A   1      27.862  26.832  23.946  1.00  0.00     0.009 A 
ATOM     11  C   UNL A   1      27.113  27.874  23.426  1.00  0.00     0.002 A 
ATOM     12  C   UNL A   1      29.179  28.941  22.746  1.00  0.00     0.054 A 
ATOM     13  C   UNL A   1      27.774  28.924  22.818  1.00  0.00     0.021 A 
ATOM     14  Cl  UNL A   1      29.821  30.283  21.843  1.00  0.00    -0.083 Cl
BRANCH   9  15
ATOM     15  C   UNL A   1      29.865  25.601  24.490  1.00  0.00    -0.017 A 
ATOM     16  C   UNL A   1      31.152  23.307  25.535  1.00  0.00     0.044 A 
ATOM     17  C   UNL A   1      31.056  23.490  24.155  1.00  0.00     0.027 A 
ATOM     18  C   UNL A   1      30.527  24.236  26.377  1.00  0.00     0.027 A 
ATOM     19  C   UNL A   1      30.402  24.611  23.639  1.00  0.00     0.011 A 
ATOM     20  C   UNL A   1      29.885  25.370  25.863  1.00  0.00     0.011 A 
BRANCH  16  21
ATOM     21  N   UNL A   1      31.946  22.228  25.969  1.00  0.00    -0.291 N 
ATOM     22  C   UNL A   1      33.292  22.135  26.203  1.00  0.00     0.412 C 
ATOM     23  O   UNL A   1      33.806  21.044  26.430  1.00  0.00    -0.224 OA
ATOM     24  H   UNL A   1      31.446  21.396  26.134  1.00  0.00     0.173 HD
BRANCH  22  25
ATOM     25  O   UNL A   1      33.947  23.307  26.156  1.00  0.00    -0.444 OA
BRANCH  25  26
ATOM     26  C   UNL A   1      34.871  23.644  25.097  1.00  0.00     0.106 C 
ATOM     27  C   UNL A   1      34.430  25.052  24.673  1.00  0.00     0.056 C 
ATOM     28  C   UNL A   1      34.706  22.680  23.921  1.00  0.00     0.056 C 
ATOM     29  C   UNL A   1      36.318  23.706  25.590  1.00  0.00     0.056 C 
ENDBRANCH  25  26
ENDBRANCH  22  25
ENDBRANCH  16  21
ENDBRANCH   9  15
ENDBRANCH   5   8
ENDBRANCH   3   4
ENDBRANCH   2   3
ENDBRANCH   1   2
BRANCH   1  30
ATOM     30  C   UNL A   1      34.997  30.160  27.685  1.00  0.00     0.002 C 
BRANCH  30  31
ATOM     31  C   UNL A   1      34.870  31.548  28.317  1.00  0.00     0.021 C 
BRANCH  31  32
ATOM     32  C   UNL A   1      35.947  31.967  29.318  1.00  0.00     0.116 C 
BRANCH  32  33
ATOM     33  N   UNL A   1      35.878  31.223  30.560  1.00  0.00    -0.352 N 
ATOM     34  C   UNL A   1      36.703  30.246  31.064  1.00  0.00     0.251 C 
ATOM     35  H   UNL A   1      35.115  31.457  31.138  1.00  0.00     0.163 HD
ATOM     36  O   UNL A   1      36.332  29.628  32.062  1.00  0.00    -0.269 OA
BRANCH  34  37
ATOM     37  C   UNL A   1      38.015  29.909  30.449  1.00  0.00     0.039 A 
ATOM     38  C   UNL A   1      39.085  29.608  31.302  1.00  0.00     0.014 A 
ATOM     39  C   UNL A   1      38.245  29.973  29.071  1.00  0.00     0.014 A 
ATOM     40  C   UNL A   1      40.358  29.341  30.780  1.00  0.00     0.010 A 
ATOM     41  C   UNL A   1      39.503  29.641  28.547  1.00  0.00     0.010 A 
ATOM     42  C   UNL A   1      40.580  29.330  29.394  1.00  0.00    -0.014 A 
BRANCH  42  43
ATOM     43  C   UNL A   1      41.928  29.004  28.839  1.00  0.00     0.031 A 
ATOM     44  C   UNL A   1      42.249  27.614  28.352  1.00  0.00     0.074 A 
ATOM     45  C   UNL A   1      42.886  29.951  28.789  1.00  0.00     0.049 A 
ATOM     46  N   UNL A   1      43.370  27.148  27.858  1.00  0.00    -0.248 NA
ATOM     47  C   UNL A   1      41.179  26.613  28.452  1.00  0.00     0.031 C 
ATOM     48  C   UNL A   1      42.728  31.325  29.263  1.00  0.00     0.029 A 
ATOM     49  N   UNL A   1      44.182  29.908  28.332  1.00  0.00    -0.354 N 
ATOM     50  C   UNL A   1      43.142  25.802  27.595  1.00  0.00     0.074 A 
ATOM     51  C   UNL A   1      41.795  25.513  28.039  1.00  0.00     0.031 C 
ATOM     52  C   UNL A   1      43.873  31.997  29.064  1.00  0.00     0.029 A 
ATOM     53  C   UNL A   1      44.864  31.092  28.487  1.00  0.00     0.049 A 
ATOM     54  H   UNL A   1      44.586  29.103  27.932  1.00  0.00     0.167 HD
ATOM     55  C   UNL A   1      43.969  24.892  27.019  1.00  0.00     0.037 A 
ATOM     56  C   UNL A   1      46.143  31.419  28.214  1.00  0.00     0.037 A 
ATOM     57  C   UNL A   1      45.310  25.181  26.574  1.00  0.00     0.049 A 
ATOM     58  C   UNL A   1      47.053  30.393  27.594  1.00  0.00     0.074 A 
ATOM     59  C   UNL A   1      46.202  24.340  25.932  1.00  0.00     0.029 A 
ATOM     60  N   UNL A   1      45.960  26.396  26.738  1.00  0.00    -0.354 N 
ATOM     61  N   UNL A   1      46.797  29.144  27.286  1.00  0.00    -0.248 NA
ATOM     62  C   UNL A   1      48.422  30.820  27.273  1.00  0.00     0.031 C 
ATOM     63  C   UNL A   1      47.411  25.024  25.766  1.00  0.00     0.029 A 
ATOM     64  C   UNL A   1      47.253  26.317  26.241  1.00  0.00     0.049 A 
ATOM     65  H   UNL A   1      45.562  27.198  27.148  1.00  0.00     0.167 HD
ATOM     66  C   UNL A   1      47.962  28.643  26.716  1.00  0.00     0.074 A 
ATOM     67  C   UNL A   1      48.921  29.728  26.709  1.00  0.00     0.031 C 
ATOM     68  C   UNL A   1      48.211  27.397  26.241  1.00  0.00     0.037 A 
BRANCH  55  69
ATOM     69  C   UNL A   1      43.447  23.487  26.855  1.00  0.00     0.058 A 
ATOM     70  C   UNL A   1      43.101  22.964  25.598  1.00  0.00     0.135 A 
ATOM     71  C   UNL A   1      43.301  22.646  27.971  1.00  0.00     0.135 A 
ATOM     72  F   UNL A   1      43.213  23.721  24.495  1.00  0.00    -0.206 F 
ATOM     73  C   UNL A   1      42.577  21.682  25.459  1.00  0.00     0.059 A 
ATOM     74  C   UNL A   1      42.814  21.347  27.852  1.00  0.00     0.059 A 
ATOM     75  F   UNL A   1      43.626  23.085  29.197  1.00  0.00    -0.206 F 
ATOM     76  C   UNL A   1      42.431  20.883  26.594  1.00  0.00     0.060 A 
BRANCH  76  77
ATOM     77  S   UNL A   1      41.715  19.237  26.404  1.00  0.00     0.124 S 
ATOM     78  O   UNL A   1      41.827  18.713  27.761  1.00  0.00    -0.237 OA
ATOM     79  O   UNL A   1      40.362  19.536  25.950  1.00  0.00    -0.237 OA
ATOM     80  O   UNL A   1      42.580  18.601  25.414  1.00  0.00    -0.744 OA
ENDBRANCH  76  77
ENDBRANCH  55  69
BRANCH  56  81
ATOM     81  C   UNL A   1      46.634  32.787  28.536  1.00  0.00     0.058 A 
ATOM     82  C   UNL A   1      46.516  33.843  27.620  1.00  0.00     0.135 A 
ATOM     83  C   UNL A   1      47.198  33.074  29.791  1.00  0.00     0.135 A 
ATOM     84  F   UNL A   1      45.999  33.619  26.402  1.00  0.00    -0.206 F 
ATOM     85  C   UNL A   1      46.939  35.131  27.934  1.00  0.00     0.059 A 
ATOM     86  C   UNL A   1      47.599  34.358  30.138  1.00  0.00     0.059 A 
ATOM     87  F   UNL A   1      47.325  32.102  30.709  1.00  0.00    -0.206 F 
ATOM     88  C   UNL A   1      47.469  35.382  29.200  1.00  0.00     0.060 A 
BRANCH  88  89
ATOM     89  S   UNL A   1      47.935  37.073  29.627  1.00  0.00     0.124 S 
ATOM     90  O   UNL A   1      46.868  37.842  28.999  1.00  0.00    -0.237 OA
ATOM     91  O   UNL A   1      47.921  37.034  31.086  1.00  0.00    -0.237 OA
ATOM     92  O   UNL A   1      49.258  37.220  29.026  1.00  0.00    -0.744 OA
ENDBRANCH  88  89
ENDBRANCH  56  81
BRANCH  68  93
ATOM     93  C   UNL A   1      49.569  27.135  25.642  1.00  0.00     0.058 A 
ATOM     94  C   UNL A   1      49.836  27.352  24.280  1.00  0.00     0.135 A 
ATOM     95  C   UNL A   1      50.634  26.710  26.454  1.00  0.00     0.135 A 
ATOM     96  F   UNL A   1      48.855  27.751  23.454  1.00  0.00    -0.206 F 
ATOM     97  C   UNL A   1      51.102  27.136  23.742  1.00  0.00     0.059 A 
ATOM     98  C   UNL A   1      51.915  26.519  25.943  1.00  0.00     0.059 A 
ATOM     99  F   UNL A   1      50.441  26.495  27.765  1.00  0.00    -0.206 F 
ATOM    100  C   UNL A   1      52.137  26.723  24.583  1.00  0.00     0.060 A 
BRANCH 100 101
ATOM    101  S   UNL A   1      53.781  26.481  23.878  1.00  0.00     0.124 S 
ATOM    102  O   UNL A   1      53.460  26.036  22.526  1.00  0.00    -0.237 OA
ATOM    103  O   UNL A   1      54.365  27.814  23.985  1.00  0.00    -0.237 OA
ATOM    104  O   UNL A   1      54.379  25.470  24.745  1.00  0.00    -0.744 OA
ENDBRANCH 100 101
ENDBRANCH  68  93
ENDBRANCH  42  43
ENDBRANCH  34  37
ENDBRANCH  32  33
ENDBRANCH  31  32
ENDBRANCH  30  31
ENDBRANCH   1  30
TORSDOF 20
ENDMDL
