MODEL 1
REMARK VINA RESULT:     -11.8      0.000      0.000
REMARK SMILES O=C(NCCCCCCNC(=O)c1ccccc1O[C@@H]1CCOC2(CCOCC2)C1)c1ccc(-c2c3nc(c(-c4c(F)cc(S(=O)(=O)[O-])cc4F)c4ccc([nH]4)c(-c4c(F)cc(S(=O)(=O)[O-])cc4F)c4nc(c(-c5c(F)cc(S(=O)(=O)[O-])cc5F)c5ccc2[nH]5)C=C4)C=C3)cc1
REMARK SMILES IDX 6 1 5 2 4 3 3 4 1 5 2 6 31 8 32 9 96 10 33 11 95 12 34 13
REMARK SMILES IDX 35 14 36 15 89 16 37 17 94 18 88 19 90 20 38 21 93 22 87 23
REMARK SMILES IDX 86 24 39 26 73 27 52 28 72 29 53 30 56 31 71 32 91 33 54 34
REMARK SMILES IDX 55 35 70 37 92 38 57 39 40 40 41 41 50 42 42 43 43 44 49 45
REMARK SMILES IDX 51 46 44 47 45 48 46 49 47 50 48 51 74 52 75 53 84 54 76 55
REMARK SMILES IDX 77 56 83 57 85 58 78 59 79 60 80 61 81 62 82 63 58 64 59 65
REMARK SMILES IDX 68 66 60 67 61 68 67 69 69 70 62 71 63 72 64 73 65 74 66 75
REMARK SMILES IDX 7 76 8 77 9 78 10 79 11 80 12 82 13 83 14 84 18 85 15 86
REMARK SMILES IDX 17 87 16 88 19 89 20 90 21 91 30 92 22 93 24 94 23 95 25 96
REMARK SMILES IDX 29 97 26 98 28 99 27 100
REMARK H PARENT 3 7 90 25 56 36 10 81
REMARK Flexibility Score: inf
ROOT
ATOM      1  C   UNL A   1      35.173  33.142  28.610  1.00  0.00     0.002 C 
ENDROOT
BRANCH   1   2
ATOM      2  C   UNL A   1      36.444  33.584  29.322  1.00  0.00     0.021 C 
BRANCH   2   3
ATOM      3  C   UNL A   1      36.591  33.080  30.746  1.00  0.00     0.116 C 
BRANCH   3   4
ATOM      4  N   UNL A   1      35.961  31.796  31.021  1.00  0.00    -0.352 N 
ATOM      5  O   UNL A   1      35.926  29.521  31.021  1.00  0.00    -0.269 OA
ATOM      6  C   UNL A   1      36.540  30.543  30.841  1.00  0.00     0.251 C 
ATOM      7  H   UNL A   1      35.039  31.816  31.365  1.00  0.00     0.163 HD
BRANCH   6   8
ATOM      8  C   UNL A   1      37.949  30.526  30.364  1.00  0.00     0.039 A 
ATOM      9  C   UNL A   1      38.203  30.449  28.994  1.00  0.00     0.014 A 
ATOM     10  C   UNL A   1      38.985  30.396  31.290  1.00  0.00     0.014 A 
ATOM     11  C   UNL A   1      39.454  30.034  28.560  1.00  0.00     0.010 A 
ATOM     12  C   UNL A   1      40.273  30.089  30.837  1.00  0.00     0.010 A 
ATOM     13  C   UNL A   1      40.507  29.849  29.473  1.00  0.00    -0.014 A 
BRANCH  13  14
ATOM     14  C   UNL A   1      41.842  29.437  28.963  1.00  0.00     0.031 A 
ATOM     15  C   UNL A   1      43.012  30.388  28.953  1.00  0.00     0.074 A 
ATOM     16  C   UNL A   1      42.003  28.166  28.545  1.00  0.00     0.049 A 
ATOM     17  N   UNL A   1      44.242  30.176  28.556  1.00  0.00    -0.248 NA
ATOM     18  C   UNL A   1      42.774  31.755  29.442  1.00  0.00     0.031 C 
ATOM     19  C   UNL A   1      40.943  27.153  28.508  1.00  0.00     0.029 A 
ATOM     20  N   UNL A   1      43.112  27.497  28.098  1.00  0.00    -0.354 N 
ATOM     21  C   UNL A   1      44.914  31.384  28.709  1.00  0.00     0.074 A 
ATOM     22  C   UNL A   1      43.949  32.332  29.225  1.00  0.00     0.031 C 
ATOM     23  C   UNL A   1      41.465  25.981  28.127  1.00  0.00     0.029 A 
ATOM     24  C   UNL A   1      42.876  26.173  27.816  1.00  0.00     0.049 A 
ATOM     25  H   UNL A   1      43.993  27.924  27.990  1.00  0.00     0.167 HD
ATOM     26  C   UNL A   1      46.212  31.673  28.443  1.00  0.00     0.037 A 
ATOM     27  C   UNL A   1      43.696  25.217  27.342  1.00  0.00     0.037 A 
ATOM     28  C   UNL A   1      47.170  30.711  27.955  1.00  0.00     0.049 A 
ATOM     29  C   UNL A   1      45.125  25.565  27.053  1.00  0.00     0.074 A 
ATOM     30  C   UNL A   1      48.517  30.894  27.693  1.00  0.00     0.029 A 
ATOM     31  N   UNL A   1      46.884  29.387  27.655  1.00  0.00    -0.354 N 
ATOM     32  N   UNL A   1      45.743  26.710  27.218  1.00  0.00    -0.248 NA
ATOM     33  C   UNL A   1      45.968  24.494  26.510  1.00  0.00     0.031 C 
ATOM     34  C   UNL A   1      49.035  29.695  27.190  1.00  0.00     0.029 A 
ATOM     35  C   UNL A   1      48.024  28.747  27.191  1.00  0.00     0.049 A 
ATOM     36  H   UNL A   1      46.002  28.963  27.755  1.00  0.00     0.167 HD
ATOM     37  C   UNL A   1      47.057  26.490  26.823  1.00  0.00     0.074 A 
ATOM     38  C   UNL A   1      47.144  25.101  26.422  1.00  0.00     0.031 C 
ATOM     39  C   UNL A   1      48.097  27.361  26.801  1.00  0.00     0.037 A 
BRANCH  26  40
ATOM     40  C   UNL A   1      46.671  33.096  28.641  1.00  0.00     0.058 A 
ATOM     41  C   UNL A   1      47.200  33.549  29.860  1.00  0.00     0.135 A 
ATOM     42  C   UNL A   1      46.612  34.013  27.577  1.00  0.00     0.135 A 
ATOM     43  F   UNL A   1      47.273  32.722  30.915  1.00  0.00    -0.206 F 
ATOM     44  C   UNL A   1      47.619  34.867  30.029  1.00  0.00     0.059 A 
ATOM     45  C   UNL A   1      47.049  35.328  27.715  1.00  0.00     0.059 A 
ATOM     46  F   UNL A   1      46.121  33.635  26.386  1.00  0.00    -0.206 F 
ATOM     47  C   UNL A   1      47.533  35.751  28.951  1.00  0.00     0.060 A 
BRANCH  47  48
ATOM     48  S   UNL A   1      48.059  37.462  29.191  1.00  0.00     0.124 S 
ATOM     49  O   UNL A   1      47.320  37.826  30.397  1.00  0.00    -0.237 OA
ATOM     50  O   UNL A   1      49.504  37.326  29.351  1.00  0.00    -0.237 OA
ATOM     51  O   UNL A   1      47.627  38.126  27.966  1.00  0.00    -0.744 OA
ENDBRANCH  47  48
ENDBRANCH  26  40
BRANCH  27  52
ATOM     52  C   UNL A   1      43.172  23.844  27.126  1.00  0.00     0.058 A 
ATOM     53  C   UNL A   1      42.792  23.412  25.848  1.00  0.00     0.135 A 
ATOM     54  C   UNL A   1      43.086  22.923  28.183  1.00  0.00     0.135 A 
ATOM     55  F   UNL A   1      42.856  24.256  24.808  1.00  0.00    -0.206 F 
ATOM     56  C   UNL A   1      42.335  22.118  25.625  1.00  0.00     0.059 A 
ATOM     57  C   UNL A   1      42.661  21.615  27.979  1.00  0.00     0.059 A 
ATOM     58  F   UNL A   1      43.459  23.282  29.421  1.00  0.00    -0.206 F 
ATOM     59  C   UNL A   1      42.279  21.225  26.697  1.00  0.00     0.060 A 
BRANCH  59  60
ATOM     60  S   UNL A   1      41.741  19.530  26.385  1.00  0.00     0.124 S 
ATOM     61  O   UNL A   1      42.132  18.866  27.623  1.00  0.00    -0.237 OA
ATOM     62  O   UNL A   1      40.306  19.697  26.174  1.00  0.00    -0.237 OA
ATOM     63  O   UNL A   1      42.501  19.152  25.197  1.00  0.00    -0.744 OA
ENDBRANCH  59  60
ENDBRANCH  27  52
BRANCH  39  64
ATOM     64  C   UNL A   1      49.431  26.817  26.371  1.00  0.00     0.058 A 
ATOM     65  C   UNL A   1      50.291  26.166  27.269  1.00  0.00     0.135 A 
ATOM     66  C   UNL A   1      49.845  26.936  25.035  1.00  0.00     0.135 A 
ATOM     67  F   UNL A   1      49.949  26.034  28.560  1.00  0.00    -0.206 F 
ATOM     68  C   UNL A   1      51.531  25.681  26.863  1.00  0.00     0.059 A 
ATOM     69  C   UNL A   1      51.066  26.434  24.601  1.00  0.00     0.059 A 
ATOM     70  F   UNL A   1      49.054  27.543  24.134  1.00  0.00    -0.206 F 
ATOM     71  C   UNL A   1      51.910  25.822  25.526  1.00  0.00     0.060 A 
BRANCH  71  72
ATOM     72  S   UNL A   1      53.513  25.177  25.006  1.00  0.00     0.124 S 
ATOM     73  O   UNL A   1      53.550  25.576  23.604  1.00  0.00    -0.237 OA
ATOM     74  O   UNL A   1      54.437  25.881  25.891  1.00  0.00    -0.237 OA
ATOM     75  O   UNL A   1      53.396  23.742  25.248  1.00  0.00    -0.744 OA
ENDBRANCH  71  72
ENDBRANCH  39  64
ENDBRANCH  13  14
ENDBRANCH   6   8
ENDBRANCH   3   4
ENDBRANCH   2   3
ENDBRANCH   1   2
BRANCH   1  76
ATOM     76  C   UNL A   1      35.312  31.944  27.648  1.00  0.00     0.002 C 
BRANCH  76  77
ATOM     77  C   UNL A   1      34.340  30.748  27.766  1.00  0.00     0.021 C 
BRANCH  77  78
ATOM     78  C   UNL A   1      34.388  29.609  26.738  1.00  0.00     0.116 C 
BRANCH  78  79
ATOM     79  N   UNL A   1      33.511  29.843  25.612  1.00  0.00    -0.352 N 
ATOM     80  C   UNL A   1      33.124  28.975  24.612  1.00  0.00     0.255 C 
ATOM     81  H   UNL A   1      33.137  30.752  25.551  1.00  0.00     0.163 HD
ATOM     82  O   UNL A   1      33.809  28.729  23.626  1.00  0.00    -0.269 OA
BRANCH  80  83
ATOM     83  C   UNL A   1      31.708  28.414  24.772  1.00  0.00     0.081 A 
ATOM     84  C   UNL A   1      30.759  29.428  24.591  1.00  0.00     0.018 A 
ATOM     85  C   UNL A   1      31.561  27.233  24.051  1.00  0.00     0.132 A 
ATOM     86  C   UNL A   1      30.188  29.565  23.331  1.00  0.00     0.001 A 
ATOM     87  C   UNL A   1      31.064  27.385  22.751  1.00  0.00     0.047 A 
ATOM     88  C   UNL A   1      30.440  28.585  22.371  1.00  0.00     0.004 A 
BRANCH  85  89
ATOM     89  O   UNL A   1      32.198  26.062  24.378  1.00  0.00    -0.489 OA
BRANCH  89  90
ATOM     90  C   UNL A   1      33.263  25.489  23.567  1.00  0.00     0.178 C 
ATOM     91  C   UNL A   1      32.884  24.501  22.473  1.00  0.00     0.074 C 
ATOM     92  C   UNL A   1      34.585  25.112  24.291  1.00  0.00     0.081 C 
ATOM     93  C   UNL A   1      33.597  23.162  22.613  1.00  0.00     0.165 C 
ATOM     94  C   UNL A   1      34.863  23.608  24.612  1.00  0.00     0.076 C 
ATOM     95  O   UNL A   1      33.862  22.815  23.964  1.00  0.00    -0.375 OA
ATOM     96  C   UNL A   1      34.877  23.187  26.108  1.00  0.00     0.064 C 
ATOM     97  C   UNL A   1      36.303  23.265  24.154  1.00  0.00     0.064 C 
ATOM     98  C   UNL A   1      35.219  21.716  26.286  1.00  0.00     0.163 C 
ATOM     99  C   UNL A   1      36.697  21.822  24.464  1.00  0.00     0.163 C 
ATOM    100  O   UNL A   1      36.549  21.496  25.841  1.00  0.00    -0.381 OA
ENDBRANCH  89  90
ENDBRANCH  85  89
ENDBRANCH  80  83
ENDBRANCH  78  79
ENDBRANCH  77  78
ENDBRANCH  76  77
ENDBRANCH   1  76
TORSDOF 18
ENDMDL
MODEL 2
REMARK VINA RESULT:     -11.7      2.382      9.031
REMARK SMILES O=C(NCCCCCCNC(=O)c1ccccc1O[C@@H]1CCOC2(CCOCC2)C1)c1ccc(-c2c3nc(c(-c4c(F)cc(S(=O)(=O)[O-])cc4F)c4ccc([nH]4)c(-c4c(F)cc(S(=O)(=O)[O-])cc4F)c4nc(c(-c5c(F)cc(S(=O)(=O)[O-])cc5F)c5ccc2[nH]5)C=C4)C=C3)cc1
REMARK SMILES IDX 6 1 5 2 4 3 3 4 1 5 2 6 31 8 32 9 96 10 33 11 95 12 34 13
REMARK SMILES IDX 35 14 36 15 89 16 37 17 94 18 88 19 90 20 38 21 93 22 87 23
REMARK SMILES IDX 86 24 39 26 73 27 52 28 72 29 53 30 56 31 71 32 91 33 54 34
REMARK SMILES IDX 55 35 70 37 92 38 57 39 40 40 41 41 50 42 42 43 43 44 49 45
REMARK SMILES IDX 51 46 44 47 45 48 46 49 47 50 48 51 74 52 75 53 84 54 76 55
REMARK SMILES IDX 77 56 83 57 85 58 78 59 79 60 80 61 81 62 82 63 58 64 59 65
REMARK SMILES IDX 68 66 60 67 61 68 67 69 69 70 62 71 63 72 64 73 65 74 66 75
REMARK SMILES IDX 7 76 8 77 9 78 10 79 11 80 12 82 13 83 14 84 18 85 15 86
REMARK SMILES IDX 17 87 16 88 19 89 20 90 21 91 30 92 22 93 24 94 23 95 25 96
REMARK SMILES IDX 29 97 26 98 28 99 27 100
REMARK H PARENT 3 7 90 25 56 36 10 81
REMARK Flexibility Score: inf
ROOT
ATOM      1  C   UNL A   1      37.578  20.244  24.821  1.00  0.00     0.002 C 
ENDROOT
BRANCH   1   2
ATOM      2  C   UNL A   1      38.563  19.220  25.369  1.00  0.00     0.021 C 
BRANCH   2   3
ATOM      3  C   UNL A   1      39.772  19.807  26.076  1.00  0.00     0.116 C 
BRANCH   3   4
ATOM      4  N   UNL A   1      40.982  18.999  26.014  1.00  0.00    -0.352 N 
ATOM      5  O   UNL A   1      43.243  18.741  26.042  1.00  0.00    -0.269 OA
ATOM      6  C   UNL A   1      42.285  19.460  26.182  1.00  0.00     0.251 C 
ATOM      7  H   UNL A   1      40.868  18.038  25.836  1.00  0.00     0.163 HD
BRANCH   6   8
ATOM      8  C   UNL A   1      42.441  20.906  26.495  1.00  0.00     0.039 A 
ATOM      9  C   UNL A   1      42.604  21.816  25.450  1.00  0.00     0.014 A 
ATOM     10  C   UNL A   1      42.614  21.305  27.822  1.00  0.00     0.014 A 
ATOM     11  C   UNL A   1      43.142  23.067  25.718  1.00  0.00     0.010 A 
ATOM     12  C   UNL A   1      43.047  22.608  28.093  1.00  0.00     0.010 A 
ATOM     13  C   UNL A   1      43.370  23.482  27.041  1.00  0.00    -0.014 A 
BRANCH  13  14
ATOM     14  C   UNL A   1      43.916  24.844  27.288  1.00  0.00     0.031 A 
ATOM     15  C   UNL A   1      45.360  25.178  27.011  1.00  0.00     0.074 A 
ATOM     16  C   UNL A   1      43.075  25.801  27.726  1.00  0.00     0.049 A 
ATOM     17  N   UNL A   1      45.983  26.320  27.159  1.00  0.00    -0.248 NA
ATOM     18  C   UNL A   1      46.221  24.092  26.515  1.00  0.00     0.031 C 
ATOM     19  C   UNL A   1      41.654  25.597  28.027  1.00  0.00     0.029 A 
ATOM     20  N   UNL A   1      43.274  27.134  27.968  1.00  0.00    -0.354 N 
ATOM     21  C   UNL A   1      47.310  26.086  26.813  1.00  0.00     0.074 A 
ATOM     22  C   UNL A   1      47.406  24.686  26.458  1.00  0.00     0.031 C 
ATOM     23  C   UNL A   1      41.098  26.771  28.351  1.00  0.00     0.029 A 
ATOM     24  C   UNL A   1      42.134  27.797  28.357  1.00  0.00     0.049 A 
ATOM     25  H   UNL A   1      44.149  27.576  27.873  1.00  0.00     0.167 HD
ATOM     26  C   UNL A   1      48.349  26.959  26.793  1.00  0.00     0.037 A 
ATOM     27  C   UNL A   1      41.940  29.083  28.699  1.00  0.00     0.037 A 
ATOM     28  C   UNL A   1      48.234  28.359  27.121  1.00  0.00     0.049 A 
ATOM     29  C   UNL A   1      43.106  30.025  28.673  1.00  0.00     0.074 A 
ATOM     30  C   UNL A   1      49.217  29.334  27.094  1.00  0.00     0.029 A 
ATOM     31  N   UNL A   1      47.067  28.984  27.538  1.00  0.00    -0.354 N 
ATOM     32  N   UNL A   1      44.349  29.786  28.329  1.00  0.00    -0.248 NA
ATOM     33  C   UNL A   1      42.846  31.409  29.084  1.00  0.00     0.031 C 
ATOM     34  C   UNL A   1      48.657  30.537  27.538  1.00  0.00     0.029 A 
ATOM     35  C   UNL A   1      47.311  30.327  27.790  1.00  0.00     0.049 A 
ATOM     36  H   UNL A   1      46.195  28.541  27.641  1.00  0.00     0.167 HD
ATOM     37  C   UNL A   1      45.016  30.998  28.458  1.00  0.00     0.074 A 
ATOM     38  C   UNL A   1      44.034  31.968  28.900  1.00  0.00     0.031 C 
ATOM     39  C   UNL A   1      46.322  31.282  28.225  1.00  0.00     0.037 A 
BRANCH  26  40
ATOM     40  C   UNL A   1      49.712  26.422  26.436  1.00  0.00     0.058 A 
ATOM     41  C   UNL A   1      50.199  26.430  25.119  1.00  0.00     0.135 A 
ATOM     42  C   UNL A   1      50.561  25.922  27.439  1.00  0.00     0.135 A 
ATOM     43  F   UNL A   1      49.430  26.886  24.117  1.00  0.00    -0.206 F 
ATOM     44  C   UNL A   1      51.459  25.929  24.804  1.00  0.00     0.059 A 
ATOM     45  C   UNL A   1      51.836  25.441  27.151  1.00  0.00     0.059 A 
ATOM     46  F   UNL A   1      50.152  25.895  28.718  1.00  0.00    -0.206 F 
ATOM     47  C   UNL A   1      52.269  25.431  25.827  1.00  0.00     0.060 A 
BRANCH  47  48
ATOM     48  S   UNL A   1      53.893  24.764  25.400  1.00  0.00     0.124 S 
ATOM     49  O   UNL A   1      53.560  23.382  25.070  1.00  0.00    -0.237 OA
ATOM     50  O   UNL A   1      54.291  25.606  24.275  1.00  0.00    -0.237 OA
ATOM     51  O   UNL A   1      54.668  24.948  26.622  1.00  0.00    -0.744 OA
ENDBRANCH  47  48
ENDBRANCH  26  40
BRANCH  27  52
ATOM     52  C   UNL A   1      40.580  29.542  29.085  1.00  0.00     0.058 A 
ATOM     53  C   UNL A   1      39.580  29.719  28.120  1.00  0.00     0.135 A 
ATOM     54  C   UNL A   1      40.243  29.768  30.430  1.00  0.00     0.135 A 
ATOM     55  F   UNL A   1      39.856  29.516  26.823  1.00  0.00    -0.206 F 
ATOM     56  C   UNL A   1      38.293  30.112  28.471  1.00  0.00     0.059 A 
ATOM     57  C   UNL A   1      38.956  30.132  30.808  1.00  0.00     0.059 A 
ATOM     58  F   UNL A   1      41.161  29.591  31.392  1.00  0.00    -0.206 F 
ATOM     59  C   UNL A   1      37.991  30.311  29.820  1.00  0.00     0.060 A 
BRANCH  59  60
ATOM     60  S   UNL A   1      36.301  30.763  30.270  1.00  0.00     0.124 S 
ATOM     61  O   UNL A   1      36.102  29.979  31.483  1.00  0.00    -0.237 OA
ATOM     62  O   UNL A   1      36.409  32.208  30.452  1.00  0.00    -0.237 OA
ATOM     63  O   UNL A   1      35.523  30.342  29.110  1.00  0.00    -0.744 OA
ENDBRANCH  59  60
ENDBRANCH  27  52
BRANCH  39  64
ATOM     64  C   UNL A   1      46.750  32.712  28.399  1.00  0.00     0.058 A 
ATOM     65  C   UNL A   1      47.259  33.192  29.616  1.00  0.00     0.135 A 
ATOM     66  C   UNL A   1      46.664  33.610  27.323  1.00  0.00     0.135 A 
ATOM     67  F   UNL A   1      47.352  32.377  30.678  1.00  0.00    -0.206 F 
ATOM     68  C   UNL A   1      47.637  34.521  29.770  1.00  0.00     0.059 A 
ATOM     69  C   UNL A   1      47.064  34.936  27.447  1.00  0.00     0.059 A 
ATOM     70  F   UNL A   1      46.193  33.199  26.135  1.00  0.00    -0.206 F 
ATOM     71  C   UNL A   1      47.534  35.388  28.679  1.00  0.00     0.060 A 
BRANCH  71  72
ATOM     72  S   UNL A   1      48.040  37.107  28.884  1.00  0.00     0.124 S 
ATOM     73  O   UNL A   1      47.327  37.756  27.790  1.00  0.00    -0.237 OA
ATOM     74  O   UNL A   1      47.560  37.418  30.227  1.00  0.00    -0.237 OA
ATOM     75  O   UNL A   1      49.492  37.052  28.742  1.00  0.00    -0.744 OA
ENDBRANCH  71  72
ENDBRANCH  39  64
ENDBRANCH  13  14
ENDBRANCH   6   8
ENDBRANCH   3   4
ENDBRANCH   2   3
ENDBRANCH   1   2
BRANCH   1  76
ATOM     76  C   UNL A   1      36.082  19.892  24.960  1.00  0.00     0.002 C 
BRANCH  76  77
ATOM     77  C   UNL A   1      35.046  21.019  25.172  1.00  0.00     0.021 C 
BRANCH  77  78
ATOM     78  C   UNL A   1      35.453  22.323  25.872  1.00  0.00     0.116 C 
BRANCH  78  79
ATOM     79  N   UNL A   1      35.659  23.409  24.940  1.00  0.00    -0.352 N 
ATOM     80  C   UNL A   1      35.482  23.430  23.572  1.00  0.00     0.255 C 
ATOM     81  H   UNL A   1      35.970  24.255  25.339  1.00  0.00     0.163 HD
ATOM     82  O   UNL A   1      36.310  23.006  22.775  1.00  0.00    -0.269 OA
BRANCH  80  83
ATOM     83  C   UNL A   1      34.201  24.132  23.108  1.00  0.00     0.081 A 
ATOM     84  C   UNL A   1      33.375  23.234  22.420  1.00  0.00     0.018 A 
ATOM     85  C   UNL A   1      33.648  24.882  24.142  1.00  0.00     0.132 A 
ATOM     86  C   UNL A   1      32.360  22.609  23.135  1.00  0.00     0.001 A 
ATOM     87  C   UNL A   1      32.686  24.219  24.912  1.00  0.00     0.047 A 
ATOM     88  C   UNL A   1      32.094  23.038  24.435  1.00  0.00     0.004 A 
BRANCH  85  89
ATOM     89  O   UNL A   1      34.234  26.013  24.653  1.00  0.00    -0.489 OA
BRANCH  89  90
ATOM     90  C   UNL A   1      33.781  27.356  24.323  1.00  0.00     0.178 C 
ATOM     91  C   UNL A   1      33.591  28.352  25.459  1.00  0.00     0.074 C 
ATOM     92  C   UNL A   1      32.704  27.492  23.212  1.00  0.00     0.081 C 
ATOM     93  C   UNL A   1      32.185  28.940  25.499  1.00  0.00     0.165 C 
ATOM     94  C   UNL A   1      31.223  27.764  23.631  1.00  0.00     0.076 C 
ATOM     95  O   UNL A   1      31.193  28.036  25.037  1.00  0.00    -0.375 OA
ATOM     96  C   UNL A   1      30.186  26.637  23.365  1.00  0.00     0.064 C 
ATOM     97  C   UNL A   1      30.676  28.933  22.773  1.00  0.00     0.064 C 
ATOM     98  C   UNL A   1      28.777  27.050  23.760  1.00  0.00     0.163 C 
ATOM     99  C   UNL A   1      29.213  29.253  23.072  1.00  0.00     0.163 C 
ATOM    100  O   UNL A   1      28.362  28.122  22.926  1.00  0.00    -0.381 OA
ENDBRANCH  89  90
ENDBRANCH  85  89
ENDBRANCH  80  83
ENDBRANCH  78  79
ENDBRANCH  77  78
ENDBRANCH  76  77
ENDBRANCH   1  76
TORSDOF 18
ENDMDL
MODEL 3
REMARK VINA RESULT:     -11.7      6.362     11.961
REMARK SMILES O=C(NCCCCCCNC(=O)c1ccccc1O[C@@H]1CCOC2(CCOCC2)C1)c1ccc(-c2c3nc(c(-c4c(F)cc(S(=O)(=O)[O-])cc4F)c4ccc([nH]4)c(-c4c(F)cc(S(=O)(=O)[O-])cc4F)c4nc(c(-c5c(F)cc(S(=O)(=O)[O-])cc5F)c5ccc2[nH]5)C=C4)C=C3)cc1
REMARK SMILES IDX 6 1 5 2 4 3 3 4 1 5 2 6 31 8 32 9 96 10 33 11 95 12 34 13
REMARK SMILES IDX 35 14 36 15 89 16 37 17 94 18 88 19 90 20 38 21 93 22 87 23
REMARK SMILES IDX 86 24 39 26 73 27 52 28 72 29 53 30 56 31 71 32 91 33 54 34
REMARK SMILES IDX 55 35 70 37 92 38 57 39 40 40 41 41 50 42 42 43 43 44 49 45
REMARK SMILES IDX 51 46 44 47 45 48 46 49 47 50 48 51 74 52 75 53 84 54 76 55
REMARK SMILES IDX 77 56 83 57 85 58 78 59 79 60 80 61 81 62 82 63 58 64 59 65
REMARK SMILES IDX 68 66 60 67 61 68 67 69 69 70 62 71 63 72 64 73 65 74 66 75
REMARK SMILES IDX 7 76 8 77 9 78 10 79 11 80 12 82 13 83 14 84 18 85 15 86
REMARK SMILES IDX 17 87 16 88 19 89 20 90 21 91 30 92 22 93 24 94 23 95 25 96
REMARK SMILES IDX 29 97 26 98 28 99 27 100
REMARK H PARENT 3 7 90 25 56 36 10 81
REMARK Flexibility Score: inf
ROOT
ATOM      1  C   UNL A   1      39.757  21.546  26.126  1.00  0.00     0.002 C 
ENDROOT
BRANCH   1   2
ATOM      2  C   UNL A   1      40.393  22.113  27.388  1.00  0.00     0.021 C 
BRANCH   2   3
ATOM      3  C   UNL A   1      41.586  23.022  27.154  1.00  0.00     0.116 C 
BRANCH   3   4
ATOM      4  N   UNL A   1      41.478  23.907  26.001  1.00  0.00    -0.352 N 
ATOM      5  O   UNL A   1      41.180  25.948  25.041  1.00  0.00    -0.269 OA
ATOM      6  C   UNL A   1      41.338  25.291  26.040  1.00  0.00     0.251 C 
ATOM      7  H   UNL A   1      41.506  23.485  25.112  1.00  0.00     0.163 HD
BRANCH   6   8
ATOM      8  C   UNL A   1      41.343  25.920  27.388  1.00  0.00     0.039 A 
ATOM      9  C   UNL A   1      40.188  25.867  28.169  1.00  0.00     0.014 A 
ATOM     10  C   UNL A   1      42.427  26.712  27.771  1.00  0.00     0.014 A 
ATOM     11  C   UNL A   1      40.037  26.764  29.217  1.00  0.00     0.010 A 
ATOM     12  C   UNL A   1      42.311  27.532  28.900  1.00  0.00     0.010 A 
ATOM     13  C   UNL A   1      41.095  27.608  29.599  1.00  0.00    -0.014 A 
BRANCH  13  14
ATOM     14  C   UNL A   1      40.904  28.530  30.750  1.00  0.00     0.031 A 
ATOM     15  C   UNL A   1      41.813  28.491  31.953  1.00  0.00     0.074 A 
ATOM     16  C   UNL A   1      39.919  29.446  30.679  1.00  0.00     0.049 A 
ATOM     17  N   UNL A   1      41.787  29.237  33.029  1.00  0.00    -0.248 NA
ATOM     18  C   UNL A   1      42.881  27.479  31.958  1.00  0.00     0.031 C 
ATOM     19  C   UNL A   1      38.977  29.582  29.564  1.00  0.00     0.029 A 
ATOM     20  N   UNL A   1      39.559  30.451  31.538  1.00  0.00    -0.354 N 
ATOM     21  C   UNL A   1      42.804  28.767  33.853  1.00  0.00     0.074 A 
ATOM     22  C   UNL A   1      43.422  27.658  33.156  1.00  0.00     0.031 C 
ATOM     23  C   UNL A   1      38.191  30.646  29.776  1.00  0.00     0.029 A 
ATOM     24  C   UNL A   1      38.519  31.221  31.075  1.00  0.00     0.049 A 
ATOM     25  H   UNL A   1      40.002  30.607  32.404  1.00  0.00     0.167 HD
ATOM     26  C   UNL A   1      43.184  29.218  35.074  1.00  0.00     0.037 A 
ATOM     27  C   UNL A   1      37.882  32.265  31.636  1.00  0.00     0.037 A 
ATOM     28  C   UNL A   1      42.578  30.342  35.745  1.00  0.00     0.049 A 
ATOM     29  C   UNL A   1      38.320  32.741  32.989  1.00  0.00     0.074 A 
ATOM     30  C   UNL A   1      42.916  30.902  36.965  1.00  0.00     0.029 A 
ATOM     31  N   UNL A   1      41.508  31.077  35.254  1.00  0.00    -0.354 N 
ATOM     32  N   UNL A   1      39.293  32.290  33.744  1.00  0.00    -0.248 NA
ATOM     33  C   UNL A   1      37.572  33.863  33.567  1.00  0.00     0.031 C 
ATOM     34  C   UNL A   1      42.022  31.945  37.233  1.00  0.00     0.029 A 
ATOM     35  C   UNL A   1      41.160  32.072  36.156  1.00  0.00     0.049 A 
ATOM     36  H   UNL A   1      41.060  30.916  34.393  1.00  0.00     0.167 HD
ATOM     37  C   UNL A   1      39.292  33.092  34.879  1.00  0.00     0.074 A 
ATOM     38  C   UNL A   1      38.228  34.060  34.703  1.00  0.00     0.031 C 
ATOM     39  C   UNL A   1      40.103  33.033  35.965  1.00  0.00     0.037 A 
BRANCH  26  40
ATOM     40  C   UNL A   1      44.288  28.477  35.786  1.00  0.00     0.058 A 
ATOM     41  C   UNL A   1      45.642  28.807  35.616  1.00  0.00     0.135 A 
ATOM     42  C   UNL A   1      43.980  27.438  36.682  1.00  0.00     0.135 A 
ATOM     43  F   UNL A   1      45.998  29.783  34.766  1.00  0.00    -0.206 F 
ATOM     44  C   UNL A   1      46.651  28.113  36.279  1.00  0.00     0.059 A 
ATOM     45  C   UNL A   1      44.971  26.748  37.376  1.00  0.00     0.059 A 
ATOM     46  F   UNL A   1      42.702  27.082  36.890  1.00  0.00    -0.206 F 
ATOM     47  C   UNL A   1      46.305  27.080  37.153  1.00  0.00     0.060 A 
BRANCH  47  48
ATOM     48  S   UNL A   1      47.626  26.174  37.989  1.00  0.00     0.124 S 
ATOM     49  O   UNL A   1      48.377  25.645  36.854  1.00  0.00    -0.237 OA
ATOM     50  O   UNL A   1      48.291  27.224  38.754  1.00  0.00    -0.237 OA
ATOM     51  O   UNL A   1      46.909  25.182  38.783  1.00  0.00    -0.744 OA
ENDBRANCH  47  48
ENDBRANCH  26  40
BRANCH  27  52
ATOM     52  C   UNL A   1      36.771  32.926  30.903  1.00  0.00     0.058 A 
ATOM     53  C   UNL A   1      35.439  32.740  31.297  1.00  0.00     0.135 A 
ATOM     54  C   UNL A   1      37.023  33.790  29.825  1.00  0.00     0.135 A 
ATOM     55  F   UNL A   1      35.149  31.922  32.320  1.00  0.00    -0.206 F 
ATOM     56  C   UNL A   1      34.392  33.381  30.643  1.00  0.00     0.059 A 
ATOM     57  C   UNL A   1      35.996  34.465  29.176  1.00  0.00     0.059 A 
ATOM     58  F   UNL A   1      38.283  34.017  29.425  1.00  0.00    -0.206 F 
ATOM     59  C   UNL A   1      34.683  34.247  29.587  1.00  0.00     0.060 A 
BRANCH  59  60
ATOM     60  S   UNL A   1      33.322  35.120  28.784  1.00  0.00     0.124 S 
ATOM     61  O   UNL A   1      34.025  36.210  28.118  1.00  0.00    -0.237 OA
ATOM     62  O   UNL A   1      32.767  34.088  27.912  1.00  0.00    -0.237 OA
ATOM     63  O   UNL A   1      32.468  35.508  29.903  1.00  0.00    -0.744 OA
ENDBRANCH  59  60
ENDBRANCH  27  52
BRANCH  39  64
ATOM     64  C   UNL A   1      39.898  34.079  37.025  1.00  0.00     0.058 A 
ATOM     65  C   UNL A   1      40.427  35.374  36.902  1.00  0.00     0.135 A 
ATOM     66  C   UNL A   1      39.146  33.783  38.173  1.00  0.00     0.135 A 
ATOM     67  F   UNL A   1      41.163  35.705  35.830  1.00  0.00    -0.206 F 
ATOM     68  C   UNL A   1      40.245  36.329  37.897  1.00  0.00     0.059 A 
ATOM     69  C   UNL A   1      38.927  34.731  39.166  1.00  0.00     0.059 A 
ATOM     70  F   UNL A   1      38.610  32.562  38.334  1.00  0.00    -0.206 F 
ATOM     71  C   UNL A   1      39.494  35.997  39.028  1.00  0.00     0.060 A 
BRANCH  71  72
ATOM     72  S   UNL A   1      39.252  37.246  40.306  1.00  0.00     0.124 S 
ATOM     73  O   UNL A   1      40.627  37.622  40.614  1.00  0.00    -0.237 OA
ATOM     74  O   UNL A   1      38.458  38.256  39.613  1.00  0.00    -0.237 OA
ATOM     75  O   UNL A   1      38.547  36.521  41.360  1.00  0.00    -0.744 OA
ENDBRANCH  71  72
ENDBRANCH  39  64
ENDBRANCH  13  14
ENDBRANCH   6   8
ENDBRANCH   3   4
ENDBRANCH   2   3
ENDBRANCH   1   2
BRANCH   1  76
ATOM     76  C   UNL A   1      38.376  22.116  25.744  1.00  0.00     0.002 C 
BRANCH  76  77
ATOM     77  C   UNL A   1      37.263  21.164  25.250  1.00  0.00     0.021 C 
BRANCH  77  78
ATOM     78  C   UNL A   1      35.788  21.489  25.527  1.00  0.00     0.116 C 
BRANCH  78  79
ATOM     79  N   UNL A   1      35.393  22.770  24.985  1.00  0.00    -0.352 N 
ATOM     80  C   UNL A   1      34.973  23.085  23.709  1.00  0.00     0.255 C 
ATOM     81  H   UNL A   1      35.428  23.525  25.617  1.00  0.00     0.163 HD
ATOM     82  O   UNL A   1      35.739  23.277  22.773  1.00  0.00    -0.269 OA
BRANCH  80  83
ATOM     83  C   UNL A   1      33.460  23.286  23.570  1.00  0.00     0.081 A 
ATOM     84  C   UNL A   1      32.913  22.306  22.732  1.00  0.00     0.018 A 
ATOM     85  C   UNL A   1      32.874  23.496  24.815  1.00  0.00     0.132 A 
ATOM     86  C   UNL A   1      32.358  21.179  23.328  1.00  0.00     0.001 A 
ATOM     87  C   UNL A   1      32.392  22.345  25.449  1.00  0.00     0.047 A 
ATOM     88  C   UNL A   1      32.203  21.162  24.714  1.00  0.00     0.004 A 
BRANCH  85  89
ATOM     89  O   UNL A   1      33.083  24.623  25.569  1.00  0.00    -0.489 OA
BRANCH  89  90
ATOM     90  C   UNL A   1      33.388  25.920  24.983  1.00  0.00     0.178 C 
ATOM     91  C   UNL A   1      33.531  27.116  25.914  1.00  0.00     0.074 C 
ATOM     92  C   UNL A   1      32.690  26.278  23.642  1.00  0.00     0.081 C 
ATOM     93  C   UNL A   1      32.594  28.262  25.553  1.00  0.00     0.165 C 
ATOM     94  C   UNL A   1      31.479  27.266  23.665  1.00  0.00     0.076 C 
ATOM     95  O   UNL A   1      31.372  27.819  24.982  1.00  0.00    -0.375 OA
ATOM     96  C   UNL A   1      30.081  26.692  23.300  1.00  0.00     0.064 C 
ATOM     97  C   UNL A   1      31.698  28.339  22.569  1.00  0.00     0.064 C 
ATOM     98  C   UNL A   1      29.003  27.764  23.300  1.00  0.00     0.163 C 
ATOM     99  C   UNL A   1      30.543  29.334  22.475  1.00  0.00     0.163 C 
ATOM    100  O   UNL A   1      29.286  28.700  22.270  1.00  0.00    -0.381 OA
ENDBRANCH  89  90
ENDBRANCH  85  89
ENDBRANCH  80  83
ENDBRANCH  78  79
ENDBRANCH  77  78
ENDBRANCH  76  77
ENDBRANCH   1  76
TORSDOF 18
ENDMDL
