MODEL 1
REMARK VINA RESULT:     -12.3      0.000      0.000
REMARK SMILES CC1CCN(C(=O)N[C@@H]2C=C[C@H](C(=O)NCCCCCCNC(=O)c3ccc(-c4c5nc(c(-c6c(F)cc(S(=O)(=O)[O-])cc6F)c6ccc([nH]6)c(-c6c(F)cc(S(=O)(=O)[O-])cc6F)c6nc(c(-c7c(F)cc(S(=O)(=O)[O-])cc7F)c7ccc4[nH]7)C=C6)C=C5)cc3)C2)CC1
REMARK SMILES IDX 19 1 18 2 17 3 16 4 15 5 13 6 14 7 12 9 9 10 10 11 91 12
REMARK SMILES IDX 11 13 8 14 1 15 2 16 3 17 93 18 4 19 92 20 5 21 6 22 7 23
REMARK SMILES IDX 20 25 21 26 22 27 23 28 24 30 25 31 26 32 90 33 27 34 89 35
REMARK SMILES IDX 28 36 29 37 30 38 83 39 31 40 88 41 82 42 84 43 32 44 87 45
REMARK SMILES IDX 81 46 80 47 33 49 67 50 46 51 66 52 47 53 50 54 65 55 85 56
REMARK SMILES IDX 48 57 49 58 64 60 86 61 51 62 34 63 35 64 44 65 36 66 37 67
REMARK SMILES IDX 43 68 45 69 38 70 39 71 40 72 41 73 42 74 68 75 69 76 78 77
REMARK SMILES IDX 70 78 71 79 77 80 79 81 72 82 73 83 74 84 75 85 76 86 52 87
REMARK SMILES IDX 53 88 62 89 54 90 55 91 61 92 63 93 56 94 57 95 58 96 59 97
REMARK SMILES IDX 60 98
REMARK H PARENT 15 8 8 24 22 29 84 48 50 59
REMARK Flexibility Score: inf
ROOT
ATOM      1  C   UNL A   1      40.553  21.232  26.377  1.00  0.00     0.002 C 
ENDROOT
BRANCH   1   2
ATOM      2  C   UNL A   1      39.129  21.403  25.848  1.00  0.00     0.002 C 
BRANCH   2   3
ATOM      3  C   UNL A   1      38.430  22.737  26.138  1.00  0.00     0.021 C 
BRANCH   3   4
ATOM      4  C   UNL A   1      37.058  22.939  25.498  1.00  0.00     0.116 C 
BRANCH   4   5
ATOM      5  N   UNL A   1      35.980  22.695  26.429  1.00  0.00    -0.356 N 
ATOM      6  C   UNL A   1      34.926  21.842  26.354  1.00  0.00     0.227 C 
ATOM      7  O   UNL A   1      34.279  21.689  27.391  1.00  0.00    -0.274 OA
ATOM      8  H   UNL A   1      36.015  23.235  27.250  1.00  0.00     0.163 HD
BRANCH   6   9
ATOM      9  C   UNL A   1      34.561  21.171  25.030  1.00  0.00     0.103 C 
ATOM     10  C   UNL A   1      32.249  21.839  24.505  1.00  0.00     0.107 C 
ATOM     11  C   UNL A   1      32.356  20.386  24.929  1.00  0.00    -0.006 C 
ATOM     12  C   UNL A   1      33.716  22.101  24.157  1.00  0.00     0.047 C 
ATOM     13  C   UNL A   1      33.613  20.033  25.235  1.00  0.00    -0.016 C 
BRANCH  10  14
ATOM     14  N   UNL A   1      31.548  22.497  25.596  1.00  0.00    -0.332 N 
ATOM     15  C   UNL A   1      32.257  28.302  23.763  1.00  0.00     0.008 C 
ATOM     16  C   UNL A   1      31.186  27.263  24.085  1.00  0.00    -0.011 C 
ATOM     17  C   UNL A   1      31.155  27.024  25.603  1.00  0.00     0.025 C 
ATOM     18  C   UNL A   1      31.420  25.944  23.320  1.00  0.00     0.025 C 
ATOM     19  C   UNL A   1      30.209  25.888  25.969  1.00  0.00     0.121 C 
ATOM     20  C   UNL A   1      30.497  24.819  23.810  1.00  0.00     0.121 C 
ATOM     21  N   UNL A   1      30.582  24.668  25.250  1.00  0.00    -0.325 N 
ATOM     22  C   UNL A   1      30.883  23.579  25.996  1.00  0.00     0.317 C 
ATOM     23  O   UNL A   1      30.542  23.520  27.188  1.00  0.00    -0.249 OA
ATOM     24  H   UNL A   1      31.576  21.881  26.364  1.00  0.00     0.165 HD
ENDBRANCH  10  14
ENDBRANCH   6   9
ENDBRANCH   4   5
ENDBRANCH   3   4
ENDBRANCH   2   3
ENDBRANCH   1   2
BRANCH   1  25
ATOM     25  C   UNL A   1      40.888  22.044  27.623  1.00  0.00     0.021 C 
BRANCH  25  26
ATOM     26  C   UNL A   1      41.996  23.069  27.435  1.00  0.00     0.116 C 
BRANCH  26  27
ATOM     27  N   UNL A   1      41.825  23.870  26.234  1.00  0.00    -0.352 N 
ATOM     28  C   UNL A   1      41.528  25.210  26.143  1.00  0.00     0.251 C 
ATOM     29  H   UNL A   1      41.935  23.395  25.379  1.00  0.00     0.163 HD
ATOM     30  O   UNL A   1      41.282  25.726  25.057  1.00  0.00    -0.269 OA
BRANCH  28  31
ATOM     31  C   UNL A   1      41.477  26.009  27.383  1.00  0.00     0.039 A 
ATOM     32  C   UNL A   1      42.515  26.902  27.658  1.00  0.00     0.014 A 
ATOM     33  C   UNL A   1      40.361  25.931  28.222  1.00  0.00     0.014 A 
ATOM     34  C   UNL A   1      42.398  27.773  28.742  1.00  0.00     0.010 A 
ATOM     35  C   UNL A   1      40.215  26.850  29.253  1.00  0.00     0.010 A 
ATOM     36  C   UNL A   1      41.230  27.782  29.522  1.00  0.00    -0.014 A 
BRANCH  36  37
ATOM     37  C   UNL A   1      41.039  28.763  30.619  1.00  0.00     0.031 A 
ATOM     38  C   UNL A   1      41.849  28.645  31.880  1.00  0.00     0.074 A 
ATOM     39  C   UNL A   1      40.070  29.693  30.521  1.00  0.00     0.049 A 
ATOM     40  N   UNL A   1      41.764  29.340  32.983  1.00  0.00    -0.248 NA
ATOM     41  C   UNL A   1      42.865  27.581  31.914  1.00  0.00     0.031 C 
ATOM     42  C   UNL A   1      39.170  29.860  29.378  1.00  0.00     0.029 A 
ATOM     43  N   UNL A   1      39.662  30.658  31.408  1.00  0.00    -0.354 N 
ATOM     44  C   UNL A   1      42.693  28.781  33.853  1.00  0.00     0.074 A 
ATOM     45  C   UNL A   1      43.295  27.660  33.164  1.00  0.00     0.031 C 
ATOM     46  C   UNL A   1      38.321  30.868  29.630  1.00  0.00     0.029 A 
ATOM     47  C   UNL A   1      38.592  31.398  30.964  1.00  0.00     0.049 A 
ATOM     48  H   UNL A   1      40.094  30.805  32.280  1.00  0.00     0.167 HD
ATOM     49  C   UNL A   1      43.026  29.178  35.104  1.00  0.00     0.037 A 
ATOM     50  C   UNL A   1      37.897  32.382  31.566  1.00  0.00     0.037 A 
ATOM     51  C   UNL A   1      42.445  30.315  35.767  1.00  0.00     0.049 A 
ATOM     52  C   UNL A   1      38.301  32.828  32.943  1.00  0.00     0.074 A 
ATOM     53  C   UNL A   1      42.789  30.868  36.988  1.00  0.00     0.029 A 
ATOM     54  N   UNL A   1      41.389  31.066  35.270  1.00  0.00    -0.354 N 
ATOM     55  N   UNL A   1      39.251  32.356  33.714  1.00  0.00    -0.248 NA
ATOM     56  C   UNL A   1      37.543  33.940  33.532  1.00  0.00     0.031 C 
ATOM     57  C   UNL A   1      41.910  31.926  37.249  1.00  0.00     0.029 A 
ATOM     58  C   UNL A   1      41.045  32.057  36.175  1.00  0.00     0.049 A 
ATOM     59  H   UNL A   1      40.950  30.917  34.402  1.00  0.00     0.167 HD
ATOM     60  C   UNL A   1      39.210  33.114  34.878  1.00  0.00     0.074 A 
ATOM     61  C   UNL A   1      38.153  34.091  34.701  1.00  0.00     0.031 C 
ATOM     62  C   UNL A   1      39.977  33.009  35.991  1.00  0.00     0.037 A 
BRANCH  49  63
ATOM     63  C   UNL A   1      44.061  28.364  35.831  1.00  0.00     0.058 A 
ATOM     64  C   UNL A   1      43.706  27.315  36.693  1.00  0.00     0.135 A 
ATOM     65  C   UNL A   1      45.428  28.648  35.672  1.00  0.00     0.135 A 
ATOM     66  F   UNL A   1      42.414  27.009  36.891  1.00  0.00    -0.206 F 
ATOM     67  C   UNL A   1      44.665  26.609  37.413  1.00  0.00     0.059 A 
ATOM     68  C   UNL A   1      46.405  27.936  36.360  1.00  0.00     0.059 A 
ATOM     69  F   UNL A   1      45.822  29.639  34.857  1.00  0.00    -0.206 F 
ATOM     70  C   UNL A   1      46.013  26.935  37.248  1.00  0.00     0.060 A 
BRANCH  70  71
ATOM     71  S   UNL A   1      47.244  26.041  38.218  1.00  0.00     0.124 S 
ATOM     72  O   UNL A   1      46.903  24.655  37.909  1.00  0.00    -0.237 OA
ATOM     73  O   UNL A   1      48.501  26.523  37.654  1.00  0.00    -0.237 OA
ATOM     74  O   UNL A   1      46.970  26.465  39.587  1.00  0.00    -0.744 OA
ENDBRANCH  70  71
ENDBRANCH  49  63
BRANCH  50  75
ATOM     75  C   UNL A   1      36.757  33.010  30.850  1.00  0.00     0.058 A 
ATOM     76  C   UNL A   1      35.433  32.738  31.220  1.00  0.00     0.135 A 
ATOM     77  C   UNL A   1      36.974  33.951  29.830  1.00  0.00     0.135 A 
ATOM     78  F   UNL A   1      35.177  31.841  32.184  1.00  0.00    -0.206 F 
ATOM     79  C   UNL A   1      34.361  33.385  30.613  1.00  0.00     0.059 A 
ATOM     80  C   UNL A   1      35.919  34.624  29.221  1.00  0.00     0.059 A 
ATOM     81  F   UNL A   1      38.225  34.255  29.451  1.00  0.00    -0.206 F 
ATOM     82  C   UNL A   1      34.615  34.335  29.622  1.00  0.00     0.060 A 
BRANCH  82  83
ATOM     83  S   UNL A   1      33.223  35.244  28.915  1.00  0.00     0.124 S 
ATOM     84  O   UNL A   1      32.634  34.243  28.035  1.00  0.00    -0.237 OA
ATOM     85  O   UNL A   1      32.447  35.588  30.103  1.00  0.00    -0.237 OA
ATOM     86  O   UNL A   1      33.865  36.373  28.249  1.00  0.00    -0.744 OA
ENDBRANCH  82  83
ENDBRANCH  50  75
BRANCH  62  87
ATOM     87  C   UNL A   1      39.697  33.966  37.116  1.00  0.00     0.058 A 
ATOM     88  C   UNL A   1      38.892  33.595  38.206  1.00  0.00     0.135 A 
ATOM     89  C   UNL A   1      40.291  35.238  37.141  1.00  0.00     0.135 A 
ATOM     90  F   UNL A   1      38.296  32.393  38.226  1.00  0.00    -0.206 F 
ATOM     91  C   UNL A   1      38.679  34.457  39.276  1.00  0.00     0.059 A 
ATOM     92  C   UNL A   1      40.110  36.107  38.212  1.00  0.00     0.059 A 
ATOM     93  F   UNL A   1      41.075  35.637  36.126  1.00  0.00    -0.206 F 
ATOM     94  C   UNL A   1      39.296  35.710  39.271  1.00  0.00     0.060 A 
BRANCH  94  95
ATOM     95  S   UNL A   1      39.051  36.799  40.691  1.00  0.00     0.124 S 
ATOM     96  O   UNL A   1      38.294  35.938  41.594  1.00  0.00    -0.237 OA
ATOM     97  O   UNL A   1      40.421  37.096  41.098  1.00  0.00    -0.237 OA
ATOM     98  O   UNL A   1      38.312  37.926  40.130  1.00  0.00    -0.744 OA
ENDBRANCH  94  95
ENDBRANCH  62  87
ENDBRANCH  36  37
ENDBRANCH  28  31
ENDBRANCH  26  27
ENDBRANCH  25  26
ENDBRANCH   1  25
TORSDOF 17
ENDMDL
MODEL 2
REMARK VINA RESULT:     -12.1      1.252      2.086
REMARK SMILES CC1CCN(C(=O)N[C@@H]2C=C[C@H](C(=O)NCCCCCCNC(=O)c3ccc(-c4c5nc(c(-c6c(F)cc(S(=O)(=O)[O-])cc6F)c6ccc([nH]6)c(-c6c(F)cc(S(=O)(=O)[O-])cc6F)c6nc(c(-c7c(F)cc(S(=O)(=O)[O-])cc7F)c7ccc4[nH]7)C=C6)C=C5)cc3)C2)CC1
REMARK SMILES IDX 19 1 18 2 17 3 16 4 15 5 13 6 14 7 12 9 9 10 10 11 91 12
REMARK SMILES IDX 11 13 8 14 1 15 2 16 3 17 93 18 4 19 92 20 5 21 6 22 7 23
REMARK SMILES IDX 20 25 21 26 22 27 23 28 24 30 25 31 26 32 90 33 27 34 89 35
REMARK SMILES IDX 28 36 29 37 30 38 83 39 31 40 88 41 82 42 84 43 32 44 87 45
REMARK SMILES IDX 81 46 80 47 33 49 67 50 46 51 66 52 47 53 50 54 65 55 85 56
REMARK SMILES IDX 48 57 49 58 64 60 86 61 51 62 34 63 35 64 44 65 36 66 37 67
REMARK SMILES IDX 43 68 45 69 38 70 39 71 40 72 41 73 42 74 68 75 69 76 78 77
REMARK SMILES IDX 70 78 71 79 77 80 79 81 72 82 73 83 74 84 75 85 76 86 52 87
REMARK SMILES IDX 53 88 62 89 54 90 55 91 61 92 63 93 56 94 57 95 58 96 59 97
REMARK SMILES IDX 60 98
REMARK H PARENT 15 8 8 24 22 29 84 48 50 59
REMARK Flexibility Score: inf
ROOT
ATOM      1  C   UNL A   1      37.397  22.322  24.727  1.00  0.00     0.002 C 
ENDROOT
BRANCH   1   2
ATOM      2  C   UNL A   1      36.729  21.292  25.638  1.00  0.00     0.002 C 
BRANCH   2   3
ATOM      3  C   UNL A   1      35.862  20.220  24.966  1.00  0.00     0.021 C 
BRANCH   3   4
ATOM      4  C   UNL A   1      34.350  20.407  25.065  1.00  0.00     0.116 C 
BRANCH   4   5
ATOM      5  N   UNL A   1      33.995  21.613  25.778  1.00  0.00    -0.356 N 
ATOM      6  C   UNL A   1      33.474  22.783  25.328  1.00  0.00     0.227 C 
ATOM      7  O   UNL A   1      33.070  23.564  26.191  1.00  0.00    -0.274 OA
ATOM      8  H   UNL A   1      34.157  21.581  26.748  1.00  0.00     0.163 HD
BRANCH   6   9
ATOM      9  C   UNL A   1      33.454  23.101  23.832  1.00  0.00     0.103 C 
ATOM     10  C   UNL A   1      32.014  25.078  23.543  1.00  0.00     0.107 C 
ATOM     11  C   UNL A   1      31.368  23.804  23.030  1.00  0.00    -0.006 C 
ATOM     12  C   UNL A   1      33.471  24.612  23.592  1.00  0.00     0.047 C 
ATOM     13  C   UNL A   1      32.147  22.727  23.210  1.00  0.00    -0.016 C 
BRANCH  10  14
ATOM     14  N   UNL A   1      31.242  25.441  24.721  1.00  0.00    -0.332 N 
ATOM     15  C   UNL A   1      35.200  29.397  27.220  1.00  0.00     0.008 C 
ATOM     16  C   UNL A   1      33.778  29.299  26.674  1.00  0.00    -0.011 C 
ATOM     17  C   UNL A   1      32.917  28.483  27.652  1.00  0.00     0.025 C 
ATOM     18  C   UNL A   1      33.750  28.682  25.260  1.00  0.00     0.025 C 
ATOM     19  C   UNL A   1      31.527  28.225  27.087  1.00  0.00     0.121 C 
ATOM     20  C   UNL A   1      32.321  28.359  24.798  1.00  0.00     0.121 C 
ATOM     21  N   UNL A   1      31.624  27.559  25.787  1.00  0.00    -0.325 N 
ATOM     22  C   UNL A   1      31.017  26.355  25.663  1.00  0.00     0.317 C 
ATOM     23  O   UNL A   1      30.156  25.998  26.483  1.00  0.00    -0.249 OA
ATOM     24  H   UNL A   1      30.624  24.695  24.896  1.00  0.00     0.165 HD
ENDBRANCH  10  14
ENDBRANCH   6   9
ENDBRANCH   4   5
ENDBRANCH   3   4
ENDBRANCH   2   3
ENDBRANCH   1   2
BRANCH   1  25
ATOM     25  C   UNL A   1      37.348  23.762  25.223  1.00  0.00     0.021 C 
BRANCH  25  26
ATOM     26  C   UNL A   1      38.185  24.036  26.463  1.00  0.00     0.116 C 
BRANCH  26  27
ATOM     27  N   UNL A   1      39.595  23.739  26.268  1.00  0.00    -0.352 N 
ATOM     28  C   UNL A   1      40.682  24.452  26.716  1.00  0.00     0.251 C 
ATOM     29  H   UNL A   1      39.798  22.927  25.750  1.00  0.00     0.163 HD
ATOM     30  O   UNL A   1      41.818  24.154  26.361  1.00  0.00    -0.269 OA
BRANCH  28  31
ATOM     31  C   UNL A   1      40.452  25.608  27.606  1.00  0.00     0.039 A 
ATOM     32  C   UNL A   1      39.485  25.510  28.608  1.00  0.00     0.014 A 
ATOM     33  C   UNL A   1      41.253  26.749  27.495  1.00  0.00     0.014 A 
ATOM     34  C   UNL A   1      39.371  26.533  29.551  1.00  0.00     0.010 A 
ATOM     35  C   UNL A   1      41.189  27.727  28.479  1.00  0.00     0.010 A 
ATOM     36  C   UNL A   1      40.248  27.629  29.517  1.00  0.00    -0.014 A 
BRANCH  36  37
ATOM     37  C   UNL A   1      40.213  28.681  30.563  1.00  0.00     0.031 A 
ATOM     38  C   UNL A   1      41.082  28.553  31.783  1.00  0.00     0.074 A 
ATOM     39  C   UNL A   1      39.330  29.693  30.463  1.00  0.00     0.049 A 
ATOM     40  N   UNL A   1      41.126  29.311  32.848  1.00  0.00    -0.248 NA
ATOM     41  C   UNL A   1      41.995  27.401  31.826  1.00  0.00     0.031 C 
ATOM     42  C   UNL A   1      38.385  29.885  29.361  1.00  0.00     0.029 A 
ATOM     43  N   UNL A   1      39.066  30.739  31.312  1.00  0.00    -0.354 N 
ATOM     44  C   UNL A   1      42.048  28.713  33.697  1.00  0.00     0.074 A 
ATOM     45  C   UNL A   1      42.503  27.504  33.044  1.00  0.00     0.031 C 
ATOM     46  C   UNL A   1      37.648  30.981  29.599  1.00  0.00     0.029 A 
ATOM     47  C   UNL A   1      38.045  31.553  30.883  1.00  0.00     0.049 A 
ATOM     48  H   UNL A   1      39.561  30.890  32.149  1.00  0.00     0.167 HD
ATOM     49  C   UNL A   1      42.490  29.142  34.904  1.00  0.00     0.037 A 
ATOM     50  C   UNL A   1      37.481  32.630  31.463  1.00  0.00     0.037 A 
ATOM     51  C   UNL A   1      42.056  30.364  35.529  1.00  0.00     0.049 A 
ATOM     52  C   UNL A   1      38.005  33.109  32.787  1.00  0.00     0.074 A 
ATOM     53  C   UNL A   1      42.522  30.945  36.695  1.00  0.00     0.029 A 
ATOM     54  N   UNL A   1      41.047  31.185  35.046  1.00  0.00    -0.354 N 
ATOM     55  N   UNL A   1      38.951  32.589  33.533  1.00  0.00    -0.248 NA
ATOM     56  C   UNL A   1      37.389  34.318  33.350  1.00  0.00     0.031 C 
ATOM     57  C   UNL A   1      41.762  32.095  36.941  1.00  0.00     0.029 A 
ATOM     58  C   UNL A   1      40.850  32.251  35.908  1.00  0.00     0.049 A 
ATOM     59  H   UNL A   1      40.546  31.032  34.212  1.00  0.00     0.167 HD
ATOM     60  C   UNL A   1      39.048  33.409  34.651  1.00  0.00     0.074 A 
ATOM     61  C   UNL A   1      38.079  34.471  34.474  1.00  0.00     0.031 C 
ATOM     62  C   UNL A   1      39.867  33.290  35.726  1.00  0.00     0.037 A 
BRANCH  49  63
ATOM     63  C   UNL A   1      43.486  28.273  35.620  1.00  0.00     0.058 A 
ATOM     64  C   UNL A   1      43.086  27.305  36.556  1.00  0.00     0.135 A 
ATOM     65  C   UNL A   1      44.862  28.420  35.378  1.00  0.00     0.135 A 
ATOM     66  F   UNL A   1      41.784  27.132  36.836  1.00  0.00    -0.206 F 
ATOM     67  C   UNL A   1      44.016  26.550  37.264  1.00  0.00     0.059 A 
ATOM     68  C   UNL A   1      45.808  27.656  36.053  1.00  0.00     0.059 A 
ATOM     69  F   UNL A   1      45.298  29.328  34.491  1.00  0.00    -0.206 F 
ATOM     70  C   UNL A   1      45.376  26.741  37.013  1.00  0.00     0.060 A 
BRANCH  70  71
ATOM     71  S   UNL A   1      46.573  25.785  37.968  1.00  0.00     0.124 S 
ATOM     72  O   UNL A   1      47.766  26.620  37.852  1.00  0.00    -0.237 OA
ATOM     73  O   UNL A   1      45.959  25.742  39.291  1.00  0.00    -0.237 OA
ATOM     74  O   UNL A   1      46.628  24.510  37.262  1.00  0.00    -0.744 OA
ENDBRANCH  70  71
ENDBRANCH  49  63
BRANCH  50  75
ATOM     75  C   UNL A   1      36.365  33.326  30.773  1.00  0.00     0.058 A 
ATOM     76  C   UNL A   1      35.057  33.267  31.274  1.00  0.00     0.135 A 
ATOM     77  C   UNL A   1      36.598  34.122  29.640  1.00  0.00     0.135 A 
ATOM     78  F   UNL A   1      34.785  32.513  32.349  1.00  0.00    -0.206 F 
ATOM     79  C   UNL A   1      34.019  33.982  30.684  1.00  0.00     0.059 A 
ATOM     80  C   UNL A   1      35.581  34.862  29.044  1.00  0.00     0.059 A 
ATOM     81  F   UNL A   1      37.837  34.221  29.132  1.00  0.00    -0.206 F 
ATOM     82  C   UNL A   1      34.295  34.786  29.577  1.00  0.00     0.060 A 
BRANCH  82  83
ATOM     83  S   UNL A   1      32.963  35.793  28.884  1.00  0.00     0.124 S 
ATOM     84  O   UNL A   1      33.708  36.877  28.258  1.00  0.00    -0.237 OA
ATOM     85  O   UNL A   1      32.312  34.855  27.975  1.00  0.00    -0.237 OA
ATOM     86  O   UNL A   1      32.177  36.160  30.059  1.00  0.00    -0.744 OA
ENDBRANCH  82  83
ENDBRANCH  50  75
BRANCH  62  87
ATOM     87  C   UNL A   1      39.742  34.328  36.806  1.00  0.00     0.058 A 
ATOM     88  C   UNL A   1      38.986  34.088  37.964  1.00  0.00     0.135 A 
ATOM     89  C   UNL A   1      40.440  35.543  36.717  1.00  0.00     0.135 A 
ATOM     90  F   UNL A   1      38.294  32.945  38.095  1.00  0.00    -0.206 F 
ATOM     91  C   UNL A   1      38.916  35.023  38.992  1.00  0.00     0.059 A 
ATOM     92  C   UNL A   1      40.404  36.482  37.742  1.00  0.00     0.059 A 
ATOM     93  F   UNL A   1      41.184  35.817  35.633  1.00  0.00    -0.206 F 
ATOM     94  C   UNL A   1      39.633  36.216  38.873  1.00  0.00     0.060 A 
BRANCH  94  95
ATOM     95  S   UNL A   1      39.575  37.399  40.236  1.00  0.00     0.124 S 
ATOM     96  O   UNL A   1      38.809  38.491  39.645  1.00  0.00    -0.237 OA
ATOM     97  O   UNL A   1      38.894  36.640  41.280  1.00  0.00    -0.237 OA
ATOM     98  O   UNL A   1      40.982  37.687  40.496  1.00  0.00    -0.744 OA
ENDBRANCH  94  95
ENDBRANCH  62  87
ENDBRANCH  36  37
ENDBRANCH  28  31
ENDBRANCH  26  27
ENDBRANCH  25  26
ENDBRANCH   1  25
TORSDOF 17
ENDMDL
MODEL 3
REMARK VINA RESULT:     -12.1      4.275      7.418
REMARK SMILES CC1CCN(C(=O)N[C@@H]2C=C[C@H](C(=O)NCCCCCCNC(=O)c3ccc(-c4c5nc(c(-c6c(F)cc(S(=O)(=O)[O-])cc6F)c6ccc([nH]6)c(-c6c(F)cc(S(=O)(=O)[O-])cc6F)c6nc(c(-c7c(F)cc(S(=O)(=O)[O-])cc7F)c7ccc4[nH]7)C=C6)C=C5)cc3)C2)CC1
REMARK SMILES IDX 19 1 18 2 17 3 16 4 15 5 13 6 14 7 12 9 9 10 10 11 91 12
REMARK SMILES IDX 11 13 8 14 1 15 2 16 3 17 93 18 4 19 92 20 5 21 6 22 7 23
REMARK SMILES IDX 20 25 21 26 22 27 23 28 24 30 25 31 26 32 90 33 27 34 89 35
REMARK SMILES IDX 28 36 29 37 30 38 83 39 31 40 88 41 82 42 84 43 32 44 87 45
REMARK SMILES IDX 81 46 80 47 33 49 67 50 46 51 66 52 47 53 50 54 65 55 85 56
REMARK SMILES IDX 48 57 49 58 64 60 86 61 51 62 34 63 35 64 44 65 36 66 37 67
REMARK SMILES IDX 43 68 45 69 38 70 39 71 40 72 41 73 42 74 68 75 69 76 78 77
REMARK SMILES IDX 70 78 71 79 77 80 79 81 72 82 73 83 74 84 75 85 76 86 52 87
REMARK SMILES IDX 53 88 62 89 54 90 55 91 61 92 63 93 56 94 57 95 58 96 59 97
REMARK SMILES IDX 60 98
REMARK H PARENT 15 8 8 24 22 29 84 48 50 59
REMARK Flexibility Score: inf
ROOT
ATOM      1  C   UNL A   1      43.537  23.032  27.019  1.00  0.00     0.002 C 
ENDROOT
BRANCH   1   2
ATOM      2  C   UNL A   1      43.625  24.507  26.630  1.00  0.00     0.002 C 
BRANCH   2   3
ATOM      3  C   UNL A   1      44.185  24.833  25.240  1.00  0.00     0.021 C 
BRANCH   3   4
ATOM      4  C   UNL A   1      45.630  25.325  25.187  1.00  0.00     0.116 C 
BRANCH   4   5
ATOM      5  N   UNL A   1      45.720  26.717  24.811  1.00  0.00    -0.356 N 
ATOM      6  C   UNL A   1      45.510  27.844  25.539  1.00  0.00     0.227 C 
ATOM      7  O   UNL A   1      45.868  28.900  25.018  1.00  0.00    -0.274 OA
ATOM      8  H   UNL A   1      45.973  26.875  23.873  1.00  0.00     0.163 HD
BRANCH   6   9
ATOM      9  C   UNL A   1      44.819  27.771  26.902  1.00  0.00     0.103 C 
ATOM     10  C   UNL A   1      43.839  29.991  27.322  1.00  0.00     0.107 C 
ATOM     11  C   UNL A   1      45.048  29.710  28.196  1.00  0.00    -0.006 C 
ATOM     12  C   UNL A   1      43.508  28.559  26.895  1.00  0.00     0.047 C 
ATOM     13  C   UNL A   1      45.592  28.510  27.948  1.00  0.00    -0.016 C 
BRANCH  10  14
ATOM     14  N   UNL A   1      44.275  31.029  26.402  1.00  0.00    -0.332 N 
ATOM     15  C   UNL A   1      41.228  35.750  28.848  1.00  0.00     0.008 C 
ATOM     16  C   UNL A   1      42.638  35.268  28.517  1.00  0.00    -0.011 C 
ATOM     17  C   UNL A   1      42.837  35.299  26.993  1.00  0.00     0.025 C 
ATOM     18  C   UNL A   1      42.910  33.860  29.085  1.00  0.00     0.025 C 
ATOM     19  C   UNL A   1      44.173  34.687  26.594  1.00  0.00     0.121 C 
ATOM     20  C   UNL A   1      44.227  33.269  28.562  1.00  0.00     0.121 C 
ATOM     21  N   UNL A   1      44.281  33.322  27.113  1.00  0.00    -0.325 N 
ATOM     22  C   UNL A   1      44.474  32.331  26.211  1.00  0.00     0.317 C 
ATOM     23  O   UNL A   1      44.870  32.594  25.064  1.00  0.00    -0.249 OA
ATOM     24  H   UNL A   1      44.532  30.577  25.566  1.00  0.00     0.165 HD
ENDBRANCH  10  14
ENDBRANCH   6   9
ENDBRANCH   4   5
ENDBRANCH   3   4
ENDBRANCH   2   3
ENDBRANCH   1   2
BRANCH   1  25
ATOM     25  C   UNL A   1      42.463  22.229  26.295  1.00  0.00     0.021 C 
BRANCH  25  26
ATOM     26  C   UNL A   1      41.173  22.040  27.079  1.00  0.00     0.116 C 
BRANCH  26  27
ATOM     27  N   UNL A   1      39.990  22.076  26.234  1.00  0.00    -0.352 N 
ATOM     28  C   UNL A   1      39.063  23.085  26.115  1.00  0.00     0.251 C 
ATOM     29  H   UNL A   1      39.832  21.279  25.679  1.00  0.00     0.163 HD
ATOM     30  O   UNL A   1      38.039  22.922  25.459  1.00  0.00    -0.269 OA
BRANCH  28  31
ATOM     31  C   UNL A   1      39.309  24.358  26.820  1.00  0.00     0.039 A 
ATOM     32  C   UNL A   1      38.844  24.509  28.128  1.00  0.00     0.014 A 
ATOM     33  C   UNL A   1      40.069  25.362  26.213  1.00  0.00     0.014 A 
ATOM     34  C   UNL A   1      39.208  25.643  28.857  1.00  0.00     0.010 A 
ATOM     35  C   UNL A   1      40.492  26.450  26.965  1.00  0.00     0.010 A 
ATOM     36  C   UNL A   1      40.067  26.601  28.295  1.00  0.00    -0.014 A 
BRANCH  36  37
ATOM     37  C   UNL A   1      40.547  27.766  29.080  1.00  0.00     0.031 A 
ATOM     38  C   UNL A   1      41.852  27.683  29.820  1.00  0.00     0.074 A 
ATOM     39  C   UNL A   1      39.763  28.853  29.208  1.00  0.00     0.049 A 
ATOM     40  N   UNL A   1      42.397  28.549  30.633  1.00  0.00    -0.248 NA
ATOM     41  C   UNL A   1      42.630  26.446  29.650  1.00  0.00     0.031 C 
ATOM     42  C   UNL A   1      38.444  29.022  28.596  1.00  0.00     0.029 A 
ATOM     43  N   UNL A   1      39.951  30.015  29.915  1.00  0.00    -0.354 N 
ATOM     44  C   UNL A   1      43.564  27.954  31.093  1.00  0.00     0.074 A 
ATOM     45  C   UNL A   1      43.624  26.632  30.505  1.00  0.00     0.031 C 
ATOM     46  C   UNL A   1      37.944  30.216  28.950  1.00  0.00     0.029 A 
ATOM     47  C   UNL A   1      38.890  30.885  29.839  1.00  0.00     0.049 A 
ATOM     48  H   UNL A   1      40.769  30.205  30.429  1.00  0.00     0.167 HD
ATOM     49  C   UNL A   1      44.509  28.467  31.916  1.00  0.00     0.037 A 
ATOM     50  C   UNL A   1      38.693  32.080  30.429  1.00  0.00     0.037 A 
ATOM     51  C   UNL A   1      44.457  29.795  32.468  1.00  0.00     0.049 A 
ATOM     52  C   UNL A   1      39.766  32.647  31.314  1.00  0.00     0.074 A 
ATOM     53  C   UNL A   1      45.414  30.452  33.221  1.00  0.00     0.029 A 
ATOM     54  N   UNL A   1      43.383  30.664  32.338  1.00  0.00    -0.354 N 
ATOM     55  N   UNL A   1      40.914  32.113  31.659  1.00  0.00    -0.248 NA
ATOM     56  C   UNL A   1      39.523  33.976  31.890  1.00  0.00     0.031 C 
ATOM     57  C   UNL A   1      44.899  31.701  33.584  1.00  0.00     0.029 A 
ATOM     58  C   UNL A   1      43.638  31.839  33.025  1.00  0.00     0.049 A 
ATOM     59  H   UNL A   1      42.561  30.474  31.830  1.00  0.00     0.167 HD
ATOM     60  C   UNL A   1      41.533  33.041  32.488  1.00  0.00     0.074 A 
ATOM     61  C   UNL A   1      40.640  34.180  32.577  1.00  0.00     0.031 C 
ATOM     62  C   UNL A   1      42.730  32.956  33.119  1.00  0.00     0.037 A 
BRANCH  49  63
ATOM     63  C   UNL A   1      45.671  27.579  32.268  1.00  0.00     0.058 A 
ATOM     64  C   UNL A   1      45.581  26.609  33.279  1.00  0.00     0.135 A 
ATOM     65  C   UNL A   1      46.896  27.711  31.593  1.00  0.00     0.135 A 
ATOM     66  F   UNL A   1      44.438  26.449  33.964  1.00  0.00    -0.206 F 
ATOM     67  C   UNL A   1      46.679  25.836  33.644  1.00  0.00     0.059 A 
ATOM     68  C   UNL A   1      47.998  26.929  31.923  1.00  0.00     0.059 A 
ATOM     69  F   UNL A   1      47.035  28.621  30.616  1.00  0.00    -0.206 F 
ATOM     70  C   UNL A   1      47.887  26.011  32.967  1.00  0.00     0.060 A 
BRANCH  70  71
ATOM     71  S   UNL A   1      49.315  25.032  33.478  1.00  0.00     0.124 S 
ATOM     72  O   UNL A   1      50.007  24.847  32.206  1.00  0.00    -0.237 OA
ATOM     73  O   UNL A   1      49.976  25.915  34.435  1.00  0.00    -0.237 OA
ATOM     74  O   UNL A   1      48.715  23.831  34.048  1.00  0.00    -0.744 OA
ENDBRANCH  70  71
ENDBRANCH  49  63
BRANCH  50  75
ATOM     75  C   UNL A   1      37.426  32.813  30.179  1.00  0.00     0.058 A 
ATOM     76  C   UNL A   1      37.326  33.751  29.142  1.00  0.00     0.135 A 
ATOM     77  C   UNL A   1      36.269  32.536  30.926  1.00  0.00     0.135 A 
ATOM     78  F   UNL A   1      38.406  34.054  28.407  1.00  0.00    -0.206 F 
ATOM     79  C   UNL A   1      36.122  34.381  28.844  1.00  0.00     0.059 A 
ATOM     80  C   UNL A   1      35.050  33.139  30.635  1.00  0.00     0.059 A 
ATOM     81  F   UNL A   1      36.312  31.634  31.919  1.00  0.00    -0.206 F 
ATOM     82  C   UNL A   1      34.987  34.059  29.590  1.00  0.00     0.060 A 
BRANCH  82  83
ATOM     83  S   UNL A   1      33.406  34.804  29.127  1.00  0.00     0.124 S 
ATOM     84  O   UNL A   1      32.734  34.893  30.417  1.00  0.00    -0.237 OA
ATOM     85  O   UNL A   1      33.826  36.071  28.536  1.00  0.00    -0.237 OA
ATOM     86  O   UNL A   1      32.846  33.839  28.186  1.00  0.00    -0.744 OA
ENDBRANCH  82  83
ENDBRANCH  50  75
BRANCH  62  87
ATOM     87  C   UNL A   1      43.145  34.120  33.974  1.00  0.00     0.058 A 
ATOM     88  C   UNL A   1      42.939  34.114  35.363  1.00  0.00     0.135 A 
ATOM     89  C   UNL A   1      43.814  35.220  33.413  1.00  0.00     0.135 A 
ATOM     90  F   UNL A   1      42.298  33.090  35.947  1.00  0.00    -0.206 F 
ATOM     91  C   UNL A   1      43.375  35.164  36.165  1.00  0.00     0.059 A 
ATOM     92  C   UNL A   1      44.278  36.270  34.199  1.00  0.00     0.059 A 
ATOM     93  F   UNL A   1      44.041  35.270  32.091  1.00  0.00    -0.206 F 
ATOM     94  C   UNL A   1      44.047  36.236  35.574  1.00  0.00     0.060 A 
BRANCH  94  95
ATOM     95  S   UNL A   1      44.650  37.568  36.633  1.00  0.00     0.124 S 
ATOM     96  O   UNL A   1      43.777  37.438  37.795  1.00  0.00    -0.237 OA
ATOM     97  O   UNL A   1      46.045  37.192  36.844  1.00  0.00    -0.237 OA
ATOM     98  O   UNL A   1      44.446  38.765  35.823  1.00  0.00    -0.744 OA
ENDBRANCH  94  95
ENDBRANCH  62  87
ENDBRANCH  36  37
ENDBRANCH  28  31
ENDBRANCH  26  27
ENDBRANCH  25  26
ENDBRANCH   1  25
TORSDOF 17
ENDMDL
