MODEL 1
REMARK VINA RESULT:     -13.0      0.000      0.000
REMARK SMILES Cc1ccc(-c2cc(C(=O)NCCCCCCNC(=O)c3ccc(-c4c5nc(c(-c6c(F)cc(S(=O)(=O)[O-])cc6F)c6ccc([nH]6)c(-c6c(F)cc(S(=O)(=O)[O-])cc6F)c6nc(c(-c7c(F)cc(S(=O)(=O)[O-])cc7F)c7ccc4[nH]7)C=C6)C=C5)cc3)c3cc(C)ccc3n2)c(C)c1
REMARK SMILES IDX 15 1 14 2 13 3 12 4 11 5 9 6 10 7 8 9 6 10 7 11 94 12 93 13
REMARK SMILES IDX 87 14 92 15 88 16 91 17 89 18 90 19 5 20 1 21 2 22 3 23
REMARK SMILES IDX 97 24 4 25 95 26 96 27 16 28 17 29 18 30 19 31 20 33 21 34
REMARK SMILES IDX 22 35 86 36 23 37 85 38 24 39 25 40 26 41 79 42 27 43 84 44
REMARK SMILES IDX 78 45 80 46 28 47 83 48 77 49 76 50 29 52 63 53 42 54 62 55
REMARK SMILES IDX 43 56 46 57 61 58 81 59 44 60 45 61 60 63 82 64 47 65 30 66
REMARK SMILES IDX 31 67 40 68 32 69 33 70 39 71 41 72 34 73 35 74 36 75 37 76
REMARK SMILES IDX 38 77 64 78 65 79 74 80 66 81 67 82 73 83 75 84 68 85 69 86
REMARK SMILES IDX 70 87 71 88 72 89 48 90 49 91 58 92 50 93 51 94 57 95 59 96
REMARK SMILES IDX 52 97 53 98 54 99 55 100 56 101
REMARK H PARENT 11 8 18 32 80 51 46 62
REMARK Flexibility Score: inf
ROOT
ATOM      1  C   UNL A   1      38.246  23.839  26.153  1.00  0.00     0.002 C 
ENDROOT
BRANCH   1   2
ATOM      2  C   UNL A   1      37.083  23.440  25.237  1.00  0.00     0.002 C 
BRANCH   2   3
ATOM      3  C   UNL A   1      37.092  22.035  24.626  1.00  0.00     0.021 C 
BRANCH   3   4
ATOM      4  C   UNL A   1      36.292  20.963  25.349  1.00  0.00     0.116 C 
BRANCH   4   5
ATOM      5  N   UNL A   1      35.504  21.380  26.493  1.00  0.00    -0.352 N 
ATOM      6  C   UNL A   1      34.157  21.675  26.595  1.00  0.00     0.252 C 
ATOM      7  O   UNL A   1      33.709  21.919  27.718  1.00  0.00    -0.269 OA
ATOM      8  H   UNL A   1      36.011  21.466  27.334  1.00  0.00     0.163 HD
BRANCH   6   9
ATOM      9  C   UNL A   1      33.242  21.830  25.416  1.00  0.00     0.051 A 
ATOM     10  C   UNL A   1      32.097  23.402  24.009  1.00  0.00     0.072 A 
ATOM     11  C   UNL A   1      32.837  23.147  25.152  1.00  0.00     0.043 A 
ATOM     12  N   UNL A   1      31.874  22.454  23.074  1.00  0.00    -0.248 NA
ATOM     13  C   UNL A   1      32.231  21.189  23.334  1.00  0.00     0.072 A 
ATOM     14  C   UNL A   1      32.803  20.797  24.557  1.00  0.00     0.013 A 
ATOM     15  C   UNL A   1      32.030  20.234  22.348  1.00  0.00     0.029 A 
ATOM     16  C   UNL A   1      32.902  19.413  24.819  1.00  0.00     0.014 A 
ATOM     17  C   UNL A   1      32.362  18.892  22.546  1.00  0.00     0.005 A 
ATOM     18  C   UNL A   1      32.783  18.466  23.800  1.00  0.00    -0.050 A 
ATOM     19  C   UNL A   1      33.257  17.060  24.019  1.00  0.00     0.044 C 
BRANCH  10  20
ATOM     20  C   UNL A   1      31.439  24.693  23.760  1.00  0.00     0.003 A 
ATOM     21  C   UNL A   1      29.501  28.518  23.108  1.00  0.00     0.044 C 
ATOM     22  C   UNL A   1      30.155  27.189  23.340  1.00  0.00    -0.051 A 
ATOM     23  C   UNL A   1      29.701  26.317  24.332  1.00  0.00     0.004 A 
ATOM     24  C   UNL A   1      31.249  26.810  22.557  1.00  0.00     0.007 A 
ATOM     25  C   UNL A   1      30.336  25.087  24.539  1.00  0.00     0.011 A 
ATOM     26  C   UNL A   1      31.890  25.571  22.745  1.00  0.00    -0.041 A 
ATOM     27  C   UNL A   1      33.069  25.262  21.856  1.00  0.00     0.045 C 
ENDBRANCH  10  20
ENDBRANCH   6   9
ENDBRANCH   4   5
ENDBRANCH   3   4
ENDBRANCH   2   3
ENDBRANCH   1   2
BRANCH   1  28
ATOM     28  C   UNL A   1      39.229  22.746  26.581  1.00  0.00     0.021 C 
BRANCH  28  29
ATOM     29  C   UNL A   1      40.626  23.202  26.989  1.00  0.00     0.116 C 
BRANCH  29  30
ATOM     30  N   UNL A   1      41.290  23.987  25.964  1.00  0.00    -0.352 N 
ATOM     31  C   UNL A   1      41.684  25.303  25.980  1.00  0.00     0.251 C 
ATOM     32  H   UNL A   1      41.488  23.502  25.130  1.00  0.00     0.163 HD
ATOM     33  O   UNL A   1      42.113  25.819  24.948  1.00  0.00    -0.269 OA
BRANCH  31  34
ATOM     34  C   UNL A   1      41.572  26.111  27.216  1.00  0.00     0.039 A 
ATOM     35  C   UNL A   1      42.554  27.069  27.483  1.00  0.00     0.014 A 
ATOM     36  C   UNL A   1      40.520  25.925  28.115  1.00  0.00     0.014 A 
ATOM     37  C   UNL A   1      42.441  27.889  28.609  1.00  0.00     0.010 A 
ATOM     38  C   UNL A   1      40.371  26.788  29.201  1.00  0.00     0.010 A 
ATOM     39  C   UNL A   1      41.325  27.785  29.456  1.00  0.00    -0.014 A 
BRANCH  39  40
ATOM     40  C   UNL A   1      41.129  28.722  30.595  1.00  0.00     0.031 A 
ATOM     41  C   UNL A   1      41.931  28.563  31.858  1.00  0.00     0.074 A 
ATOM     42  C   UNL A   1      40.182  29.679  30.513  1.00  0.00     0.049 A 
ATOM     43  N   UNL A   1      41.829  29.215  32.988  1.00  0.00    -0.248 NA
ATOM     44  C   UNL A   1      42.972  27.522  31.859  1.00  0.00     0.031 C 
ATOM     45  C   UNL A   1      39.314  29.914  29.356  1.00  0.00     0.029 A 
ATOM     46  N   UNL A   1      39.777  30.624  31.424  1.00  0.00    -0.354 N 
ATOM     47  C   UNL A   1      42.792  28.668  33.830  1.00  0.00     0.074 A 
ATOM     48  C   UNL A   1      43.425  27.590  33.102  1.00  0.00     0.031 C 
ATOM     49  C   UNL A   1      38.487  30.937  29.624  1.00  0.00     0.029 A 
ATOM     50  C   UNL A   1      38.729  31.402  30.986  1.00  0.00     0.049 A 
ATOM     51  H   UNL A   1      40.195  30.733  32.308  1.00  0.00     0.167 HD
ATOM     52  C   UNL A   1      43.136  29.049  35.084  1.00  0.00     0.037 A 
ATOM     53  C   UNL A   1      38.026  32.364  31.616  1.00  0.00     0.037 A 
ATOM     54  C   UNL A   1      42.506  30.128  35.802  1.00  0.00     0.049 A 
ATOM     55  C   UNL A   1      38.395  32.735  33.029  1.00  0.00     0.074 A 
ATOM     56  C   UNL A   1      42.799  30.604  37.069  1.00  0.00     0.029 A 
ATOM     57  N   UNL A   1      41.458  30.899  35.319  1.00  0.00    -0.354 N 
ATOM     58  N   UNL A   1      39.342  32.240  33.789  1.00  0.00    -0.248 NA
ATOM     59  C   UNL A   1      37.603  33.795  33.669  1.00  0.00     0.031 C 
ATOM     60  C   UNL A   1      41.900  31.632  37.370  1.00  0.00     0.029 A 
ATOM     61  C   UNL A   1      41.081  31.832  36.270  1.00  0.00     0.049 A 
ATOM     62  H   UNL A   1      41.044  30.797  34.431  1.00  0.00     0.167 HD
ATOM     63  C   UNL A   1      39.276  32.947  34.986  1.00  0.00     0.074 A 
ATOM     64  C   UNL A   1      38.209  33.915  34.842  1.00  0.00     0.031 C 
ATOM     65  C   UNL A   1      40.027  32.803  36.105  1.00  0.00     0.037 A 
BRANCH  52  66
ATOM     66  C   UNL A   1      44.258  28.309  35.760  1.00  0.00     0.058 A 
ATOM     67  C   UNL A   1      45.591  28.731  35.634  1.00  0.00     0.135 A 
ATOM     68  C   UNL A   1      43.998  27.209  36.594  1.00  0.00     0.135 A 
ATOM     69  F   UNL A   1      45.899  29.768  34.838  1.00  0.00    -0.206 F 
ATOM     70  C   UNL A   1      46.628  28.080  36.292  1.00  0.00     0.059 A 
ATOM     71  C   UNL A   1      45.017  26.560  37.287  1.00  0.00     0.059 A 
ATOM     72  F   UNL A   1      42.742  26.763  36.753  1.00  0.00    -0.206 F 
ATOM     73  C   UNL A   1      46.329  26.998  37.122  1.00  0.00     0.060 A 
BRANCH  73  74
ATOM     74  S   UNL A   1      47.687  26.181  37.987  1.00  0.00     0.124 S 
ATOM     75  O   UNL A   1      48.809  27.056  37.661  1.00  0.00    -0.237 OA
ATOM     76  O   UNL A   1      47.237  26.218  39.375  1.00  0.00    -0.237 OA
ATOM     77  O   UNL A   1      47.730  24.855  37.380  1.00  0.00    -0.744 OA
ENDBRANCH  73  74
ENDBRANCH  52  66
BRANCH  53  78
ATOM     78  C   UNL A   1      36.888  33.036  30.929  1.00  0.00     0.058 A 
ATOM     79  C   UNL A   1      35.558  32.747  31.272  1.00  0.00     0.135 A 
ATOM     80  C   UNL A   1      37.107  33.960  29.895  1.00  0.00     0.135 A 
ATOM     81  F   UNL A   1      35.294  31.867  32.251  1.00  0.00    -0.206 F 
ATOM     82  C   UNL A   1      34.488  33.321  30.593  1.00  0.00     0.059 A 
ATOM     83  C   UNL A   1      36.054  34.571  29.223  1.00  0.00     0.059 A 
ATOM     84  F   UNL A   1      38.359  34.288  29.538  1.00  0.00    -0.206 F 
ATOM     85  C   UNL A   1      34.746  34.229  29.565  1.00  0.00     0.060 A 
BRANCH  85  86
ATOM     86  S   UNL A   1      33.351  34.974  28.693  1.00  0.00     0.124 S 
ATOM     87  O   UNL A   1      32.434  35.250  29.793  1.00  0.00    -0.237 OA
ATOM     88  O   UNL A   1      33.968  36.138  28.066  1.00  0.00    -0.237 OA
ATOM     89  O   UNL A   1      32.934  33.922  27.771  1.00  0.00    -0.744 OA
ENDBRANCH  85  86
ENDBRANCH  53  78
BRANCH  65  90
ATOM     90  C   UNL A   1      39.752  33.733  37.256  1.00  0.00     0.058 A 
ATOM     91  C   UNL A   1      38.824  33.411  38.260  1.00  0.00     0.135 A 
ATOM     92  C   UNL A   1      40.475  34.929  37.391  1.00  0.00     0.135 A 
ATOM     93  F   UNL A   1      38.100  32.284  38.173  1.00  0.00    -0.206 F 
ATOM     94  C   UNL A   1      38.615  34.248  39.350  1.00  0.00     0.059 A 
ATOM     95  C   UNL A   1      40.304  35.767  38.489  1.00  0.00     0.059 A 
ATOM     96  F   UNL A   1      41.379  35.283  36.463  1.00  0.00    -0.206 F 
ATOM     97  C   UNL A   1      39.366  35.420  39.461  1.00  0.00     0.060 A 
BRANCH  97  98
ATOM     98  S   UNL A   1      39.123  36.466  40.913  1.00  0.00     0.124 S 
ATOM     99  O   UNL A   1      40.491  36.624  41.394  1.00  0.00    -0.237 OA
ATOM    100  O   UNL A   1      38.512  37.660  40.336  1.00  0.00    -0.237 OA
ATOM    101  O   UNL A   1      38.246  35.669  41.764  1.00  0.00    -0.744 OA
ENDBRANCH  97  98
ENDBRANCH  65  90
ENDBRANCH  39  40
ENDBRANCH  31  34
ENDBRANCH  29  30
ENDBRANCH  28  29
ENDBRANCH   1  28
TORSDOF 17
ENDMDL
MODEL 2
REMARK VINA RESULT:     -12.7      6.291     11.948
REMARK SMILES Cc1ccc(-c2cc(C(=O)NCCCCCCNC(=O)c3ccc(-c4c5nc(c(-c6c(F)cc(S(=O)(=O)[O-])cc6F)c6ccc([nH]6)c(-c6c(F)cc(S(=O)(=O)[O-])cc6F)c6nc(c(-c7c(F)cc(S(=O)(=O)[O-])cc7F)c7ccc4[nH]7)C=C6)C=C5)cc3)c3cc(C)ccc3n2)c(C)c1
REMARK SMILES IDX 15 1 14 2 13 3 12 4 11 5 9 6 10 7 8 9 6 10 7 11 94 12 93 13
REMARK SMILES IDX 87 14 92 15 88 16 91 17 89 18 90 19 5 20 1 21 2 22 3 23
REMARK SMILES IDX 97 24 4 25 95 26 96 27 16 28 17 29 18 30 19 31 20 33 21 34
REMARK SMILES IDX 22 35 86 36 23 37 85 38 24 39 25 40 26 41 79 42 27 43 84 44
REMARK SMILES IDX 78 45 80 46 28 47 83 48 77 49 76 50 29 52 63 53 42 54 62 55
REMARK SMILES IDX 43 56 46 57 61 58 81 59 44 60 45 61 60 63 82 64 47 65 30 66
REMARK SMILES IDX 31 67 40 68 32 69 33 70 39 71 41 72 34 73 35 74 36 75 37 76
REMARK SMILES IDX 38 77 64 78 65 79 74 80 66 81 67 82 73 83 75 84 68 85 69 86
REMARK SMILES IDX 70 87 71 88 72 89 48 90 49 91 58 92 50 93 51 94 57 95 59 96
REMARK SMILES IDX 52 97 53 98 54 99 55 100 56 101
REMARK H PARENT 11 8 18 32 80 51 46 62
REMARK Flexibility Score: inf
ROOT
ATOM      1  C   UNL A   1      34.490  31.668  28.040  1.00  0.00     0.002 C 
ENDROOT
BRANCH   1   2
ATOM      2  C   UNL A   1      34.691  30.224  27.565  1.00  0.00     0.002 C 
BRANCH   2   3
ATOM      3  C   UNL A   1      33.449  29.395  27.222  1.00  0.00     0.021 C 
BRANCH   3   4
ATOM      4  C   UNL A   1      32.666  29.805  25.984  1.00  0.00     0.116 C 
BRANCH   4   5
ATOM      5  N   UNL A   1      33.380  29.825  24.722  1.00  0.00    -0.352 N 
ATOM      6  C   UNL A   1      33.444  28.880  23.714  1.00  0.00     0.252 C 
ATOM      7  O   UNL A   1      34.057  29.182  22.687  1.00  0.00    -0.269 OA
ATOM      8  H   UNL A   1      33.903  30.642  24.557  1.00  0.00     0.163 HD
BRANCH   6   9
ATOM      9  C   UNL A   1      32.920  27.481  23.842  1.00  0.00     0.051 A 
ATOM     10  C   UNL A   1      33.470  25.220  24.431  1.00  0.00     0.072 A 
ATOM     11  C   UNL A   1      33.883  26.515  24.166  1.00  0.00     0.043 A 
ATOM     12  N   UNL A   1      32.164  24.890  24.523  1.00  0.00    -0.248 NA
ATOM     13  C   UNL A   1      31.240  25.798  24.185  1.00  0.00     0.072 A 
ATOM     14  C   UNL A   1      31.571  27.078  23.705  1.00  0.00     0.013 A 
ATOM     15  C   UNL A   1      29.902  25.457  24.322  1.00  0.00     0.029 A 
ATOM     16  C   UNL A   1      30.536  27.853  23.141  1.00  0.00     0.014 A 
ATOM     17  C   UNL A   1      28.879  26.342  23.978  1.00  0.00     0.005 A 
ATOM     18  C   UNL A   1      29.190  27.547  23.360  1.00  0.00    -0.050 A 
ATOM     19  C   UNL A   1      28.130  28.570  23.081  1.00  0.00     0.044 C 
BRANCH  10  20
ATOM     20  C   UNL A   1      34.410  24.096  24.558  1.00  0.00     0.003 A 
ATOM     21  C   UNL A   1      37.173  20.784  25.015  1.00  0.00     0.044 C 
ATOM     22  C   UNL A   1      36.231  21.940  24.863  1.00  0.00    -0.051 A 
ATOM     23  C   UNL A   1      36.360  23.093  25.642  1.00  0.00     0.004 A 
ATOM     24  C   UNL A   1      35.193  21.870  23.930  1.00  0.00     0.007 A 
ATOM     25  C   UNL A   1      35.461  24.154  25.492  1.00  0.00     0.011 A 
ATOM     26  C   UNL A   1      34.288  22.935  23.758  1.00  0.00    -0.041 A 
ATOM     27  C   UNL A   1      33.197  22.754  22.734  1.00  0.00     0.045 C 
ENDBRANCH  10  20
ENDBRANCH   6   9
ENDBRANCH   4   5
ENDBRANCH   3   4
ENDBRANCH   2   3
ENDBRANCH   1   2
BRANCH   1  28
ATOM     28  C   UNL A   1      35.668  32.637  27.905  1.00  0.00     0.021 C 
BRANCH  28  29
ATOM     29  C   UNL A   1      36.525  32.851  29.148  1.00  0.00     0.116 C 
BRANCH  29  30
ATOM     30  N   UNL A   1      36.045  32.113  30.303  1.00  0.00    -0.352 N 
ATOM     31  C   UNL A   1      36.559  30.990  30.905  1.00  0.00     0.251 C 
ATOM     32  H   UNL A   1      35.227  32.471  30.717  1.00  0.00     0.163 HD
ATOM     33  O   UNL A   1      35.919  30.436  31.800  1.00  0.00    -0.269 OA
BRANCH  31  34
ATOM     34  C   UNL A   1      37.857  30.425  30.471  1.00  0.00     0.039 A 
ATOM     35  C   UNL A   1      38.044  30.136  29.116  1.00  0.00     0.014 A 
ATOM     36  C   UNL A   1      38.882  30.167  31.384  1.00  0.00     0.014 A 
ATOM     37  C   UNL A   1      39.280  29.661  28.668  1.00  0.00     0.010 A 
ATOM     38  C   UNL A   1      40.135  29.758  30.928  1.00  0.00     0.010 A 
ATOM     39  C   UNL A   1      40.351  29.508  29.563  1.00  0.00    -0.014 A 
BRANCH  39  40
ATOM     40  C   UNL A   1      41.705  29.112  29.090  1.00  0.00     0.031 A 
ATOM     41  C   UNL A   1      42.799  30.138  28.967  1.00  0.00     0.074 A 
ATOM     42  C   UNL A   1      41.930  27.836  28.713  1.00  0.00     0.049 A 
ATOM     43  N   UNL A   1      44.006  30.003  28.479  1.00  0.00    -0.248 NA
ATOM     44  C   UNL A   1      42.490  31.499  29.434  1.00  0.00     0.031 C 
ATOM     45  C   UNL A   1      40.942  26.755  28.752  1.00  0.00     0.029 A 
ATOM     46  N   UNL A   1      43.055  27.234  28.206  1.00  0.00    -0.354 N 
ATOM     47  C   UNL A   1      44.600  31.256  28.585  1.00  0.00     0.074 A 
ATOM     48  C   UNL A   1      43.601  32.152  29.124  1.00  0.00     0.031 C 
ATOM     49  C   UNL A   1      41.505  25.625  28.296  1.00  0.00     0.029 A 
ATOM     50  C   UNL A   1      42.877  25.907  27.887  1.00  0.00     0.049 A 
ATOM     51  H   UNL A   1      43.909  27.708  28.079  1.00  0.00     0.167 HD
ATOM     52  C   UNL A   1      45.871  31.618  28.286  1.00  0.00     0.037 A 
ATOM     53  C   UNL A   1      43.714  25.021  27.311  1.00  0.00     0.037 A 
ATOM     54  C   UNL A   1      46.864  30.719  27.755  1.00  0.00     0.049 A 
ATOM     55  C   UNL A   1      45.106  25.463  26.941  1.00  0.00     0.074 A 
ATOM     56  C   UNL A   1      48.185  30.988  27.441  1.00  0.00     0.029 A 
ATOM     57  N   UNL A   1      46.648  29.381  27.459  1.00  0.00    -0.354 N 
ATOM     58  N   UNL A   1      45.665  26.639  27.096  1.00  0.00    -0.248 NA
ATOM     59  C   UNL A   1      45.982  24.459  26.321  1.00  0.00     0.031 C 
ATOM     60  C   UNL A   1      48.755  29.825  26.914  1.00  0.00     0.029 A 
ATOM     61  C   UNL A   1      47.804  28.817  26.949  1.00  0.00     0.049 A 
ATOM     62  H   UNL A   1      45.797  28.904  27.593  1.00  0.00     0.167 HD
ATOM     63  C   UNL A   1      46.965  26.508  26.618  1.00  0.00     0.074 A 
ATOM     64  C   UNL A   1      47.115  25.135  26.185  1.00  0.00     0.031 C 
ATOM     65  C   UNL A   1      47.944  27.442  26.538  1.00  0.00     0.037 A 
BRANCH  52  66
ATOM     66  C   UNL A   1      46.273  33.045  28.544  1.00  0.00     0.058 A 
ATOM     67  C   UNL A   1      46.117  34.037  27.561  1.00  0.00     0.135 A 
ATOM     68  C   UNL A   1      46.754  33.444  29.802  1.00  0.00     0.135 A 
ATOM     69  F   UNL A   1      45.674  33.709  26.336  1.00  0.00    -0.206 F 
ATOM     70  C   UNL A   1      46.443  35.365  27.807  1.00  0.00     0.059 A 
ATOM     71  C   UNL A   1      47.059  34.774  30.080  1.00  0.00     0.059 A 
ATOM     72  F   UNL A   1      46.922  32.539  30.779  1.00  0.00    -0.206 F 
ATOM     73  C   UNL A   1      46.908  35.725  29.073  1.00  0.00     0.060 A 
BRANCH  73  74
ATOM     74  S   UNL A   1      47.302  37.460  29.380  1.00  0.00     0.124 S 
ATOM     75  O   UNL A   1      47.445  37.972  28.020  1.00  0.00    -0.237 OA
ATOM     76  O   UNL A   1      46.125  37.921  30.111  1.00  0.00    -0.237 OA
ATOM     77  O   UNL A   1      48.535  37.398  30.159  1.00  0.00    -0.744 OA
ENDBRANCH  73  74
ENDBRANCH  52  66
BRANCH  53  78
ATOM     78  C   UNL A   1      43.258  23.632  27.024  1.00  0.00     0.058 A 
ATOM     79  C   UNL A   1      43.168  22.671  28.042  1.00  0.00     0.135 A 
ATOM     80  C   UNL A   1      42.932  23.231  25.718  1.00  0.00     0.135 A 
ATOM     81  F   UNL A   1      43.473  23.003  29.306  1.00  0.00    -0.206 F 
ATOM     82  C   UNL A   1      42.805  21.355  27.773  1.00  0.00     0.059 A 
ATOM     83  C   UNL A   1      42.536  21.929  25.429  1.00  0.00     0.059 A 
ATOM     84  F   UNL A   1      42.983  24.114  24.708  1.00  0.00    -0.206 F 
ATOM     85  C   UNL A   1      42.496  20.992  26.461  1.00  0.00     0.060 A 
BRANCH  85  86
ATOM     86  S   UNL A   1      42.020  19.283  26.122  1.00  0.00     0.124 S 
ATOM     87  O   UNL A   1      42.392  18.624  27.369  1.00  0.00    -0.237 OA
ATOM     88  O   UNL A   1      40.589  19.409  25.866  1.00  0.00    -0.237 OA
ATOM     89  O   UNL A   1      42.830  18.936  24.958  1.00  0.00    -0.744 OA
ENDBRANCH  85  86
ENDBRANCH  53  78
BRANCH  65  90
ATOM     90  C   UNL A   1      49.280  27.009  25.996  1.00  0.00     0.058 A 
ATOM     91  C   UNL A   1      49.573  27.070  24.624  1.00  0.00     0.135 A 
ATOM     92  C   UNL A   1      50.300  26.595  26.866  1.00  0.00     0.135 A 
ATOM     93  F   UNL A   1      48.630  27.450  23.748  1.00  0.00    -0.206 F 
ATOM     94  C   UNL A   1      50.828  26.723  24.134  1.00  0.00     0.059 A 
ATOM     95  C   UNL A   1      51.572  26.273  26.402  1.00  0.00     0.059 A 
ATOM     96  F   UNL A   1      50.075  26.526  28.189  1.00  0.00    -0.206 F 
ATOM     97  C   UNL A   1      51.823  26.333  25.032  1.00  0.00     0.060 A 
BRANCH  97  98
ATOM     98  S   UNL A   1      53.463  25.942  24.385  1.00  0.00     0.124 S 
ATOM     99  O   UNL A   1      53.542  24.506  24.628  1.00  0.00    -0.237 OA
ATOM    100  O   UNL A   1      53.348  26.344  22.986  1.00  0.00    -0.237 OA
ATOM    101  O   UNL A   1      54.355  26.766  25.197  1.00  0.00    -0.744 OA
ENDBRANCH  97  98
ENDBRANCH  65  90
ENDBRANCH  39  40
ENDBRANCH  31  34
ENDBRANCH  29  30
ENDBRANCH  28  29
ENDBRANCH   1  28
TORSDOF 17
ENDMDL
MODEL 3
REMARK VINA RESULT:     -12.6      2.739      9.020
REMARK SMILES Cc1ccc(-c2cc(C(=O)NCCCCCCNC(=O)c3ccc(-c4c5nc(c(-c6c(F)cc(S(=O)(=O)[O-])cc6F)c6ccc([nH]6)c(-c6c(F)cc(S(=O)(=O)[O-])cc6F)c6nc(c(-c7c(F)cc(S(=O)(=O)[O-])cc7F)c7ccc4[nH]7)C=C6)C=C5)cc3)c3cc(C)ccc3n2)c(C)c1
REMARK SMILES IDX 15 1 14 2 13 3 12 4 11 5 9 6 10 7 8 9 6 10 7 11 94 12 93 13
REMARK SMILES IDX 87 14 92 15 88 16 91 17 89 18 90 19 5 20 1 21 2 22 3 23
REMARK SMILES IDX 97 24 4 25 95 26 96 27 16 28 17 29 18 30 19 31 20 33 21 34
REMARK SMILES IDX 22 35 86 36 23 37 85 38 24 39 25 40 26 41 79 42 27 43 84 44
REMARK SMILES IDX 78 45 80 46 28 47 83 48 77 49 76 50 29 52 63 53 42 54 62 55
REMARK SMILES IDX 43 56 46 57 61 58 81 59 44 60 45 61 60 63 82 64 47 65 30 66
REMARK SMILES IDX 31 67 40 68 32 69 33 70 39 71 41 72 34 73 35 74 36 75 37 76
REMARK SMILES IDX 38 77 64 78 65 79 74 80 66 81 67 82 73 83 75 84 68 85 69 86
REMARK SMILES IDX 70 87 71 88 72 89 48 90 49 91 58 92 50 93 51 94 57 95 59 96
REMARK SMILES IDX 52 97 53 98 54 99 55 100 56 101
REMARK H PARENT 11 8 18 32 80 51 46 62
REMARK Flexibility Score: inf
ROOT
ATOM      1  C   UNL A   1      34.901  33.024  28.055  1.00  0.00     0.002 C 
ENDROOT
BRANCH   1   2
ATOM      2  C   UNL A   1      34.667  31.599  28.571  1.00  0.00     0.002 C 
BRANCH   2   3
ATOM      3  C   UNL A   1      35.361  30.442  27.846  1.00  0.00     0.021 C 
BRANCH   3   4
ATOM      4  C   UNL A   1      34.471  29.477  27.078  1.00  0.00     0.116 C 
BRANCH   4   5
ATOM      5  N   UNL A   1      33.207  29.112  27.685  1.00  0.00    -0.352 N 
ATOM      6  C   UNL A   1      32.311  28.109  27.359  1.00  0.00     0.252 C 
ATOM      7  O   UNL A   1      31.340  27.948  28.100  1.00  0.00    -0.269 OA
ATOM      8  H   UNL A   1      32.942  29.666  28.455  1.00  0.00     0.163 HD
BRANCH   6   9
ATOM      9  C   UNL A   1      32.389  27.294  26.102  1.00  0.00     0.051 A 
ATOM     10  C   UNL A   1      33.161  25.236  25.137  1.00  0.00     0.072 A 
ATOM     11  C   UNL A   1      33.141  26.115  26.207  1.00  0.00     0.043 A 
ATOM     12  N   UNL A   1      32.373  25.410  24.054  1.00  0.00    -0.248 NA
ATOM     13  C   UNL A   1      31.676  26.547  23.933  1.00  0.00     0.072 A 
ATOM     14  C   UNL A   1      31.754  27.589  24.874  1.00  0.00     0.013 A 
ATOM     15  C   UNL A   1      30.841  26.693  22.835  1.00  0.00     0.029 A 
ATOM     16  C   UNL A   1      31.184  28.832  24.522  1.00  0.00     0.014 A 
ATOM     17  C   UNL A   1      30.093  27.854  22.629  1.00  0.00     0.005 A 
ATOM     18  C   UNL A   1      30.277  28.948  23.466  1.00  0.00    -0.050 A 
ATOM     19  C   UNL A   1      29.411  30.166  23.347  1.00  0.00     0.044 C 
BRANCH  10  20
ATOM     20  C   UNL A   1      34.087  24.097  25.061  1.00  0.00     0.003 A 
ATOM     21  C   UNL A   1      36.883  20.789  24.838  1.00  0.00     0.044 C 
ATOM     22  C   UNL A   1      35.920  21.936  24.897  1.00  0.00    -0.051 A 
ATOM     23  C   UNL A   1      36.050  23.041  24.053  1.00  0.00     0.004 A 
ATOM     24  C   UNL A   1      34.870  21.911  25.819  1.00  0.00     0.007 A 
ATOM     25  C   UNL A   1      35.147  24.107  24.136  1.00  0.00     0.011 A 
ATOM     26  C   UNL A   1      33.946  22.969  25.905  1.00  0.00    -0.041 A 
ATOM     27  C   UNL A   1      32.857  22.852  26.942  1.00  0.00     0.045 C 
ENDBRANCH  10  20
ENDBRANCH   6   9
ENDBRANCH   4   5
ENDBRANCH   3   4
ENDBRANCH   2   3
ENDBRANCH   1   2
BRANCH   1  28
ATOM     28  C   UNL A   1      33.710  33.985  28.039  1.00  0.00     0.021 C 
BRANCH  28  29
ATOM     29  C   UNL A   1      33.941  35.373  28.626  1.00  0.00     0.116 C 
BRANCH  29  30
ATOM     30  N   UNL A   1      32.951  35.740  29.622  1.00  0.00    -0.352 N 
ATOM     31  C   UNL A   1      32.904  35.449  30.964  1.00  0.00     0.251 C 
ATOM     32  H   UNL A   1      32.198  36.279  29.286  1.00  0.00     0.163 HD
ATOM     33  O   UNL A   1      31.899  35.742  31.613  1.00  0.00    -0.269 OA
BRANCH  31  34
ATOM     34  C   UNL A   1      34.035  34.763  31.630  1.00  0.00     0.039 A 
ATOM     35  C   UNL A   1      33.929  33.395  31.895  1.00  0.00     0.014 A 
ATOM     36  C   UNL A   1      35.189  35.456  32.005  1.00  0.00     0.014 A 
ATOM     37  C   UNL A   1      35.005  32.709  32.465  1.00  0.00     0.010 A 
ATOM     38  C   UNL A   1      36.286  34.760  32.511  1.00  0.00     0.010 A 
ATOM     39  C   UNL A   1      36.210  33.376  32.739  1.00  0.00    -0.014 A 
BRANCH  39  40
ATOM     40  C   UNL A   1      37.404  32.644  33.241  1.00  0.00     0.031 A 
ATOM     41  C   UNL A   1      38.047  33.038  34.542  1.00  0.00     0.074 A 
ATOM     42  C   UNL A   1      37.944  31.661  32.490  1.00  0.00     0.049 A 
ATOM     43  N   UNL A   1      39.147  32.587  35.090  1.00  0.00    -0.248 NA
ATOM     44  C   UNL A   1      37.378  34.091  35.323  1.00  0.00     0.031 C 
ATOM     45  C   UNL A   1      37.435  31.209  31.193  1.00  0.00     0.029 A 
ATOM     46  N   UNL A   1      39.052  30.876  32.700  1.00  0.00    -0.354 N 
ATOM     47  C   UNL A   1      39.299  33.295  36.277  1.00  0.00     0.074 A 
ATOM     48  C   UNL A   1      38.213  34.249  36.340  1.00  0.00     0.031 C 
ATOM     49  C   UNL A   1      38.222  30.225  30.728  1.00  0.00     0.029 A 
ATOM     50  C   UNL A   1      39.318  30.007  31.666  1.00  0.00     0.049 A 
ATOM     51  H   UNL A   1      39.605  30.931  33.512  1.00  0.00     0.167 HD
ATOM     52  C   UNL A   1      40.240  33.144  37.239  1.00  0.00     0.037 A 
ATOM     53  C   UNL A   1      40.340  29.148  31.482  1.00  0.00     0.037 A 
ATOM     54  C   UNL A   1      41.316  32.187  37.174  1.00  0.00     0.049 A 
ATOM     55  C   UNL A   1      41.403  29.035  32.544  1.00  0.00     0.074 A 
ATOM     56  C   UNL A   1      42.307  31.943  38.110  1.00  0.00     0.029 A 
ATOM     57  N   UNL A   1      41.543  31.317  36.117  1.00  0.00    -0.354 N 
ATOM     58  N   UNL A   1      41.500  29.677  33.682  1.00  0.00    -0.248 NA
ATOM     59  C   UNL A   1      42.492  28.079  32.299  1.00  0.00     0.031 C 
ATOM     60  C   UNL A   1      43.158  30.958  37.599  1.00  0.00     0.029 A 
ATOM     61  C   UNL A   1      42.668  30.550  36.369  1.00  0.00     0.049 A 
ATOM     62  H   UNL A   1      40.985  31.255  35.308  1.00  0.00     0.167 HD
ATOM     63  C   UNL A   1      42.645  29.185  34.300  1.00  0.00     0.074 A 
ATOM     64  C   UNL A   1      43.196  28.178  33.418  1.00  0.00     0.031 C 
ATOM     65  C   UNL A   1      43.195  29.538  35.488  1.00  0.00     0.037 A 
BRANCH  52  66
ATOM     66  C   UNL A   1      40.144  34.018  38.459  1.00  0.00     0.058 A 
ATOM     67  C   UNL A   1      39.343  33.657  39.556  1.00  0.00     0.135 A 
ATOM     68  C   UNL A   1      40.905  35.193  38.568  1.00  0.00     0.135 A 
ATOM     69  F   UNL A   1      38.583  32.551  39.501  1.00  0.00    -0.206 F 
ATOM     70  C   UNL A   1      39.285  34.437  40.704  1.00  0.00     0.059 A 
ATOM     71  C   UNL A   1      40.886  35.974  39.721  1.00  0.00     0.059 A 
ATOM     72  F   UNL A   1      41.690  35.587  37.551  1.00  0.00    -0.206 F 
ATOM     73  C   UNL A   1      40.065  35.592  40.780  1.00  0.00     0.060 A 
BRANCH  73  74
ATOM     74  S   UNL A   1      39.994  36.577  42.290  1.00  0.00     0.124 S 
ATOM     75  O   UNL A   1      39.655  37.896  41.763  1.00  0.00    -0.237 OA
ATOM     76  O   UNL A   1      38.941  35.908  43.049  1.00  0.00    -0.237 OA
ATOM     77  O   UNL A   1      41.339  36.451  42.844  1.00  0.00    -0.744 OA
ENDBRANCH  73  74
ENDBRANCH  52  66
BRANCH  53  78
ATOM     78  C   UNL A   1      40.426  28.339  30.234  1.00  0.00     0.058 A 
ATOM     79  C   UNL A   1      39.616  27.210  30.040  1.00  0.00     0.135 A 
ATOM     80  C   UNL A   1      41.344  28.663  29.221  1.00  0.00     0.135 A 
ATOM     81  F   UNL A   1      38.727  26.854  30.981  1.00  0.00    -0.206 F 
ATOM     82  C   UNL A   1      39.735  26.411  28.908  1.00  0.00     0.059 A 
ATOM     83  C   UNL A   1      41.459  27.899  28.065  1.00  0.00     0.059 A 
ATOM     84  F   UNL A   1      42.131  29.743  29.345  1.00  0.00    -0.206 F 
ATOM     85  C   UNL A   1      40.664  26.762  27.926  1.00  0.00     0.060 A 
BRANCH  85  86
ATOM     86  S   UNL A   1      40.807  25.723  26.456  1.00  0.00     0.124 S 
ATOM     87  O   UNL A   1      39.464  25.162  26.363  1.00  0.00    -0.237 OA
ATOM     88  O   UNL A   1      41.168  26.695  25.429  1.00  0.00    -0.237 OA
ATOM     89  O   UNL A   1      41.862  24.780  26.815  1.00  0.00    -0.744 OA
ENDBRANCH  85  86
ENDBRANCH  53  78
BRANCH  65  90
ATOM     90  C   UNL A   1      44.437  28.811  35.927  1.00  0.00     0.058 A 
ATOM     91  C   UNL A   1      45.720  29.282  35.603  1.00  0.00     0.135 A 
ATOM     92  C   UNL A   1      44.343  27.669  36.739  1.00  0.00     0.135 A 
ATOM     93  F   UNL A   1      45.865  30.363  34.822  1.00  0.00    -0.206 F 
ATOM     94  C   UNL A   1      46.865  28.637  36.059  1.00  0.00     0.059 A 
ATOM     95  C   UNL A   1      45.476  27.027  37.231  1.00  0.00     0.059 A 
ATOM     96  F   UNL A   1      43.141  27.181  37.083  1.00  0.00    -0.206 F 
ATOM     97  C   UNL A   1      46.733  27.515  36.879  1.00  0.00     0.060 A 
BRANCH  97  98
ATOM     98  S   UNL A   1      48.230  26.727  37.510  1.00  0.00     0.124 S 
ATOM     99  O   UNL A   1      47.961  26.688  38.944  1.00  0.00    -0.237 OA
ATOM    100  O   UNL A   1      48.212  25.437  36.826  1.00  0.00    -0.237 OA
ATOM    101  O   UNL A   1      49.295  27.635  37.095  1.00  0.00    -0.744 OA
ENDBRANCH  97  98
ENDBRANCH  65  90
ENDBRANCH  39  40
ENDBRANCH  31  34
ENDBRANCH  29  30
ENDBRANCH  28  29
ENDBRANCH   1  28
TORSDOF 17
ENDMDL
