MODEL 1
REMARK VINA RESULT:     -10.2      0.000      0.000
REMARK SMILES O=C(NCCCCCCNC(=O)[C@H]1CSC2(CCCCC2)[NH2+]1)c1ccc(-c2c3nc(c(-c4c(F)cc(S(=O)(=O)[O-])cc4F)c4ccc([nH]4)c(-c4c(F)cc(S(=O)(=O)[O-])cc4F)c4nc(c(-c5c(F)cc(S(=O)(=O)[O-])cc5F)c5ccc2[nH]5)C=C4)C=C3)cc1
REMARK SMILES IDX 5 1 4 2 3 3 1 4 2 5 23 7 24 8 88 9 25 10 87 11 26 12 27 13
REMARK SMILES IDX 28 14 81 15 29 16 86 17 80 18 82 19 30 20 85 21 79 22 78 23
REMARK SMILES IDX 31 25 65 26 44 27 64 28 45 29 48 30 63 31 83 32 46 33 47 34
REMARK SMILES IDX 62 36 84 37 49 38 32 39 33 40 42 41 34 42 35 43 41 44 43 45
REMARK SMILES IDX 36 46 37 47 38 48 39 49 40 50 66 51 67 52 76 53 68 54 69 55
REMARK SMILES IDX 75 56 77 57 70 58 71 59 72 60 73 61 74 62 50 63 51 64 60 65
REMARK SMILES IDX 52 66 53 67 59 68 61 69 54 70 55 71 56 72 57 73 58 74 6 75
REMARK SMILES IDX 7 76 8 77 9 78 10 79 11 80 12 82 13 83 14 84 22 85 15 86
REMARK SMILES IDX 16 87 17 90 21 91 18 92 20 93 19 94
REMARK H PARENT 3 6 82 24 48 35 10 81 22 88 22 89
REMARK Flexibility Score: inf
ROOT
ATOM      1  C   UNL A   1      33.540  33.627  28.033  1.00  0.00     0.021 C 
ENDROOT
BRANCH   1   2
ATOM      2  C   UNL A   1      34.437  32.456  28.421  1.00  0.00     0.116 C 
BRANCH   2   3
ATOM      3  N   UNL A   1      33.857  31.167  28.083  1.00  0.00    -0.352 N 
ATOM      4  O   UNL A   1      33.802  29.003  27.471  1.00  0.00    -0.269 OA
ATOM      5  C   UNL A   1      34.460  29.945  27.905  1.00  0.00     0.251 C 
ATOM      6  H   UNL A   1      32.881  31.169  27.964  1.00  0.00     0.163 HD
BRANCH   5   7
ATOM      7  C   UNL A   1      35.899  29.764  28.208  1.00  0.00     0.039 A 
ATOM      8  C   UNL A   1      36.876  30.035  27.249  1.00  0.00     0.014 A 
ATOM      9  C   UNL A   1      36.276  29.337  29.485  1.00  0.00     0.014 A 
ATOM     10  C   UNL A   1      38.209  29.735  27.516  1.00  0.00     0.010 A 
ATOM     11  C   UNL A   1      37.625  29.115  29.779  1.00  0.00     0.010 A 
ATOM     12  C   UNL A   1      38.601  29.275  28.784  1.00  0.00    -0.014 A 
BRANCH  12  13
ATOM     13  C   UNL A   1      40.040  29.001  29.045  1.00  0.00     0.031 A 
ATOM     14  C   UNL A   1      40.664  27.688  28.655  1.00  0.00     0.074 A 
ATOM     15  C   UNL A   1      40.796  29.970  29.598  1.00  0.00     0.049 A 
ATOM     16  N   UNL A   1      41.914  27.311  28.752  1.00  0.00    -0.248 NA
ATOM     17  C   UNL A   1      39.773  26.661  28.093  1.00  0.00     0.031 C 
ATOM     18  C   UNL A   1      40.299  31.277  30.039  1.00  0.00     0.029 A 
ATOM     19  N   UNL A   1      42.140  30.022  29.863  1.00  0.00    -0.354 N 
ATOM     20  C   UNL A   1      41.957  26.000  28.288  1.00  0.00     0.074 A 
ATOM     21  C   UNL A   1      40.602  25.639  27.929  1.00  0.00     0.031 C 
ATOM     22  C   UNL A   1      41.331  32.020  30.463  1.00  0.00     0.029 A 
ATOM     23  C   UNL A   1      42.553  31.229  30.373  1.00  0.00     0.049 A 
ATOM     24  H   UNL A   1      42.751  29.267  29.702  1.00  0.00     0.167 HD
ATOM     25  C   UNL A   1      43.028  25.178  28.166  1.00  0.00     0.037 A 
ATOM     26  C   UNL A   1      43.780  31.656  30.730  1.00  0.00     0.037 A 
ATOM     27  C   UNL A   1      44.379  25.553  28.499  1.00  0.00     0.049 A 
ATOM     28  C   UNL A   1      44.951  30.732  30.568  1.00  0.00     0.074 A 
ATOM     29  C   UNL A   1      45.538  24.806  28.369  1.00  0.00     0.029 A 
ATOM     30  N   UNL A   1      44.755  26.780  29.028  1.00  0.00    -0.354 N 
ATOM     31  N   UNL A   1      44.976  29.509  30.094  1.00  0.00    -0.248 NA
ATOM     32  C   UNL A   1      46.262  31.244  30.989  1.00  0.00     0.031 C 
ATOM     33  C   UNL A   1      46.608  25.567  28.852  1.00  0.00     0.029 A 
ATOM     34  C   UNL A   1      46.124  26.805  29.245  1.00  0.00     0.049 A 
ATOM     35  H   UNL A   1      44.139  27.523  29.222  1.00  0.00     0.167 HD
ATOM     36  C   UNL A   1      46.306  29.112  30.142  1.00  0.00     0.074 A 
ATOM     37  C   UNL A   1      47.057  30.229  30.677  1.00  0.00     0.031 C 
ATOM     38  C   UNL A   1      46.856  27.927  29.776  1.00  0.00     0.037 A 
BRANCH  25  39
ATOM     39  C   UNL A   1      42.783  23.781  27.666  1.00  0.00     0.058 A 
ATOM     40  C   UNL A   1      42.561  22.707  28.544  1.00  0.00     0.135 A 
ATOM     41  C   UNL A   1      42.731  23.517  26.288  1.00  0.00     0.135 A 
ATOM     42  F   UNL A   1      42.612  22.898  29.872  1.00  0.00    -0.206 F 
ATOM     43  C   UNL A   1      42.326  21.419  28.074  1.00  0.00     0.059 A 
ATOM     44  C   UNL A   1      42.474  22.241  25.794  1.00  0.00     0.059 A 
ATOM     45  F   UNL A   1      42.934  24.508  25.403  1.00  0.00    -0.206 F 
ATOM     46  C   UNL A   1      42.289  21.195  26.696  1.00  0.00     0.060 A 
BRANCH  46  47
ATOM     47  S   UNL A   1      41.989  19.518  26.099  1.00  0.00     0.124 S 
ATOM     48  O   UNL A   1      42.373  18.723  27.263  1.00  0.00    -0.237 OA
ATOM     49  O   UNL A   1      40.563  19.541  25.794  1.00  0.00    -0.237 OA
ATOM     50  O   UNL A   1      42.873  19.405  24.943  1.00  0.00    -0.744 OA
ENDBRANCH  46  47
ENDBRANCH  25  39
BRANCH  26  51
ATOM     51  C   UNL A   1      43.956  33.035  31.256  1.00  0.00     0.058 A 
ATOM     52  C   UNL A   1      44.352  34.083  30.413  1.00  0.00     0.135 A 
ATOM     53  C   UNL A   1      43.702  33.337  32.602  1.00  0.00     0.135 A 
ATOM     54  F   UNL A   1      44.610  33.841  29.118  1.00  0.00    -0.206 F 
ATOM     55  C   UNL A   1      44.500  35.382  30.887  1.00  0.00     0.059 A 
ATOM     56  C   UNL A   1      43.818  34.632  33.094  1.00  0.00     0.059 A 
ATOM     57  F   UNL A   1      43.303  32.371  33.444  1.00  0.00    -0.206 F 
ATOM     58  C   UNL A   1      44.227  35.646  32.230  1.00  0.00     0.060 A 
BRANCH  58  59
ATOM     59  S   UNL A   1      44.363  37.346  32.827  1.00  0.00     0.124 S 
ATOM     60  O   UNL A   1      43.592  37.284  34.063  1.00  0.00    -0.237 OA
ATOM     61  O   UNL A   1      45.806  37.505  32.980  1.00  0.00    -0.237 OA
ATOM     62  O   UNL A   1      43.766  38.126  31.746  1.00  0.00    -0.744 OA
ENDBRANCH  58  59
ENDBRANCH  26  51
BRANCH  38  63
ATOM     63  C   UNL A   1      48.346  27.794  29.916  1.00  0.00     0.058 A 
ATOM     64  C   UNL A   1      48.939  27.376  31.117  1.00  0.00     0.135 A 
ATOM     65  C   UNL A   1      49.188  28.071  28.828  1.00  0.00     0.135 A 
ATOM     66  F   UNL A   1      48.177  27.107  32.189  1.00  0.00    -0.206 F 
ATOM     67  C   UNL A   1      50.319  27.266  31.245  1.00  0.00     0.059 A 
ATOM     68  C   UNL A   1      50.570  27.945  28.926  1.00  0.00     0.059 A 
ATOM     69  F   UNL A   1      48.669  28.466  27.654  1.00  0.00    -0.206 F 
ATOM     70  C   UNL A   1      51.127  27.557  30.143  1.00  0.00     0.060 A 
BRANCH  70  71
ATOM     71  S   UNL A   1      52.918  27.401  30.313  1.00  0.00     0.124 S 
ATOM     72  O   UNL A   1      53.372  27.780  28.978  1.00  0.00    -0.237 OA
ATOM     73  O   UNL A   1      53.219  28.353  31.378  1.00  0.00    -0.237 OA
ATOM     74  O   UNL A   1      53.102  25.997  30.665  1.00  0.00    -0.744 OA
ENDBRANCH  70  71
ENDBRANCH  38  63
ENDBRANCH  12  13
ENDBRANCH   5   7
ENDBRANCH   2   3
ENDBRANCH   1   2
BRANCH   1  75
ATOM     75  C   UNL A   1      34.037  35.013  28.452  1.00  0.00     0.002 C 
BRANCH  75  76
ATOM     76  C   UNL A   1      32.986  35.979  29.015  1.00  0.00     0.002 C 
BRANCH  76  77
ATOM     77  C   UNL A   1      33.371  36.730  30.290  1.00  0.00     0.021 C 
BRANCH  77  78
ATOM     78  C   UNL A   1      33.034  36.012  31.589  1.00  0.00     0.116 C 
BRANCH  78  79
ATOM     79  N   UNL A   1      33.266  34.588  31.580  1.00  0.00    -0.351 N 
ATOM     80  C   UNL A   1      34.278  33.853  32.121  1.00  0.00     0.279 C 
ATOM     81  H   UNL A   1      32.583  34.063  31.104  1.00  0.00     0.163 HD
ATOM     82  O   UNL A   1      34.083  32.630  32.166  1.00  0.00    -0.268 OA
BRANCH  80  83
ATOM     83  C   UNL A   1      35.621  34.430  32.643  1.00  0.00     0.283 C 
ATOM     84  C   UNL A   1      35.712  34.591  34.148  1.00  0.00     0.151 C 
ATOM     85  N   UNL A   1      36.834  33.820  32.056  1.00  0.00    -0.322 N 
ATOM     86  S   UNL A   1      36.912  33.373  34.706  1.00  0.00    -0.089 SA
ATOM     87  C   UNL A   1      37.648  33.098  33.043  1.00  0.00     0.143 C 
ATOM     88  H   UNL A   1      37.403  34.559  31.644  1.00  0.00     0.348 HD
ATOM     89  H   UNL A   1      36.528  33.141  31.358  1.00  0.00     0.348 HD
ATOM     90  C   UNL A   1      37.770  31.616  32.618  1.00  0.00     0.081 C 
ATOM     91  C   UNL A   1      39.089  33.660  33.090  1.00  0.00     0.081 C 
ATOM     92  C   UNL A   1      38.596  30.776  33.583  1.00  0.00     0.007 C 
ATOM     93  C   UNL A   1      40.014  32.852  34.021  1.00  0.00     0.007 C 
ATOM     94  C   UNL A   1      40.001  31.350  33.732  1.00  0.00     0.001 C 
ENDBRANCH  80  83
ENDBRANCH  78  79
ENDBRANCH  77  78
ENDBRANCH  76  77
ENDBRANCH  75  76
ENDBRANCH   1  75
TORSDOF 16
ENDMDL
MODEL 2
REMARK VINA RESULT:     -10.1      5.605     12.081
REMARK SMILES O=C(NCCCCCCNC(=O)[C@H]1CSC2(CCCCC2)[NH2+]1)c1ccc(-c2c3nc(c(-c4c(F)cc(S(=O)(=O)[O-])cc4F)c4ccc([nH]4)c(-c4c(F)cc(S(=O)(=O)[O-])cc4F)c4nc(c(-c5c(F)cc(S(=O)(=O)[O-])cc5F)c5ccc2[nH]5)C=C4)C=C3)cc1
REMARK SMILES IDX 5 1 4 2 3 3 1 4 2 5 23 7 24 8 88 9 25 10 87 11 26 12 27 13
REMARK SMILES IDX 28 14 81 15 29 16 86 17 80 18 82 19 30 20 85 21 79 22 78 23
REMARK SMILES IDX 31 25 65 26 44 27 64 28 45 29 48 30 63 31 83 32 46 33 47 34
REMARK SMILES IDX 62 36 84 37 49 38 32 39 33 40 42 41 34 42 35 43 41 44 43 45
REMARK SMILES IDX 36 46 37 47 38 48 39 49 40 50 66 51 67 52 76 53 68 54 69 55
REMARK SMILES IDX 75 56 77 57 70 58 71 59 72 60 73 61 74 62 50 63 51 64 60 65
REMARK SMILES IDX 52 66 53 67 59 68 61 69 54 70 55 71 56 72 57 73 58 74 6 75
REMARK SMILES IDX 7 76 8 77 9 78 10 79 11 80 12 82 13 83 14 84 22 85 15 86
REMARK SMILES IDX 16 87 17 90 21 91 18 92 20 93 19 94
REMARK H PARENT 3 6 82 24 48 35 10 81 22 88 22 89
REMARK Flexibility Score: inf
ROOT
ATOM      1  C   UNL A   1      40.647  22.165  27.696  1.00  0.00     0.021 C 
ENDROOT
BRANCH   1   2
ATOM      2  C   UNL A   1      41.842  23.112  27.635  1.00  0.00     0.116 C 
BRANCH   2   3
ATOM      3  N   UNL A   1      41.899  23.865  26.393  1.00  0.00    -0.352 N 
ATOM      4  O   UNL A   1      41.588  25.595  24.989  1.00  0.00    -0.269 OA
ATOM      5  C   UNL A   1      41.623  25.189  26.148  1.00  0.00     0.251 C 
ATOM      6  H   UNL A   1      42.180  23.346  25.605  1.00  0.00     0.163 HD
BRANCH   5   7
ATOM      7  C   UNL A   1      41.344  26.119  27.266  1.00  0.00     0.039 A 
ATOM      8  C   UNL A   1      42.157  27.230  27.499  1.00  0.00     0.014 A 
ATOM      9  C   UNL A   1      40.234  25.885  28.083  1.00  0.00     0.014 A 
ATOM     10  C   UNL A   1      41.949  28.014  28.630  1.00  0.00     0.010 A 
ATOM     11  C   UNL A   1      39.977  26.724  29.173  1.00  0.00     0.010 A 
ATOM     12  C   UNL A   1      40.856  27.774  29.479  1.00  0.00    -0.014 A 
BRANCH  12  13
ATOM     13  C   UNL A   1      40.643  28.656  30.657  1.00  0.00     0.031 A 
ATOM     14  C   UNL A   1      41.535  28.565  31.868  1.00  0.00     0.074 A 
ATOM     15  C   UNL A   1      39.663  29.579  30.611  1.00  0.00     0.049 A 
ATOM     16  N   UNL A   1      41.528  29.300  32.951  1.00  0.00    -0.248 NA
ATOM     17  C   UNL A   1      42.559  27.508  31.869  1.00  0.00     0.031 C 
ATOM     18  C   UNL A   1      38.720  29.749  29.500  1.00  0.00     0.029 A 
ATOM     19  N   UNL A   1      39.308  30.562  31.498  1.00  0.00    -0.354 N 
ATOM     20  C   UNL A   1      42.526  28.783  33.772  1.00  0.00     0.074 A 
ATOM     21  C   UNL A   1      43.104  27.657  33.069  1.00  0.00     0.031 C 
ATOM     22  C   UNL A   1      37.936  30.808  29.747  1.00  0.00     0.029 A 
ATOM     23  C   UNL A   1      38.283  31.362  31.051  1.00  0.00     0.049 A 
ATOM     24  H   UNL A   1      39.745  30.684  32.371  1.00  0.00     0.167 HD
ATOM     25  C   UNL A   1      42.926  29.213  34.993  1.00  0.00     0.037 A 
ATOM     26  C   UNL A   1      37.686  32.423  31.626  1.00  0.00     0.037 A 
ATOM     27  C   UNL A   1      42.365  30.352  35.675  1.00  0.00     0.049 A 
ATOM     28  C   UNL A   1      38.162  32.890  32.971  1.00  0.00     0.074 A 
ATOM     29  C   UNL A   1      42.733  30.893  36.896  1.00  0.00     0.029 A 
ATOM     30  N   UNL A   1      41.318  31.127  35.197  1.00  0.00    -0.354 N 
ATOM     31  N   UNL A   1      39.130  32.409  33.714  1.00  0.00    -0.248 NA
ATOM     32  C   UNL A   1      37.463  34.042  33.557  1.00  0.00     0.031 C 
ATOM     33  C   UNL A   1      41.885  31.972  37.172  1.00  0.00     0.029 A 
ATOM     34  C   UNL A   1      41.015  32.130  36.105  1.00  0.00     0.049 A 
ATOM     35  H   UNL A   1      40.856  30.984  34.340  1.00  0.00     0.167 HD
ATOM     36  C   UNL A   1      39.170  33.213  34.847  1.00  0.00     0.074 A 
ATOM     37  C   UNL A   1      38.139  34.217  34.685  1.00  0.00     0.031 C 
ATOM     38  C   UNL A   1      39.988  33.124  35.926  1.00  0.00     0.037 A 
BRANCH  25  39
ATOM     39  C   UNL A   1      44.015  28.438  35.684  1.00  0.00     0.058 A 
ATOM     40  C   UNL A   1      43.729  27.392  36.575  1.00  0.00     0.135 A 
ATOM     41  C   UNL A   1      45.365  28.722  35.422  1.00  0.00     0.135 A 
ATOM     42  F   UNL A   1      42.456  27.086  36.873  1.00  0.00    -0.206 F 
ATOM     43  C   UNL A   1      44.742  26.674  37.203  1.00  0.00     0.059 A 
ATOM     44  C   UNL A   1      46.395  28.002  36.021  1.00  0.00     0.059 A 
ATOM     45  F   UNL A   1      45.695  29.711  34.576  1.00  0.00    -0.206 F 
ATOM     46  C   UNL A   1      46.073  26.990  36.923  1.00  0.00     0.060 A 
BRANCH  46  47
ATOM     47  S   UNL A   1      47.377  26.054  37.750  1.00  0.00     0.124 S 
ATOM     48  O   UNL A   1      48.068  27.109  38.487  1.00  0.00    -0.237 OA
ATOM     49  O   UNL A   1      46.620  25.108  38.563  1.00  0.00    -0.237 OA
ATOM     50  O   UNL A   1      48.127  25.466  36.645  1.00  0.00    -0.744 OA
ENDBRANCH  46  47
ENDBRANCH  25  39
BRANCH  26  51
ATOM     51  C   UNL A   1      36.588  33.126  30.913  1.00  0.00     0.058 A 
ATOM     52  C   UNL A   1      35.259  33.015  31.346  1.00  0.00     0.135 A 
ATOM     53  C   UNL A   1      36.850  33.947  29.805  1.00  0.00     0.135 A 
ATOM     54  F   UNL A   1      34.960  32.239  32.399  1.00  0.00    -0.206 F 
ATOM     55  C   UNL A   1      34.225  33.684  30.700  1.00  0.00     0.059 A 
ATOM     56  C   UNL A   1      35.837  34.646  29.159  1.00  0.00     0.059 A 
ATOM     57  F   UNL A   1      38.108  34.100  29.364  1.00  0.00    -0.206 F 
ATOM     58  C   UNL A   1      34.525  34.500  29.608  1.00  0.00     0.060 A 
BRANCH  58  59
ATOM     59  S   UNL A   1      33.186  35.414  28.811  1.00  0.00     0.124 S 
ATOM     60  O   UNL A   1      33.929  36.368  27.996  1.00  0.00    -0.237 OA
ATOM     61  O   UNL A   1      32.485  34.361  28.083  1.00  0.00    -0.237 OA
ATOM     62  O   UNL A   1      32.452  35.980  29.939  1.00  0.00    -0.744 OA
ENDBRANCH  58  59
ENDBRANCH  26  51
BRANCH  38  63
ATOM     63  C   UNL A   1      39.816  34.163  36.999  1.00  0.00     0.058 A 
ATOM     64  C   UNL A   1      39.121  33.887  38.186  1.00  0.00     0.135 A 
ATOM     65  C   UNL A   1      40.372  35.442  36.843  1.00  0.00     0.135 A 
ATOM     66  F   UNL A   1      38.566  32.680  38.379  1.00  0.00    -0.206 F 
ATOM     67  C   UNL A   1      38.956  34.855  39.171  1.00  0.00     0.059 A 
ATOM     68  C   UNL A   1      40.238  36.419  37.824  1.00  0.00     0.059 A 
ATOM     69  F   UNL A   1      41.053  35.752  35.728  1.00  0.00    -0.206 F 
ATOM     70  C   UNL A   1      39.515  36.121  38.978  1.00  0.00     0.060 A 
BRANCH  70  71
ATOM     71  S   UNL A   1      39.306  37.369  40.265  1.00  0.00     0.124 S 
ATOM     72  O   UNL A   1      38.441  38.336  39.597  1.00  0.00    -0.237 OA
ATOM     73  O   UNL A   1      38.689  36.608  41.347  1.00  0.00    -0.237 OA
ATOM     74  O   UNL A   1      40.670  37.818  40.524  1.00  0.00    -0.744 OA
ENDBRANCH  70  71
ENDBRANCH  38  63
ENDBRANCH  12  13
ENDBRANCH   5   7
ENDBRANCH   2   3
ENDBRANCH   1   2
BRANCH   1  75
ATOM     75  C   UNL A   1      40.349  21.387  26.412  1.00  0.00     0.002 C 
BRANCH  75  76
ATOM     76  C   UNL A   1      38.961  21.595  25.790  1.00  0.00     0.002 C 
BRANCH  76  77
ATOM     77  C   UNL A   1      38.248  22.899  26.146  1.00  0.00     0.021 C 
BRANCH  77  78
ATOM     78  C   UNL A   1      36.743  22.896  25.915  1.00  0.00     0.116 C 
BRANCH  78  79
ATOM     79  N   UNL A   1      36.337  22.808  24.534  1.00  0.00    -0.351 N 
ATOM     80  C   UNL A   1      35.150  22.428  23.982  1.00  0.00     0.279 C 
ATOM     81  H   UNL A   1      37.030  23.065  23.884  1.00  0.00     0.163 HD
ATOM     82  O   UNL A   1      35.013  22.689  22.779  1.00  0.00    -0.268 OA
BRANCH  80  83
ATOM     83  C   UNL A   1      34.010  21.691  24.736  1.00  0.00     0.283 C 
ATOM     84  C   UNL A   1      32.694  21.605  23.989  1.00  0.00     0.151 C 
ATOM     85  N   UNL A   1      34.401  20.408  25.362  1.00  0.00    -0.322 N 
ATOM     86  S   UNL A   1      32.479  19.871  23.561  1.00  0.00    -0.089 SA
ATOM     87  C   UNL A   1      33.714  19.251  24.773  1.00  0.00     0.143 C 
ATOM     88  H   UNL A   1      34.176  20.450  26.356  1.00  0.00     0.348 HD
ATOM     89  H   UNL A   1      35.401  20.283  25.203  1.00  0.00     0.348 HD
ATOM     90  C   UNL A   1      34.765  18.274  24.196  1.00  0.00     0.081 C 
ATOM     91  C   UNL A   1      32.932  18.465  25.853  1.00  0.00     0.081 C 
ATOM     92  C   UNL A   1      34.152  17.035  23.556  1.00  0.00     0.007 C 
ATOM     93  C   UNL A   1      32.298  17.171  25.305  1.00  0.00     0.007 C 
ATOM     94  C   UNL A   1      33.293  16.277  24.562  1.00  0.00     0.001 C 
ENDBRANCH  80  83
ENDBRANCH  78  79
ENDBRANCH  77  78
ENDBRANCH  76  77
ENDBRANCH  75  76
ENDBRANCH   1  75
TORSDOF 16
ENDMDL
MODEL 3
REMARK VINA RESULT:     -10.0      5.381     11.283
REMARK SMILES O=C(NCCCCCCNC(=O)[C@H]1CSC2(CCCCC2)[NH2+]1)c1ccc(-c2c3nc(c(-c4c(F)cc(S(=O)(=O)[O-])cc4F)c4ccc([nH]4)c(-c4c(F)cc(S(=O)(=O)[O-])cc4F)c4nc(c(-c5c(F)cc(S(=O)(=O)[O-])cc5F)c5ccc2[nH]5)C=C4)C=C3)cc1
REMARK SMILES IDX 5 1 4 2 3 3 1 4 2 5 23 7 24 8 88 9 25 10 87 11 26 12 27 13
REMARK SMILES IDX 28 14 81 15 29 16 86 17 80 18 82 19 30 20 85 21 79 22 78 23
REMARK SMILES IDX 31 25 65 26 44 27 64 28 45 29 48 30 63 31 83 32 46 33 47 34
REMARK SMILES IDX 62 36 84 37 49 38 32 39 33 40 42 41 34 42 35 43 41 44 43 45
REMARK SMILES IDX 36 46 37 47 38 48 39 49 40 50 66 51 67 52 76 53 68 54 69 55
REMARK SMILES IDX 75 56 77 57 70 58 71 59 72 60 73 61 74 62 50 63 51 64 60 65
REMARK SMILES IDX 52 66 53 67 59 68 61 69 54 70 55 71 56 72 57 73 58 74 6 75
REMARK SMILES IDX 7 76 8 77 9 78 10 79 11 80 12 82 13 83 14 84 22 85 15 86
REMARK SMILES IDX 16 87 17 90 21 91 18 92 20 93 19 94
REMARK H PARENT 3 6 82 24 48 35 10 81 22 88 22 89
REMARK Flexibility Score: inf
ROOT
ATOM      1  C   UNL A   1      37.096  23.733  25.474  1.00  0.00     0.021 C 
ENDROOT
BRANCH   1   2
ATOM      2  C   UNL A   1      38.128  24.199  26.497  1.00  0.00     0.116 C 
BRANCH   2   3
ATOM      3  N   UNL A   1      39.481  24.211  25.964  1.00  0.00    -0.352 N 
ATOM      4  O   UNL A   1      41.587  24.935  25.641  1.00  0.00    -0.269 OA
ATOM      5  C   UNL A   1      40.566  24.974  26.325  1.00  0.00     0.251 C 
ATOM      6  H   UNL A   1      39.645  23.574  25.233  1.00  0.00     0.163 HD
BRANCH   5   7
ATOM      7  C   UNL A   1      40.504  25.858  27.511  1.00  0.00     0.039 A 
ATOM      8  C   UNL A   1      39.609  25.606  28.552  1.00  0.00     0.014 A 
ATOM      9  C   UNL A   1      41.376  26.949  27.591  1.00  0.00     0.014 A 
ATOM     10  C   UNL A   1      39.482  26.521  29.593  1.00  0.00     0.010 A 
ATOM     11  C   UNL A   1      41.303  27.824  28.680  1.00  0.00     0.010 A 
ATOM     12  C   UNL A   1      40.329  27.639  29.672  1.00  0.00    -0.014 A 
BRANCH  12  13
ATOM     13  C   UNL A   1      40.189  28.577  30.819  1.00  0.00     0.031 A 
ATOM     14  C   UNL A   1      41.106  28.489  32.010  1.00  0.00     0.074 A 
ATOM     15  C   UNL A   1      39.253  29.545  30.758  1.00  0.00     0.049 A 
ATOM     16  N   UNL A   1      41.163  29.265  33.063  1.00  0.00    -0.248 NA
ATOM     17  C   UNL A   1      42.078  27.384  32.030  1.00  0.00     0.031 C 
ATOM     18  C   UNL A   1      38.292  29.717  29.665  1.00  0.00     0.029 A 
ATOM     19  N   UNL A   1      38.970  30.578  31.613  1.00  0.00    -0.354 N 
ATOM     20  C   UNL A   1      42.155  28.733  33.879  1.00  0.00     0.074 A 
ATOM     21  C   UNL A   1      42.660  27.553  33.210  1.00  0.00     0.031 C 
ATOM     22  C   UNL A   1      37.566  30.822  29.887  1.00  0.00     0.029 A 
ATOM     23  C   UNL A   1      37.973  31.409  31.159  1.00  0.00     0.049 A 
ATOM     24  H   UNL A   1      39.435  30.712  32.470  1.00  0.00     0.167 HD
ATOM     25  C   UNL A   1      42.607  29.190  35.073  1.00  0.00     0.037 A 
ATOM     26  C   UNL A   1      37.444  32.520  31.705  1.00  0.00     0.037 A 
ATOM     27  C   UNL A   1      42.120  30.381  35.721  1.00  0.00     0.049 A 
ATOM     28  C   UNL A   1      37.976  33.015  33.018  1.00  0.00     0.074 A 
ATOM     29  C   UNL A   1      42.545  30.951  36.910  1.00  0.00     0.029 A 
ATOM     30  N   UNL A   1      41.099  31.187  35.238  1.00  0.00    -0.354 N 
ATOM     31  N   UNL A   1      38.939  32.517  33.756  1.00  0.00    -0.248 NA
ATOM     32  C   UNL A   1      37.349  34.222  33.573  1.00  0.00     0.031 C 
ATOM     33  C   UNL A   1      41.758  32.080  37.162  1.00  0.00     0.029 A 
ATOM     34  C   UNL A   1      40.869  32.239  36.111  1.00  0.00     0.049 A 
ATOM     35  H   UNL A   1      40.609  31.033  34.398  1.00  0.00     0.167 HD
ATOM     36  C   UNL A   1      39.047  33.361  34.855  1.00  0.00     0.074 A 
ATOM     37  C   UNL A   1      38.061  34.408  34.677  1.00  0.00     0.031 C 
ATOM     38  C   UNL A   1      39.886  33.275  35.916  1.00  0.00     0.037 A 
BRANCH  25  39
ATOM     39  C   UNL A   1      43.675  28.390  35.768  1.00  0.00     0.058 A 
ATOM     40  C   UNL A   1      43.361  27.360  36.670  1.00  0.00     0.135 A 
ATOM     41  C   UNL A   1      45.032  28.632  35.501  1.00  0.00     0.135 A 
ATOM     42  F   UNL A   1      42.081  27.094  36.973  1.00  0.00    -0.206 F 
ATOM     43  C   UNL A   1      44.354  26.619  37.302  1.00  0.00     0.059 A 
ATOM     44  C   UNL A   1      46.042  27.888  36.104  1.00  0.00     0.059 A 
ATOM     45  F   UNL A   1      45.389  29.604  34.645  1.00  0.00    -0.206 F 
ATOM     46  C   UNL A   1      45.693  26.894  37.016  1.00  0.00     0.060 A 
BRANCH  46  47
ATOM     47  S   UNL A   1      46.972  25.928  37.848  1.00  0.00     0.124 S 
ATOM     48  O   UNL A   1      48.022  26.928  38.023  1.00  0.00    -0.237 OA
ATOM     49  O   UNL A   1      46.299  25.500  39.070  1.00  0.00    -0.237 OA
ATOM     50  O   UNL A   1      47.270  24.864  36.895  1.00  0.00    -0.744 OA
ENDBRANCH  46  47
ENDBRANCH  25  39
BRANCH  26  51
ATOM     51  C   UNL A   1      36.363  33.248  30.990  1.00  0.00     0.058 A 
ATOM     52  C   UNL A   1      35.042  33.221  31.460  1.00  0.00     0.135 A 
ATOM     53  C   UNL A   1      36.635  34.009  29.843  1.00  0.00     0.135 A 
ATOM     54  F   UNL A   1      34.733  32.503  32.551  1.00  0.00    -0.206 F 
ATOM     55  C   UNL A   1      34.024  33.914  30.812  1.00  0.00     0.059 A 
ATOM     56  C   UNL A   1      35.640  34.732  29.193  1.00  0.00     0.059 A 
ATOM     57  F   UNL A   1      37.887  34.081  29.365  1.00  0.00    -0.206 F 
ATOM     58  C   UNL A   1      34.336  34.670  29.681  1.00  0.00     0.060 A 
BRANCH  58  59
ATOM     59  S   UNL A   1      33.022  35.617  28.879  1.00  0.00     0.124 S 
ATOM     60  O   UNL A   1      33.785  36.662  28.207  1.00  0.00    -0.237 OA
ATOM     61  O   UNL A   1      32.407  34.617  28.011  1.00  0.00    -0.237 OA
ATOM     62  O   UNL A   1      32.197  36.055  30.001  1.00  0.00    -0.744 OA
ENDBRANCH  58  59
ENDBRANCH  26  51
BRANCH  38  63
ATOM     63  C   UNL A   1      39.793  34.362  36.950  1.00  0.00     0.058 A 
ATOM     64  C   UNL A   1      38.988  34.225  38.091  1.00  0.00     0.135 A 
ATOM     65  C   UNL A   1      40.534  35.545  36.804  1.00  0.00     0.135 A 
ATOM     66  F   UNL A   1      38.255  33.116  38.273  1.00  0.00    -0.206 F 
ATOM     67  C   UNL A   1      38.897  35.239  39.040  1.00  0.00     0.059 A 
ATOM     68  C   UNL A   1      40.475  36.562  37.751  1.00  0.00     0.059 A 
ATOM     69  F   UNL A   1      41.326  35.719  35.734  1.00  0.00    -0.206 F 
ATOM     70  C   UNL A   1      39.642  36.407  38.857  1.00  0.00     0.060 A 
BRANCH  70  71
ATOM     71  S   UNL A   1      39.527  37.713  40.098  1.00  0.00     0.124 S 
ATOM     72  O   UNL A   1      39.240  36.945  41.306  1.00  0.00    -0.237 OA
ATOM     73  O   UNL A   1      40.851  38.326  40.036  1.00  0.00    -0.237 OA
ATOM     74  O   UNL A   1      38.434  38.547  39.608  1.00  0.00    -0.744 OA
ENDBRANCH  70  71
ENDBRANCH  38  63
ENDBRANCH  12  13
ENDBRANCH   5   7
ENDBRANCH   2   3
ENDBRANCH   1   2
BRANCH   1  75
ATOM     75  C   UNL A   1      35.648  24.136  25.762  1.00  0.00     0.002 C 
BRANCH  75  76
ATOM     76  C   UNL A   1      34.600  23.722  24.719  1.00  0.00     0.002 C 
BRANCH  76  77
ATOM     77  C   UNL A   1      33.570  24.784  24.336  1.00  0.00     0.021 C 
BRANCH  77  78
ATOM     78  C   UNL A   1      34.039  26.224  24.491  1.00  0.00     0.116 C 
BRANCH  78  79
ATOM     79  N   UNL A   1      33.188  27.061  25.301  1.00  0.00    -0.351 N 
ATOM     80  C   UNL A   1      32.010  27.676  25.004  1.00  0.00     0.279 C 
ATOM     81  H   UNL A   1      33.513  27.212  26.218  1.00  0.00     0.163 HD
ATOM     82  O   UNL A   1      31.383  28.126  25.973  1.00  0.00    -0.268 OA
BRANCH  80  83
ATOM     83  C   UNL A   1      31.436  27.864  23.573  1.00  0.00     0.283 C 
ATOM     84  C   UNL A   1      30.238  26.996  23.240  1.00  0.00     0.151 C 
ATOM     85  N   UNL A   1      31.262  29.270  23.148  1.00  0.00    -0.322 N 
ATOM     86  S   UNL A   1      28.835  28.113  23.110  1.00  0.00    -0.089 SA
ATOM     87  C   UNL A   1      29.856  29.632  22.926  1.00  0.00     0.143 C 
ATOM     88  H   UNL A   1      31.776  29.413  22.279  1.00  0.00     0.348 HD
ATOM     89  H   UNL A   1      31.614  29.863  23.900  1.00  0.00     0.348 HD
ATOM     90  C   UNL A   1      29.474  30.796  23.871  1.00  0.00     0.081 C 
ATOM     91  C   UNL A   1      29.639  30.150  21.484  1.00  0.00     0.081 C 
ATOM     92  C   UNL A   1      28.027  31.247  23.720  1.00  0.00     0.007 C 
ATOM     93  C   UNL A   1      28.204  30.660  21.243  1.00  0.00     0.007 C 
ATOM     94  C   UNL A   1      27.742  31.679  22.286  1.00  0.00     0.001 C 
ENDBRANCH  80  83
ENDBRANCH  78  79
ENDBRANCH  77  78
ENDBRANCH  76  77
ENDBRANCH  75  76
ENDBRANCH   1  75
TORSDOF 16
ENDMDL
