MODEL 1
REMARK VINA RESULT:     -11.8      0.000      0.000
REMARK SMILES CC(C)(C)c1cc2c(cc1Cl)C=C(C(=O)NCCCCCCNC(=O)c1ccc(-c3c4nc(c(-c5c(F)cc(S(=O)(=O)[O-])cc5F)c5ccc([nH]5)c(-c5c(F)cc(S(=O)(=O)[O-])cc5F)c5nc(c(-c6c(F)cc(S(=O)(=O)[O-])cc6F)c6ccc3[nH]6)C=C5)C=C4)cc1)[C@@H](C(F)(F)F)O2
REMARK SMILES IDX 20 1 19 2 18 3 17 4 16 5 14 6 15 7 13 9 5 10 6 11 10 12 7 13
REMARK SMILES IDX 9 14 11 15 8 16 97 17 12 18 92 19 2 20 1 21 3 22 4 23 93 24
REMARK SMILES IDX 94 25 95 26 96 27 21 28 22 29 23 30 24 31 25 33 26 34 27 35
REMARK SMILES IDX 91 36 28 37 90 38 29 39 30 40 31 41 84 42 32 43 89 44 83 45
REMARK SMILES IDX 85 46 33 47 88 48 82 49 81 50 34 52 68 53 47 54 67 55 48 56
REMARK SMILES IDX 51 57 66 58 86 59 49 60 50 61 65 63 87 64 52 65 35 66 36 67
REMARK SMILES IDX 45 68 37 69 38 70 44 71 46 72 39 73 40 74 41 75 42 76 43 77
REMARK SMILES IDX 69 78 70 79 79 80 71 81 72 82 78 83 80 84 73 85 74 86 75 87
REMARK SMILES IDX 76 88 77 89 53 90 54 91 63 92 55 93 56 94 62 95 64 96 57 97
REMARK SMILES IDX 58 98 59 99 60 100 61 101
REMARK H PARENT 16 8 23 32 85 51 51 62
REMARK Flexibility Score: inf
ROOT
ATOM      1  C   UNL A   1      33.095  29.007  24.699  1.00  0.00     0.002 C 
ENDROOT
BRANCH   1   2
ATOM      2  C   UNL A   1      34.127  28.579  23.647  1.00  0.00     0.002 C 
BRANCH   2   3
ATOM      3  C   UNL A   1      33.554  27.954  22.371  1.00  0.00     0.021 C 
BRANCH   3   4
ATOM      4  C   UNL A   1      33.245  26.464  22.485  1.00  0.00     0.116 C 
BRANCH   4   5
ATOM      5  N   UNL A   1      31.909  26.225  23.005  1.00  0.00    -0.352 N 
ATOM      6  C   UNL A   1      31.253  25.229  23.644  1.00  0.00     0.251 C 
ATOM      7  O   UNL A   1      30.078  25.480  23.935  1.00  0.00    -0.270 OA
ATOM      8  H   UNL A   1      31.321  26.999  22.850  1.00  0.00     0.163 HD
BRANCH   6   9
ATOM      9  C   UNL A   1      31.830  23.900  24.006  1.00  0.00     0.067 C 
ATOM     10  C   UNL A   1      33.380  19.042  23.913  1.00  0.00    -0.020 A 
ATOM     11  C   UNL A   1      33.604  20.173  24.731  1.00  0.00     0.053 A 
ATOM     12  C   UNL A   1      32.496  19.242  22.826  1.00  0.00     0.045 A 
ATOM     13  C   UNL A   1      33.033  21.417  24.465  1.00  0.00     0.128 A 
ATOM     14  C   UNL A   1      31.951  20.511  22.543  1.00  0.00     0.032 A 
ATOM     15  Cl  UNL A   1      31.945  17.984  21.774  1.00  0.00    -0.084 Cl
ATOM     16  C   UNL A   1      32.223  21.606  23.359  1.00  0.00     0.019 A 
ATOM     17  O   UNL A   1      33.352  22.422  25.327  1.00  0.00    -0.475 OA
ATOM     18  C   UNL A   1      31.703  22.936  23.071  1.00  0.00     0.025 C 
ATOM     19  C   UNL A   1      32.479  23.583  25.325  1.00  0.00     0.314 C 
BRANCH  10  20
ATOM     20  C   UNL A   1      34.054  17.704  24.305  1.00  0.00    -0.012 C 
ATOM     21  C   UNL A   1      33.230  17.063  25.439  1.00  0.00     0.016 C 
ATOM     22  C   UNL A   1      35.505  17.900  24.837  1.00  0.00     0.016 C 
ATOM     23  C   UNL A   1      34.200  16.697  23.142  1.00  0.00     0.016 C 
ENDBRANCH  10  20
BRANCH  19  24
ATOM     24  C   UNL A   1      31.455  23.450  26.467  1.00  0.00     0.429 C 
ATOM     25  F   UNL A   1      31.047  24.670  26.889  1.00  0.00    -0.167 F 
ATOM     26  F   UNL A   1      30.340  22.783  26.085  1.00  0.00    -0.167 F 
ATOM     27  F   UNL A   1      31.959  22.794  27.538  1.00  0.00    -0.167 F 
ENDBRANCH  19  24
ENDBRANCH   6   9
ENDBRANCH   4   5
ENDBRANCH   3   4
ENDBRANCH   2   3
ENDBRANCH   1   2
BRANCH   1  28
ATOM     28  C   UNL A   1      32.905  28.048  25.877  1.00  0.00     0.021 C 
BRANCH  28  29
ATOM     29  C   UNL A   1      33.738  28.364  27.112  1.00  0.00     0.116 C 
BRANCH  29  30
ATOM     30  N   UNL A   1      33.613  29.749  27.535  1.00  0.00    -0.352 N 
ATOM     31  C   UNL A   1      34.539  30.543  28.170  1.00  0.00     0.251 C 
ATOM     32  H   UNL A   1      32.748  30.176  27.342  1.00  0.00     0.163 HD
ATOM     33  O   UNL A   1      34.219  31.654  28.583  1.00  0.00    -0.269 OA
BRANCH  31  34
ATOM     34  C   UNL A   1      35.911  30.035  28.383  1.00  0.00     0.039 A 
ATOM     35  C   UNL A   1      36.311  29.573  29.640  1.00  0.00     0.014 A 
ATOM     36  C   UNL A   1      36.817  30.049  27.319  1.00  0.00     0.014 A 
ATOM     37  C   UNL A   1      37.650  29.270  29.868  1.00  0.00     0.010 A 
ATOM     38  C   UNL A   1      38.146  29.674  27.533  1.00  0.00     0.010 A 
ATOM     39  C   UNL A   1      38.583  29.324  28.820  1.00  0.00    -0.014 A 
BRANCH  39  40
ATOM     40  C   UNL A   1      40.012  29.018  29.098  1.00  0.00     0.031 A 
ATOM     41  C   UNL A   1      40.598  27.682  28.728  1.00  0.00     0.074 A 
ATOM     42  C   UNL A   1      40.796  29.975  29.631  1.00  0.00     0.049 A 
ATOM     43  N   UNL A   1      41.825  27.253  28.874  1.00  0.00    -0.248 NA
ATOM     44  C   UNL A   1      39.691  26.699  28.113  1.00  0.00     0.031 C 
ATOM     45  C   UNL A   1      40.343  31.313  30.020  1.00  0.00     0.029 A 
ATOM     46  N   UNL A   1      42.138  29.984  29.912  1.00  0.00    -0.354 N 
ATOM     47  C   UNL A   1      41.837  25.950  28.389  1.00  0.00     0.074 A 
ATOM     48  C   UNL A   1      40.487  25.648  27.965  1.00  0.00     0.031 C 
ATOM     49  C   UNL A   1      41.398  32.030  30.436  1.00  0.00     0.029 A 
ATOM     50  C   UNL A   1      42.590  31.188  30.398  1.00  0.00     0.049 A 
ATOM     51  H   UNL A   1      42.722  29.203  29.779  1.00  0.00     0.167 HD
ATOM     52  C   UNL A   1      42.880  25.090  28.293  1.00  0.00     0.037 A 
ATOM     53  C   UNL A   1      43.823  31.572  30.778  1.00  0.00     0.037 A 
ATOM     54  C   UNL A   1      44.227  25.404  28.695  1.00  0.00     0.049 A 
ATOM     55  C   UNL A   1      44.954  30.590  30.694  1.00  0.00     0.074 A 
ATOM     56  C   UNL A   1      45.354  24.603  28.626  1.00  0.00     0.029 A 
ATOM     57  N   UNL A   1      44.632  26.615  29.238  1.00  0.00    -0.354 N 
ATOM     58  N   UNL A   1      44.943  29.359  30.241  1.00  0.00    -0.248 NA
ATOM     59  C   UNL A   1      46.263  31.041  31.185  1.00  0.00     0.031 C 
ATOM     60  C   UNL A   1      46.433  25.319  29.156  1.00  0.00     0.029 A 
ATOM     61  C   UNL A   1      45.987  26.578  29.522  1.00  0.00     0.049 A 
ATOM     62  H   UNL A   1      44.042  27.387  29.398  1.00  0.00     0.167 HD
ATOM     63  C   UNL A   1      46.241  28.888  30.391  1.00  0.00     0.074 A 
ATOM     64  C   UNL A   1      47.017  29.973  30.956  1.00  0.00     0.031 C 
ATOM     65  C   UNL A   1      46.742  27.665  30.093  1.00  0.00     0.037 A 
BRANCH  52  66
ATOM     66  C   UNL A   1      42.608  23.722  27.735  1.00  0.00     0.058 A 
ATOM     67  C   UNL A   1      42.547  23.491  26.352  1.00  0.00     0.135 A 
ATOM     68  C   UNL A   1      42.457  22.618  28.591  1.00  0.00     0.135 A 
ATOM     69  F   UNL A   1      42.668  24.512  25.490  1.00  0.00    -0.206 F 
ATOM     70  C   UNL A   1      42.325  22.217  25.837  1.00  0.00     0.059 A 
ATOM     71  C   UNL A   1      42.256  21.333  28.098  1.00  0.00     0.059 A 
ATOM     72  F   UNL A   1      42.507  22.785  29.922  1.00  0.00    -0.206 F 
ATOM     73  C   UNL A   1      42.180  21.144  26.719  1.00  0.00     0.060 A 
BRANCH  73  74
ATOM     74  S   UNL A   1      41.899  19.497  26.032  1.00  0.00     0.124 S 
ATOM     75  O   UNL A   1      42.783  19.512  24.872  1.00  0.00    -0.237 OA
ATOM     76  O   UNL A   1      42.308  18.627  27.130  1.00  0.00    -0.237 OA
ATOM     77  O   UNL A   1      40.470  19.493  25.733  1.00  0.00    -0.744 OA
ENDBRANCH  73  74
ENDBRANCH  52  66
BRANCH  53  78
ATOM     78  C   UNL A   1      44.040  32.958  31.267  1.00  0.00     0.058 A 
ATOM     79  C   UNL A   1      44.485  33.964  30.398  1.00  0.00     0.135 A 
ATOM     80  C   UNL A   1      43.759  33.313  32.595  1.00  0.00     0.135 A 
ATOM     81  F   UNL A   1      44.773  33.671  29.121  1.00  0.00    -0.206 F 
ATOM     82  C   UNL A   1      44.639  35.278  30.828  1.00  0.00     0.059 A 
ATOM     83  C   UNL A   1      43.884  34.623  33.042  1.00  0.00     0.059 A 
ATOM     84  F   UNL A   1      43.318  32.385  33.459  1.00  0.00    -0.206 F 
ATOM     85  C   UNL A   1      44.329  35.600  32.151  1.00  0.00     0.060 A 
BRANCH  85  86
ATOM     86  S   UNL A   1      44.454  37.322  32.677  1.00  0.00     0.124 S 
ATOM     87  O   UNL A   1      43.903  38.023  31.524  1.00  0.00    -0.237 OA
ATOM     88  O   UNL A   1      43.633  37.334  33.885  1.00  0.00    -0.237 OA
ATOM     89  O   UNL A   1      45.885  37.501  32.903  1.00  0.00    -0.744 OA
ENDBRANCH  85  86
ENDBRANCH  53  78
BRANCH  65  90
ATOM     90  C   UNL A   1      48.199  27.431  30.372  1.00  0.00     0.058 A 
ATOM     91  C   UNL A   1      48.639  27.001  31.632  1.00  0.00     0.135 A 
ATOM     92  C   UNL A   1      49.155  27.579  29.355  1.00  0.00     0.135 A 
ATOM     93  F   UNL A   1      47.764  26.852  32.640  1.00  0.00    -0.206 F 
ATOM     94  C   UNL A   1      49.981  26.738  31.880  1.00  0.00     0.059 A 
ATOM     95  C   UNL A   1      50.501  27.301  29.574  1.00  0.00     0.059 A 
ATOM     96  F   UNL A   1      48.782  27.982  28.130  1.00  0.00    -0.206 F 
ATOM     97  C   UNL A   1      50.905  26.888  30.843  1.00  0.00     0.060 A 
BRANCH  97  98
ATOM     98  S   UNL A   1      52.638  26.501  31.166  1.00  0.00     0.124 S 
ATOM     99  O   UNL A   1      52.549  25.120  31.630  1.00  0.00    -0.237 OA
ATOM    100  O   UNL A   1      53.251  26.691  29.855  1.00  0.00    -0.237 OA
ATOM    101  O   UNL A   1      53.023  27.479  32.178  1.00  0.00    -0.744 OA
ENDBRANCH  97  98
ENDBRANCH  65  90
ENDBRANCH  39  40
ENDBRANCH  31  34
ENDBRANCH  29  30
ENDBRANCH  28  29
ENDBRANCH   1  28
TORSDOF 18
ENDMDL
MODEL 2
REMARK VINA RESULT:     -11.5      3.327      4.234
REMARK SMILES CC(C)(C)c1cc2c(cc1Cl)C=C(C(=O)NCCCCCCNC(=O)c1ccc(-c3c4nc(c(-c5c(F)cc(S(=O)(=O)[O-])cc5F)c5ccc([nH]5)c(-c5c(F)cc(S(=O)(=O)[O-])cc5F)c5nc(c(-c6c(F)cc(S(=O)(=O)[O-])cc6F)c6ccc3[nH]6)C=C5)C=C4)cc1)[C@@H](C(F)(F)F)O2
REMARK SMILES IDX 20 1 19 2 18 3 17 4 16 5 14 6 15 7 13 9 5 10 6 11 10 12 7 13
REMARK SMILES IDX 9 14 11 15 8 16 97 17 12 18 92 19 2 20 1 21 3 22 4 23 93 24
REMARK SMILES IDX 94 25 95 26 96 27 21 28 22 29 23 30 24 31 25 33 26 34 27 35
REMARK SMILES IDX 91 36 28 37 90 38 29 39 30 40 31 41 84 42 32 43 89 44 83 45
REMARK SMILES IDX 85 46 33 47 88 48 82 49 81 50 34 52 68 53 47 54 67 55 48 56
REMARK SMILES IDX 51 57 66 58 86 59 49 60 50 61 65 63 87 64 52 65 35 66 36 67
REMARK SMILES IDX 45 68 37 69 38 70 44 71 46 72 39 73 40 74 41 75 42 76 43 77
REMARK SMILES IDX 69 78 70 79 79 80 71 81 72 82 78 83 80 84 73 85 74 86 75 87
REMARK SMILES IDX 76 88 77 89 53 90 54 91 63 92 55 93 56 94 62 95 64 96 57 97
REMARK SMILES IDX 58 98 59 99 60 100 61 101
REMARK H PARENT 16 8 23 32 85 51 51 62
REMARK Flexibility Score: inf
ROOT
ATOM      1  C   UNL A   1      34.481  29.628  27.093  1.00  0.00     0.002 C 
ENDROOT
BRANCH   1   2
ATOM      2  C   UNL A   1      33.233  28.738  27.023  1.00  0.00     0.002 C 
BRANCH   2   3
ATOM      3  C   UNL A   1      31.899  29.476  26.873  1.00  0.00     0.021 C 
BRANCH   3   4
ATOM      4  C   UNL A   1      31.704  30.156  25.521  1.00  0.00     0.116 C 
BRANCH   4   5
ATOM      5  N   UNL A   1      30.760  29.436  24.683  1.00  0.00    -0.352 N 
ATOM      6  C   UNL A   1      30.725  28.269  23.999  1.00  0.00     0.251 C 
ATOM      7  O   UNL A   1      29.658  28.035  23.420  1.00  0.00    -0.270 OA
ATOM      8  H   UNL A   1      29.916  29.934  24.586  1.00  0.00     0.163 HD
BRANCH   6   9
ATOM      9  C   UNL A   1      31.844  27.285  23.899  1.00  0.00     0.067 C 
ATOM     10  C   UNL A   1      35.085  23.444  24.765  1.00  0.00    -0.020 A 
ATOM     11  C   UNL A   1      34.765  24.289  23.677  1.00  0.00     0.053 A 
ATOM     12  C   UNL A   1      34.358  23.683  25.956  1.00  0.00     0.045 A 
ATOM     13  C   UNL A   1      33.771  25.264  23.751  1.00  0.00     0.128 A 
ATOM     14  C   UNL A   1      33.331  24.646  26.011  1.00  0.00     0.032 A 
ATOM     15  Cl  UNL A   1      34.667  22.889  27.462  1.00  0.00    -0.084 Cl
ATOM     16  C   UNL A   1      33.028  25.437  24.906  1.00  0.00     0.019 A 
ATOM     17  O   UNL A   1      33.558  25.992  22.620  1.00  0.00    -0.475 OA
ATOM     18  C   UNL A   1      31.948  26.414  24.922  1.00  0.00     0.025 C 
ATOM     19  C   UNL A   1      32.848  27.249  22.779  1.00  0.00     0.314 C 
BRANCH  10  20
ATOM     20  C   UNL A   1      36.215  22.401  24.581  1.00  0.00    -0.012 C 
ATOM     21  C   UNL A   1      36.766  22.536  23.148  1.00  0.00     0.016 C 
ATOM     22  C   UNL A   1      35.711  20.937  24.751  1.00  0.00     0.016 C 
ATOM     23  C   UNL A   1      37.376  22.532  25.593  1.00  0.00     0.016 C 
ENDBRANCH  10  20
BRANCH  19  24
ATOM     24  C   UNL A   1      33.866  28.400  22.864  1.00  0.00     0.429 C 
ATOM     25  F   UNL A   1      33.246  29.598  22.742  1.00  0.00    -0.167 F 
ATOM     26  F   UNL A   1      34.519  28.424  24.050  1.00  0.00    -0.167 F 
ATOM     27  F   UNL A   1      34.809  28.327  21.897  1.00  0.00    -0.167 F 
ENDBRANCH  19  24
ENDBRANCH   6   9
ENDBRANCH   4   5
ENDBRANCH   3   4
ENDBRANCH   2   3
ENDBRANCH   1   2
BRANCH   1  28
ATOM     28  C   UNL A   1      35.101  29.800  28.482  1.00  0.00     0.021 C 
BRANCH  28  29
ATOM     29  C   UNL A   1      35.879  31.093  28.689  1.00  0.00     0.116 C 
BRANCH  29  30
ATOM     30  N   UNL A   1      35.989  31.465  30.091  1.00  0.00    -0.352 N 
ATOM     31  C   UNL A   1      37.022  31.228  30.967  1.00  0.00     0.251 C 
ATOM     32  H   UNL A   1      35.219  31.952  30.463  1.00  0.00     0.163 HD
ATOM     33  O   UNL A   1      36.892  31.489  32.159  1.00  0.00    -0.269 OA
BRANCH  31  34
ATOM     34  C   UNL A   1      38.276  30.622  30.468  1.00  0.00     0.039 A 
ATOM     35  C   UNL A   1      39.233  30.134  31.361  1.00  0.00     0.014 A 
ATOM     36  C   UNL A   1      38.508  30.571  29.091  1.00  0.00     0.014 A 
ATOM     37  C   UNL A   1      40.478  29.736  30.886  1.00  0.00     0.010 A 
ATOM     38  C   UNL A   1      39.733  30.101  28.611  1.00  0.00     0.010 A 
ATOM     39  C   UNL A   1      40.745  29.722  29.507  1.00  0.00    -0.014 A 
BRANCH  39  40
ATOM     40  C   UNL A   1      42.093  29.314  29.028  1.00  0.00     0.031 A 
ATOM     41  C   UNL A   1      42.342  27.916  28.532  1.00  0.00     0.074 A 
ATOM     42  C   UNL A   1      43.079  30.232  28.985  1.00  0.00     0.049 A 
ATOM     43  N   UNL A   1      43.445  27.394  28.058  1.00  0.00    -0.248 NA
ATOM     44  C   UNL A   1      41.208  26.978  28.572  1.00  0.00     0.031 C 
ATOM     45  C   UNL A   1      42.953  31.623  29.428  1.00  0.00     0.029 A 
ATOM     46  N   UNL A   1      44.367  30.145  28.525  1.00  0.00    -0.354 N 
ATOM     47  C   UNL A   1      43.147  26.070  27.760  1.00  0.00     0.074 A 
ATOM     48  C   UNL A   1      41.764  25.857  28.130  1.00  0.00     0.031 C 
ATOM     49  C   UNL A   1      44.098  32.272  29.166  1.00  0.00     0.029 A 
ATOM     50  C   UNL A   1      45.056  31.333  28.591  1.00  0.00     0.049 A 
ATOM     51  H   UNL A   1      44.762  29.312  28.180  1.00  0.00     0.167 HD
ATOM     52  C   UNL A   1      43.947  25.122  27.215  1.00  0.00     0.037 A 
ATOM     53  C   UNL A   1      46.320  31.634  28.237  1.00  0.00     0.037 A 
ATOM     54  C   UNL A   1      45.317  25.345  26.827  1.00  0.00     0.049 A 
ATOM     55  C   UNL A   1      47.198  30.558  27.668  1.00  0.00     0.074 A 
ATOM     56  C   UNL A   1      46.206  24.450  26.256  1.00  0.00     0.029 A 
ATOM     57  N   UNL A   1      45.996  26.547  26.966  1.00  0.00    -0.354 N 
ATOM     58  N   UNL A   1      46.899  29.308  27.403  1.00  0.00    -0.248 NA
ATOM     59  C   UNL A   1      48.586  30.926  27.363  1.00  0.00     0.031 C 
ATOM     60  C   UNL A   1      47.431  25.103  26.079  1.00  0.00     0.029 A 
ATOM     61  C   UNL A   1      47.295  26.413  26.506  1.00  0.00     0.049 A 
ATOM     62  H   UNL A   1      45.610  27.373  27.337  1.00  0.00     0.167 HD
ATOM     63  C   UNL A   1      48.062  28.740  26.899  1.00  0.00     0.074 A 
ATOM     64  C   UNL A   1      49.063  29.787  26.875  1.00  0.00     0.031 C 
ATOM     65  C   UNL A   1      48.281  27.465  26.498  1.00  0.00     0.037 A 
BRANCH  52  66
ATOM     66  C   UNL A   1      43.367  23.751  27.009  1.00  0.00     0.058 A 
ATOM     67  C   UNL A   1      42.888  23.337  25.757  1.00  0.00     0.135 A 
ATOM     68  C   UNL A   1      43.336  22.822  28.063  1.00  0.00     0.135 A 
ATOM     69  F   UNL A   1      42.878  24.190  24.721  1.00  0.00    -0.206 F 
ATOM     70  C   UNL A   1      42.378  22.057  25.561  1.00  0.00     0.059 A 
ATOM     71  C   UNL A   1      42.851  21.531  27.884  1.00  0.00     0.059 A 
ATOM     72  F   UNL A   1      43.783  23.168  29.280  1.00  0.00    -0.206 F 
ATOM     73  C   UNL A   1      42.364  21.161  26.631  1.00  0.00     0.060 A 
BRANCH  73  74
ATOM     74  S   UNL A   1      41.705  19.502  26.357  1.00  0.00     0.124 S 
ATOM     75  O   UNL A   1      42.459  19.081  25.181  1.00  0.00    -0.237 OA
ATOM     76  O   UNL A   1      42.043  18.822  27.603  1.00  0.00    -0.237 OA
ATOM     77  O   UNL A   1      40.280  19.733  26.140  1.00  0.00    -0.744 OA
ENDBRANCH  73  74
ENDBRANCH  52  66
BRANCH  53  78
ATOM     78  C   UNL A   1      46.818  33.023  28.412  1.00  0.00     0.058 A 
ATOM     79  C   UNL A   1      46.702  33.962  27.378  1.00  0.00     0.135 A 
ATOM     80  C   UNL A   1      47.370  33.450  29.629  1.00  0.00     0.135 A 
ATOM     81  F   UNL A   1      46.187  33.599  26.194  1.00  0.00    -0.206 F 
ATOM     82  C   UNL A   1      47.113  35.281  27.545  1.00  0.00     0.059 A 
ATOM     83  C   UNL A   1      47.768  34.767  29.828  1.00  0.00     0.059 A 
ATOM     84  F   UNL A   1      47.488  32.588  30.651  1.00  0.00    -0.206 F 
ATOM     85  C   UNL A   1      47.638  35.676  28.778  1.00  0.00     0.060 A 
BRANCH  85  86
ATOM     86  S   UNL A   1      48.092  37.407  29.012  1.00  0.00     0.124 S 
ATOM     87  O   UNL A   1      48.578  37.765  27.685  1.00  0.00    -0.237 OA
ATOM     88  O   UNL A   1      46.822  38.006  29.412  1.00  0.00    -0.237 OA
ATOM     89  O   UNL A   1      49.105  37.349  30.062  1.00  0.00    -0.744 OA
ENDBRANCH  85  86
ENDBRANCH  53  78
BRANCH  65  90
ATOM     90  C   UNL A   1      49.657  27.127  25.998  1.00  0.00     0.058 A 
ATOM     91  C   UNL A   1      50.642  26.627  26.862  1.00  0.00     0.135 A 
ATOM     92  C   UNL A   1      49.972  27.245  24.636  1.00  0.00     0.135 A 
ATOM     93  F   UNL A   1      50.391  26.502  28.176  1.00  0.00    -0.206 F 
ATOM     94  C   UNL A   1      51.901  26.268  26.395  1.00  0.00     0.059 A 
ATOM     95  C   UNL A   1      51.219  26.872  24.142  1.00  0.00     0.059 A 
ATOM     96  F   UNL A   1      49.060  27.712  23.769  1.00  0.00    -0.206 F 
ATOM     97  C   UNL A   1      52.179  26.392  25.031  1.00  0.00     0.060 A 
BRANCH  97  98
ATOM     98  S   UNL A   1      53.803  25.881  24.430  1.00  0.00     0.124 S 
ATOM     99  O   UNL A   1      53.846  24.485  24.851  1.00  0.00    -0.237 OA
ATOM    100  O   UNL A   1      53.689  26.107  22.992  1.00  0.00    -0.237 OA
ATOM    101  O   UNL A   1      54.721  26.776  25.128  1.00  0.00    -0.744 OA
ENDBRANCH  97  98
ENDBRANCH  65  90
ENDBRANCH  39  40
ENDBRANCH  31  34
ENDBRANCH  29  30
ENDBRANCH  28  29
ENDBRANCH   1  28
TORSDOF 18
ENDMDL
MODEL 3
REMARK VINA RESULT:     -11.5      3.084      8.821
REMARK SMILES CC(C)(C)c1cc2c(cc1Cl)C=C(C(=O)NCCCCCCNC(=O)c1ccc(-c3c4nc(c(-c5c(F)cc(S(=O)(=O)[O-])cc5F)c5ccc([nH]5)c(-c5c(F)cc(S(=O)(=O)[O-])cc5F)c5nc(c(-c6c(F)cc(S(=O)(=O)[O-])cc6F)c6ccc3[nH]6)C=C5)C=C4)cc1)[C@@H](C(F)(F)F)O2
REMARK SMILES IDX 20 1 19 2 18 3 17 4 16 5 14 6 15 7 13 9 5 10 6 11 10 12 7 13
REMARK SMILES IDX 9 14 11 15 8 16 97 17 12 18 92 19 2 20 1 21 3 22 4 23 93 24
REMARK SMILES IDX 94 25 95 26 96 27 21 28 22 29 23 30 24 31 25 33 26 34 27 35
REMARK SMILES IDX 91 36 28 37 90 38 29 39 30 40 31 41 84 42 32 43 89 44 83 45
REMARK SMILES IDX 85 46 33 47 88 48 82 49 81 50 34 52 68 53 47 54 67 55 48 56
REMARK SMILES IDX 51 57 66 58 86 59 49 60 50 61 65 63 87 64 52 65 35 66 36 67
REMARK SMILES IDX 45 68 37 69 38 70 44 71 46 72 39 73 40 74 41 75 42 76 43 77
REMARK SMILES IDX 69 78 70 79 79 80 71 81 72 82 78 83 80 84 73 85 74 86 75 87
REMARK SMILES IDX 76 88 77 89 53 90 54 91 63 92 55 93 56 94 62 95 64 96 57 97
REMARK SMILES IDX 58 98 59 99 60 100 61 101
REMARK H PARENT 16 8 23 32 85 51 51 62
REMARK Flexibility Score: inf
ROOT
ATOM      1  C   UNL A   1      34.425  29.669  27.085  1.00  0.00     0.002 C 
ENDROOT
BRANCH   1   2
ATOM      2  C   UNL A   1      33.148  28.817  27.106  1.00  0.00     0.002 C 
BRANCH   2   3
ATOM      3  C   UNL A   1      31.837  29.581  26.899  1.00  0.00     0.021 C 
BRANCH   3   4
ATOM      4  C   UNL A   1      31.686  30.209  25.516  1.00  0.00     0.116 C 
BRANCH   4   5
ATOM      5  N   UNL A   1      30.727  29.488  24.696  1.00  0.00    -0.352 N 
ATOM      6  C   UNL A   1      30.675  28.314  24.025  1.00  0.00     0.251 C 
ATOM      7  O   UNL A   1      29.600  28.083  23.460  1.00  0.00    -0.270 OA
ATOM      8  H   UNL A   1      29.887  29.992  24.602  1.00  0.00     0.163 HD
BRANCH   6   9
ATOM      9  C   UNL A   1      31.785  27.320  23.924  1.00  0.00     0.067 C 
ATOM     10  C   UNL A   1      34.983  23.442  24.784  1.00  0.00    -0.020 A 
ATOM     11  C   UNL A   1      34.677  24.296  23.699  1.00  0.00     0.053 A 
ATOM     12  C   UNL A   1      34.254  23.682  25.973  1.00  0.00     0.045 A 
ATOM     13  C   UNL A   1      33.692  25.280  23.774  1.00  0.00     0.128 A 
ATOM     14  C   UNL A   1      33.236  24.655  26.029  1.00  0.00     0.032 A 
ATOM     15  Cl  UNL A   1      34.549  22.877  27.475  1.00  0.00    -0.084 Cl
ATOM     16  C   UNL A   1      32.946  25.454  24.927  1.00  0.00     0.019 A 
ATOM     17  O   UNL A   1      33.492  26.016  22.646  1.00  0.00    -0.475 OA
ATOM     18  C   UNL A   1      31.876  26.443  24.943  1.00  0.00     0.025 C 
ATOM     19  C   UNL A   1      32.793  27.280  22.808  1.00  0.00     0.314 C 
BRANCH  10  20
ATOM     20  C   UNL A   1      36.104  22.389  24.599  1.00  0.00    -0.012 C 
ATOM     21  C   UNL A   1      35.482  20.989  24.766  1.00  0.00     0.016 C 
ATOM     22  C   UNL A   1      37.234  22.527  25.662  1.00  0.00     0.016 C 
ATOM     23  C   UNL A   1      36.837  22.469  23.241  1.00  0.00     0.016 C 
ENDBRANCH  10  20
BRANCH  19  24
ATOM     24  C   UNL A   1      33.823  28.420  22.904  1.00  0.00     0.429 C 
ATOM     25  F   UNL A   1      34.429  28.417  24.115  1.00  0.00    -0.167 F 
ATOM     26  F   UNL A   1      34.806  28.306  21.981  1.00  0.00    -0.167 F 
ATOM     27  F   UNL A   1      33.260  29.638  22.732  1.00  0.00    -0.167 F 
ENDBRANCH  19  24
ENDBRANCH   6   9
ENDBRANCH   4   5
ENDBRANCH   3   4
ENDBRANCH   2   3
ENDBRANCH   1   2
BRANCH   1  28
ATOM     28  C   UNL A   1      35.192  29.755  28.408  1.00  0.00     0.021 C 
BRANCH  28  29
ATOM     29  C   UNL A   1      35.641  31.154  28.807  1.00  0.00     0.116 C 
BRANCH  29  30
ATOM     30  N   UNL A   1      35.738  31.324  30.248  1.00  0.00    -0.352 N 
ATOM     31  C   UNL A   1      36.754  30.946  31.093  1.00  0.00     0.251 C 
ATOM     32  H   UNL A   1      34.972  31.770  30.676  1.00  0.00     0.163 HD
ATOM     33  O   UNL A   1      36.613  31.041  32.309  1.00  0.00    -0.269 OA
BRANCH  31  34
ATOM     34  C   UNL A   1      38.004  30.392  30.529  1.00  0.00     0.039 A 
ATOM     35  C   UNL A   1      38.892  29.676  31.336  1.00  0.00     0.014 A 
ATOM     36  C   UNL A   1      38.303  30.617  29.183  1.00  0.00     0.014 A 
ATOM     37  C   UNL A   1      40.141  29.319  30.838  1.00  0.00     0.010 A 
ATOM     38  C   UNL A   1      39.530  30.193  28.664  1.00  0.00     0.010 A 
ATOM     39  C   UNL A   1      40.477  29.580  29.499  1.00  0.00    -0.014 A 
BRANCH  39  40
ATOM     40  C   UNL A   1      41.828  29.209  28.999  1.00  0.00     0.031 A 
ATOM     41  C   UNL A   1      42.963  30.197  29.049  1.00  0.00     0.074 A 
ATOM     42  C   UNL A   1      42.042  27.956  28.556  1.00  0.00     0.049 A 
ATOM     43  N   UNL A   1      44.208  30.038  28.680  1.00  0.00    -0.248 NA
ATOM     44  C   UNL A   1      42.664  31.536  29.582  1.00  0.00     0.031 C 
ATOM     45  C   UNL A   1      41.022  26.907  28.472  1.00  0.00     0.029 A 
ATOM     46  N   UNL A   1      43.187  27.340  28.121  1.00  0.00    -0.354 N 
ATOM     47  C   UNL A   1      44.837  31.255  28.918  1.00  0.00     0.074 A 
ATOM     48  C   UNL A   1      43.830  32.153  29.441  1.00  0.00     0.031 C 
ATOM     49  C   UNL A   1      41.598  25.765  28.067  1.00  0.00     0.029 A 
ATOM     50  C   UNL A   1      43.013  26.012  27.808  1.00  0.00     0.049 A 
ATOM     51  H   UNL A   1      44.051  27.804  28.039  1.00  0.00     0.167 HD
ATOM     52  C   UNL A   1      46.137  31.589  28.730  1.00  0.00     0.037 A 
ATOM     53  C   UNL A   1      43.891  25.096  27.357  1.00  0.00     0.037 A 
ATOM     54  C   UNL A   1      47.141  30.684  28.231  1.00  0.00     0.049 A 
ATOM     55  C   UNL A   1      45.317  25.500  27.124  1.00  0.00     0.074 A 
ATOM     56  C   UNL A   1      48.487  30.926  28.018  1.00  0.00     0.029 A 
ATOM     57  N   UNL A   1      46.911  29.364  27.870  1.00  0.00    -0.354 N 
ATOM     58  N   UNL A   1      45.890  26.659  27.346  1.00  0.00    -0.248 NA
ATOM     59  C   UNL A   1      46.214  24.479  26.568  1.00  0.00     0.031 C 
ATOM     60  C   UNL A   1      49.064  29.762  27.498  1.00  0.00     0.029 A 
ATOM     61  C   UNL A   1      48.086  28.785  27.422  1.00  0.00     0.049 A 
ATOM     62  H   UNL A   1      46.040  28.908  27.924  1.00  0.00     0.167 HD
ATOM     63  C   UNL A   1      47.215  26.507  26.958  1.00  0.00     0.074 A 
ATOM     64  C   UNL A   1      47.365  25.138  26.507  1.00  0.00     0.031 C 
ATOM     65  C   UNL A   1      48.214  27.422  26.968  1.00  0.00     0.037 A 
BRANCH  52  66
ATOM     66  C   UNL A   1      46.552  32.994  29.062  1.00  0.00     0.058 A 
ATOM     67  C   UNL A   1      46.476  34.026  28.114  1.00  0.00     0.135 A 
ATOM     68  C   UNL A   1      46.986  33.324  30.357  1.00  0.00     0.135 A 
ATOM     69  F   UNL A   1      46.086  33.762  26.857  1.00  0.00    -0.206 F 
ATOM     70  C   UNL A   1      46.834  35.333  28.432  1.00  0.00     0.059 A 
ATOM     71  C   UNL A   1      47.327  34.628  30.703  1.00  0.00     0.059 A 
ATOM     72  F   UNL A   1      47.076  32.375  31.301  1.00  0.00    -0.206 F 
ATOM     73  C   UNL A   1      47.259  35.624  29.730  1.00  0.00     0.060 A 
BRANCH  73  74
ATOM     74  S   UNL A   1      47.713  37.326  30.126  1.00  0.00     0.124 S 
ATOM     75  O   UNL A   1      46.670  37.690  31.079  1.00  0.00    -0.237 OA
ATOM     76  O   UNL A   1      49.054  37.170  30.682  1.00  0.00    -0.237 OA
ATOM     77  O   UNL A   1      47.649  38.005  28.836  1.00  0.00    -0.744 OA
ENDBRANCH  73  74
ENDBRANCH  52  66
BRANCH  53  78
ATOM     78  C   UNL A   1      43.432  23.707  27.103  1.00  0.00     0.058 A 
ATOM     79  C   UNL A   1      43.176  22.829  28.166  1.00  0.00     0.135 A 
ATOM     80  C   UNL A   1      43.193  23.246  25.799  1.00  0.00     0.135 A 
ATOM     81  F   UNL A   1      43.396  23.222  29.429  1.00  0.00    -0.206 F 
ATOM     82  C   UNL A   1      42.693  21.543  27.946  1.00  0.00     0.059 A 
ATOM     83  C   UNL A   1      42.690  21.974  25.554  1.00  0.00     0.059 A 
ATOM     84  F   UNL A   1      43.412  24.056  24.751  1.00  0.00    -0.206 F 
ATOM     85  C   UNL A   1      42.445  21.127  26.636  1.00  0.00     0.060 A 
BRANCH  85  86
ATOM     86  S   UNL A   1      41.742  19.487  26.365  1.00  0.00     0.124 S 
ATOM     87  O   UNL A   1      42.243  18.758  27.524  1.00  0.00    -0.237 OA
ATOM     88  O   UNL A   1      40.309  19.766  26.356  1.00  0.00    -0.237 OA
ATOM     89  O   UNL A   1      42.302  19.090  25.077  1.00  0.00    -0.744 OA
ENDBRANCH  85  86
ENDBRANCH  53  78
BRANCH  65  90
ATOM     90  C   UNL A   1      49.562  26.975  26.477  1.00  0.00     0.058 A 
ATOM     91  C   UNL A   1      50.510  26.426  27.353  1.00  0.00     0.135 A 
ATOM     92  C   UNL A   1      49.883  27.037  25.112  1.00  0.00     0.135 A 
ATOM     93  F   UNL A   1      50.252  26.352  28.669  1.00  0.00    -0.206 F 
ATOM     94  C   UNL A   1      51.739  25.967  26.895  1.00  0.00     0.059 A 
ATOM     95  C   UNL A   1      51.099  26.564  24.628  1.00  0.00     0.059 A 
ATOM     96  F   UNL A   1      49.006  27.546  24.234  1.00  0.00    -0.206 F 
ATOM     97  C   UNL A   1      52.024  26.037  25.529  1.00  0.00     0.060 A 
BRANCH  97  98
ATOM     98  S   UNL A   1      53.606  25.397  24.942  1.00  0.00     0.124 S 
ATOM     99  O   UNL A   1      53.648  25.921  23.581  1.00  0.00    -0.237 OA
ATOM    100  O   UNL A   1      54.552  25.995  25.880  1.00  0.00    -0.237 OA
ATOM    101  O   UNL A   1      53.451  23.951  25.054  1.00  0.00    -0.744 OA
ENDBRANCH  97  98
ENDBRANCH  65  90
ENDBRANCH  39  40
ENDBRANCH  31  34
ENDBRANCH  29  30
ENDBRANCH  28  29
ENDBRANCH   1  28
TORSDOF 18
ENDMDL
