MODEL 1
REMARK VINA RESULT:     -10.7      0.000      0.000
REMARK SMILES Cc1cc(NC(=O)CC(C)(C)CC(=O)NCCCCCCNC(=O)c2ccc(-c3c4nc(c(-c5c(F)cc(S(=O)(=O)[O-])cc5F)c5ccc([nH]5)c(-c5c(F)cc(S(=O)(=O)[O-])cc5F)c5nc(c(-c6c(F)cc(S(=O)(=O)[O-])cc6F)c6ccc3[nH]6)C=C5)C=C4)cc2)ncc1Br
REMARK SMILES IDX 18 1 17 2 16 3 15 4 13 5 14 6 12 8 9 9 10 10 11 11 8 12 6 13
REMARK SMILES IDX 5 14 7 16 4 17 1 18 2 19 3 20 93 21 92 22 94 23 91 24 19 25
REMARK SMILES IDX 20 26 21 27 22 28 23 29 24 31 25 32 26 33 90 34 27 35 89 36
REMARK SMILES IDX 28 37 29 38 30 39 83 40 31 41 88 42 82 43 84 44 32 45 87 46
REMARK SMILES IDX 81 47 80 48 33 50 67 51 46 52 66 53 47 54 50 55 65 56 85 57
REMARK SMILES IDX 48 58 49 59 64 61 86 62 51 63 34 64 35 65 44 66 36 67 37 68
REMARK SMILES IDX 43 69 45 70 38 71 39 72 40 73 41 74 42 75 68 76 69 77 78 78
REMARK SMILES IDX 70 79 71 80 77 81 79 82 72 83 73 84 74 85 75 86 76 87 52 88
REMARK SMILES IDX 53 89 62 90 54 91 55 92 61 93 63 94 56 95 57 96 58 97 59 98
REMARK SMILES IDX 60 99
REMARK H PARENT 15 7 5 15 22 30 84 49 50 60
REMARK Flexibility Score: inf
ROOT
ATOM      1  C   UNL A   1      31.089  27.451  26.816  1.00  0.00     0.002 C 
ENDROOT
BRANCH   1   2
ATOM      2  C   UNL A   1      31.280  26.506  25.628  1.00  0.00     0.021 C 
BRANCH   2   3
ATOM      3  C   UNL A   1      30.059  25.630  25.345  1.00  0.00     0.116 C 
BRANCH   3   4
ATOM      4  N   UNL A   1      29.784  24.801  26.499  1.00  0.00    -0.356 N 
ATOM      5  C   UNL A   1      30.045  23.484  26.704  1.00  0.00     0.220 C 
ATOM      6  O   UNL A   1      29.566  22.953  27.707  1.00  0.00    -0.275 OA
ATOM      7  H   UNL A   1      29.343  25.262  27.248  1.00  0.00     0.163 HD
BRANCH   5   8
ATOM      8  C   UNL A   1      30.966  22.722  25.769  1.00  0.00     0.107 C 
BRANCH   8   9
ATOM      9  C   UNL A   1      32.480  22.589  26.103  1.00  0.00    -0.018 C 
ATOM     10  C   UNL A   1      32.876  21.200  25.543  1.00  0.00     0.012 C 
ATOM     11  C   UNL A   1      32.753  22.523  27.617  1.00  0.00     0.012 C 
BRANCH   9  12
ATOM     12  C   UNL A   1      33.311  23.789  25.552  1.00  0.00     0.107 C 
BRANCH  12  13
ATOM     13  C   UNL A   1      33.719  23.738  24.092  1.00  0.00     0.226 C 
ATOM     14  N   UNL A   1      34.931  23.256  23.699  1.00  0.00    -0.311 N 
ATOM     15  H   UNL A   1      35.084  23.255  22.726  1.00  0.00     0.171 HD
ATOM     16  O   UNL A   1      32.933  24.086  23.205  1.00  0.00    -0.275 OA
BRANCH  14  17
ATOM     17  C   UNL A   1      35.989  22.764  24.463  1.00  0.00     0.132 A 
ATOM     18  C   UNL A   1      38.718  24.384  26.505  1.00  0.00     0.046 C 
ATOM     19  C   UNL A   1      37.929  23.315  25.808  1.00  0.00    -0.032 A 
ATOM     20  C   UNL A   1      36.715  23.692  25.204  1.00  0.00     0.051 A 
ATOM     21  C   UNL A   1      38.327  21.982  25.702  1.00  0.00     0.039 A 
ATOM     22  C   UNL A   1      37.501  21.108  25.012  1.00  0.00     0.129 A 
ATOM     23  Br  UNL A   1      39.946  21.308  26.410  1.00  0.00    -0.049 Br
ATOM     24  N   UNL A   1      36.352  21.475  24.396  1.00  0.00    -0.238 NA
ENDBRANCH  14  17
ENDBRANCH  12  13
ENDBRANCH   9  12
ENDBRANCH   8   9
ENDBRANCH   5   8
ENDBRANCH   3   4
ENDBRANCH   2   3
ENDBRANCH   1   2
BRANCH   1  25
ATOM     25  C   UNL A   1      32.372  28.133  27.296  1.00  0.00     0.002 C 
BRANCH  25  26
ATOM     26  C   UNL A   1      33.631  27.755  26.514  1.00  0.00     0.021 C 
BRANCH  26  27
ATOM     27  C   UNL A   1      34.357  28.938  25.882  1.00  0.00     0.116 C 
BRANCH  27  28
ATOM     28  N   UNL A   1      34.022  30.197  26.532  1.00  0.00    -0.352 N 
ATOM     29  C   UNL A   1      34.621  30.792  27.616  1.00  0.00     0.251 C 
ATOM     30  H   UNL A   1      33.263  30.688  26.143  1.00  0.00     0.163 HD
ATOM     31  O   UNL A   1      34.095  31.753  28.171  1.00  0.00    -0.269 OA
BRANCH  29  32
ATOM     32  C   UNL A   1      35.895  30.242  28.118  1.00  0.00     0.039 A 
ATOM     33  C   UNL A   1      35.905  29.451  29.270  1.00  0.00     0.014 A 
ATOM     34  C   UNL A   1      37.088  30.561  27.466  1.00  0.00     0.014 A 
ATOM     35  C   UNL A   1      37.117  29.124  29.862  1.00  0.00     0.010 A 
ATOM     36  C   UNL A   1      38.304  30.152  28.018  1.00  0.00     0.010 A 
ATOM     37  C   UNL A   1      38.331  29.471  29.247  1.00  0.00    -0.014 A 
BRANCH  37  38
ATOM     38  C   UNL A   1      39.611  29.116  29.911  1.00  0.00     0.031 A 
ATOM     39  C   UNL A   1      40.023  29.781  31.197  1.00  0.00     0.074 A 
ATOM     40  C   UNL A   1      40.373  28.141  29.378  1.00  0.00     0.049 A 
ATOM     41  N   UNL A   1      41.097  29.583  31.918  1.00  0.00    -0.248 NA
ATOM     42  C   UNL A   1      39.115  30.801  31.748  1.00  0.00     0.031 C 
ATOM     43  C   UNL A   1      40.067  27.414  28.143  1.00  0.00     0.029 A 
ATOM     44  N   UNL A   1      41.542  27.572  29.815  1.00  0.00    -0.354 N 
ATOM     45  C   UNL A   1      41.004  30.460  32.993  1.00  0.00     0.074 A 
ATOM     46  C   UNL A   1      39.783  31.214  32.816  1.00  0.00     0.031 C 
ATOM     47  C   UNL A   1      40.990  26.460  27.953  1.00  0.00     0.029 A 
ATOM     48  C   UNL A   1      41.990  26.551  29.010  1.00  0.00     0.049 A 
ATOM     49  H   UNL A   1      42.016  27.868  30.626  1.00  0.00     0.167 HD
ATOM     50  C   UNL A   1      41.854  30.609  34.039  1.00  0.00     0.037 A 
ATOM     51  C   UNL A   1      43.091  25.782  29.103  1.00  0.00     0.037 A 
ATOM     52  C   UNL A   1      43.057  29.838  34.218  1.00  0.00     0.049 A 
ATOM     53  C   UNL A   1      44.041  26.002  30.245  1.00  0.00     0.074 A 
ATOM     54  C   UNL A   1      43.977  29.907  35.250  1.00  0.00     0.029 A 
ATOM     55  N   UNL A   1      43.508  28.855  33.348  1.00  0.00    -0.354 N 
ATOM     56  N   UNL A   1      43.939  26.840  31.249  1.00  0.00    -0.248 NA
ATOM     57  C   UNL A   1      45.261  25.184  30.262  1.00  0.00     0.031 C 
ATOM     58  C   UNL A   1      45.003  28.996  34.985  1.00  0.00     0.029 A 
ATOM     59  C   UNL A   1      44.701  28.325  33.810  1.00  0.00     0.049 A 
ATOM     60  H   UNL A   1      43.047  28.576  32.524  1.00  0.00     0.167 HD
ATOM     61  C   UNL A   1      45.076  26.644  32.023  1.00  0.00     0.074 A 
ATOM     62  C   UNL A   1      45.843  25.595  31.382  1.00  0.00     0.031 C 
ATOM     63  C   UNL A   1      45.453  27.281  33.158  1.00  0.00     0.037 A 
BRANCH  50  64
ATOM     64  C   UNL A   1      41.519  31.649  35.075  1.00  0.00     0.058 A 
ATOM     65  C   UNL A   1      42.085  32.932  35.038  1.00  0.00     0.135 A 
ATOM     66  C   UNL A   1      40.574  31.378  36.079  1.00  0.00     0.135 A 
ATOM     67  F   UNL A   1      43.005  33.240  34.111  1.00  0.00    -0.206 F 
ATOM     68  C   UNL A   1      41.739  33.907  35.969  1.00  0.00     0.059 A 
ATOM     69  C   UNL A   1      40.194  32.345  37.006  1.00  0.00     0.059 A 
ATOM     70  F   UNL A   1      40.003  30.167  36.160  1.00  0.00    -0.206 F 
ATOM     71  C   UNL A   1      40.790  33.604  36.948  1.00  0.00     0.060 A 
BRANCH  71  72
ATOM     72  S   UNL A   1      40.343  34.888  38.137  1.00  0.00     0.124 S 
ATOM     73  O   UNL A   1      41.086  36.034  37.620  1.00  0.00    -0.237 OA
ATOM     74  O   UNL A   1      38.893  34.956  37.991  1.00  0.00    -0.237 OA
ATOM     75  O   UNL A   1      40.819  34.355  39.410  1.00  0.00    -0.744 OA
ENDBRANCH  71  72
ENDBRANCH  50  64
BRANCH  51  76
ATOM     76  C   UNL A   1      43.346  24.736  28.078  1.00  0.00     0.058 A 
ATOM     77  C   UNL A   1      44.044  25.036  26.900  1.00  0.00     0.135 A 
ATOM     78  C   UNL A   1      42.937  23.407  28.277  1.00  0.00     0.135 A 
ATOM     79  F   UNL A   1      44.450  26.293  26.663  1.00  0.00    -0.206 F 
ATOM     80  C   UNL A   1      44.327  24.058  25.953  1.00  0.00     0.059 A 
ATOM     81  C   UNL A   1      43.231  22.406  27.358  1.00  0.00     0.059 A 
ATOM     82  F   UNL A   1      42.279  23.067  29.396  1.00  0.00    -0.206 F 
ATOM     83  C   UNL A   1      43.921  22.743  26.195  1.00  0.00     0.060 A 
BRANCH  83  84
ATOM     84  S   UNL A   1      44.353  21.471  24.989  1.00  0.00     0.124 S 
ATOM     85  O   UNL A   1      43.366  20.439  25.286  1.00  0.00    -0.237 OA
ATOM     86  O   UNL A   1      44.179  22.177  23.724  1.00  0.00    -0.237 OA
ATOM     87  O   UNL A   1      45.734  21.141  25.329  1.00  0.00    -0.744 OA
ENDBRANCH  83  84
ENDBRANCH  51  76
BRANCH  63  88
ATOM     88  C   UNL A   1      46.747  26.856  33.793  1.00  0.00     0.058 A 
ATOM     89  C   UNL A   1      46.796  25.806  34.722  1.00  0.00     0.135 A 
ATOM     90  C   UNL A   1      47.958  27.459  33.415  1.00  0.00     0.135 A 
ATOM     91  F   UNL A   1      45.665  25.204  35.122  1.00  0.00    -0.206 F 
ATOM     92  C   UNL A   1      48.001  25.375  35.267  1.00  0.00     0.059 A 
ATOM     93  C   UNL A   1      49.178  27.027  33.927  1.00  0.00     0.059 A 
ATOM     94  F   UNL A   1      47.965  28.462  32.523  1.00  0.00    -0.206 F 
ATOM     95  C   UNL A   1      49.188  25.988  34.858  1.00  0.00     0.060 A 
BRANCH  95  96
ATOM     96  S   UNL A   1      50.747  25.384  35.537  1.00  0.00     0.124 S 
ATOM     97  O   UNL A   1      51.407  24.867  34.343  1.00  0.00    -0.237 OA
ATOM     98  O   UNL A   1      51.327  26.595  36.109  1.00  0.00    -0.237 OA
ATOM     99  O   UNL A   1      50.328  24.378  36.508  1.00  0.00    -0.744 OA
ENDBRANCH  95  96
ENDBRANCH  63  88
ENDBRANCH  37  38
ENDBRANCH  29  32
ENDBRANCH  27  28
ENDBRANCH  26  27
ENDBRANCH  25  26
ENDBRANCH   1  25
TORSDOF 20
ENDMDL
MODEL 2
REMARK VINA RESULT:     -10.4      2.424      3.313
REMARK SMILES Cc1cc(NC(=O)CC(C)(C)CC(=O)NCCCCCCNC(=O)c2ccc(-c3c4nc(c(-c5c(F)cc(S(=O)(=O)[O-])cc5F)c5ccc([nH]5)c(-c5c(F)cc(S(=O)(=O)[O-])cc5F)c5nc(c(-c6c(F)cc(S(=O)(=O)[O-])cc6F)c6ccc3[nH]6)C=C5)C=C4)cc2)ncc1Br
REMARK SMILES IDX 18 1 17 2 16 3 15 4 13 5 14 6 12 8 9 9 10 10 11 11 8 12 6 13
REMARK SMILES IDX 5 14 7 16 4 17 1 18 2 19 3 20 93 21 92 22 94 23 91 24 19 25
REMARK SMILES IDX 20 26 21 27 22 28 23 29 24 31 25 32 26 33 90 34 27 35 89 36
REMARK SMILES IDX 28 37 29 38 30 39 83 40 31 41 88 42 82 43 84 44 32 45 87 46
REMARK SMILES IDX 81 47 80 48 33 50 67 51 46 52 66 53 47 54 50 55 65 56 85 57
REMARK SMILES IDX 48 58 49 59 64 61 86 62 51 63 34 64 35 65 44 66 36 67 37 68
REMARK SMILES IDX 43 69 45 70 38 71 39 72 40 73 41 74 42 75 68 76 69 77 78 78
REMARK SMILES IDX 70 79 71 80 77 81 79 82 72 83 73 84 74 85 75 86 76 87 52 88
REMARK SMILES IDX 53 89 62 90 54 91 55 92 61 93 63 94 56 95 57 96 58 97 59 98
REMARK SMILES IDX 60 99
REMARK H PARENT 15 7 5 15 22 30 84 49 50 60
REMARK Flexibility Score: inf
ROOT
ATOM      1  C   UNL A   1      30.953  27.640  24.845  1.00  0.00     0.002 C 
ENDROOT
BRANCH   1   2
ATOM      2  C   UNL A   1      31.271  28.440  23.579  1.00  0.00     0.021 C 
BRANCH   2   3
ATOM      3  C   UNL A   1      32.703  28.248  23.083  1.00  0.00     0.116 C 
BRANCH   3   4
ATOM      4  N   UNL A   1      32.703  27.353  21.945  1.00  0.00    -0.356 N 
ATOM      5  C   UNL A   1      33.069  26.047  21.866  1.00  0.00     0.220 C 
ATOM      6  O   UNL A   1      33.141  25.537  20.747  1.00  0.00    -0.275 OA
ATOM      7  H   UNL A   1      32.388  27.751  21.102  1.00  0.00     0.163 HD
BRANCH   5   8
ATOM      8  C   UNL A   1      33.299  25.230  23.125  1.00  0.00     0.107 C 
BRANCH   8   9
ATOM      9  C   UNL A   1      32.212  24.231  23.615  1.00  0.00    -0.018 C 
ATOM     10  C   UNL A   1      32.590  22.890  22.940  1.00  0.00     0.012 C 
ATOM     11  C   UNL A   1      30.805  24.579  23.095  1.00  0.00     0.012 C 
BRANCH   9  12
ATOM     12  C   UNL A   1      32.113  24.186  25.172  1.00  0.00     0.107 C 
BRANCH  12  13
ATOM     13  C   UNL A   1      31.385  23.006  25.787  1.00  0.00     0.226 C 
ATOM     14  N   UNL A   1      32.032  21.851  26.114  1.00  0.00    -0.311 N 
ATOM     15  H   UNL A   1      31.465  21.157  26.522  1.00  0.00     0.171 HD
ATOM     16  O   UNL A   1      30.183  23.078  26.061  1.00  0.00    -0.275 OA
BRANCH  14  17
ATOM     17  C   UNL A   1      33.374  21.503  25.960  1.00  0.00     0.132 A 
ATOM     18  C   UNL A   1      36.616  23.421  26.187  1.00  0.00     0.046 C 
ATOM     19  C   UNL A   1      35.666  22.290  25.921  1.00  0.00    -0.032 A 
ATOM     20  C   UNL A   1      34.316  22.479  26.271  1.00  0.00     0.051 A 
ATOM     21  C   UNL A   1      36.027  21.077  25.334  1.00  0.00     0.039 A 
ATOM     22  C   UNL A   1      35.035  20.129  25.135  1.00  0.00     0.129 A 
ATOM     23  Br  UNL A   1      37.781  20.666  24.760  1.00  0.00    -0.049 Br
ATOM     24  N   UNL A   1      33.728  20.322  25.433  1.00  0.00    -0.238 NA
ENDBRANCH  14  17
ENDBRANCH  12  13
ENDBRANCH   9  12
ENDBRANCH   8   9
ENDBRANCH   5   8
ENDBRANCH   3   4
ENDBRANCH   2   3
ENDBRANCH   1   2
BRANCH   1  25
ATOM     25  C   UNL A   1      31.394  28.312  26.147  1.00  0.00     0.002 C 
BRANCH  25  26
ATOM     26  C   UNL A   1      32.641  27.705  26.793  1.00  0.00     0.021 C 
BRANCH  26  27
ATOM     27  C   UNL A   1      33.908  28.535  26.617  1.00  0.00     0.116 C 
BRANCH  27  28
ATOM     28  N   UNL A   1      33.767  29.872  27.176  1.00  0.00    -0.352 N 
ATOM     29  C   UNL A   1      34.638  30.565  27.982  1.00  0.00     0.251 C 
ATOM     30  H   UNL A   1      32.935  30.345  26.945  1.00  0.00     0.163 HD
ATOM     31  O   UNL A   1      34.285  31.602  28.536  1.00  0.00    -0.269 OA
BRANCH  29  32
ATOM     32  C   UNL A   1      35.996  30.027  28.192  1.00  0.00     0.039 A 
ATOM     33  C   UNL A   1      36.329  29.437  29.414  1.00  0.00     0.014 A 
ATOM     34  C   UNL A   1      36.953  30.161  27.185  1.00  0.00     0.014 A 
ATOM     35  C   UNL A   1      37.656  29.137  29.688  1.00  0.00     0.010 A 
ATOM     36  C   UNL A   1      38.272  29.775  27.434  1.00  0.00     0.010 A 
ATOM     37  C   UNL A   1      38.645  29.304  28.704  1.00  0.00    -0.014 A 
BRANCH  37  38
ATOM     38  C   UNL A   1      40.058  28.985  29.031  1.00  0.00     0.031 A 
ATOM     39  C   UNL A   1      40.901  29.944  29.829  1.00  0.00     0.074 A 
ATOM     40  C   UNL A   1      40.560  27.792  28.657  1.00  0.00     0.049 A 
ATOM     41  N   UNL A   1      42.144  29.821  30.215  1.00  0.00    -0.248 NA
ATOM     42  C   UNL A   1      40.269  31.206  30.248  1.00  0.00     0.031 C 
ATOM     43  C   UNL A   1      39.832  26.774  27.894  1.00  0.00     0.029 A 
ATOM     44  N   UNL A   1      41.784  27.218  28.887  1.00  0.00    -0.354 N 
ATOM     45  C   UNL A   1      42.450  30.989  30.905  1.00  0.00     0.074 A 
ATOM     46  C   UNL A   1      41.271  31.824  30.859  1.00  0.00     0.031 C 
ATOM     47  C   UNL A   1      40.600  25.683  27.771  1.00  0.00     0.029 A 
ATOM     48  C   UNL A   1      41.898  25.945  28.381  1.00  0.00     0.049 A 
ATOM     49  H   UNL A   1      42.513  27.675  29.368  1.00  0.00     0.167 HD
ATOM     50  C   UNL A   1      43.604  31.325  31.531  1.00  0.00     0.037 A 
ATOM     51  C   UNL A   1      42.936  25.088  28.393  1.00  0.00     0.037 A 
ATOM     52  C   UNL A   1      44.767  30.477  31.589  1.00  0.00     0.049 A 
ATOM     53  C   UNL A   1      44.220  25.505  29.051  1.00  0.00     0.074 A 
ATOM     54  C   UNL A   1      45.980  30.722  32.210  1.00  0.00     0.029 A 
ATOM     55  N   UNL A   1      44.864  29.219  31.011  1.00  0.00    -0.354 N 
ATOM     56  N   UNL A   1      44.491  26.616  29.692  1.00  0.00    -0.248 NA
ATOM     57  C   UNL A   1      45.343  24.561  28.975  1.00  0.00     0.031 C 
ATOM     58  C   UNL A   1      46.822  29.633  31.973  1.00  0.00     0.029 A 
ATOM     59  C   UNL A   1      46.121  28.686  31.244  1.00  0.00     0.049 A 
ATOM     60  H   UNL A   1      44.144  28.771  30.510  1.00  0.00     0.167 HD
ATOM     61  C   UNL A   1      45.813  26.502  30.106  1.00  0.00     0.074 A 
ATOM     62  C   UNL A   1      46.280  25.205  29.659  1.00  0.00     0.031 C 
ATOM     63  C   UNL A   1      46.571  27.393  30.790  1.00  0.00     0.037 A 
BRANCH  50  64
ATOM     64  C   UNL A   1      43.675  32.670  32.203  1.00  0.00     0.058 A 
ATOM     65  C   UNL A   1      43.345  32.835  33.556  1.00  0.00     0.135 A 
ATOM     66  C   UNL A   1      44.140  33.795  31.501  1.00  0.00     0.135 A 
ATOM     67  F   UNL A   1      42.879  31.798  34.270  1.00  0.00    -0.206 F 
ATOM     68  C   UNL A   1      43.456  34.069  34.188  1.00  0.00     0.059 A 
ATOM     69  C   UNL A   1      44.284  35.035  32.118  1.00  0.00     0.059 A 
ATOM     70  F   UNL A   1      44.470  33.693  30.204  1.00  0.00    -0.206 F 
ATOM     71  C   UNL A   1      43.929  35.164  33.460  1.00  0.00     0.060 A 
BRANCH  71  72
ATOM     72  S   UNL A   1      44.082  36.754  34.303  1.00  0.00     0.124 S 
ATOM     73  O   UNL A   1      44.190  36.334  35.697  1.00  0.00    -0.237 OA
ATOM     74  O   UNL A   1      45.296  37.304  33.711  1.00  0.00    -0.237 OA
ATOM     75  O   UNL A   1      42.845  37.446  33.951  1.00  0.00    -0.744 OA
ENDBRANCH  71  72
ENDBRANCH  50  64
BRANCH  51  76
ATOM     76  C   UNL A   1      42.794  23.752  27.757  1.00  0.00     0.058 A 
ATOM     77  C   UNL A   1      42.991  23.585  26.379  1.00  0.00     0.135 A 
ATOM     78  C   UNL A   1      42.503  22.610  28.520  1.00  0.00     0.135 A 
ATOM     79  F   UNL A   1      43.266  24.648  25.608  1.00  0.00    -0.206 F 
ATOM     80  C   UNL A   1      42.903  22.335  25.778  1.00  0.00     0.059 A 
ATOM     81  C   UNL A   1      42.436  21.344  27.947  1.00  0.00     0.059 A 
ATOM     82  F   UNL A   1      42.320  22.715  29.846  1.00  0.00    -0.206 F 
ATOM     83  C   UNL A   1      42.632  21.218  26.573  1.00  0.00     0.060 A 
BRANCH  83  84
ATOM     84  S   UNL A   1      42.587  19.591  25.791  1.00  0.00     0.124 S 
ATOM     85  O   UNL A   1      41.190  19.502  25.381  1.00  0.00    -0.237 OA
ATOM     86  O   UNL A   1      43.561  19.743  24.715  1.00  0.00    -0.237 OA
ATOM     87  O   UNL A   1      42.988  18.690  26.867  1.00  0.00    -0.744 OA
ENDBRANCH  83  84
ENDBRANCH  51  76
BRANCH  63  88
ATOM     88  C   UNL A   1      47.984  26.997  31.110  1.00  0.00     0.058 A 
ATOM     89  C   UNL A   1      48.284  26.181  32.211  1.00  0.00     0.135 A 
ATOM     90  C   UNL A   1      49.040  27.381  30.268  1.00  0.00     0.135 A 
ATOM     91  F   UNL A   1      47.310  25.794  33.050  1.00  0.00    -0.206 F 
ATOM     92  C   UNL A   1      49.585  25.767  32.474  1.00  0.00     0.059 A 
ATOM     93  C   UNL A   1      50.346  26.958  30.497  1.00  0.00     0.059 A 
ATOM     94  F   UNL A   1      48.805  28.156  29.197  1.00  0.00    -0.206 F 
ATOM     95  C   UNL A   1      50.609  26.157  31.607  1.00  0.00     0.060 A 
BRANCH  95  96
ATOM     96  S   UNL A   1      52.285  25.571  31.936  1.00  0.00     0.124 S 
ATOM     97  O   UNL A   1      52.958  25.885  30.680  1.00  0.00    -0.237 OA
ATOM     98  O   UNL A   1      52.677  26.380  33.086  1.00  0.00    -0.237 OA
ATOM     99  O   UNL A   1      52.100  24.149  32.212  1.00  0.00    -0.744 OA
ENDBRANCH  95  96
ENDBRANCH  63  88
ENDBRANCH  37  38
ENDBRANCH  29  32
ENDBRANCH  27  28
ENDBRANCH  26  27
ENDBRANCH  25  26
ENDBRANCH   1  25
TORSDOF 20
ENDMDL
MODEL 3
REMARK VINA RESULT:     -10.4      1.196      2.191
REMARK SMILES Cc1cc(NC(=O)CC(C)(C)CC(=O)NCCCCCCNC(=O)c2ccc(-c3c4nc(c(-c5c(F)cc(S(=O)(=O)[O-])cc5F)c5ccc([nH]5)c(-c5c(F)cc(S(=O)(=O)[O-])cc5F)c5nc(c(-c6c(F)cc(S(=O)(=O)[O-])cc6F)c6ccc3[nH]6)C=C5)C=C4)cc2)ncc1Br
REMARK SMILES IDX 18 1 17 2 16 3 15 4 13 5 14 6 12 8 9 9 10 10 11 11 8 12 6 13
REMARK SMILES IDX 5 14 7 16 4 17 1 18 2 19 3 20 93 21 92 22 94 23 91 24 19 25
REMARK SMILES IDX 20 26 21 27 22 28 23 29 24 31 25 32 26 33 90 34 27 35 89 36
REMARK SMILES IDX 28 37 29 38 30 39 83 40 31 41 88 42 82 43 84 44 32 45 87 46
REMARK SMILES IDX 81 47 80 48 33 50 67 51 46 52 66 53 47 54 50 55 65 56 85 57
REMARK SMILES IDX 48 58 49 59 64 61 86 62 51 63 34 64 35 65 44 66 36 67 37 68
REMARK SMILES IDX 43 69 45 70 38 71 39 72 40 73 41 74 42 75 68 76 69 77 78 78
REMARK SMILES IDX 70 79 71 80 77 81 79 82 72 83 73 84 74 85 75 86 76 87 52 88
REMARK SMILES IDX 53 89 62 90 54 91 55 92 61 93 63 94 56 95 57 96 58 97 59 98
REMARK SMILES IDX 60 99
REMARK H PARENT 15 7 5 15 22 30 84 49 50 60
REMARK Flexibility Score: inf
ROOT
ATOM      1  C   UNL A   1      30.986  27.636  24.947  1.00  0.00     0.002 C 
ENDROOT
BRANCH   1   2
ATOM      2  C   UNL A   1      31.202  28.462  23.677  1.00  0.00     0.021 C 
BRANCH   2   3
ATOM      3  C   UNL A   1      32.626  28.375  23.130  1.00  0.00     0.116 C 
BRANCH   3   4
ATOM      4  N   UNL A   1      32.634  27.558  21.936  1.00  0.00    -0.356 N 
ATOM      5  C   UNL A   1      33.076  26.287  21.756  1.00  0.00     0.220 C 
ATOM      6  O   UNL A   1      33.133  25.855  20.603  1.00  0.00    -0.275 OA
ATOM      7  H   UNL A   1      32.262  27.989  21.133  1.00  0.00     0.163 HD
BRANCH   5   8
ATOM      8  C   UNL A   1      33.405  25.405  22.947  1.00  0.00     0.107 C 
BRANCH   8   9
ATOM      9  C   UNL A   1      32.410  24.296  23.394  1.00  0.00    -0.018 C 
ATOM     10  C   UNL A   1      32.819  23.055  22.563  1.00  0.00     0.012 C 
ATOM     11  C   UNL A   1      30.954  24.605  22.996  1.00  0.00     0.012 C 
BRANCH   9  12
ATOM     12  C   UNL A   1      32.414  24.090  24.941  1.00  0.00     0.107 C 
BRANCH  12  13
ATOM     13  C   UNL A   1      32.161  22.686  25.455  1.00  0.00     0.226 C 
ATOM     14  N   UNL A   1      33.181  21.838  25.768  1.00  0.00    -0.311 N 
ATOM     15  H   UNL A   1      32.902  20.957  26.108  1.00  0.00     0.171 HD
ATOM     16  O   UNL A   1      31.010  22.285  25.658  1.00  0.00    -0.275 OA
BRANCH  14  17
ATOM     17  C   UNL A   1      34.561  22.028  25.682  1.00  0.00     0.132 A 
ATOM     18  C   UNL A   1      37.459  19.784  24.785  1.00  0.00     0.046 C 
ATOM     19  C   UNL A   1      36.712  20.995  25.264  1.00  0.00    -0.032 A 
ATOM     20  C   UNL A   1      35.309  20.975  25.166  1.00  0.00     0.051 A 
ATOM     21  C   UNL A   1      37.314  22.126  25.817  1.00  0.00     0.039 A 
ATOM     22  C   UNL A   1      36.493  23.164  26.231  1.00  0.00     0.129 A 
ATOM     23  Br  UNL A   1      39.179  22.309  26.069  1.00  0.00    -0.049 Br
ATOM     24  N   UNL A   1      35.141  23.132  26.175  1.00  0.00    -0.238 NA
ENDBRANCH  14  17
ENDBRANCH  12  13
ENDBRANCH   9  12
ENDBRANCH   8   9
ENDBRANCH   5   8
ENDBRANCH   3   4
ENDBRANCH   2   3
ENDBRANCH   1   2
BRANCH   1  25
ATOM     25  C   UNL A   1      31.465  28.313  26.233  1.00  0.00     0.002 C 
BRANCH  25  26
ATOM     26  C   UNL A   1      32.774  27.762  26.801  1.00  0.00     0.021 C 
BRANCH  26  27
ATOM     27  C   UNL A   1      34.020  28.528  26.366  1.00  0.00     0.116 C 
BRANCH  27  28
ATOM     28  N   UNL A   1      33.910  29.953  26.643  1.00  0.00    -0.352 N 
ATOM     29  C   UNL A   1      34.697  30.736  27.453  1.00  0.00     0.251 C 
ATOM     30  H   UNL A   1      33.172  30.419  26.189  1.00  0.00     0.163 HD
ATOM     31  O   UNL A   1      34.353  31.879  27.741  1.00  0.00    -0.269 OA
BRANCH  29  32
ATOM     32  C   UNL A   1      35.949  30.172  27.991  1.00  0.00     0.039 A 
ATOM     33  C   UNL A   1      35.970  29.624  29.275  1.00  0.00     0.014 A 
ATOM     34  C   UNL A   1      37.118  30.240  27.230  1.00  0.00     0.014 A 
ATOM     35  C   UNL A   1      37.187  29.301  29.861  1.00  0.00     0.010 A 
ATOM     36  C   UNL A   1      38.329  29.829  27.792  1.00  0.00     0.010 A 
ATOM     37  C   UNL A   1      38.381  29.402  29.128  1.00  0.00    -0.014 A 
BRANCH  37  38
ATOM     38  C   UNL A   1      39.669  29.058  29.786  1.00  0.00     0.031 A 
ATOM     39  C   UNL A   1      40.095  29.750  31.053  1.00  0.00     0.074 A 
ATOM     40  C   UNL A   1      40.424  28.072  29.265  1.00  0.00     0.049 A 
ATOM     41  N   UNL A   1      41.176  29.566  31.766  1.00  0.00    -0.248 NA
ATOM     42  C   UNL A   1      39.194  30.782  31.592  1.00  0.00     0.031 C 
ATOM     43  C   UNL A   1      40.103  27.319  28.049  1.00  0.00     0.029 A 
ATOM     44  N   UNL A   1      41.597  27.511  29.701  1.00  0.00    -0.354 N 
ATOM     45  C   UNL A   1      41.097  30.465  32.824  1.00  0.00     0.074 A 
ATOM     46  C   UNL A   1      39.875  31.217  32.645  1.00  0.00     0.031 C 
ATOM     47  C   UNL A   1      41.023  26.360  27.869  1.00  0.00     0.029 A 
ATOM     48  C   UNL A   1      42.035  26.472  28.913  1.00  0.00     0.049 A 
ATOM     49  H   UNL A   1      42.080  27.823  30.501  1.00  0.00     0.167 HD
ATOM     50  C   UNL A   1      41.957  30.635  33.857  1.00  0.00     0.037 A 
ATOM     51  C   UNL A   1      43.136  25.704  29.010  1.00  0.00     0.037 A 
ATOM     52  C   UNL A   1      43.162  29.867  34.039  1.00  0.00     0.049 A 
ATOM     53  C   UNL A   1      44.099  25.947  30.137  1.00  0.00     0.074 A 
ATOM     54  C   UNL A   1      44.093  29.956  35.060  1.00  0.00     0.029 A 
ATOM     55  N   UNL A   1      43.603  28.865  33.185  1.00  0.00    -0.354 N 
ATOM     56  N   UNL A   1      44.008  26.806  31.123  1.00  0.00    -0.248 NA
ATOM     57  C   UNL A   1      45.318  25.129  30.157  1.00  0.00     0.031 C 
ATOM     58  C   UNL A   1      45.115  29.038  34.802  1.00  0.00     0.029 A 
ATOM     59  C   UNL A   1      44.800  28.343  33.645  1.00  0.00     0.049 A 
ATOM     60  H   UNL A   1      43.132  28.569  32.372  1.00  0.00     0.167 HD
ATOM     61  C   UNL A   1      45.154  26.625  31.889  1.00  0.00     0.074 A 
ATOM     62  C   UNL A   1      45.912  25.562  31.262  1.00  0.00     0.031 C 
ATOM     63  C   UNL A   1      45.544  27.285  33.007  1.00  0.00     0.037 A 
BRANCH  50  64
ATOM     64  C   UNL A   1      41.636  31.697  34.874  1.00  0.00     0.058 A 
ATOM     65  C   UNL A   1      42.129  33.004  34.754  1.00  0.00     0.135 A 
ATOM     66  C   UNL A   1      40.772  31.419  35.947  1.00  0.00     0.135 A 
ATOM     67  F   UNL A   1      42.970  33.322  33.758  1.00  0.00    -0.206 F 
ATOM     68  C   UNL A   1      41.792  33.996  35.670  1.00  0.00     0.059 A 
ATOM     69  C   UNL A   1      40.401  32.401  36.862  1.00  0.00     0.059 A 
ATOM     70  F   UNL A   1      40.272  30.184  36.109  1.00  0.00    -0.206 F 
ATOM     71  C   UNL A   1      40.925  33.685  36.720  1.00  0.00     0.060 A 
BRANCH  71  72
ATOM     72  S   UNL A   1      40.488  34.991  37.889  1.00  0.00     0.124 S 
ATOM     73  O   UNL A   1      40.910  36.184  37.161  1.00  0.00    -0.237 OA
ATOM     74  O   UNL A   1      39.046  34.812  38.029  1.00  0.00    -0.237 OA
ATOM     75  O   UNL A   1      41.277  34.666  39.073  1.00  0.00    -0.744 OA
ENDBRANCH  71  72
ENDBRANCH  50  64
BRANCH  51  76
ATOM     76  C   UNL A   1      43.379  24.637  28.005  1.00  0.00     0.058 A 
ATOM     77  C   UNL A   1      44.109  24.899  26.838  1.00  0.00     0.135 A 
ATOM     78  C   UNL A   1      42.924  23.325  28.212  1.00  0.00     0.135 A 
ATOM     79  F   UNL A   1      44.560  26.139  26.592  1.00  0.00    -0.206 F 
ATOM     80  C   UNL A   1      44.381  23.900  25.909  1.00  0.00     0.059 A 
ATOM     81  C   UNL A   1      43.205  22.302  27.313  1.00  0.00     0.059 A 
ATOM     82  F   UNL A   1      42.233  23.020  29.322  1.00  0.00    -0.206 F 
ATOM     83  C   UNL A   1      43.929  22.601  26.160  1.00  0.00     0.060 A 
BRANCH  83  84
ATOM     84  S   UNL A   1      44.345  21.300  24.980  1.00  0.00     0.124 S 
ATOM     85  O   UNL A   1      44.206  22.001  23.710  1.00  0.00    -0.237 OA
ATOM     86  O   UNL A   1      45.707  20.953  25.375  1.00  0.00    -0.237 OA
ATOM     87  O   UNL A   1      43.343  20.271  25.248  1.00  0.00    -0.744 OA
ENDBRANCH  83  84
ENDBRANCH  51  76
BRANCH  63  88
ATOM     88  C   UNL A   1      46.844  26.872  33.636  1.00  0.00     0.058 A 
ATOM     89  C   UNL A   1      48.049  27.514  33.315  1.00  0.00     0.135 A 
ATOM     90  C   UNL A   1      46.873  25.870  34.620  1.00  0.00     0.135 A 
ATOM     91  F   UNL A   1      48.075  28.471  32.375  1.00  0.00    -0.206 F 
ATOM     92  C   UNL A   1      49.243  27.169  33.939  1.00  0.00     0.059 A 
ATOM     93  C   UNL A   1      48.051  25.526  35.276  1.00  0.00     0.059 A 
ATOM     94  F   UNL A   1      45.745  25.231  34.968  1.00  0.00    -0.206 F 
ATOM     95  C   UNL A   1      49.232  26.177  34.924  1.00  0.00     0.060 A 
BRANCH  95  96
ATOM     96  S   UNL A   1      50.782  25.776  35.759  1.00  0.00     0.124 S 
ATOM     97  O   UNL A   1      50.574  24.375  36.106  1.00  0.00    -0.237 OA
ATOM     98  O   UNL A   1      51.772  26.032  34.717  1.00  0.00    -0.237 OA
ATOM     99  O   UNL A   1      50.811  26.705  36.885  1.00  0.00    -0.744 OA
ENDBRANCH  95  96
ENDBRANCH  63  88
ENDBRANCH  37  38
ENDBRANCH  29  32
ENDBRANCH  27  28
ENDBRANCH  26  27
ENDBRANCH  25  26
ENDBRANCH   1  25
TORSDOF 20
ENDMDL
