MODEL 1
REMARK VINA RESULT:      -9.4      0.000      0.000
REMARK SMILES C/C(=C\C(=O)NCCCCCCNC(=O)c1ccc(-c2c3nc(c(-c4c(F)cc(S(=O)(=O)[O-])cc4F)c4ccc([nH]4)c(-c4c(F)cc(S(=O)(=O)[O-])cc4F)c4nc(c(-c5c(F)cc(S(=O)(=O)[O-])cc5F)c5ccc2[nH]5)C=C4)C=C3)cc1)CSc1ccc(N)c(C)c1
REMARK SMILES IDX 9 1 8 2 7 3 6 4 4 5 5 6 3 8 1 9 2 10 82 11 83 12 84 13 85 14
REMARK SMILES IDX 91 15 86 16 89 17 87 18 90 19 88 20 10 23 11 24 12 25 13 26
REMARK SMILES IDX 14 27 15 29 16 30 17 31 81 32 18 33 80 34 19 35 20 36 21 37
REMARK SMILES IDX 74 38 22 39 79 40 73 41 75 42 23 43 78 44 72 45 71 46 24 48
REMARK SMILES IDX 58 49 37 50 57 51 38 52 41 53 56 54 76 55 39 56 40 57 55 59
REMARK SMILES IDX 77 60 42 61 25 62 26 63 35 64 27 65 28 66 34 67 36 68 29 69
REMARK SMILES IDX 30 70 31 71 32 72 33 73 59 74 60 75 69 76 61 77 62 78 68 79
REMARK SMILES IDX 70 80 63 81 64 82 65 83 66 84 67 85 43 86 44 87 53 88 45 89
REMARK SMILES IDX 46 90 52 91 54 92 47 93 48 94 49 95 50 96 51 97
REMARK H PARENT 6 7 88 21 88 22 13 28 75 47 41 58
REMARK Flexibility Score: inf
ROOT
ATOM      1  C   UNL A   1      36.742  33.183  30.752  1.00  0.00     0.002 C 
ENDROOT
BRANCH   1   2
ATOM      2  C   UNL A   1      37.639  32.483  31.782  1.00  0.00     0.021 C 
BRANCH   2   3
ATOM      3  C   UNL A   1      36.873  31.915  32.974  1.00  0.00     0.116 C 
BRANCH   3   4
ATOM      4  N   UNL A   1      36.848  30.474  33.000  1.00  0.00    -0.353 N 
ATOM      5  C   UNL A   1      37.760  29.514  33.241  1.00  0.00     0.243 C 
ATOM      6  O   UNL A   1      37.353  28.346  33.188  1.00  0.00    -0.270 OA
ATOM      7  H   UNL A   1      35.957  30.107  32.795  1.00  0.00     0.163 HD
BRANCH   5   8
ATOM      8  C   UNL A   1      39.216  29.694  33.503  1.00  0.00     0.071 C 
ATOM      9  C   UNL A   1      40.723  28.078  32.204  1.00  0.00     0.040 C 
ATOM     10  C   UNL A   1      40.423  29.197  33.156  1.00  0.00    -0.058 C 
BRANCH  10  11
ATOM     11  C   UNL A   1      41.670  29.900  33.670  1.00  0.00     0.105 C 
BRANCH  11  12
ATOM     12  S   UNL A   1      43.082  28.761  33.816  1.00  0.00    -0.122 SA
BRANCH  12  13
ATOM     13  C   UNL A   1      42.432  27.492  34.888  1.00  0.00     0.008 A 
ATOM     14  C   UNL A   1      41.767  27.776  36.079  1.00  0.00     0.017 A 
ATOM     15  C   UNL A   1      42.686  26.157  34.562  1.00  0.00     0.020 A 
ATOM     16  C   UNL A   1      41.338  26.738  36.912  1.00  0.00     0.027 A 
ATOM     17  C   UNL A   1      42.263  25.105  35.397  1.00  0.00    -0.027 A 
ATOM     18  C   UNL A   1      41.562  25.398  36.577  1.00  0.00     0.034 A 
ATOM     19  C   UNL A   1      42.610  23.692  35.013  1.00  0.00     0.046 C 
BRANCH  18  20
ATOM     20  N   UNL A   1      41.209  24.410  37.486  1.00  0.00    -0.399 N 
ATOM     21  H   UNL A   1      41.033  23.492  37.173  1.00  0.00     0.156 HD
ATOM     22  H   UNL A   1      41.135  24.624  38.443  1.00  0.00     0.156 HD
ENDBRANCH  18  20
ENDBRANCH  12  13
ENDBRANCH  11  12
ENDBRANCH  10  11
ENDBRANCH   5   8
ENDBRANCH   3   4
ENDBRANCH   2   3
ENDBRANCH   1   2
BRANCH   1  23
ATOM     23  C   UNL A   1      35.245  33.224  31.095  1.00  0.00     0.002 C 
BRANCH  23  24
ATOM     24  C   UNL A   1      34.292  33.335  29.901  1.00  0.00     0.021 C 
BRANCH  24  25
ATOM     25  C   UNL A   1      34.799  32.690  28.612  1.00  0.00     0.116 C 
BRANCH  25  26
ATOM     26  N   UNL A   1      34.104  31.446  28.322  1.00  0.00    -0.352 N 
ATOM     27  C   UNL A   1      34.599  30.201  28.029  1.00  0.00     0.251 C 
ATOM     28  H   UNL A   1      33.121  31.507  28.337  1.00  0.00     0.163 HD
ATOM     29  O   UNL A   1      33.846  29.346  27.574  1.00  0.00    -0.269 OA
BRANCH  27  30
ATOM     30  C   UNL A   1      36.026  29.882  28.258  1.00  0.00     0.039 A 
ATOM     31  C   UNL A   1      36.915  29.982  27.185  1.00  0.00     0.014 A 
ATOM     32  C   UNL A   1      36.479  29.430  29.502  1.00  0.00     0.014 A 
ATOM     33  C   UNL A   1      38.265  29.673  27.370  1.00  0.00     0.010 A 
ATOM     34  C   UNL A   1      37.837  29.186  29.702  1.00  0.00     0.010 A 
ATOM     35  C   UNL A   1      38.741  29.297  28.638  1.00  0.00    -0.014 A 
BRANCH  35  36
ATOM     36  C   UNL A   1      40.186  29.033  28.855  1.00  0.00     0.031 A 
ATOM     37  C   UNL A   1      40.782  27.693  28.514  1.00  0.00     0.074 A 
ATOM     38  C   UNL A   1      40.954  29.995  29.404  1.00  0.00     0.049 A 
ATOM     39  N   UNL A   1      42.018  27.285  28.640  1.00  0.00    -0.248 NA
ATOM     40  C   UNL A   1      39.864  26.672  27.984  1.00  0.00     0.031 C 
ATOM     41  C   UNL A   1      40.477  31.311  29.836  1.00  0.00     0.029 A 
ATOM     42  N   UNL A   1      42.293  30.017  29.696  1.00  0.00    -0.354 N 
ATOM     43  C   UNL A   1      42.027  25.961  28.214  1.00  0.00     0.074 A 
ATOM     44  C   UNL A   1      40.662  25.620  27.875  1.00  0.00     0.031 C 
ATOM     45  C   UNL A   1      41.512  32.021  30.312  1.00  0.00     0.029 A 
ATOM     46  C   UNL A   1      42.719  31.204  30.244  1.00  0.00     0.049 A 
ATOM     47  H   UNL A   1      42.894  29.255  29.528  1.00  0.00     0.167 HD
ATOM     48  C   UNL A   1      43.080  25.115  28.098  1.00  0.00     0.037 A 
ATOM     49  C   UNL A   1      43.945  31.592  30.642  1.00  0.00     0.037 A 
ATOM     50  C   UNL A   1      44.438  25.470  28.417  1.00  0.00     0.049 A 
ATOM     51  C   UNL A   1      45.101  30.646  30.475  1.00  0.00     0.074 A 
ATOM     52  C   UNL A   1      45.586  24.709  28.272  1.00  0.00     0.029 A 
ATOM     53  N   UNL A   1      44.836  26.690  28.947  1.00  0.00    -0.354 N 
ATOM     54  N   UNL A   1      45.103  29.422  30.003  1.00  0.00    -0.248 NA
ATOM     55  C   UNL A   1      46.424  31.139  30.881  1.00  0.00     0.031 C 
ATOM     56  C   UNL A   1      46.670  25.454  28.750  1.00  0.00     0.029 A 
ATOM     57  C   UNL A   1      46.206  26.696  29.153  1.00  0.00     0.049 A 
ATOM     58  H   UNL A   1      44.231  27.441  29.148  1.00  0.00     0.167 HD
ATOM     59  C   UNL A   1      46.427  29.002  30.042  1.00  0.00     0.074 A 
ATOM     60  C   UNL A   1      47.201  30.113  30.561  1.00  0.00     0.031 C 
ATOM     61  C   UNL A   1      46.957  27.806  29.684  1.00  0.00     0.037 A 
BRANCH  48  62
ATOM     62  C   UNL A   1      42.803  23.725  27.594  1.00  0.00     0.058 A 
ATOM     63  C   UNL A   1      42.761  23.433  26.221  1.00  0.00     0.135 A 
ATOM     64  C   UNL A   1      42.609  22.662  28.492  1.00  0.00     0.135 A 
ATOM     65  F   UNL A   1      42.925  24.413  25.317  1.00  0.00    -0.206 F 
ATOM     66  C   UNL A   1      42.508  22.146  25.755  1.00  0.00     0.059 A 
ATOM     67  C   UNL A   1      42.381  21.362  28.050  1.00  0.00     0.059 A 
ATOM     68  F   UNL A   1      42.638  22.882  29.816  1.00  0.00    -0.206 F 
ATOM     69  C   UNL A   1      42.317  21.117  26.678  1.00  0.00     0.060 A 
BRANCH  69  70
ATOM     70  S   UNL A   1      41.994  19.453  26.060  1.00  0.00     0.124 S 
ATOM     71  O   UNL A   1      42.876  19.398  24.898  1.00  0.00    -0.237 OA
ATOM     72  O   UNL A   1      42.384  18.617  27.191  1.00  0.00    -0.237 OA
ATOM     73  O   UNL A   1      40.565  19.471  25.762  1.00  0.00    -0.744 OA
ENDBRANCH  69  70
ENDBRANCH  48  62
BRANCH  49  74
ATOM     74  C   UNL A   1      44.143  32.953  31.209  1.00  0.00     0.058 A 
ATOM     75  C   UNL A   1      44.317  34.064  30.371  1.00  0.00     0.135 A 
ATOM     76  C   UNL A   1      44.140  33.171  32.595  1.00  0.00     0.135 A 
ATOM     77  F   UNL A   1      44.330  33.902  29.038  1.00  0.00    -0.206 F 
ATOM     78  C   UNL A   1      44.495  35.344  30.885  1.00  0.00     0.059 A 
ATOM     79  C   UNL A   1      44.292  34.445  33.133  1.00  0.00     0.059 A 
ATOM     80  F   UNL A   1      43.958  32.143  33.438  1.00  0.00    -0.206 F 
ATOM     81  C   UNL A   1      44.478  35.524  32.269  1.00  0.00     0.060 A 
BRANCH  81  82
ATOM     82  S   UNL A   1      44.655  37.196  32.928  1.00  0.00     0.124 S 
ATOM     83  O   UNL A   1      43.769  37.152  34.085  1.00  0.00    -0.237 OA
ATOM     84  O   UNL A   1      46.085  37.263  33.219  1.00  0.00    -0.237 OA
ATOM     85  O   UNL A   1      44.210  38.038  31.822  1.00  0.00    -0.744 OA
ENDBRANCH  81  82
ENDBRANCH  49  74
BRANCH  61  86
ATOM     86  C   UNL A   1      48.444  27.648  29.835  1.00  0.00     0.058 A 
ATOM     87  C   UNL A   1      49.330  27.998  28.804  1.00  0.00     0.135 A 
ATOM     88  C   UNL A   1      48.990  27.146  31.028  1.00  0.00     0.135 A 
ATOM     89  F   UNL A   1      48.857  28.477  27.641  1.00  0.00    -0.206 F 
ATOM     90  C   UNL A   1      50.702  27.817  28.932  1.00  0.00     0.059 A 
ATOM     91  C   UNL A   1      50.363  26.983  31.188  1.00  0.00     0.059 A 
ATOM     92  F   UNL A   1      48.189  26.809  32.050  1.00  0.00    -0.206 F 
ATOM     93  C   UNL A   1      51.208  27.303  30.127  1.00  0.00     0.060 A 
BRANCH  93  94
ATOM     94  S   UNL A   1      52.992  27.066  30.283  1.00  0.00     0.124 S 
ATOM     95  O   UNL A   1      53.058  25.960  31.233  1.00  0.00    -0.237 OA
ATOM     96  O   UNL A   1      53.389  26.749  28.914  1.00  0.00    -0.237 OA
ATOM     97  O   UNL A   1      53.462  28.354  30.782  1.00  0.00    -0.744 OA
ENDBRANCH  93  94
ENDBRANCH  61  86
ENDBRANCH  35  36
ENDBRANCH  27  30
ENDBRANCH  25  26
ENDBRANCH  24  25
ENDBRANCH  23  24
ENDBRANCH   1  23
TORSDOF 20
ENDMDL
MODEL 2
REMARK VINA RESULT:      -9.1      4.526     10.633
REMARK SMILES C/C(=C\C(=O)NCCCCCCNC(=O)c1ccc(-c2c3nc(c(-c4c(F)cc(S(=O)(=O)[O-])cc4F)c4ccc([nH]4)c(-c4c(F)cc(S(=O)(=O)[O-])cc4F)c4nc(c(-c5c(F)cc(S(=O)(=O)[O-])cc5F)c5ccc2[nH]5)C=C4)C=C3)cc1)CSc1ccc(N)c(C)c1
REMARK SMILES IDX 9 1 8 2 7 3 6 4 4 5 5 6 3 8 1 9 2 10 82 11 83 12 84 13 85 14
REMARK SMILES IDX 91 15 86 16 89 17 87 18 90 19 88 20 10 23 11 24 12 25 13 26
REMARK SMILES IDX 14 27 15 29 16 30 17 31 81 32 18 33 80 34 19 35 20 36 21 37
REMARK SMILES IDX 74 38 22 39 79 40 73 41 75 42 23 43 78 44 72 45 71 46 24 48
REMARK SMILES IDX 58 49 37 50 57 51 38 52 41 53 56 54 76 55 39 56 40 57 55 59
REMARK SMILES IDX 77 60 42 61 25 62 26 63 35 64 27 65 28 66 34 67 36 68 29 69
REMARK SMILES IDX 30 70 31 71 32 72 33 73 59 74 60 75 69 76 61 77 62 78 68 79
REMARK SMILES IDX 70 80 63 81 64 82 65 83 66 84 67 85 43 86 44 87 53 88 45 89
REMARK SMILES IDX 46 90 52 91 54 92 47 93 48 94 49 95 50 96 51 97
REMARK H PARENT 6 7 88 21 88 22 13 28 75 47 41 58
REMARK Flexibility Score: inf
ROOT
ATOM      1  C   UNL A   1      32.823  29.355  25.316  1.00  0.00     0.002 C 
ENDROOT
BRANCH   1   2
ATOM      2  C   UNL A   1      31.394  28.897  24.995  1.00  0.00     0.021 C 
BRANCH   2   3
ATOM      3  C   UNL A   1      31.309  27.452  24.511  1.00  0.00     0.116 C 
BRANCH   3   4
ATOM      4  N   UNL A   1      30.500  26.613  25.360  1.00  0.00    -0.353 N 
ATOM      5  C   UNL A   1      30.702  25.458  26.021  1.00  0.00     0.243 C 
ATOM      6  O   UNL A   1      29.748  25.033  26.684  1.00  0.00    -0.270 OA
ATOM      7  H   UNL A   1      29.590  26.968  25.485  1.00  0.00     0.163 HD
BRANCH   5   8
ATOM      8  C   UNL A   1      31.922  24.602  25.996  1.00  0.00     0.071 C 
ATOM      9  C   UNL A   1      33.978  25.738  24.972  1.00  0.00     0.040 C 
ATOM     10  C   UNL A   1      33.218  24.619  25.617  1.00  0.00    -0.058 C 
BRANCH  10  11
ATOM     11  C   UNL A   1      34.092  23.427  25.977  1.00  0.00     0.105 C 
BRANCH  11  12
ATOM     12  S   UNL A   1      33.137  22.102  26.781  1.00  0.00    -0.122 SA
BRANCH  12  13
ATOM     13  C   UNL A   1      32.894  20.948  25.442  1.00  0.00     0.008 A 
ATOM     14  C   UNL A   1      32.671  21.351  24.128  1.00  0.00     0.017 A 
ATOM     15  C   UNL A   1      32.833  19.585  25.748  1.00  0.00     0.020 A 
ATOM     16  C   UNL A   1      32.421  20.403  23.132  1.00  0.00     0.027 A 
ATOM     17  C   UNL A   1      32.576  18.623  24.753  1.00  0.00    -0.027 A 
ATOM     18  C   UNL A   1      32.388  19.034  23.424  1.00  0.00     0.034 A 
ATOM     19  C   UNL A   1      32.475  17.176  25.155  1.00  0.00     0.046 C 
BRANCH  18  20
ATOM     20  N   UNL A   1      32.034  18.141  22.422  1.00  0.00    -0.399 N 
ATOM     21  H   UNL A   1      31.153  18.213  21.986  1.00  0.00     0.156 HD
ATOM     22  H   UNL A   1      32.662  17.435  22.146  1.00  0.00     0.156 HD
ENDBRANCH  18  20
ENDBRANCH  12  13
ENDBRANCH  11  12
ENDBRANCH  10  11
ENDBRANCH   5   8
ENDBRANCH   3   4
ENDBRANCH   2   3
ENDBRANCH   1   2
BRANCH   1  23
ATOM     23  C   UNL A   1      33.069  29.793  26.768  1.00  0.00     0.002 C 
BRANCH  23  24
ATOM     24  C   UNL A   1      34.365  29.285  27.406  1.00  0.00     0.021 C 
BRANCH  24  25
ATOM     25  C   UNL A   1      35.311  30.378  27.900  1.00  0.00     0.116 C 
BRANCH  25  26
ATOM     26  N   UNL A   1      35.325  30.463  29.351  1.00  0.00    -0.352 N 
ATOM     27  C   UNL A   1      36.290  30.093  30.252  1.00  0.00     0.251 C 
ATOM     28  H   UNL A   1      34.511  30.847  29.751  1.00  0.00     0.163 HD
ATOM     29  O   UNL A   1      36.005  30.021  31.444  1.00  0.00    -0.269 OA
BRANCH  27  30
ATOM     30  C   UNL A   1      37.666  29.783  29.802  1.00  0.00     0.039 A 
ATOM     31  C   UNL A   1      38.609  29.389  30.754  1.00  0.00     0.014 A 
ATOM     32  C   UNL A   1      38.044  29.937  28.464  1.00  0.00     0.014 A 
ATOM     33  C   UNL A   1      39.918  29.104  30.358  1.00  0.00     0.010 A 
ATOM     34  C   UNL A   1      39.332  29.589  28.060  1.00  0.00     0.010 A 
ATOM     35  C   UNL A   1      40.283  29.177  29.003  1.00  0.00    -0.014 A 
BRANCH  35  36
ATOM     36  C   UNL A   1      41.656  28.811  28.568  1.00  0.00     0.031 A 
ATOM     37  C   UNL A   1      42.741  29.851  28.495  1.00  0.00     0.074 A 
ATOM     38  C   UNL A   1      41.909  27.540  28.198  1.00  0.00     0.049 A 
ATOM     39  N   UNL A   1      43.991  29.713  28.135  1.00  0.00    -0.248 NA
ATOM     40  C   UNL A   1      42.367  31.230  28.849  1.00  0.00     0.031 C 
ATOM     41  C   UNL A   1      40.922  26.458  28.165  1.00  0.00     0.029 A 
ATOM     42  N   UNL A   1      43.069  26.943  27.775  1.00  0.00    -0.354 N 
ATOM     43  C   UNL A   1      44.551  30.984  28.211  1.00  0.00     0.074 A 
ATOM     44  C   UNL A   1      43.490  31.888  28.602  1.00  0.00     0.031 C 
ATOM     45  C   UNL A   1      41.524  25.324  27.772  1.00  0.00     0.029 A 
ATOM     46  C   UNL A   1      42.930  25.603  27.499  1.00  0.00     0.049 A 
ATOM     47  H   UNL A   1      43.920  27.428  27.679  1.00  0.00     0.167 HD
ATOM     48  C   UNL A   1      45.836  31.358  27.995  1.00  0.00     0.037 A 
ATOM     49  C   UNL A   1      43.835  24.700  27.078  1.00  0.00     0.037 A 
ATOM     50  C   UNL A   1      46.889  30.448  27.627  1.00  0.00     0.049 A 
ATOM     51  C   UNL A   1      45.259  25.133  26.875  1.00  0.00     0.074 A 
ATOM     52  C   UNL A   1      48.237  30.715  27.449  1.00  0.00     0.029 A 
ATOM     53  N   UNL A   1      46.717  29.093  27.380  1.00  0.00    -0.354 N 
ATOM     54  N   UNL A   1      45.787  26.326  27.021  1.00  0.00    -0.248 NA
ATOM     55  C   UNL A   1      46.215  24.097  26.462  1.00  0.00     0.031 C 
ATOM     56  C   UNL A   1      48.871  29.529  27.057  1.00  0.00     0.029 A 
ATOM     57  C   UNL A   1      47.927  28.515  27.032  1.00  0.00     0.049 A 
ATOM     58  H   UNL A   1      45.859  28.614  27.441  1.00  0.00     0.167 HD
ATOM     59  C   UNL A   1      47.139  26.181  26.732  1.00  0.00     0.074 A 
ATOM     60  C   UNL A   1      47.351  24.780  26.427  1.00  0.00     0.031 C 
ATOM     61  C   UNL A   1      48.117  27.120  26.718  1.00  0.00     0.037 A 
BRANCH  48  62
ATOM     62  C   UNL A   1      46.174  32.815  28.161  1.00  0.00     0.058 A 
ATOM     63  C   UNL A   1      46.618  33.333  29.388  1.00  0.00     0.135 A 
ATOM     64  C   UNL A   1      46.085  33.699  27.073  1.00  0.00     0.135 A 
ATOM     65  F   UNL A   1      46.707  32.536  30.465  1.00  0.00    -0.206 F 
ATOM     66  C   UNL A   1      46.933  34.680  29.540  1.00  0.00     0.059 A 
ATOM     67  C   UNL A   1      46.421  35.045  27.195  1.00  0.00     0.059 A 
ATOM     68  F   UNL A   1      45.667  33.259  25.875  1.00  0.00    -0.206 F 
ATOM     69  C   UNL A   1      46.830  35.529  28.438  1.00  0.00     0.060 A 
BRANCH  69  70
ATOM     70  S   UNL A   1      47.245  37.273  28.649  1.00  0.00     0.124 S 
ATOM     71  O   UNL A   1      46.078  37.922  28.060  1.00  0.00    -0.237 OA
ATOM     72  O   UNL A   1      47.373  37.392  30.098  1.00  0.00    -0.237 OA
ATOM     73  O   UNL A   1      48.489  37.420  27.900  1.00  0.00    -0.744 OA
ENDBRANCH  69  70
ENDBRANCH  48  62
BRANCH  49  74
ATOM     74  C   UNL A   1      43.424  23.289  26.854  1.00  0.00     0.058 A 
ATOM     75  C   UNL A   1      43.293  22.774  25.556  1.00  0.00     0.135 A 
ATOM     76  C   UNL A   1      43.177  22.423  27.930  1.00  0.00     0.135 A 
ATOM     77  F   UNL A   1      43.516  23.566  24.495  1.00  0.00    -0.206 F 
ATOM     78  C   UNL A   1      42.918  21.454  25.330  1.00  0.00     0.059 A 
ATOM     79  C   UNL A   1      42.823  21.093  27.730  1.00  0.00     0.059 A 
ATOM     80  F   UNL A   1      43.307  22.863  29.191  1.00  0.00    -0.206 F 
ATOM     81  C   UNL A   1      42.687  20.620  26.425  1.00  0.00     0.060 A 
BRANCH  81  82
ATOM     82  S   UNL A   1      42.254  18.893  26.123  1.00  0.00     0.124 S 
ATOM     83  O   UNL A   1      40.852  19.003  25.740  1.00  0.00    -0.237 OA
ATOM     84  O   UNL A   1      43.182  18.525  25.057  1.00  0.00    -0.237 OA
ATOM     85  O   UNL A   1      42.510  18.255  27.411  1.00  0.00    -0.744 OA
ENDBRANCH  81  82
ENDBRANCH  49  74
BRANCH  61  86
ATOM     86  C   UNL A   1      49.503  26.655  26.369  1.00  0.00     0.058 A 
ATOM     87  C   UNL A   1      49.987  26.710  25.052  1.00  0.00     0.135 A 
ATOM     88  C   UNL A   1      50.358  26.151  27.363  1.00  0.00     0.135 A 
ATOM     89  F   UNL A   1      49.207  27.178  24.065  1.00  0.00    -0.206 F 
ATOM     90  C   UNL A   1      51.256  26.245  24.725  1.00  0.00     0.059 A 
ATOM     91  C   UNL A   1      51.642  25.706  27.061  1.00  0.00     0.059 A 
ATOM     92  F   UNL A   1      49.949  26.088  28.639  1.00  0.00    -0.206 F 
ATOM     93  C   UNL A   1      52.073  25.738  25.736  1.00  0.00     0.060 A 
BRANCH  93  94
ATOM     94  S   UNL A   1      53.717  25.131  25.301  1.00  0.00     0.124 S 
ATOM     95  O   UNL A   1      54.544  25.770  26.318  1.00  0.00    -0.237 OA
ATOM     96  O   UNL A   1      53.562  23.685  25.426  1.00  0.00    -0.237 OA
ATOM     97  O   UNL A   1      53.907  25.618  23.937  1.00  0.00    -0.744 OA
ENDBRANCH  93  94
ENDBRANCH  61  86
ENDBRANCH  35  36
ENDBRANCH  27  30
ENDBRANCH  25  26
ENDBRANCH  24  25
ENDBRANCH  23  24
ENDBRANCH   1  23
TORSDOF 20
ENDMDL
MODEL 3
REMARK VINA RESULT:      -9.0      3.584      6.010
REMARK SMILES C/C(=C\C(=O)NCCCCCCNC(=O)c1ccc(-c2c3nc(c(-c4c(F)cc(S(=O)(=O)[O-])cc4F)c4ccc([nH]4)c(-c4c(F)cc(S(=O)(=O)[O-])cc4F)c4nc(c(-c5c(F)cc(S(=O)(=O)[O-])cc5F)c5ccc2[nH]5)C=C4)C=C3)cc1)CSc1ccc(N)c(C)c1
REMARK SMILES IDX 9 1 8 2 7 3 6 4 4 5 5 6 3 8 1 9 2 10 82 11 83 12 84 13 85 14
REMARK SMILES IDX 91 15 86 16 89 17 87 18 90 19 88 20 10 23 11 24 12 25 13 26
REMARK SMILES IDX 14 27 15 29 16 30 17 31 81 32 18 33 80 34 19 35 20 36 21 37
REMARK SMILES IDX 74 38 22 39 79 40 73 41 75 42 23 43 78 44 72 45 71 46 24 48
REMARK SMILES IDX 58 49 37 50 57 51 38 52 41 53 56 54 76 55 39 56 40 57 55 59
REMARK SMILES IDX 77 60 42 61 25 62 26 63 35 64 27 65 28 66 34 67 36 68 29 69
REMARK SMILES IDX 30 70 31 71 32 72 33 73 59 74 60 75 69 76 61 77 62 78 68 79
REMARK SMILES IDX 70 80 63 81 64 82 65 83 66 84 67 85 43 86 44 87 53 88 45 89
REMARK SMILES IDX 46 90 52 91 54 92 47 93 48 94 49 95 50 96 51 97
REMARK H PARENT 6 7 88 21 88 22 13 28 75 47 41 58
REMARK Flexibility Score: inf
ROOT
ATOM      1  C   UNL A   1      35.244  31.857  27.724  1.00  0.00     0.002 C 
ENDROOT
BRANCH   1   2
ATOM      2  C   UNL A   1      33.949  31.039  27.629  1.00  0.00     0.021 C 
BRANCH   2   3
ATOM      3  C   UNL A   1      34.175  29.579  27.246  1.00  0.00     0.116 C 
BRANCH   3   4
ATOM      4  N   UNL A   1      34.040  29.334  25.832  1.00  0.00    -0.353 N 
ATOM      5  C   UNL A   1      33.794  28.246  25.077  1.00  0.00     0.243 C 
ATOM      6  O   UNL A   1      33.731  28.431  23.855  1.00  0.00    -0.270 OA
ATOM      7  H   UNL A   1      34.155  30.150  25.293  1.00  0.00     0.163 HD
BRANCH   5   8
ATOM      8  C   UNL A   1      33.650  26.837  25.540  1.00  0.00     0.071 C 
ATOM      9  C   UNL A   1      31.229  26.127  25.996  1.00  0.00     0.040 C 
ATOM     10  C   UNL A   1      32.715  25.938  25.915  1.00  0.00    -0.058 C 
BRANCH  10  11
ATOM     11  C   UNL A   1      33.154  24.506  26.180  1.00  0.00     0.105 C 
BRANCH  11  12
ATOM     12  S   UNL A   1      33.483  23.599  24.637  1.00  0.00    -0.122 SA
BRANCH  12  13
ATOM     13  C   UNL A   1      35.174  23.077  24.860  1.00  0.00     0.008 A 
ATOM     14  C   UNL A   1      35.651  21.847  24.412  1.00  0.00     0.017 A 
ATOM     15  C   UNL A   1      36.028  23.901  25.598  1.00  0.00     0.020 A 
ATOM     16  C   UNL A   1      36.969  21.464  24.674  1.00  0.00     0.027 A 
ATOM     17  C   UNL A   1      37.356  23.522  25.872  1.00  0.00    -0.027 A 
ATOM     18  C   UNL A   1      37.840  22.297  25.387  1.00  0.00     0.034 A 
ATOM     19  C   UNL A   1      38.209  24.432  26.713  1.00  0.00     0.046 C 
BRANCH  18  20
ATOM     20  N   UNL A   1      39.106  21.828  25.709  1.00  0.00    -0.399 N 
ATOM     21  H   UNL A   1      39.280  21.454  26.604  1.00  0.00     0.156 HD
ATOM     22  H   UNL A   1      39.830  21.867  25.045  1.00  0.00     0.156 HD
ENDBRANCH  18  20
ENDBRANCH  12  13
ENDBRANCH  11  12
ENDBRANCH  10  11
ENDBRANCH   5   8
ENDBRANCH   3   4
ENDBRANCH   2   3
ENDBRANCH   1   2
BRANCH   1  23
ATOM     23  C   UNL A   1      35.076  33.319  28.164  1.00  0.00     0.002 C 
BRANCH  23  24
ATOM     24  C   UNL A   1      35.593  33.655  29.566  1.00  0.00     0.021 C 
BRANCH  24  25
ATOM     25  C   UNL A   1      36.725  32.758  30.066  1.00  0.00     0.116 C 
BRANCH  25  26
ATOM     26  N   UNL A   1      36.217  31.555  30.705  1.00  0.00    -0.352 N 
ATOM     27  C   UNL A   1      36.689  30.268  30.675  1.00  0.00     0.251 C 
ATOM     28  H   UNL A   1      35.404  31.685  31.247  1.00  0.00     0.163 HD
ATOM     29  O   UNL A   1      35.974  29.356  31.081  1.00  0.00    -0.269 OA
BRANCH  27  30
ATOM     30  C   UNL A   1      38.044  29.971  30.161  1.00  0.00     0.039 A 
ATOM     31  C   UNL A   1      39.077  29.759  31.078  1.00  0.00     0.014 A 
ATOM     32  C   UNL A   1      38.315  29.962  28.789  1.00  0.00     0.014 A 
ATOM     33  C   UNL A   1      40.369  29.491  30.620  1.00  0.00     0.010 A 
ATOM     34  C   UNL A   1      39.590  29.630  28.333  1.00  0.00     0.010 A 
ATOM     35  C   UNL A   1      40.630  29.399  29.243  1.00  0.00    -0.014 A 
BRANCH  35  36
ATOM     36  C   UNL A   1      41.988  29.049  28.752  1.00  0.00     0.031 A 
ATOM     37  C   UNL A   1      42.300  27.650  28.291  1.00  0.00     0.074 A 
ATOM     38  C   UNL A   1      42.952  29.990  28.763  1.00  0.00     0.049 A 
ATOM     39  N   UNL A   1      43.427  27.165  27.836  1.00  0.00    -0.248 NA
ATOM     40  C   UNL A   1      41.213  26.662  28.376  1.00  0.00     0.031 C 
ATOM     41  C   UNL A   1      42.786  31.363  29.246  1.00  0.00     0.029 A 
ATOM     42  N   UNL A   1      44.262  29.937  28.361  1.00  0.00    -0.354 N 
ATOM     43  C   UNL A   1      43.189  25.818  27.588  1.00  0.00     0.074 A 
ATOM     44  C   UNL A   1      41.824  25.552  27.991  1.00  0.00     0.031 C 
ATOM     45  C   UNL A   1      43.940  32.029  29.087  1.00  0.00     0.029 A 
ATOM     46  C   UNL A   1      44.935  31.127  28.517  1.00  0.00     0.049 A 
ATOM     47  H   UNL A   1      44.680  29.125  27.994  1.00  0.00     0.167 HD
ATOM     48  C   UNL A   1      44.024  24.894  27.053  1.00  0.00     0.037 A 
ATOM     49  C   UNL A   1      46.208  31.453  28.228  1.00  0.00     0.037 A 
ATOM     50  C   UNL A   1      45.373  25.174  26.634  1.00  0.00     0.049 A 
ATOM     51  C   UNL A   1      47.105  30.419  27.608  1.00  0.00     0.074 A 
ATOM     52  C   UNL A   1      46.280  24.325  26.021  1.00  0.00     0.029 A 
ATOM     53  N   UNL A   1      46.014  26.395  26.786  1.00  0.00    -0.354 N 
ATOM     54  N   UNL A   1      46.841  29.168  27.313  1.00  0.00    -0.248 NA
ATOM     55  C   UNL A   1      48.470  30.844  27.270  1.00  0.00     0.031 C 
ATOM     56  C   UNL A   1      47.479  25.023  25.837  1.00  0.00     0.029 A 
ATOM     57  C   UNL A   1      47.308  26.319  26.296  1.00  0.00     0.049 A 
ATOM     58  H   UNL A   1      45.607  27.200  27.184  1.00  0.00     0.167 HD
ATOM     59  C   UNL A   1      48.001  28.660  26.741  1.00  0.00     0.074 A 
ATOM     60  C   UNL A   1      48.960  29.746  26.710  1.00  0.00     0.031 C 
ATOM     61  C   UNL A   1      48.253  27.408  26.285  1.00  0.00     0.037 A 
BRANCH  48  62
ATOM     62  C   UNL A   1      43.497  23.495  26.882  1.00  0.00     0.058 A 
ATOM     63  C   UNL A   1      43.093  23.008  25.629  1.00  0.00     0.135 A 
ATOM     64  C   UNL A   1      43.424  22.618  27.977  1.00  0.00     0.135 A 
ATOM     65  F   UNL A   1      43.127  23.808  24.551  1.00  0.00    -0.206 F 
ATOM     66  C   UNL A   1      42.608  21.713  25.471  1.00  0.00     0.059 A 
ATOM     67  C   UNL A   1      42.968  21.310  27.838  1.00  0.00     0.059 A 
ATOM     68  F   UNL A   1      43.798  23.030  29.200  1.00  0.00    -0.206 F 
ATOM     69  C   UNL A   1      42.548  20.872  26.582  1.00  0.00     0.060 A 
BRANCH  69  70
ATOM     70  S   UNL A   1      41.921  19.194  26.362  1.00  0.00     0.124 S 
ATOM     71  O   UNL A   1      42.155  18.620  27.684  1.00  0.00    -0.237 OA
ATOM     72  O   UNL A   1      40.523  19.425  26.011  1.00  0.00    -0.237 OA
ATOM     73  O   UNL A   1      42.752  18.657  25.289  1.00  0.00    -0.744 OA
ENDBRANCH  69  70
ENDBRANCH  48  62
BRANCH  49  74
ATOM     74  C   UNL A   1      46.697  32.832  28.494  1.00  0.00     0.058 A 
ATOM     75  C   UNL A   1      47.270  33.168  29.730  1.00  0.00     0.135 A 
ATOM     76  C   UNL A   1      46.623  33.832  27.513  1.00  0.00     0.135 A 
ATOM     77  F   UNL A   1      47.359  32.245  30.700  1.00  0.00    -0.206 F 
ATOM     78  C   UNL A   1      47.739  34.451  29.990  1.00  0.00     0.059 A 
ATOM     79  C   UNL A   1      47.107  35.116  27.741  1.00  0.00     0.059 A 
ATOM     80  F   UNL A   1      46.101  33.555  26.308  1.00  0.00    -0.206 F 
ATOM     81  C   UNL A   1      47.655  35.419  28.988  1.00  0.00     0.060 A 
BRANCH  81  82
ATOM     82  S   UNL A   1      48.317  37.066  29.315  1.00  0.00     0.124 S 
ATOM     83  O   UNL A   1      47.788  37.825  28.188  1.00  0.00    -0.237 OA
ATOM     84  O   UNL A   1      47.742  37.375  30.621  1.00  0.00    -0.237 OA
ATOM     85  O   UNL A   1      49.761  36.852  29.311  1.00  0.00    -0.744 OA
ENDBRANCH  81  82
ENDBRANCH  49  74
BRANCH  61  86
ATOM     86  C   UNL A   1      49.617  27.156  25.707  1.00  0.00     0.058 A 
ATOM     87  C   UNL A   1      49.897  27.397  24.352  1.00  0.00     0.135 A 
ATOM     88  C   UNL A   1      50.658  26.673  26.517  1.00  0.00     0.135 A 
ATOM     89  F   UNL A   1      48.936  27.855  23.534  1.00  0.00    -0.206 F 
ATOM     90  C   UNL A   1      51.150  27.130  23.811  1.00  0.00     0.059 A 
ATOM     91  C   UNL A   1      51.927  26.424  26.001  1.00  0.00     0.059 A 
ATOM     92  F   UNL A   1      50.446  26.437  27.821  1.00  0.00    -0.206 F 
ATOM     93  C   UNL A   1      52.156  26.637  24.643  1.00  0.00     0.060 A 
BRANCH  93  94
ATOM     94  S   UNL A   1      53.778  26.287  23.930  1.00  0.00     0.124 S 
ATOM     95  O   UNL A   1      53.440  26.066  22.528  1.00  0.00    -0.237 OA
ATOM     96  O   UNL A   1      54.520  27.511  24.218  1.00  0.00    -0.237 OA
ATOM     97  O   UNL A   1      54.222  25.106  24.664  1.00  0.00    -0.744 OA
ENDBRANCH  93  94
ENDBRANCH  61  86
ENDBRANCH  35  36
ENDBRANCH  27  30
ENDBRANCH  25  26
ENDBRANCH  24  25
ENDBRANCH  23  24
ENDBRANCH   1  23
TORSDOF 20
ENDMDL
