MODEL 1
REMARK VINA RESULT:     -10.9      0.000      0.000
REMARK SMILES C[C@H]1[C@@H](C(=O)NCCCCCCNC(=O)c2ccc(-c3c4nc(c(-c5c(F)cc(S(=O)(=O)[O-])cc5F)c5ccc([nH]5)c(-c5c(F)cc(S(=O)(=O)[O-])cc5F)c5nc(c(-c6c(F)cc(S(=O)(=O)[O-])cc6F)c6ccc3[nH]6)C=C5)C=C4)cc2)CC[N@@H+]1Cc1cc(F)c(F)c(F)c1
REMARK SMILES IDX 10 1 9 2 8 3 7 4 6 5 4 6 5 7 3 9 1 10 2 11 84 12 82 13 83 14
REMARK SMILES IDX 85 16 86 17 87 18 94 19 88 20 92 21 89 22 90 23 93 24 91 25
REMARK SMILES IDX 11 26 12 27 13 28 14 29 15 31 16 32 17 33 81 34 18 35 80 36
REMARK SMILES IDX 19 37 20 38 21 39 74 40 22 41 79 42 73 43 75 44 23 45 78 46
REMARK SMILES IDX 72 47 71 48 24 50 58 51 37 52 57 53 38 54 41 55 56 56 76 57
REMARK SMILES IDX 39 58 40 59 55 61 77 62 42 63 25 64 26 65 35 66 27 67 28 68
REMARK SMILES IDX 34 69 36 70 29 71 30 72 31 73 32 74 33 75 59 76 60 77 69 78
REMARK SMILES IDX 61 79 62 80 68 81 70 82 63 83 64 84 65 85 66 86 67 87 43 88
REMARK SMILES IDX 44 89 53 90 45 91 46 92 52 93 54 94 47 95 48 96 49 97 50 98
REMARK SMILES IDX 51 99
REMARK H PARENT 6 8 84 15 13 30 75 49 41 60
REMARK Flexibility Score: inf
ROOT
ATOM      1  C   UNL A   1      33.527  28.865  24.632  1.00  0.00     0.002 C 
ENDROOT
BRANCH   1   2
ATOM      2  C   UNL A   1      33.077  28.524  23.211  1.00  0.00     0.002 C 
BRANCH   2   3
ATOM      3  C   UNL A   1      33.939  27.468  22.516  1.00  0.00     0.021 C 
BRANCH   3   4
ATOM      4  C   UNL A   1      33.134  26.354  21.836  1.00  0.00     0.116 C 
BRANCH   4   5
ATOM      5  N   UNL A   1      31.933  26.135  22.607  1.00  0.00    -0.356 N 
ATOM      6  C   UNL A   1      31.591  25.065  23.375  1.00  0.00     0.229 C 
ATOM      7  O   UNL A   1      30.378  24.864  23.494  1.00  0.00    -0.275 OA
ATOM      8  H   UNL A   1      31.269  26.860  22.571  1.00  0.00     0.163 HD
BRANCH   6   9
ATOM      9  C   UNL A   1      32.637  24.301  24.203  1.00  0.00     0.142 C 
ATOM     10  C   UNL A   1      32.665  22.117  22.665  1.00  0.00     0.076 C 
ATOM     11  C   UNL A   1      33.039  22.823  23.955  1.00  0.00     0.193 C 
ATOM     12  N   UNL A   1      32.434  22.022  25.036  1.00  0.00    -0.328 N 
ATOM     13  C   UNL A   1      32.150  24.258  25.665  1.00  0.00     0.081 C 
ATOM     14  C   UNL A   1      31.531  22.881  25.782  1.00  0.00     0.263 C 
ATOM     15  H   UNL A   1      31.876  21.274  24.625  1.00  0.00     0.348 HD
BRANCH  12  16
ATOM     16  C   UNL A   1      33.344  21.163  25.796  1.00  0.00     0.299 C 
BRANCH  16  17
ATOM     17  C   UNL A   1      34.829  21.431  25.657  1.00  0.00     0.012 A 
ATOM     18  C   UNL A   1      35.389  22.638  26.110  1.00  0.00     0.052 A 
ATOM     19  C   UNL A   1      35.679  20.482  25.066  1.00  0.00     0.052 A 
ATOM     20  C   UNL A   1      36.762  22.860  26.003  1.00  0.00     0.162 A 
ATOM     21  C   UNL A   1      37.051  20.710  24.991  1.00  0.00     0.162 A 
ATOM     22  F   UNL A   1      37.273  24.019  26.438  1.00  0.00    -0.204 F 
ATOM     23  C   UNL A   1      37.597  21.894  25.458  1.00  0.00     0.194 A 
ATOM     24  F   UNL A   1      37.840  19.760  24.470  1.00  0.00    -0.204 F 
ATOM     25  F   UNL A   1      38.918  22.105  25.379  1.00  0.00    -0.200 F 
ENDBRANCH  16  17
ENDBRANCH  12  16
ENDBRANCH   6   9
ENDBRANCH   4   5
ENDBRANCH   3   4
ENDBRANCH   2   3
ENDBRANCH   1   2
BRANCH   1  26
ATOM     26  C   UNL A   1      33.318  27.749  25.661  1.00  0.00     0.021 C 
BRANCH  26  27
ATOM     27  C   UNL A   1      33.637  28.142  27.103  1.00  0.00     0.116 C 
BRANCH  27  28
ATOM     28  N   UNL A   1      33.497  29.575  27.310  1.00  0.00    -0.352 N 
ATOM     29  C   UNL A   1      34.354  30.447  27.927  1.00  0.00     0.251 C 
ATOM     30  H   UNL A   1      32.668  29.974  26.956  1.00  0.00     0.163 HD
ATOM     31  O   UNL A   1      33.962  31.570  28.246  1.00  0.00    -0.269 OA
BRANCH  29  32
ATOM     32  C   UNL A   1      35.743  30.036  28.212  1.00  0.00     0.039 A 
ATOM     33  C   UNL A   1      36.698  30.115  27.196  1.00  0.00     0.014 A 
ATOM     34  C   UNL A   1      36.095  29.554  29.477  1.00  0.00     0.014 A 
ATOM     35  C   UNL A   1      38.020  29.757  27.465  1.00  0.00     0.010 A 
ATOM     36  C   UNL A   1      37.426  29.260  29.760  1.00  0.00     0.010 A 
ATOM     37  C   UNL A   1      38.400  29.351  28.754  1.00  0.00    -0.014 A 
BRANCH  37  38
ATOM     38  C   UNL A   1      39.811  29.010  29.068  1.00  0.00     0.031 A 
ATOM     39  C   UNL A   1      40.711  30.033  29.706  1.00  0.00     0.074 A 
ATOM     40  C   UNL A   1      40.295  27.801  28.724  1.00  0.00     0.049 A 
ATOM     41  N   UNL A   1      41.983  29.946  29.999  1.00  0.00    -0.248 NA
ATOM     42  C   UNL A   1      40.108  31.335  30.034  1.00  0.00     0.031 C 
ATOM     43  C   UNL A   1      39.532  26.742  28.058  1.00  0.00     0.029 A 
ATOM     44  N   UNL A   1      41.547  27.260  28.877  1.00  0.00    -0.354 N 
ATOM     45  C   UNL A   1      42.335  31.181  30.533  1.00  0.00     0.074 A 
ATOM     46  C   UNL A   1      41.156  32.017  30.474  1.00  0.00     0.031 C 
ATOM     47  C   UNL A   1      40.326  25.674  27.879  1.00  0.00     0.029 A 
ATOM     48  C   UNL A   1      41.660  25.982  28.383  1.00  0.00     0.049 A 
ATOM     49  H   UNL A   1      42.294  27.742  29.300  1.00  0.00     0.167 HD
ATOM     50  C   UNL A   1      43.525  31.573  31.045  1.00  0.00     0.037 A 
ATOM     51  C   UNL A   1      42.722  25.154  28.336  1.00  0.00     0.037 A 
ATOM     52  C   UNL A   1      44.687  30.727  31.122  1.00  0.00     0.049 A 
ATOM     53  C   UNL A   1      44.035  25.612  28.912  1.00  0.00     0.074 A 
ATOM     54  C   UNL A   1      45.923  31.009  31.677  1.00  0.00     0.029 A 
ATOM     55  N   UNL A   1      44.758  29.432  30.627  1.00  0.00    -0.354 N 
ATOM     56  N   UNL A   1      44.333  26.761  29.470  1.00  0.00    -0.248 NA
ATOM     57  C   UNL A   1      45.153  24.660  28.857  1.00  0.00     0.031 C 
ATOM     58  C   UNL A   1      46.754  29.900  31.481  1.00  0.00     0.029 A 
ATOM     59  C   UNL A   1      46.023  28.911  30.845  1.00  0.00     0.049 A 
ATOM     60  H   UNL A   1      44.019  28.955  30.186  1.00  0.00     0.167 HD
ATOM     61  C   UNL A   1      45.665  26.663  29.854  1.00  0.00     0.074 A 
ATOM     62  C   UNL A   1      46.111  25.337  29.475  1.00  0.00     0.031 C 
ATOM     63  C   UNL A   1      46.449  27.587  30.464  1.00  0.00     0.037 A 
BRANCH  50  64
ATOM     64  C   UNL A   1      43.628  32.981  31.568  1.00  0.00     0.058 A 
ATOM     65  C   UNL A   1      43.483  33.270  32.934  1.00  0.00     0.135 A 
ATOM     66  C   UNL A   1      43.898  34.049  30.698  1.00  0.00     0.135 A 
ATOM     67  F   UNL A   1      43.209  32.289  33.809  1.00  0.00    -0.206 F 
ATOM     68  C   UNL A   1      43.569  34.573  33.416  1.00  0.00     0.059 A 
ATOM     69  C   UNL A   1      44.016  35.357  31.161  1.00  0.00     0.059 A 
ATOM     70  F   UNL A   1      44.046  33.829  29.383  1.00  0.00    -0.206 F 
ATOM     71  C   UNL A   1      43.834  35.611  32.520  1.00  0.00     0.060 A 
BRANCH  71  72
ATOM     72  S   UNL A   1      43.937  37.296  33.159  1.00  0.00     0.124 S 
ATOM     73  O   UNL A   1      42.708  37.386  33.940  1.00  0.00    -0.237 OA
ATOM     74  O   UNL A   1      45.177  37.262  33.930  1.00  0.00    -0.237 OA
ATOM     75  O   UNL A   1      43.975  38.115  31.952  1.00  0.00    -0.744 OA
ENDBRANCH  71  72
ENDBRANCH  50  64
BRANCH  51  76
ATOM     76  C   UNL A   1      42.579  23.798  27.744  1.00  0.00     0.058 A 
ATOM     77  C   UNL A   1      42.658  23.605  26.357  1.00  0.00     0.135 A 
ATOM     78  C   UNL A   1      42.383  22.667  28.552  1.00  0.00     0.135 A 
ATOM     79  F   UNL A   1      42.838  24.657  25.544  1.00  0.00    -0.206 F 
ATOM     80  C   UNL A   1      42.534  22.341  25.788  1.00  0.00     0.059 A 
ATOM     81  C   UNL A   1      42.281  21.389  28.009  1.00  0.00     0.059 A 
ATOM     82  F   UNL A   1      42.319  22.796  29.887  1.00  0.00    -0.206 F 
ATOM     83  C   UNL A   1      42.349  21.238  26.624  1.00  0.00     0.060 A 
BRANCH  83  84
ATOM     84  S   UNL A   1      42.246  19.596  25.881  1.00  0.00     0.124 S 
ATOM     85  O   UNL A   1      43.228  19.697  24.807  1.00  0.00    -0.237 OA
ATOM     86  O   UNL A   1      42.610  18.730  26.999  1.00  0.00    -0.237 OA
ATOM     87  O   UNL A   1      40.852  19.507  25.459  1.00  0.00    -0.744 OA
ENDBRANCH  83  84
ENDBRANCH  51  76
BRANCH  63  88
ATOM     88  C   UNL A   1      47.863  27.188  30.783  1.00  0.00     0.058 A 
ATOM     89  C   UNL A   1      48.179  26.452  31.934  1.00  0.00     0.135 A 
ATOM     90  C   UNL A   1      48.907  27.503  29.897  1.00  0.00     0.135 A 
ATOM     91  F   UNL A   1      47.218  26.133  32.817  1.00  0.00    -0.206 F 
ATOM     92  C   UNL A   1      49.485  26.059  32.210  1.00  0.00     0.059 A 
ATOM     93  C   UNL A   1      50.216  27.097  30.138  1.00  0.00     0.059 A 
ATOM     94  F   UNL A   1      48.656  28.197  28.775  1.00  0.00    -0.206 F 
ATOM     95  C   UNL A   1      50.496  26.384  31.303  1.00  0.00     0.060 A 
BRANCH  95  96
ATOM     96  S   UNL A   1      52.181  25.838  31.654  1.00  0.00     0.124 S 
ATOM     97  O   UNL A   1      52.567  26.745  32.729  1.00  0.00    -0.237 OA
ATOM     98  O   UNL A   1      51.983  24.444  32.041  1.00  0.00    -0.237 OA
ATOM     99  O   UNL A   1      52.873  26.036  30.384  1.00  0.00    -0.744 OA
ENDBRANCH  95  96
ENDBRANCH  63  88
ENDBRANCH  37  38
ENDBRANCH  29  32
ENDBRANCH  27  28
ENDBRANCH  26  27
ENDBRANCH   1  26
TORSDOF 18
ENDMDL
MODEL 2
REMARK VINA RESULT:     -10.8      1.443      2.510
REMARK SMILES C[C@H]1[C@@H](C(=O)NCCCCCCNC(=O)c2ccc(-c3c4nc(c(-c5c(F)cc(S(=O)(=O)[O-])cc5F)c5ccc([nH]5)c(-c5c(F)cc(S(=O)(=O)[O-])cc5F)c5nc(c(-c6c(F)cc(S(=O)(=O)[O-])cc6F)c6ccc3[nH]6)C=C5)C=C4)cc2)CC[N@@H+]1Cc1cc(F)c(F)c(F)c1
REMARK SMILES IDX 10 1 9 2 8 3 7 4 6 5 4 6 5 7 3 9 1 10 2 11 84 12 82 13 83 14
REMARK SMILES IDX 85 16 86 17 87 18 94 19 88 20 92 21 89 22 90 23 93 24 91 25
REMARK SMILES IDX 11 26 12 27 13 28 14 29 15 31 16 32 17 33 81 34 18 35 80 36
REMARK SMILES IDX 19 37 20 38 21 39 74 40 22 41 79 42 73 43 75 44 23 45 78 46
REMARK SMILES IDX 72 47 71 48 24 50 58 51 37 52 57 53 38 54 41 55 56 56 76 57
REMARK SMILES IDX 39 58 40 59 55 61 77 62 42 63 25 64 26 65 35 66 27 67 28 68
REMARK SMILES IDX 34 69 36 70 29 71 30 72 31 73 32 74 33 75 59 76 60 77 69 78
REMARK SMILES IDX 61 79 62 80 68 81 70 82 63 83 64 84 65 85 66 86 67 87 43 88
REMARK SMILES IDX 44 89 53 90 45 91 46 92 52 93 54 94 47 95 48 96 49 97 50 98
REMARK SMILES IDX 51 99
REMARK H PARENT 6 8 84 15 13 30 75 49 41 60
REMARK Flexibility Score: inf
ROOT
ATOM      1  C   UNL A   1      32.114  29.107  25.206  1.00  0.00     0.002 C 
ENDROOT
BRANCH   1   2
ATOM      2  C   UNL A   1      30.811  28.744  24.493  1.00  0.00     0.002 C 
BRANCH   2   3
ATOM      3  C   UNL A   1      30.642  27.249  24.214  1.00  0.00     0.021 C 
BRANCH   3   4
ATOM      4  C   UNL A   1      30.755  26.874  22.732  1.00  0.00     0.116 C 
BRANCH   4   5
ATOM      5  N   UNL A   1      32.109  26.442  22.480  1.00  0.00    -0.356 N 
ATOM      6  C   UNL A   1      32.778  25.374  22.997  1.00  0.00     0.229 C 
ATOM      7  O   UNL A   1      34.005  25.499  23.060  1.00  0.00    -0.275 OA
ATOM      8  H   UNL A   1      32.620  26.995  21.848  1.00  0.00     0.163 HD
BRANCH   6   9
ATOM      9  C   UNL A   1      32.070  24.039  23.276  1.00  0.00     0.142 C 
ATOM     10  C   UNL A   1      32.123  24.248  25.939  1.00  0.00     0.076 C 
ATOM     11  C   UNL A   1      31.895  23.420  24.687  1.00  0.00     0.193 C 
ATOM     12  N   UNL A   1      32.835  22.287  24.784  1.00  0.00    -0.328 N 
ATOM     13  C   UNL A   1      32.838  22.928  22.533  1.00  0.00     0.081 C 
ATOM     14  C   UNL A   1      33.702  22.320  23.619  1.00  0.00     0.263 C 
ATOM     15  H   UNL A   1      33.424  22.411  25.607  1.00  0.00     0.348 HD
BRANCH  12  16
ATOM     16  C   UNL A   1      32.262  20.997  25.173  1.00  0.00     0.299 C 
BRANCH  16  17
ATOM     17  C   UNL A   1      32.796  19.763  24.473  1.00  0.00     0.012 A 
ATOM     18  C   UNL A   1      33.958  19.121  24.933  1.00  0.00     0.052 A 
ATOM     19  C   UNL A   1      32.144  19.237  23.346  1.00  0.00     0.052 A 
ATOM     20  C   UNL A   1      34.423  17.969  24.297  1.00  0.00     0.162 A 
ATOM     21  C   UNL A   1      32.608  18.070  22.741  1.00  0.00     0.162 A 
ATOM     22  F   UNL A   1      35.535  17.375  24.751  1.00  0.00    -0.204 F 
ATOM     23  C   UNL A   1      33.744  17.434  23.212  1.00  0.00     0.194 A 
ATOM     24  F   UNL A   1      31.931  17.566  21.700  1.00  0.00    -0.204 F 
ATOM     25  F   UNL A   1      34.183  16.313  22.622  1.00  0.00    -0.200 F 
ENDBRANCH  16  17
ENDBRANCH  12  16
ENDBRANCH   6   9
ENDBRANCH   4   5
ENDBRANCH   3   4
ENDBRANCH   2   3
ENDBRANCH   1   2
BRANCH   1  26
ATOM     26  C   UNL A   1      32.851  27.927  25.845  1.00  0.00     0.021 C 
BRANCH  26  27
ATOM     27  C   UNL A   1      33.860  28.314  26.926  1.00  0.00     0.116 C 
BRANCH  27  28
ATOM     28  N   UNL A   1      33.690  29.696  27.345  1.00  0.00    -0.352 N 
ATOM     29  C   UNL A   1      34.523  30.479  28.098  1.00  0.00     0.251 C 
ATOM     30  H   UNL A   1      32.858  30.130  27.044  1.00  0.00     0.163 HD
ATOM     31  O   UNL A   1      34.107  31.535  28.578  1.00  0.00    -0.269 OA
BRANCH  29  32
ATOM     32  C   UNL A   1      35.917  30.054  28.337  1.00  0.00     0.039 A 
ATOM     33  C   UNL A   1      36.840  30.128  27.292  1.00  0.00     0.014 A 
ATOM     34  C   UNL A   1      36.305  29.562  29.588  1.00  0.00     0.014 A 
ATOM     35  C   UNL A   1      38.167  29.755  27.516  1.00  0.00     0.010 A 
ATOM     36  C   UNL A   1      37.641  29.255  29.827  1.00  0.00     0.010 A 
ATOM     37  C   UNL A   1      38.584  29.340  28.791  1.00  0.00    -0.014 A 
BRANCH  37  38
ATOM     38  C   UNL A   1      40.000  28.984  29.058  1.00  0.00     0.031 A 
ATOM     39  C   UNL A   1      40.938  30.005  29.644  1.00  0.00     0.074 A 
ATOM     40  C   UNL A   1      40.454  27.762  28.717  1.00  0.00     0.049 A 
ATOM     41  N   UNL A   1      42.218  29.904  29.891  1.00  0.00    -0.248 NA
ATOM     42  C   UNL A   1      40.365  31.321  29.972  1.00  0.00     0.031 C 
ATOM     43  C   UNL A   1      39.652  26.705  28.098  1.00  0.00     0.029 A 
ATOM     44  N   UNL A   1      41.703  27.206  28.832  1.00  0.00    -0.354 N 
ATOM     45  C   UNL A   1      42.607  31.142  30.390  1.00  0.00     0.074 A 
ATOM     46  C   UNL A   1      41.438  31.994  30.361  1.00  0.00     0.031 C 
ATOM     47  C   UNL A   1      40.424  25.622  27.907  1.00  0.00     0.029 A 
ATOM     48  C   UNL A   1      41.781  25.919  28.356  1.00  0.00     0.049 A 
ATOM     49  H   UNL A   1      42.473  27.685  29.219  1.00  0.00     0.167 HD
ATOM     50  C   UNL A   1      43.820  31.526  30.851  1.00  0.00     0.037 A 
ATOM     51  C   UNL A   1      42.828  25.075  28.284  1.00  0.00     0.037 A 
ATOM     52  C   UNL A   1      44.973  30.664  30.899  1.00  0.00     0.049 A 
ATOM     53  C   UNL A   1      44.168  25.523  28.803  1.00  0.00     0.074 A 
ATOM     54  C   UNL A   1      46.232  30.937  31.403  1.00  0.00     0.029 A 
ATOM     55  N   UNL A   1      45.008  29.360  30.425  1.00  0.00    -0.354 N 
ATOM     56  N   UNL A   1      44.502  26.677  29.330  1.00  0.00    -0.248 NA
ATOM     57  C   UNL A   1      45.270  24.555  28.723  1.00  0.00     0.031 C 
ATOM     58  C   UNL A   1      47.040  29.814  31.195  1.00  0.00     0.029 A 
ATOM     59  C   UNL A   1      46.272  28.825  30.604  1.00  0.00     0.049 A 
ATOM     60  H   UNL A   1      44.246  28.887  30.020  1.00  0.00     0.167 HD
ATOM     61  C   UNL A   1      45.847  26.567  29.666  1.00  0.00     0.074 A 
ATOM     62  C   UNL A   1      46.260  25.228  29.293  1.00  0.00     0.031 C 
ATOM     63  C   UNL A   1      46.666  27.489  30.230  1.00  0.00     0.037 A 
BRANCH  50  64
ATOM     64  C   UNL A   1      43.962  32.940  31.346  1.00  0.00     0.058 A 
ATOM     65  C   UNL A   1      44.344  33.985  30.489  1.00  0.00     0.135 A 
ATOM     66  C   UNL A   1      43.690  33.259  32.686  1.00  0.00     0.135 A 
ATOM     67  F   UNL A   1      44.630  33.734  29.202  1.00  0.00    -0.206 F 
ATOM     68  C   UNL A   1      44.483  35.291  30.950  1.00  0.00     0.059 A 
ATOM     69  C   UNL A   1      43.796  34.564  33.163  1.00  0.00     0.059 A 
ATOM     70  F   UNL A   1      43.321  32.300  33.549  1.00  0.00    -0.206 F 
ATOM     71  C   UNL A   1      44.210  35.570  32.290  1.00  0.00     0.060 A 
BRANCH  71  72
ATOM     72  S   UNL A   1      44.400  37.267  32.874  1.00  0.00     0.124 S 
ATOM     73  O   UNL A   1      44.642  37.979  31.623  1.00  0.00    -0.237 OA
ATOM     74  O   UNL A   1      43.112  37.525  33.510  1.00  0.00    -0.237 OA
ATOM     75  O   UNL A   1      45.540  37.188  33.781  1.00  0.00    -0.744 OA
ENDBRANCH  71  72
ENDBRANCH  50  64
BRANCH  51  76
ATOM     76  C   UNL A   1      42.644  23.711  27.721  1.00  0.00     0.058 A 
ATOM     77  C   UNL A   1      42.764  23.478  26.343  1.00  0.00     0.135 A 
ATOM     78  C   UNL A   1      42.367  22.612  28.549  1.00  0.00     0.135 A 
ATOM     79  F   UNL A   1      43.023  24.499  25.512  1.00  0.00    -0.206 F 
ATOM     80  C   UNL A   1      42.604  22.207  25.802  1.00  0.00     0.059 A 
ATOM     81  C   UNL A   1      42.226  21.327  28.034  1.00  0.00     0.059 A 
ATOM     82  F   UNL A   1      42.260  22.779  29.877  1.00  0.00    -0.206 F 
ATOM     83  C   UNL A   1      42.338  21.136  26.658  1.00  0.00     0.060 A 
BRANCH  83  84
ATOM     84  S   UNL A   1      42.186  19.481  25.952  1.00  0.00     0.124 S 
ATOM     85  O   UNL A   1      42.706  18.652  27.034  1.00  0.00    -0.237 OA
ATOM     86  O   UNL A   1      40.750  19.383  25.705  1.00  0.00    -0.237 OA
ATOM     87  O   UNL A   1      43.016  19.550  24.754  1.00  0.00    -0.744 OA
ENDBRANCH  83  84
ENDBRANCH  51  76
BRANCH  63  88
ATOM     88  C   UNL A   1      48.085  27.075  30.503  1.00  0.00     0.058 A 
ATOM     89  C   UNL A   1      49.119  27.347  29.595  1.00  0.00     0.135 A 
ATOM     90  C   UNL A   1      48.422  26.447  31.713  1.00  0.00     0.135 A 
ATOM     91  F   UNL A   1      48.848  27.940  28.420  1.00  0.00    -0.206 F 
ATOM     92  C   UNL A   1      50.436  26.990  29.865  1.00  0.00     0.059 A 
ATOM     93  C   UNL A   1      49.735  26.105  32.017  1.00  0.00     0.059 A 
ATOM     94  F   UNL A   1      47.471  26.174  32.621  1.00  0.00    -0.206 F 
ATOM     95  C   UNL A   1      50.735  26.371  31.082  1.00  0.00     0.060 A 
BRANCH  95  96
ATOM     96  S   UNL A   1      52.452  25.945  31.437  1.00  0.00     0.124 S 
ATOM     97  O   UNL A   1      52.320  24.580  31.933  1.00  0.00    -0.237 OA
ATOM     98  O   UNL A   1      53.086  26.086  30.129  1.00  0.00    -0.237 OA
ATOM     99  O   UNL A   1      52.850  26.940  32.429  1.00  0.00    -0.744 OA
ENDBRANCH  95  96
ENDBRANCH  63  88
ENDBRANCH  37  38
ENDBRANCH  29  32
ENDBRANCH  27  28
ENDBRANCH  26  27
ENDBRANCH   1  26
TORSDOF 18
ENDMDL
MODEL 3
REMARK VINA RESULT:     -10.8      2.860      3.704
REMARK SMILES C[C@H]1[C@@H](C(=O)NCCCCCCNC(=O)c2ccc(-c3c4nc(c(-c5c(F)cc(S(=O)(=O)[O-])cc5F)c5ccc([nH]5)c(-c5c(F)cc(S(=O)(=O)[O-])cc5F)c5nc(c(-c6c(F)cc(S(=O)(=O)[O-])cc6F)c6ccc3[nH]6)C=C5)C=C4)cc2)CC[N@@H+]1Cc1cc(F)c(F)c(F)c1
REMARK SMILES IDX 10 1 9 2 8 3 7 4 6 5 4 6 5 7 3 9 1 10 2 11 84 12 82 13 83 14
REMARK SMILES IDX 85 16 86 17 87 18 94 19 88 20 92 21 89 22 90 23 93 24 91 25
REMARK SMILES IDX 11 26 12 27 13 28 14 29 15 31 16 32 17 33 81 34 18 35 80 36
REMARK SMILES IDX 19 37 20 38 21 39 74 40 22 41 79 42 73 43 75 44 23 45 78 46
REMARK SMILES IDX 72 47 71 48 24 50 58 51 37 52 57 53 38 54 41 55 56 56 76 57
REMARK SMILES IDX 39 58 40 59 55 61 77 62 42 63 25 64 26 65 35 66 27 67 28 68
REMARK SMILES IDX 34 69 36 70 29 71 30 72 31 73 32 74 33 75 59 76 60 77 69 78
REMARK SMILES IDX 61 79 62 80 68 81 70 82 63 83 64 84 65 85 66 86 67 87 43 88
REMARK SMILES IDX 44 89 53 90 45 91 46 92 52 93 54 94 47 95 48 96 49 97 50 98
REMARK SMILES IDX 51 99
REMARK H PARENT 6 8 84 15 13 30 75 49 41 60
REMARK Flexibility Score: inf
ROOT
ATOM      1  C   UNL A   1      33.069  29.846  27.382  1.00  0.00     0.002 C 
ENDROOT
BRANCH   1   2
ATOM      2  C   UNL A   1      32.023  28.968  26.694  1.00  0.00     0.002 C 
BRANCH   2   3
ATOM      3  C   UNL A   1      31.530  29.513  25.352  1.00  0.00     0.021 C 
BRANCH   3   4
ATOM      4  C   UNL A   1      30.698  28.512  24.540  1.00  0.00     0.116 C 
BRANCH   4   5
ATOM      5  N   UNL A   1      31.364  28.297  23.277  1.00  0.00    -0.356 N 
ATOM      6  C   UNL A   1      32.304  27.369  22.951  1.00  0.00     0.229 C 
ATOM      7  O   UNL A   1      33.074  27.692  22.041  1.00  0.00    -0.275 OA
ATOM      8  H   UNL A   1      31.100  28.906  22.550  1.00  0.00     0.163 HD
BRANCH   6   9
ATOM      9  C   UNL A   1      32.267  25.946  23.531  1.00  0.00     0.142 C 
ATOM     10  C   UNL A   1      34.130  26.359  25.401  1.00  0.00     0.076 C 
ATOM     11  C   UNL A   1      33.253  25.411  24.602  1.00  0.00     0.193 C 
ATOM     12  N   UNL A   1      34.181  24.493  23.917  1.00  0.00    -0.328 N 
ATOM     13  C   UNL A   1      32.485  24.953  22.372  1.00  0.00     0.081 C 
ATOM     14  C   UNL A   1      33.955  24.607  22.487  1.00  0.00     0.263 C 
ATOM     15  H   UNL A   1      35.140  24.790  24.099  1.00  0.00     0.348 HD
BRANCH  12  16
ATOM     16  C   UNL A   1      34.304  23.149  24.484  1.00  0.00     0.299 C 
BRANCH  16  17
ATOM     17  C   UNL A   1      35.685  22.706  24.923  1.00  0.00     0.012 A 
ATOM     18  C   UNL A   1      36.133  21.396  24.683  1.00  0.00     0.052 A 
ATOM     19  C   UNL A   1      36.548  23.594  25.586  1.00  0.00     0.052 A 
ATOM     20  C   UNL A   1      37.417  21.010  25.067  1.00  0.00     0.162 A 
ATOM     21  C   UNL A   1      37.838  23.199  25.938  1.00  0.00     0.162 A 
ATOM     22  F   UNL A   1      37.820  19.753  24.831  1.00  0.00    -0.204 F 
ATOM     23  C   UNL A   1      38.276  21.911  25.680  1.00  0.00     0.194 A 
ATOM     24  F   UNL A   1      38.654  24.088  26.521  1.00  0.00    -0.204 F 
ATOM     25  F   UNL A   1      39.517  21.539  26.024  1.00  0.00    -0.200 F 
ENDBRANCH  16  17
ENDBRANCH  12  16
ENDBRANCH   6   9
ENDBRANCH   4   5
ENDBRANCH   3   4
ENDBRANCH   2   3
ENDBRANCH   1   2
BRANCH   1  26
ATOM     26  C   UNL A   1      34.520  29.552  26.989  1.00  0.00     0.021 C 
BRANCH  26  27
ATOM     27  C   UNL A   1      35.556  30.467  27.640  1.00  0.00     0.116 C 
BRANCH  27  28
ATOM     28  N   UNL A   1      35.409  30.496  29.086  1.00  0.00    -0.352 N 
ATOM     29  C   UNL A   1      36.273  30.052  30.052  1.00  0.00     0.251 C 
ATOM     30  H   UNL A   1      34.570  30.891  29.419  1.00  0.00     0.163 HD
ATOM     31  O   UNL A   1      35.881  29.913  31.211  1.00  0.00    -0.269 OA
BRANCH  29  32
ATOM     32  C   UNL A   1      37.672  29.735  29.698  1.00  0.00     0.039 A 
ATOM     33  C   UNL A   1      38.544  29.297  30.697  1.00  0.00     0.014 A 
ATOM     34  C   UNL A   1      38.125  29.892  28.384  1.00  0.00     0.014 A 
ATOM     35  C   UNL A   1      39.860  28.968  30.368  1.00  0.00     0.010 A 
ATOM     36  C   UNL A   1      39.418  29.500  28.046  1.00  0.00     0.010 A 
ATOM     37  C   UNL A   1      40.300  29.042  29.036  1.00  0.00    -0.014 A 
BRANCH  37  38
ATOM     38  C   UNL A   1      41.683  28.652  28.661  1.00  0.00     0.031 A 
ATOM     39  C   UNL A   1      42.775  29.687  28.623  1.00  0.00     0.074 A 
ATOM     40  C   UNL A   1      41.939  27.381  28.298  1.00  0.00     0.049 A 
ATOM     41  N   UNL A   1      44.025  29.554  28.262  1.00  0.00    -0.248 NA
ATOM     42  C   UNL A   1      42.407  31.056  29.018  1.00  0.00     0.031 C 
ATOM     43  C   UNL A   1      40.952  26.299  28.249  1.00  0.00     0.029 A 
ATOM     44  N   UNL A   1      43.105  26.783  27.890  1.00  0.00    -0.354 N 
ATOM     45  C   UNL A   1      44.589  30.820  28.375  1.00  0.00     0.074 A 
ATOM     46  C   UNL A   1      43.531  31.717  28.786  1.00  0.00     0.031 C 
ATOM     47  C   UNL A   1      41.558  25.168  27.855  1.00  0.00     0.029 A 
ATOM     48  C   UNL A   1      42.966  25.448  27.590  1.00  0.00     0.049 A 
ATOM     49  H   UNL A   1      43.961  27.265  27.818  1.00  0.00     0.167 HD
ATOM     50  C   UNL A   1      45.874  31.195  28.175  1.00  0.00     0.037 A 
ATOM     51  C   UNL A   1      43.869  24.554  27.144  1.00  0.00     0.037 A 
ATOM     52  C   UNL A   1      46.927  30.291  27.789  1.00  0.00     0.049 A 
ATOM     53  C   UNL A   1      45.292  24.994  26.930  1.00  0.00     0.074 A 
ATOM     54  C   UNL A   1      48.273  30.559  27.620  1.00  0.00     0.029 A 
ATOM     55  N   UNL A   1      46.750  28.943  27.511  1.00  0.00    -0.354 N 
ATOM     56  N   UNL A   1      45.821  26.182  27.101  1.00  0.00    -0.248 NA
ATOM     57  C   UNL A   1      46.241  23.972  26.467  1.00  0.00     0.031 C 
ATOM     58  C   UNL A   1      48.904  29.383  27.198  1.00  0.00     0.029 A 
ATOM     59  C   UNL A   1      47.959  28.372  27.150  1.00  0.00     0.049 A 
ATOM     60  H   UNL A   1      45.892  28.464  27.562  1.00  0.00     0.167 HD
ATOM     61  C   UNL A   1      47.170  26.046  26.790  1.00  0.00     0.074 A 
ATOM     62  C   UNL A   1      47.376  24.657  26.432  1.00  0.00     0.031 C 
ATOM     63  C   UNL A   1      48.148  26.986  26.799  1.00  0.00     0.037 A 
BRANCH  50  64
ATOM     64  C   UNL A   1      46.215  32.647  28.376  1.00  0.00     0.058 A 
ATOM     65  C   UNL A   1      46.637  33.138  29.622  1.00  0.00     0.135 A 
ATOM     66  C   UNL A   1      46.142  33.554  27.306  1.00  0.00     0.135 A 
ATOM     67  F   UNL A   1      46.710  32.319  30.683  1.00  0.00    -0.206 F 
ATOM     68  C   UNL A   1      46.943  34.483  29.809  1.00  0.00     0.059 A 
ATOM     69  C   UNL A   1      46.471  34.898  27.463  1.00  0.00     0.059 A 
ATOM     70  F   UNL A   1      45.746  33.138  26.093  1.00  0.00    -0.206 F 
ATOM     71  C   UNL A   1      46.854  35.356  28.724  1.00  0.00     0.060 A 
BRANCH  71  72
ATOM     72  S   UNL A   1      47.250  37.098  28.983  1.00  0.00     0.124 S 
ATOM     73  O   UNL A   1      48.583  37.183  28.397  1.00  0.00    -0.237 OA
ATOM     74  O   UNL A   1      46.188  37.773  28.243  1.00  0.00    -0.237 OA
ATOM     75  O   UNL A   1      47.191  37.247  30.434  1.00  0.00    -0.744 OA
ENDBRANCH  71  72
ENDBRANCH  50  64
BRANCH  51  76
ATOM     76  C   UNL A   1      43.459  23.147  26.896  1.00  0.00     0.058 A 
ATOM     77  C   UNL A   1      43.360  22.644  25.591  1.00  0.00     0.135 A 
ATOM     78  C   UNL A   1      43.179  22.272  27.958  1.00  0.00     0.135 A 
ATOM     79  F   UNL A   1      43.612  23.445  24.544  1.00  0.00    -0.206 F 
ATOM     80  C   UNL A   1      42.986  21.327  25.343  1.00  0.00     0.059 A 
ATOM     81  C   UNL A   1      42.826  20.944  27.736  1.00  0.00     0.059 A 
ATOM     82  F   UNL A   1      43.277  22.699  29.227  1.00  0.00    -0.206 F 
ATOM     83  C   UNL A   1      42.724  20.483  26.424  1.00  0.00     0.060 A 
BRANCH  83  84
ATOM     84  S   UNL A   1      42.293  18.761  26.094  1.00  0.00     0.124 S 
ATOM     85  O   UNL A   1      43.219  18.428  25.017  1.00  0.00    -0.237 OA
ATOM     86  O   UNL A   1      42.558  18.126  27.383  1.00  0.00    -0.237 OA
ATOM     87  O   UNL A   1      40.885  18.834  25.719  1.00  0.00    -0.744 OA
ENDBRANCH  83  84
ENDBRANCH  51  76
BRANCH  63  88
ATOM     88  C   UNL A   1      49.536  26.539  26.435  1.00  0.00     0.058 A 
ATOM     89  C   UNL A   1      50.385  25.933  27.373  1.00  0.00     0.135 A 
ATOM     90  C   UNL A   1      50.002  26.672  25.117  1.00  0.00     0.135 A 
ATOM     91  F   UNL A   1      49.989  25.789  28.648  1.00  0.00    -0.206 F 
ATOM     92  C   UNL A   1      51.657  25.493  27.024  1.00  0.00     0.059 A 
ATOM     93  C   UNL A   1      51.260  26.215  24.738  1.00  0.00     0.059 A 
ATOM     94  F   UNL A   1      49.225  27.236  24.178  1.00  0.00    -0.206 F 
ATOM     95  C   UNL A   1      52.085  25.637  25.701  1.00  0.00     0.060 A 
BRANCH  95  96
ATOM     96  S   UNL A   1      53.725  25.030  25.252  1.00  0.00     0.124 S 
ATOM     97  O   UNL A   1      54.515  25.432  26.410  1.00  0.00    -0.237 OA
ATOM     98  O   UNL A   1      53.498  23.595  25.107  1.00  0.00    -0.237 OA
ATOM     99  O   UNL A   1      54.021  25.739  24.011  1.00  0.00    -0.744 OA
ENDBRANCH  95  96
ENDBRANCH  63  88
ENDBRANCH  37  38
ENDBRANCH  29  32
ENDBRANCH  27  28
ENDBRANCH  26  27
ENDBRANCH   1  26
TORSDOF 18
ENDMDL
