MODEL 1
REMARK VINA RESULT:     -11.1      0.000      0.000
REMARK SMILES CCOc1ccccc1N1CCN(c2ccc(NC(=O)C(C)(C)C)c(C(=O)NCCCCCCNC(=O)c3ccc(-c4c5nc(c(-c6c(F)cc(S(=O)(=O)[O-])cc6F)c6ccc([nH]6)c(-c6c(F)cc(S(=O)(=O)[O-])cc6F)c6nc(c(-c7c(F)cc(S(=O)(=O)[O-])cc7F)c7ccc4[nH]7)C=C6)C=C5)cc3)c2)CC1
REMARK SMILES IDX 31 1 30 2 29 3 28 4 26 5 27 6 25 8 14 9 15 10 104 11 16 12
REMARK SMILES IDX 17 13 13 14 10 15 11 16 106 17 12 18 105 19 9 20 4 21 5 22
REMARK SMILES IDX 6 23 8 24 7 25 3 26 2 27 1 28 18 29 19 30 20 32 21 33 22 34
REMARK SMILES IDX 23 35 24 36 32 37 33 38 34 39 35 40 36 41 37 43 38 44 39 45
REMARK SMILES IDX 103 46 40 47 102 48 41 49 42 50 43 51 96 52 44 53 101 54
REMARK SMILES IDX 95 55 97 56 45 57 100 58 94 59 93 60 46 62 80 63 59 64 79 65
REMARK SMILES IDX 60 66 63 67 78 68 98 69 61 70 62 71 77 73 99 74 64 75 47 76
REMARK SMILES IDX 48 77 57 78 49 79 50 80 56 81 58 82 51 83 52 84 53 85 54 86
REMARK SMILES IDX 55 87 81 88 82 89 91 90 83 91 84 92 90 93 92 94 85 95 86 96
REMARK SMILES IDX 87 97 88 98 89 99 65 100 66 101 75 102 67 103 68 104 74 105
REMARK SMILES IDX 76 106 69 107 70 108 71 109 72 110 73 111
REMARK H PARENT 28 7 18 31 35 42 97 61 63 72
REMARK Flexibility Score: inf
ROOT
ATOM      1  C   UNL A   1      37.215  23.744  25.697  1.00  0.00     0.002 C 
ENDROOT
BRANCH   1   2
ATOM      2  C   UNL A   1      36.999  22.547  24.779  1.00  0.00     0.021 C 
BRANCH   2   3
ATOM      3  C   UNL A   1      36.452  21.279  25.422  1.00  0.00     0.116 C 
BRANCH   3   4
ATOM      4  N   UNL A   1      35.739  21.427  26.691  1.00  0.00    -0.352 N 
ATOM      5  C   UNL A   1      34.385  21.661  26.940  1.00  0.00     0.253 C 
ATOM      6  O   UNL A   1      33.996  21.758  28.102  1.00  0.00    -0.269 OA
ATOM      7  H   UNL A   1      36.301  21.348  27.496  1.00  0.00     0.163 HD
BRANCH   5   8
ATOM      8  C   UNL A   1      33.413  21.890  25.822  1.00  0.00     0.065 A 
ATOM      9  C   UNL A   1      32.301  23.710  24.708  1.00  0.00     0.038 A 
ATOM     10  C   UNL A   1      31.246  22.848  24.439  1.00  0.00     0.028 A 
ATOM     11  C   UNL A   1      33.465  23.128  25.180  1.00  0.00     0.042 A 
ATOM     12  C   UNL A   1      31.315  21.494  24.770  1.00  0.00     0.029 A 
ATOM     13  C   UNL A   1      32.377  20.982  25.509  1.00  0.00     0.054 A 
BRANCH   9  14
ATOM     14  N   UNL A   1      32.158  25.087  24.714  1.00  0.00    -0.368 N 
ATOM     15  N   UNL A   1      31.954  27.898  24.989  1.00  0.00    -0.365 N 
ATOM     16  C   UNL A   1      33.263  27.357  24.673  1.00  0.00     0.138 C 
ATOM     17  C   UNL A   1      30.833  27.231  24.331  1.00  0.00     0.138 C 
ATOM     18  C   UNL A   1      33.324  25.894  25.132  1.00  0.00     0.138 C 
ATOM     19  C   UNL A   1      30.821  25.715  24.627  1.00  0.00     0.138 C 
BRANCH  15  20
ATOM     20  C   UNL A   1      31.791  29.197  25.428  1.00  0.00     0.079 A 
ATOM     21  C   UNL A   1      32.564  29.712  26.489  1.00  0.00     0.142 A 
ATOM     22  C   UNL A   1      32.396  31.023  26.940  1.00  0.00     0.048 A 
ATOM     23  C   UNL A   1      31.463  31.853  26.322  1.00  0.00     0.004 A 
ATOM     24  C   UNL A   1      30.862  30.055  24.823  1.00  0.00     0.030 A 
ATOM     25  C   UNL A   1      30.693  31.368  25.267  1.00  0.00     0.002 A 
BRANCH  21  26
ATOM     26  O   UNL A   1      33.455  28.892  27.141  1.00  0.00    -0.492 OA
BRANCH  26  27
ATOM     27  C   UNL A   1      34.808  29.341  27.009  1.00  0.00     0.226 C 
ATOM     28  C   UNL A   1      35.458  29.449  28.377  1.00  0.00     0.049 C 
ENDBRANCH  26  27
ENDBRANCH  21  26
ENDBRANCH  15  20
ENDBRANCH   9  14
BRANCH  13  29
ATOM     29  N   UNL A   1      32.465  19.637  25.947  1.00  0.00    -0.325 N 
ATOM     30  C   UNL A   1      32.884  18.438  25.436  1.00  0.00     0.229 C 
ATOM     31  H   UNL A   1      32.135  19.538  26.869  1.00  0.00     0.169 HD
ATOM     32  O   UNL A   1      32.767  17.463  26.194  1.00  0.00    -0.274 OA
BRANCH  30  33
ATOM     33  C   UNL A   1      33.474  18.219  24.023  1.00  0.00     0.041 C 
ATOM     34  C   UNL A   1      32.577  18.914  22.975  1.00  0.00     0.021 C 
ATOM     35  C   UNL A   1      34.965  18.619  23.969  1.00  0.00     0.021 C 
ATOM     36  C   UNL A   1      33.445  16.710  23.661  1.00  0.00     0.021 C 
ENDBRANCH  30  33
ENDBRANCH  13  29
ENDBRANCH   5   8
ENDBRANCH   3   4
ENDBRANCH   2   3
ENDBRANCH   1   2
BRANCH   1  37
ATOM     37  C   UNL A   1      38.662  24.070  26.081  1.00  0.00     0.002 C 
BRANCH  37  38
ATOM     38  C   UNL A   1      39.491  22.943  26.705  1.00  0.00     0.021 C 
BRANCH  38  39
ATOM     39  C   UNL A   1      40.947  23.271  27.029  1.00  0.00     0.116 C 
BRANCH  39  40
ATOM     40  N   UNL A   1      41.614  24.004  25.967  1.00  0.00    -0.352 N 
ATOM     41  C   UNL A   1      41.925  25.338  25.877  1.00  0.00     0.251 C 
ATOM     42  H   UNL A   1      41.885  23.461  25.193  1.00  0.00     0.163 HD
ATOM     43  O   UNL A   1      42.370  25.782  24.815  1.00  0.00    -0.269 OA
BRANCH  41  44
ATOM     44  C   UNL A   1      41.713  26.252  27.022  1.00  0.00     0.039 A 
ATOM     45  C   UNL A   1      40.703  25.953  27.942  1.00  0.00     0.014 A 
ATOM     46  C   UNL A   1      42.473  27.414  27.180  1.00  0.00     0.014 A 
ATOM     47  C   UNL A   1      40.493  26.786  29.044  1.00  0.00     0.010 A 
ATOM     48  C   UNL A   1      42.311  28.205  28.317  1.00  0.00     0.010 A 
ATOM     49  C   UNL A   1      41.316  27.904  29.259  1.00  0.00    -0.014 A 
BRANCH  49  50
ATOM     50  C   UNL A   1      41.145  28.761  30.464  1.00  0.00     0.031 A 
ATOM     51  C   UNL A   1      42.027  28.569  31.669  1.00  0.00     0.074 A 
ATOM     52  C   UNL A   1      40.161  29.682  30.489  1.00  0.00     0.049 A 
ATOM     53  N   UNL A   1      42.000  29.190  32.820  1.00  0.00    -0.248 NA
ATOM     54  C   UNL A   1      43.061  27.526  31.576  1.00  0.00     0.031 C 
ATOM     55  C   UNL A   1      39.208  29.932  29.405  1.00  0.00     0.029 A 
ATOM     56  N   UNL A   1      39.791  30.575  31.465  1.00  0.00    -0.354 N 
ATOM     57  C   UNL A   1      43.001  28.609  33.590  1.00  0.00     0.074 A 
ATOM     58  C   UNL A   1      43.581  27.549  32.795  1.00  0.00     0.031 C 
ATOM     59  C   UNL A   1      38.381  30.926  29.765  1.00  0.00     0.029 A 
ATOM     60  C   UNL A   1      38.717  31.361  31.117  1.00  0.00     0.049 A 
ATOM     61  H   UNL A   1      40.252  30.647  32.332  1.00  0.00     0.167 HD
ATOM     62  C   UNL A   1      43.414  28.943  34.837  1.00  0.00     0.037 A 
ATOM     63  C   UNL A   1      38.071  32.320  31.810  1.00  0.00     0.037 A 
ATOM     64  C   UNL A   1      42.846  30.014  35.615  1.00  0.00     0.049 A 
ATOM     65  C   UNL A   1      38.548  32.673  33.193  1.00  0.00     0.074 A 
ATOM     66  C   UNL A   1      43.232  30.467  36.865  1.00  0.00     0.029 A 
ATOM     67  N   UNL A   1      41.772  30.799  35.221  1.00  0.00    -0.354 N 
ATOM     68  N   UNL A   1      39.538  32.155  33.880  1.00  0.00    -0.248 NA
ATOM     69  C   UNL A   1      37.828  33.745  33.892  1.00  0.00     0.031 C 
ATOM     70  C   UNL A   1      42.361  31.494  37.246  1.00  0.00     0.029 A 
ATOM     71  C   UNL A   1      41.467  31.718  36.212  1.00  0.00     0.049 A 
ATOM     72  H   UNL A   1      41.297  30.714  34.363  1.00  0.00     0.167 HD
ATOM     73  C   UNL A   1      39.577  32.858  35.080  1.00  0.00     0.074 A 
ATOM     74  C   UNL A   1      38.519  33.845  35.018  1.00  0.00     0.031 C 
ATOM     75  C   UNL A   1      40.413  32.699  36.136  1.00  0.00     0.037 A 
BRANCH  62  76
ATOM     76  C   UNL A   1      44.538  28.142  35.439  1.00  0.00     0.058 A 
ATOM     77  C   UNL A   1      45.883  28.508  35.261  1.00  0.00     0.135 A 
ATOM     78  C   UNL A   1      44.269  27.017  36.236  1.00  0.00     0.135 A 
ATOM     79  F   UNL A   1      46.201  29.566  34.499  1.00  0.00    -0.206 F 
ATOM     80  C   UNL A   1      46.920  27.771  35.825  1.00  0.00     0.059 A 
ATOM     81  C   UNL A   1      45.289  26.282  36.834  1.00  0.00     0.059 A 
ATOM     82  F   UNL A   1      43.003  26.622  36.441  1.00  0.00    -0.206 F 
ATOM     83  C   UNL A   1      46.612  26.659  36.609  1.00  0.00     0.060 A 
BRANCH  83  84
ATOM     84  S   UNL A   1      47.969  25.714  37.334  1.00  0.00     0.124 S 
ATOM     85  O   UNL A   1      48.297  26.525  38.503  1.00  0.00    -0.237 OA
ATOM     86  O   UNL A   1      47.340  24.427  37.612  1.00  0.00    -0.237 OA
ATOM     87  O   UNL A   1      48.977  25.701  36.277  1.00  0.00    -0.744 OA
ENDBRANCH  83  84
ENDBRANCH  62  76
BRANCH  63  88
ATOM     88  C   UNL A   1      36.917  33.030  31.195  1.00  0.00     0.058 A 
ATOM     89  C   UNL A   1      37.114  34.046  30.248  1.00  0.00     0.135 A 
ATOM     90  C   UNL A   1      35.595  32.701  31.534  1.00  0.00     0.135 A 
ATOM     91  F   UNL A   1      38.359  34.401  29.897  1.00  0.00    -0.206 F 
ATOM     92  C   UNL A   1      36.045  34.722  29.669  1.00  0.00     0.059 A 
ATOM     93  C   UNL A   1      34.508  33.345  30.948  1.00  0.00     0.059 A 
ATOM     94  F   UNL A   1      35.350  31.727  32.423  1.00  0.00    -0.206 F 
ATOM     95  C   UNL A   1      34.744  34.362  30.025  1.00  0.00     0.060 A 
BRANCH  95  96
ATOM     96  S   UNL A   1      33.362  35.214  29.234  1.00  0.00     0.124 S 
ATOM     97  O   UNL A   1      32.775  35.930  30.361  1.00  0.00    -0.237 OA
ATOM     98  O   UNL A   1      34.040  36.037  28.236  1.00  0.00    -0.237 OA
ATOM     99  O   UNL A   1      32.560  34.121  28.692  1.00  0.00    -0.744 OA
ENDBRANCH  95  96
ENDBRANCH  63  88
BRANCH  75 100
ATOM    100  C   UNL A   1      40.244  33.638  37.299  1.00  0.00     0.058 A 
ATOM    101  C   UNL A   1      39.328  33.379  38.332  1.00  0.00     0.135 A 
ATOM    102  C   UNL A   1      41.043  34.789  37.405  1.00  0.00     0.135 A 
ATOM    103  F   UNL A   1      38.536  32.297  38.277  1.00  0.00    -0.206 F 
ATOM    104  C   UNL A   1      39.192  34.242  39.414  1.00  0.00     0.059 A 
ATOM    105  C   UNL A   1      40.944  35.649  38.493  1.00  0.00     0.059 A 
ATOM    106  F   UNL A   1      41.943  35.078  36.452  1.00  0.00    -0.206 F 
ATOM    107  C   UNL A   1      40.005  35.375  39.487  1.00  0.00     0.060 A 
BRANCH 107 108
ATOM    108  S   UNL A   1      39.837  36.471  40.911  1.00  0.00     0.124 S 
ATOM    109  O   UNL A   1      38.463  36.936  40.764  1.00  0.00    -0.237 OA
ATOM    110  O   UNL A   1      40.084  35.567  42.031  1.00  0.00    -0.237 OA
ATOM    111  O   UNL A   1      40.870  37.479  40.688  1.00  0.00    -0.744 OA
ENDBRANCH 107 108
ENDBRANCH  75 100
ENDBRANCH  49  50
ENDBRANCH  41  44
ENDBRANCH  39  40
ENDBRANCH  38  39
ENDBRANCH  37  38
ENDBRANCH   1  37
TORSDOF 22
ENDMDL
MODEL 2
REMARK VINA RESULT:     -11.0      1.548      5.325
REMARK SMILES CCOc1ccccc1N1CCN(c2ccc(NC(=O)C(C)(C)C)c(C(=O)NCCCCCCNC(=O)c3ccc(-c4c5nc(c(-c6c(F)cc(S(=O)(=O)[O-])cc6F)c6ccc([nH]6)c(-c6c(F)cc(S(=O)(=O)[O-])cc6F)c6nc(c(-c7c(F)cc(S(=O)(=O)[O-])cc7F)c7ccc4[nH]7)C=C6)C=C5)cc3)c2)CC1
REMARK SMILES IDX 31 1 30 2 29 3 28 4 26 5 27 6 25 8 14 9 15 10 104 11 16 12
REMARK SMILES IDX 17 13 13 14 10 15 11 16 106 17 12 18 105 19 9 20 4 21 5 22
REMARK SMILES IDX 6 23 8 24 7 25 3 26 2 27 1 28 18 29 19 30 20 32 21 33 22 34
REMARK SMILES IDX 23 35 24 36 32 37 33 38 34 39 35 40 36 41 37 43 38 44 39 45
REMARK SMILES IDX 103 46 40 47 102 48 41 49 42 50 43 51 96 52 44 53 101 54
REMARK SMILES IDX 95 55 97 56 45 57 100 58 94 59 93 60 46 62 80 63 59 64 79 65
REMARK SMILES IDX 60 66 63 67 78 68 98 69 61 70 62 71 77 73 99 74 64 75 47 76
REMARK SMILES IDX 48 77 57 78 49 79 50 80 56 81 58 82 51 83 52 84 53 85 54 86
REMARK SMILES IDX 55 87 81 88 82 89 91 90 83 91 84 92 90 93 92 94 85 95 86 96
REMARK SMILES IDX 87 97 88 98 89 99 65 100 66 101 75 102 67 103 68 104 74 105
REMARK SMILES IDX 76 106 69 107 70 108 71 109 72 110 73 111
REMARK H PARENT 28 7 18 31 35 42 97 61 63 72
REMARK Flexibility Score: inf
ROOT
ATOM      1  C   UNL A   1      35.128  24.294  25.245  1.00  0.00     0.002 C 
ENDROOT
BRANCH   1   2
ATOM      2  C   UNL A   1      34.300  25.439  25.820  1.00  0.00     0.021 C 
BRANCH   2   3
ATOM      3  C   UNL A   1      33.265  25.074  26.876  1.00  0.00     0.116 C 
BRANCH   3   4
ATOM      4  N   UNL A   1      32.264  26.088  27.210  1.00  0.00    -0.352 N 
ATOM      5  C   UNL A   1      31.210  26.595  26.450  1.00  0.00     0.253 C 
ATOM      6  O   UNL A   1      30.482  27.462  26.933  1.00  0.00    -0.269 OA
ATOM      7  H   UNL A   1      32.346  26.471  28.113  1.00  0.00     0.163 HD
BRANCH   5   8
ATOM      8  C   UNL A   1      31.001  26.178  25.026  1.00  0.00     0.065 A 
ATOM      9  C   UNL A   1      31.180  24.212  23.649  1.00  0.00     0.038 A 
ATOM     10  C   UNL A   1      31.464  25.041  22.572  1.00  0.00     0.028 A 
ATOM     11  C   UNL A   1      30.711  24.832  24.795  1.00  0.00     0.042 A 
ATOM     12  C   UNL A   1      31.419  26.430  22.696  1.00  0.00     0.029 A 
ATOM     13  C   UNL A   1      31.231  27.042  23.931  1.00  0.00     0.054 A 
BRANCH   9  14
ATOM     14  N   UNL A   1      31.532  22.873  23.676  1.00  0.00    -0.368 N 
ATOM     15  N   UNL A   1      32.472  20.210  23.881  1.00  0.00    -0.365 N 
ATOM     16  C   UNL A   1      31.691  20.723  24.991  1.00  0.00     0.138 C 
ATOM     17  C   UNL A   1      32.022  20.635  22.558  1.00  0.00     0.138 C 
ATOM     18  C   UNL A   1      31.776  22.256  24.996  1.00  0.00     0.138 C 
ATOM     19  C   UNL A   1      31.965  22.174  22.445  1.00  0.00     0.138 C 
BRANCH  15  20
ATOM     20  C   UNL A   1      33.217  19.052  23.991  1.00  0.00     0.079 A 
ATOM     21  C   UNL A   1      34.545  19.080  24.461  1.00  0.00     0.142 A 
ATOM     22  C   UNL A   1      35.304  17.912  24.566  1.00  0.00     0.048 A 
ATOM     23  C   UNL A   1      34.738  16.687  24.221  1.00  0.00     0.004 A 
ATOM     24  C   UNL A   1      32.672  17.805  23.654  1.00  0.00     0.030 A 
ATOM     25  C   UNL A   1      33.424  16.634  23.761  1.00  0.00     0.002 A 
BRANCH  21  26
ATOM     26  O   UNL A   1      35.136  20.287  24.760  1.00  0.00    -0.492 OA
BRANCH  26  27
ATOM     27  C   UNL A   1      36.479  20.135  25.233  1.00  0.00     0.226 C 
ATOM     28  C   UNL A   1      37.450  20.788  24.266  1.00  0.00     0.049 C 
ENDBRANCH  26  27
ENDBRANCH  21  26
ENDBRANCH  15  20
ENDBRANCH   9  14
BRANCH  13  29
ATOM     29  N   UNL A   1      31.257  28.444  24.137  1.00  0.00    -0.325 N 
ATOM     30  C   UNL A   1      30.471  29.521  23.828  1.00  0.00     0.229 C 
ATOM     31  H   UNL A   1      32.059  28.717  24.637  1.00  0.00     0.169 HD
ATOM     32  O   UNL A   1      30.898  30.622  24.208  1.00  0.00    -0.274 OA
BRANCH  30  33
ATOM     33  C   UNL A   1      29.129  29.465  23.060  1.00  0.00     0.041 C 
ATOM     34  C   UNL A   1      28.481  28.076  23.252  1.00  0.00     0.021 C 
ATOM     35  C   UNL A   1      28.222  30.661  23.426  1.00  0.00     0.021 C 
ATOM     36  C   UNL A   1      29.381  29.599  21.535  1.00  0.00     0.021 C 
ENDBRANCH  30  33
ENDBRANCH  13  29
ENDBRANCH   5   8
ENDBRANCH   3   4
ENDBRANCH   2   3
ENDBRANCH   1   2
BRANCH   1  37
ATOM     37  C   UNL A   1      36.221  23.711  26.145  1.00  0.00     0.002 C 
BRANCH  37  38
ATOM     38  C   UNL A   1      37.665  23.798  25.639  1.00  0.00     0.021 C 
BRANCH  38  39
ATOM     39  C   UNL A   1      38.757  23.840  26.705  1.00  0.00     0.116 C 
BRANCH  39  40
ATOM     40  N   UNL A   1      40.090  23.992  26.148  1.00  0.00    -0.352 N 
ATOM     41  C   UNL A   1      41.045  24.946  26.393  1.00  0.00     0.251 C 
ATOM     42  H   UNL A   1      40.348  23.303  25.494  1.00  0.00     0.163 HD
ATOM     43  O   UNL A   1      42.065  24.969  25.699  1.00  0.00    -0.269 OA
BRANCH  41  44
ATOM     44  C   UNL A   1      40.859  25.960  27.456  1.00  0.00     0.039 A 
ATOM     45  C   UNL A   1      39.848  25.763  28.401  1.00  0.00     0.014 A 
ATOM     46  C   UNL A   1      41.645  27.114  27.512  1.00  0.00     0.014 A 
ATOM     47  C   UNL A   1      39.663  26.691  29.430  1.00  0.00     0.010 A 
ATOM     48  C   UNL A   1      41.507  28.002  28.578  1.00  0.00     0.010 A 
ATOM     49  C   UNL A   1      40.511  27.805  29.546  1.00  0.00    -0.014 A 
BRANCH  49  50
ATOM     50  C   UNL A   1      40.365  28.765  30.673  1.00  0.00     0.031 A 
ATOM     51  C   UNL A   1      41.205  28.618  31.914  1.00  0.00     0.074 A 
ATOM     52  C   UNL A   1      39.441  29.743  30.598  1.00  0.00     0.049 A 
ATOM     53  N   UNL A   1      41.190  29.330  33.012  1.00  0.00    -0.248 NA
ATOM     54  C   UNL A   1      42.173  27.510  31.934  1.00  0.00     0.031 C 
ATOM     55  C   UNL A   1      38.532  29.962  29.470  1.00  0.00     0.029 A 
ATOM     56  N   UNL A   1      39.105  30.732  31.489  1.00  0.00    -0.354 N 
ATOM     57  C   UNL A   1      42.134  28.753  33.854  1.00  0.00     0.074 A 
ATOM     58  C   UNL A   1      42.665  27.599  33.162  1.00  0.00     0.031 C 
ATOM     59  C   UNL A   1      37.759  31.030  29.726  1.00  0.00     0.029 A 
ATOM     60  C   UNL A   1      38.090  31.551  31.049  1.00  0.00     0.049 A 
ATOM     61  H   UNL A   1      39.548  30.846  32.360  1.00  0.00     0.167 HD
ATOM     62  C   UNL A   1      42.537  29.161  35.082  1.00  0.00     0.037 A 
ATOM     63  C   UNL A   1      37.490  32.600  31.645  1.00  0.00     0.037 A 
ATOM     64  C   UNL A   1      42.020  30.324  35.755  1.00  0.00     0.049 A 
ATOM     65  C   UNL A   1      37.955  33.034  33.009  1.00  0.00     0.074 A 
ATOM     66  C   UNL A   1      42.404  30.852  36.976  1.00  0.00     0.029 A 
ATOM     67  N   UNL A   1      41.006  31.138  35.271  1.00  0.00    -0.354 N 
ATOM     68  N   UNL A   1      38.894  32.514  33.763  1.00  0.00    -0.248 NA
ATOM     69  C   UNL A   1      37.287  34.201  33.600  1.00  0.00     0.031 C 
ATOM     70  C   UNL A   1      41.590  31.957  37.251  1.00  0.00     0.029 A 
ATOM     71  C   UNL A   1      40.736  32.151  36.177  1.00  0.00     0.049 A 
ATOM     72  H   UNL A   1      40.547  31.013  34.408  1.00  0.00     0.167 HD
ATOM     73  C   UNL A   1      38.949  33.308  34.904  1.00  0.00     0.074 A 
ATOM     74  C   UNL A   1      37.956  34.349  34.735  1.00  0.00     0.031 C 
ATOM     75  C   UNL A   1      39.748  33.185  35.993  1.00  0.00     0.037 A 
BRANCH  62  76
ATOM     76  C   UNL A   1      43.595  28.345  35.776  1.00  0.00     0.058 A 
ATOM     77  C   UNL A   1      44.962  28.638  35.640  1.00  0.00     0.135 A 
ATOM     78  C   UNL A   1      43.237  27.281  36.621  1.00  0.00     0.135 A 
ATOM     79  F   UNL A   1      45.363  29.635  34.837  1.00  0.00    -0.206 F 
ATOM     80  C   UNL A   1      45.937  27.887  36.290  1.00  0.00     0.059 A 
ATOM     81  C   UNL A   1      44.194  26.535  37.304  1.00  0.00     0.059 A 
ATOM     82  F   UNL A   1      41.946  26.956  36.790  1.00  0.00    -0.206 F 
ATOM     83  C   UNL A   1      45.542  26.836  37.119  1.00  0.00     0.060 A 
BRANCH  83  84
ATOM     84  S   UNL A   1      46.819  25.873  37.955  1.00  0.00     0.124 S 
ATOM     85  O   UNL A   1      48.008  26.242  37.192  1.00  0.00    -0.237 OA
ATOM     86  O   UNL A   1      46.758  26.388  39.319  1.00  0.00    -0.237 OA
ATOM     87  O   UNL A   1      46.370  24.494  37.788  1.00  0.00    -0.744 OA
ENDBRANCH  83  84
ENDBRANCH  62  76
BRANCH  63  88
ATOM     88  C   UNL A   1      36.397  33.327  30.944  1.00  0.00     0.058 A 
ATOM     89  C   UNL A   1      35.058  33.169  31.330  1.00  0.00     0.135 A 
ATOM     90  C   UNL A   1      36.670  34.203  29.881  1.00  0.00     0.135 A 
ATOM     91  F   UNL A   1      34.746  32.338  32.336  1.00  0.00    -0.206 F 
ATOM     92  C   UNL A   1      34.026  33.838  30.680  1.00  0.00     0.059 A 
ATOM     93  C   UNL A   1      35.658  34.904  29.233  1.00  0.00     0.059 A 
ATOM     94  F   UNL A   1      37.935  34.402  29.481  1.00  0.00    -0.206 F 
ATOM     95  C   UNL A   1      34.337  34.706  29.633  1.00  0.00     0.060 A 
BRANCH  95  96
ATOM     96  S   UNL A   1      32.995  35.605  28.826  1.00  0.00     0.124 S 
ATOM     97  O   UNL A   1      33.729  36.626  28.085  1.00  0.00    -0.237 OA
ATOM     98  O   UNL A   1      32.366  34.561  28.022  1.00  0.00    -0.237 OA
ATOM     99  O   UNL A   1      32.195  36.091  29.946  1.00  0.00    -0.744 OA
ENDBRANCH  95  96
ENDBRANCH  63  88
BRANCH  75 100
ATOM    100  C   UNL A   1      39.610  34.223  37.073  1.00  0.00     0.058 A 
ATOM    101  C   UNL A   1      39.028  33.925  38.316  1.00  0.00     0.135 A 
ATOM    102  C   UNL A   1      40.111  35.521  36.878  1.00  0.00     0.135 A 
ATOM    103  F   UNL A   1      38.528  32.701  38.552  1.00  0.00    -0.206 F 
ATOM    104  C   UNL A   1      38.922  34.885  39.316  1.00  0.00     0.059 A 
ATOM    105  C   UNL A   1      40.042  36.488  37.876  1.00  0.00     0.059 A 
ATOM    106  F   UNL A   1      40.687  35.855  35.713  1.00  0.00    -0.206 F 
ATOM    107  C   UNL A   1      39.433  36.164  39.088  1.00  0.00     0.060 A 
BRANCH 107 108
ATOM    108  S   UNL A   1      39.315  37.392  40.406  1.00  0.00     0.124 S 
ATOM    109  O   UNL A   1      40.721  37.669  40.676  1.00  0.00    -0.237 OA
ATOM    110  O   UNL A   1      38.570  38.469  39.762  1.00  0.00    -0.237 OA
ATOM    111  O   UNL A   1      38.598  36.687  41.464  1.00  0.00    -0.744 OA
ENDBRANCH 107 108
ENDBRANCH  75 100
ENDBRANCH  49  50
ENDBRANCH  41  44
ENDBRANCH  39  40
ENDBRANCH  38  39
ENDBRANCH  37  38
ENDBRANCH   1  37
TORSDOF 22
ENDMDL
MODEL 3
REMARK VINA RESULT:     -10.9      2.409      9.487
REMARK SMILES CCOc1ccccc1N1CCN(c2ccc(NC(=O)C(C)(C)C)c(C(=O)NCCCCCCNC(=O)c3ccc(-c4c5nc(c(-c6c(F)cc(S(=O)(=O)[O-])cc6F)c6ccc([nH]6)c(-c6c(F)cc(S(=O)(=O)[O-])cc6F)c6nc(c(-c7c(F)cc(S(=O)(=O)[O-])cc7F)c7ccc4[nH]7)C=C6)C=C5)cc3)c2)CC1
REMARK SMILES IDX 31 1 30 2 29 3 28 4 26 5 27 6 25 8 14 9 15 10 104 11 16 12
REMARK SMILES IDX 17 13 13 14 10 15 11 16 106 17 12 18 105 19 9 20 4 21 5 22
REMARK SMILES IDX 6 23 8 24 7 25 3 26 2 27 1 28 18 29 19 30 20 32 21 33 22 34
REMARK SMILES IDX 23 35 24 36 32 37 33 38 34 39 35 40 36 41 37 43 38 44 39 45
REMARK SMILES IDX 103 46 40 47 102 48 41 49 42 50 43 51 96 52 44 53 101 54
REMARK SMILES IDX 95 55 97 56 45 57 100 58 94 59 93 60 46 62 80 63 59 64 79 65
REMARK SMILES IDX 60 66 63 67 78 68 98 69 61 70 62 71 77 73 99 74 64 75 47 76
REMARK SMILES IDX 48 77 57 78 49 79 50 80 56 81 58 82 51 83 52 84 53 85 54 86
REMARK SMILES IDX 55 87 81 88 82 89 91 90 83 91 84 92 90 93 92 94 85 95 86 96
REMARK SMILES IDX 87 97 88 98 89 99 65 100 66 101 75 102 67 103 68 104 74 105
REMARK SMILES IDX 76 106 69 107 70 108 71 109 72 110 73 111
REMARK H PARENT 28 7 18 31 35 42 97 61 63 72
REMARK Flexibility Score: inf
ROOT
ATOM      1  C   UNL A   1      35.226  31.621  27.659  1.00  0.00     0.002 C 
ENDROOT
BRANCH   1   2
ATOM      2  C   UNL A   1      34.007  30.772  28.004  1.00  0.00     0.021 C 
BRANCH   2   3
ATOM      3  C   UNL A   1      33.065  30.426  26.858  1.00  0.00     0.116 C 
BRANCH   3   4
ATOM      4  N   UNL A   1      33.674  30.073  25.575  1.00  0.00    -0.352 N 
ATOM      5  C   UNL A   1      33.246  29.180  24.592  1.00  0.00     0.253 C 
ATOM      6  O   UNL A   1      33.925  29.031  23.577  1.00  0.00    -0.269 OA
ATOM      7  H   UNL A   1      34.517  30.540  25.372  1.00  0.00     0.163 HD
BRANCH   5   8
ATOM      8  C   UNL A   1      32.027  28.329  24.786  1.00  0.00     0.065 A 
ATOM      9  C   UNL A   1      31.350  26.028  24.587  1.00  0.00     0.038 A 
ATOM     10  C   UNL A   1      30.067  26.473  24.295  1.00  0.00     0.028 A 
ATOM     11  C   UNL A   1      32.235  26.978  25.068  1.00  0.00     0.042 A 
ATOM     12  C   UNL A   1      29.741  27.829  24.346  1.00  0.00     0.029 A 
ATOM     13  C   UNL A   1      30.716  28.801  24.549  1.00  0.00     0.054 A 
BRANCH   9  14
ATOM     14  N   UNL A   1      31.804  24.770  24.230  1.00  0.00    -0.368 N 
ATOM     15  N   UNL A   1      32.595  22.099  23.719  1.00  0.00    -0.365 N 
ATOM     16  C   UNL A   1      31.287  22.506  23.238  1.00  0.00     0.138 C 
ATOM     17  C   UNL A   1      33.639  23.115  23.605  1.00  0.00     0.138 C 
ATOM     18  C   UNL A   1      30.798  23.699  24.070  1.00  0.00     0.138 C 
ATOM     19  C   UNL A   1      33.240  24.423  24.321  1.00  0.00     0.138 C 
BRANCH  15  20
ATOM     20  C   UNL A   1      32.963  20.770  23.787  1.00  0.00     0.079 A 
ATOM     21  C   UNL A   1      34.007  20.344  24.633  1.00  0.00     0.142 A 
ATOM     22  C   UNL A   1      34.387  19.001  24.699  1.00  0.00     0.048 A 
ATOM     23  C   UNL A   1      33.713  18.054  23.931  1.00  0.00     0.004 A 
ATOM     24  C   UNL A   1      32.301  19.795  23.028  1.00  0.00     0.030 A 
ATOM     25  C   UNL A   1      32.673  18.451  23.093  1.00  0.00     0.002 A 
BRANCH  21  26
ATOM     26  O   UNL A   1      34.714  21.273  25.361  1.00  0.00    -0.492 OA
BRANCH  26  27
ATOM     27  C   UNL A   1      36.109  20.959  25.437  1.00  0.00     0.226 C 
ATOM     28  C   UNL A   1      36.865  21.666  24.326  1.00  0.00     0.049 C 
ENDBRANCH  26  27
ENDBRANCH  21  26
ENDBRANCH  15  20
ENDBRANCH   9  14
BRANCH  13  29
ATOM     29  N   UNL A   1      30.464  30.195  24.529  1.00  0.00    -0.325 N 
ATOM     30  C   UNL A   1      29.734  31.076  23.778  1.00  0.00     0.229 C 
ATOM     31  H   UNL A   1      30.946  30.655  25.254  1.00  0.00     0.169 HD
ATOM     32  O   UNL A   1      29.813  32.265  24.120  1.00  0.00    -0.274 OA
BRANCH  30  33
ATOM     33  C   UNL A   1      28.845  30.704  22.567  1.00  0.00     0.041 C 
ATOM     34  C   UNL A   1      27.640  29.866  23.049  1.00  0.00     0.021 C 
ATOM     35  C   UNL A   1      28.476  31.953  21.737  1.00  0.00     0.021 C 
ATOM     36  C   UNL A   1      29.627  29.785  21.592  1.00  0.00     0.021 C 
ENDBRANCH  30  33
ENDBRANCH  13  29
ENDBRANCH   5   8
ENDBRANCH   3   4
ENDBRANCH   2   3
ENDBRANCH   1   2
BRANCH   1  37
ATOM     37  C   UNL A   1      35.159  33.107  28.022  1.00  0.00     0.002 C 
BRANCH  37  38
ATOM     38  C   UNL A   1      33.841  33.627  28.605  1.00  0.00     0.021 C 
BRANCH  38  39
ATOM     39  C   UNL A   1      33.712  35.141  28.750  1.00  0.00     0.116 C 
BRANCH  39  40
ATOM     40  N   UNL A   1      32.866  35.536  29.863  1.00  0.00    -0.352 N 
ATOM     41  C   UNL A   1      32.999  35.285  31.205  1.00  0.00     0.251 C 
ATOM     42  H   UNL A   1      32.074  36.065  29.616  1.00  0.00     0.163 HD
ATOM     43  O   UNL A   1      32.082  35.595  31.970  1.00  0.00    -0.269 OA
BRANCH  41  44
ATOM     44  C   UNL A   1      34.212  34.629  31.744  1.00  0.00     0.039 A 
ATOM     45  C   UNL A   1      34.090  33.358  32.315  1.00  0.00     0.014 A 
ATOM     46  C   UNL A   1      35.457  35.264  31.724  1.00  0.00     0.014 A 
ATOM     47  C   UNL A   1      35.221  32.705  32.813  1.00  0.00     0.010 A 
ATOM     48  C   UNL A   1      36.595  34.583  32.156  1.00  0.00     0.010 A 
ATOM     49  C   UNL A   1      36.490  33.298  32.710  1.00  0.00    -0.014 A 
BRANCH  49  50
ATOM     50  C   UNL A   1      37.709  32.585  33.177  1.00  0.00     0.031 A 
ATOM     51  C   UNL A   1      38.368  32.970  34.476  1.00  0.00     0.074 A 
ATOM     52  C   UNL A   1      38.252  31.621  32.407  1.00  0.00     0.049 A 
ATOM     53  N   UNL A   1      39.456  32.492  35.024  1.00  0.00    -0.248 NA
ATOM     54  C   UNL A   1      37.734  34.050  35.248  1.00  0.00     0.031 C 
ATOM     55  C   UNL A   1      37.736  31.189  31.106  1.00  0.00     0.029 A 
ATOM     56  N   UNL A   1      39.360  30.833  32.600  1.00  0.00    -0.354 N 
ATOM     57  C   UNL A   1      39.642  33.217  36.195  1.00  0.00     0.074 A 
ATOM     58  C   UNL A   1      38.586  34.203  36.252  1.00  0.00     0.031 C 
ATOM     59  C   UNL A   1      38.511  30.202  30.629  1.00  0.00     0.029 A 
ATOM     60  C   UNL A   1      39.599  29.953  31.570  1.00  0.00     0.049 A 
ATOM     61  H   UNL A   1      39.929  30.892  33.400  1.00  0.00     0.167 HD
ATOM     62  C   UNL A   1      40.594  33.060  37.148  1.00  0.00     0.037 A 
ATOM     63  C   UNL A   1      40.585  29.051  31.400  1.00  0.00     0.037 A 
ATOM     64  C   UNL A   1      41.629  32.060  37.096  1.00  0.00     0.049 A 
ATOM     65  C   UNL A   1      41.630  28.895  32.471  1.00  0.00     0.074 A 
ATOM     66  C   UNL A   1      42.605  31.784  38.038  1.00  0.00     0.029 A 
ATOM     67  N   UNL A   1      41.828  31.176  36.046  1.00  0.00    -0.354 N 
ATOM     68  N   UNL A   1      41.752  29.546  33.603  1.00  0.00    -0.248 NA
ATOM     69  C   UNL A   1      42.665  27.876  32.249  1.00  0.00     0.031 C 
ATOM     70  C   UNL A   1      43.422  30.764  37.537  1.00  0.00     0.029 A 
ATOM     71  C   UNL A   1      42.923  30.368  36.306  1.00  0.00     0.049 A 
ATOM     72  H   UNL A   1      41.271  31.129  35.235  1.00  0.00     0.167 HD
ATOM     73  C   UNL A   1      42.861  28.996  34.240  1.00  0.00     0.074 A 
ATOM     74  C   UNL A   1      43.364  27.952  33.372  1.00  0.00     0.031 C 
ATOM     75  C   UNL A   1      43.411  29.327  35.435  1.00  0.00     0.037 A 
BRANCH  62  76
ATOM     76  C   UNL A   1      40.556  33.988  38.333  1.00  0.00     0.058 A 
ATOM     77  C   UNL A   1      41.282  35.191  38.352  1.00  0.00     0.135 A 
ATOM     78  C   UNL A   1      39.753  33.693  39.447  1.00  0.00     0.135 A 
ATOM     79  F   UNL A   1      42.076  35.518  37.320  1.00  0.00    -0.206 F 
ATOM     80  C   UNL A   1      41.240  36.050  39.445  1.00  0.00     0.059 A 
ATOM     81  C   UNL A   1      39.672  34.554  40.539  1.00  0.00     0.059 A 
ATOM     82  F   UNL A   1      39.037  32.559  39.483  1.00  0.00    -0.206 F 
ATOM     83  C   UNL A   1      40.431  35.722  40.534  1.00  0.00     0.060 A 
BRANCH  83  84
ATOM     84  S   UNL A   1      40.387  36.850  41.943  1.00  0.00     0.124 S 
ATOM     85  O   UNL A   1      40.326  38.147  41.276  1.00  0.00    -0.237 OA
ATOM     86  O   UNL A   1      39.171  36.436  42.636  1.00  0.00    -0.237 OA
ATOM     87  O   UNL A   1      41.634  36.564  42.648  1.00  0.00    -0.744 OA
ENDBRANCH  83  84
ENDBRANCH  62  76
BRANCH  63  88
ATOM     88  C   UNL A   1      40.617  28.208  30.174  1.00  0.00     0.058 A 
ATOM     89  C   UNL A   1      41.573  28.426  29.171  1.00  0.00     0.135 A 
ATOM     90  C   UNL A   1      39.700  27.162  29.984  1.00  0.00     0.135 A 
ATOM     91  F   UNL A   1      42.467  29.418  29.302  1.00  0.00    -0.206 F 
ATOM     92  C   UNL A   1      41.611  27.650  28.017  1.00  0.00     0.059 A 
ATOM     93  C   UNL A   1      39.735  26.354  28.851  1.00  0.00     0.059 A 
ATOM     94  F   UNL A   1      38.774  26.901  30.920  1.00  0.00    -0.206 F 
ATOM     95  C   UNL A   1      40.688  26.614  27.868  1.00  0.00     0.060 A 
BRANCH  95  96
ATOM     96  S   UNL A   1      40.775  25.582  26.387  1.00  0.00     0.124 S 
ATOM     97  O   UNL A   1      41.055  26.574  25.355  1.00  0.00    -0.237 OA
ATOM     98  O   UNL A   1      41.869  24.672  26.713  1.00  0.00    -0.237 OA
ATOM     99  O   UNL A   1      39.453  24.966  26.330  1.00  0.00    -0.744 OA
ENDBRANCH  95  96
ENDBRANCH  63  88
BRANCH  75 100
ATOM    100  C   UNL A   1      44.600  28.528  35.894  1.00  0.00     0.058 A 
ATOM    101  C   UNL A   1      44.455  27.353  36.650  1.00  0.00     0.135 A 
ATOM    102  C   UNL A   1      45.900  28.918  35.533  1.00  0.00     0.135 A 
ATOM    103  F   UNL A   1      43.235  26.939  37.027  1.00  0.00    -0.206 F 
ATOM    104  C   UNL A   1      45.558  26.609  37.053  1.00  0.00     0.059 A 
ATOM    105  C   UNL A   1      47.015  28.173  35.901  1.00  0.00     0.059 A 
ATOM    106  F   UNL A   1      46.095  30.027  34.801  1.00  0.00    -0.206 F 
ATOM    107  C   UNL A   1      46.835  27.026  36.673  1.00  0.00     0.060 A 
BRANCH 107 108
ATOM    108  S   UNL A   1      48.256  26.035  37.180  1.00  0.00     0.124 S 
ATOM    109  O   UNL A   1      47.826  24.692  36.806  1.00  0.00    -0.237 OA
ATOM    110  O   UNL A   1      49.334  26.602  36.375  1.00  0.00    -0.237 OA
ATOM    111  O   UNL A   1      48.353  26.288  38.615  1.00  0.00    -0.744 OA
ENDBRANCH 107 108
ENDBRANCH  75 100
ENDBRANCH  49  50
ENDBRANCH  41  44
ENDBRANCH  39  40
ENDBRANCH  38  39
ENDBRANCH  37  38
ENDBRANCH   1  37
TORSDOF 22
ENDMDL
