MODEL 1
REMARK VINA RESULT:     -11.4      0.000      0.000
REMARK SMILES C[NH+](C)[C@H]1CCN(C(=O)C(=O)c2ccccc2)C[C@H]1CCC(=O)NCCCCCCNC(=O)c1ccc(-c2c3nc(c(-c4c(F)cc(S(=O)(=O)[O-])cc4F)c4ccc([nH]4)c(-c4c(F)cc(S(=O)(=O)[O-])cc4F)c4nc(c(-c5c(F)cc(S(=O)(=O)[O-])cc5F)c5ccc2[nH]5)C=C4)C=C3)cc1
REMARK SMILES IDX 26 1 25 2 24 3 22 4 23 5 21 7 20 8 19 9 4 10 5 11 6 12 18 13
REMARK SMILES IDX 7 14 2 15 1 16 3 17 8 19 9 20 10 21 11 22 12 23 13 24 17 25
REMARK SMILES IDX 14 26 16 27 15 28 27 29 28 30 29 31 30 32 31 33 32 34 33 36
REMARK SMILES IDX 34 37 35 38 99 39 36 40 98 41 37 42 38 43 39 44 92 45 40 46
REMARK SMILES IDX 97 47 91 48 93 49 41 50 96 51 90 52 89 53 42 55 76 56 55 57
REMARK SMILES IDX 75 58 56 59 59 60 74 61 94 62 57 63 58 64 73 66 95 67 60 68
REMARK SMILES IDX 43 69 44 70 53 71 45 72 46 73 52 74 54 75 47 76 48 77 49 78
REMARK SMILES IDX 50 79 51 80 77 81 78 82 87 83 79 84 80 85 86 86 88 87 81 88
REMARK SMILES IDX 82 89 83 90 84 91 85 92 61 93 62 94 71 95 63 96 64 97 70 98
REMARK SMILES IDX 72 99 65 100 66 101 67 102 68 103 69 104
REMARK H PARENT 24 6 2 18 31 35 93 54 59 65
REMARK Flexibility Score: inf
ROOT
ATOM      1  C   UNL A   1      34.769  22.127  25.911  1.00  0.00     0.021 C 
ENDROOT
BRANCH   1   2
ATOM      2  C   UNL A   1      34.481  22.548  27.358  1.00  0.00     0.116 C 
BRANCH   2   3
ATOM      3  N   UNL A   1      33.191  23.197  27.504  1.00  0.00    -0.356 N 
ATOM      4  C   UNL A   1      32.513  24.176  26.856  1.00  0.00     0.220 C 
ATOM      5  O   UNL A   1      31.330  24.310  27.194  1.00  0.00    -0.275 OA
ATOM      6  H   UNL A   1      32.681  22.837  28.264  1.00  0.00     0.163 HD
BRANCH   4   7
ATOM      7  C   UNL A   1      33.068  25.063  25.746  1.00  0.00     0.100 C 
BRANCH   7   8
ATOM      8  C   UNL A   1      33.329  26.534  26.073  1.00  0.00     0.021 C 
BRANCH   8   9
ATOM      9  C   UNL A   1      32.092  27.404  26.374  1.00  0.00     0.067 C 
ATOM     10  C   UNL A   1      32.313  28.951  26.585  1.00  0.00     0.190 C 
ATOM     11  C   UNL A   1      32.442  29.654  25.208  1.00  0.00     0.087 C 
ATOM     12  C   UNL A   1      31.334  29.279  24.238  1.00  0.00     0.126 C 
ATOM     13  C   UNL A   1      31.011  27.119  25.296  1.00  0.00     0.129 C 
ATOM     14  N   UNL A   1      31.270  27.843  24.061  1.00  0.00    -0.335 N 
BRANCH  10  15
ATOM     15  N   UNL A   1      33.421  29.360  27.515  1.00  0.00    -0.337 N 
ATOM     16  C   UNL A   1      33.525  30.810  27.727  1.00  0.00     0.332 C 
ATOM     17  C   UNL A   1      34.748  28.936  27.032  1.00  0.00     0.332 C 
ATOM     18  H   UNL A   1      33.167  28.897  28.387  1.00  0.00     0.347 HD
ENDBRANCH  10  15
BRANCH  14  19
ATOM     19  C   UNL A   1      31.383  27.331  22.762  1.00  0.00     0.294 C 
ATOM     20  O   UNL A   1      30.546  27.571  21.893  1.00  0.00    -0.265 OA
BRANCH  19  21
ATOM     21  C   UNL A   1      32.552  26.409  22.373  1.00  0.00     0.250 C 
ATOM     22  O   UNL A   1      33.625  26.865  21.994  1.00  0.00    -0.283 OA
BRANCH  21  23
ATOM     23  C   UNL A   1      32.426  24.936  22.576  1.00  0.00     0.028 A 
ATOM     24  C   UNL A   1      33.563  24.144  22.354  1.00  0.00     0.012 A 
ATOM     25  C   UNL A   1      31.238  24.323  22.990  1.00  0.00     0.012 A 
ATOM     26  C   UNL A   1      33.522  22.767  22.575  1.00  0.00     0.001 A 
ATOM     27  C   UNL A   1      31.199  22.941  23.209  1.00  0.00     0.001 A 
ATOM     28  C   UNL A   1      32.342  22.166  23.008  1.00  0.00     0.000 A 
ENDBRANCH  21  23
ENDBRANCH  19  21
ENDBRANCH  14  19
ENDBRANCH   8   9
ENDBRANCH   7   8
ENDBRANCH   4   7
ENDBRANCH   2   3
ENDBRANCH   1   2
BRANCH   1  29
ATOM     29  C   UNL A   1      36.141  21.471  25.752  1.00  0.00     0.002 C 
BRANCH  29  30
ATOM     30  C   UNL A   1      37.175  22.322  25.003  1.00  0.00     0.002 C 
BRANCH  30  31
ATOM     31  C   UNL A   1      37.226  23.801  25.393  1.00  0.00     0.021 C 
BRANCH  31  32
ATOM     32  C   UNL A   1      38.158  24.132  26.558  1.00  0.00     0.116 C 
BRANCH  32  33
ATOM     33  N   UNL A   1      39.561  24.006  26.190  1.00  0.00    -0.352 N 
ATOM     34  C   UNL A   1      40.632  24.798  26.511  1.00  0.00     0.251 C 
ATOM     35  H   UNL A   1      39.772  23.230  25.623  1.00  0.00     0.163 HD
ATOM     36  O   UNL A   1      41.697  24.650  25.921  1.00  0.00    -0.269 OA
BRANCH  34  37
ATOM     37  C   UNL A   1      40.500  25.829  27.560  1.00  0.00     0.039 A 
ATOM     38  C   UNL A   1      39.574  25.633  28.588  1.00  0.00     0.014 A 
ATOM     39  C   UNL A   1      41.267  26.996  27.515  1.00  0.00     0.014 A 
ATOM     40  C   UNL A   1      39.456  26.587  29.599  1.00  0.00     0.010 A 
ATOM     41  C   UNL A   1      41.201  27.908  28.561  1.00  0.00     0.010 A 
ATOM     42  C   UNL A   1      40.289  27.718  29.609  1.00  0.00    -0.014 A 
BRANCH  42  43
ATOM     43  C   UNL A   1      40.215  28.716  30.703  1.00  0.00     0.031 A 
ATOM     44  C   UNL A   1      41.093  28.572  31.916  1.00  0.00     0.074 A 
ATOM     45  C   UNL A   1      39.312  29.714  30.628  1.00  0.00     0.049 A 
ATOM     46  N   UNL A   1      41.127  29.301  33.000  1.00  0.00    -0.248 NA
ATOM     47  C   UNL A   1      42.038  27.444  31.921  1.00  0.00     0.031 C 
ATOM     48  C   UNL A   1      38.375  29.924  29.522  1.00  0.00     0.029 A 
ATOM     49  N   UNL A   1      39.027  30.732  31.501  1.00  0.00    -0.354 N 
ATOM     50  C   UNL A   1      42.085  28.716  33.820  1.00  0.00     0.074 A 
ATOM     51  C   UNL A   1      42.567  27.538  33.133  1.00  0.00     0.031 C 
ATOM     52  C   UNL A   1      37.636  31.016  29.773  1.00  0.00     0.029 A 
ATOM     53  C   UNL A   1      38.016  31.561  31.072  1.00  0.00     0.049 A 
ATOM     54  H   UNL A   1      39.500  30.858  32.355  1.00  0.00     0.167 HD
ATOM     55  C   UNL A   1      42.538  29.135  35.025  1.00  0.00     0.037 A 
ATOM     56  C   UNL A   1      37.457  32.634  31.663  1.00  0.00     0.037 A 
ATOM     57  C   UNL A   1      42.065  30.322  35.690  1.00  0.00     0.049 A 
ATOM     58  C   UNL A   1      37.974  33.078  33.004  1.00  0.00     0.074 A 
ATOM     59  C   UNL A   1      42.494  30.867  36.887  1.00  0.00     0.029 A 
ATOM     60  N   UNL A   1      41.055  31.146  35.215  1.00  0.00    -0.354 N 
ATOM     61  N   UNL A   1      38.924  32.549  33.738  1.00  0.00    -0.248 NA
ATOM     62  C   UNL A   1      37.351  34.271  33.595  1.00  0.00     0.031 C 
ATOM     63  C   UNL A   1      41.712  31.994  37.159  1.00  0.00     0.029 A 
ATOM     64  C   UNL A   1      40.832  32.184  36.105  1.00  0.00     0.049 A 
ATOM     65  H   UNL A   1      40.568  31.014  34.370  1.00  0.00     0.167 HD
ATOM     66  C   UNL A   1      39.032  33.359  34.863  1.00  0.00     0.074 A 
ATOM     67  C   UNL A   1      38.059  34.420  34.706  1.00  0.00     0.031 C 
ATOM     68  C   UNL A   1      39.863  33.236  35.928  1.00  0.00     0.037 A 
BRANCH  55  69
ATOM     69  C   UNL A   1      43.600  28.309  35.699  1.00  0.00     0.058 A 
ATOM     70  C   UNL A   1      43.276  27.298  36.618  1.00  0.00     0.135 A 
ATOM     71  C   UNL A   1      44.958  28.508  35.400  1.00  0.00     0.135 A 
ATOM     72  F   UNL A   1      41.995  27.074  36.953  1.00  0.00    -0.206 F 
ATOM     73  C   UNL A   1      44.260  26.534  37.238  1.00  0.00     0.059 A 
ATOM     74  C   UNL A   1      45.957  27.735  35.987  1.00  0.00     0.059 A 
ATOM     75  F   UNL A   1      45.326  29.461  34.530  1.00  0.00    -0.206 F 
ATOM     76  C   UNL A   1      45.598  26.761  36.916  1.00  0.00     0.060 A 
BRANCH  76  77
ATOM     77  S   UNL A   1      46.861  25.757  37.727  1.00  0.00     0.124 S 
ATOM     78  O   UNL A   1      46.086  25.116  38.786  1.00  0.00    -0.237 OA
ATOM     79  O   UNL A   1      47.303  24.880  36.647  1.00  0.00    -0.237 OA
ATOM     80  O   UNL A   1      47.842  26.741  38.175  1.00  0.00    -0.744 OA
ENDBRANCH  76  77
ENDBRANCH  55  69
BRANCH  56  81
ATOM     81  C   UNL A   1      36.362  33.371  30.980  1.00  0.00     0.058 A 
ATOM     82  C   UNL A   1      36.618  34.160  29.849  1.00  0.00     0.135 A 
ATOM     83  C   UNL A   1      35.034  33.290  31.431  1.00  0.00     0.135 A 
ATOM     84  F   UNL A   1      37.871  34.272  29.381  1.00  0.00    -0.206 F 
ATOM     85  C   UNL A   1      35.604  34.856  29.198  1.00  0.00     0.059 A 
ATOM     86  C   UNL A   1      33.999  33.955  30.782  1.00  0.00     0.059 A 
ATOM     87  F   UNL A   1      34.731  32.534  32.497  1.00  0.00    -0.206 F 
ATOM     88  C   UNL A   1      34.296  34.744  29.671  1.00  0.00     0.060 A 
BRANCH  88  89
ATOM     89  S   UNL A   1      32.980  35.612  28.791  1.00  0.00     0.124 S 
ATOM     90  O   UNL A   1      33.735  36.617  28.051  1.00  0.00    -0.237 OA
ATOM     91  O   UNL A   1      32.387  34.543  27.995  1.00  0.00    -0.237 OA
ATOM     92  O   UNL A   1      32.137  36.123  29.868  1.00  0.00    -0.744 OA
ENDBRANCH  88  89
ENDBRANCH  56  81
BRANCH  68  93
ATOM     93  C   UNL A   1      39.782  34.295  36.993  1.00  0.00     0.058 A 
ATOM     94  C   UNL A   1      39.060  34.097  38.180  1.00  0.00     0.135 A 
ATOM     95  C   UNL A   1      40.482  35.504  36.845  1.00  0.00     0.135 A 
ATOM     96  F   UNL A   1      38.366  32.962  38.368  1.00  0.00    -0.206 F 
ATOM     97  C   UNL A   1      39.015  35.069  39.173  1.00  0.00     0.059 A 
ATOM     98  C   UNL A   1      40.475  36.477  37.838  1.00  0.00     0.059 A 
ATOM     99  F   UNL A   1      41.197  35.740  35.733  1.00  0.00    -0.206 F 
ATOM    100  C   UNL A   1      39.729  36.255  38.994  1.00  0.00     0.060 A 
BRANCH 100 101
ATOM    101  S   UNL A   1      39.691  37.494  40.306  1.00  0.00     0.124 S 
ATOM    102  O   UNL A   1      41.114  37.691  40.565  1.00  0.00    -0.237 OA
ATOM    103  O   UNL A   1      39.003  38.609  39.663  1.00  0.00    -0.237 OA
ATOM    104  O   UNL A   1      38.945  36.836  41.374  1.00  0.00    -0.744 OA
ENDBRANCH 100 101
ENDBRANCH  68  93
ENDBRANCH  42  43
ENDBRANCH  34  37
ENDBRANCH  32  33
ENDBRANCH  31  32
ENDBRANCH  30  31
ENDBRANCH  29  30
ENDBRANCH   1  29
TORSDOF 22
ENDMDL
MODEL 2
REMARK VINA RESULT:     -11.2      6.413     11.659
REMARK SMILES C[NH+](C)[C@H]1CCN(C(=O)C(=O)c2ccccc2)C[C@H]1CCC(=O)NCCCCCCNC(=O)c1ccc(-c2c3nc(c(-c4c(F)cc(S(=O)(=O)[O-])cc4F)c4ccc([nH]4)c(-c4c(F)cc(S(=O)(=O)[O-])cc4F)c4nc(c(-c5c(F)cc(S(=O)(=O)[O-])cc5F)c5ccc2[nH]5)C=C4)C=C3)cc1
REMARK SMILES IDX 26 1 25 2 24 3 22 4 23 5 21 7 20 8 19 9 4 10 5 11 6 12 18 13
REMARK SMILES IDX 7 14 2 15 1 16 3 17 8 19 9 20 10 21 11 22 12 23 13 24 17 25
REMARK SMILES IDX 14 26 16 27 15 28 27 29 28 30 29 31 30 32 31 33 32 34 33 36
REMARK SMILES IDX 34 37 35 38 99 39 36 40 98 41 37 42 38 43 39 44 92 45 40 46
REMARK SMILES IDX 97 47 91 48 93 49 41 50 96 51 90 52 89 53 42 55 76 56 55 57
REMARK SMILES IDX 75 58 56 59 59 60 74 61 94 62 57 63 58 64 73 66 95 67 60 68
REMARK SMILES IDX 43 69 44 70 53 71 45 72 46 73 52 74 54 75 47 76 48 77 49 78
REMARK SMILES IDX 50 79 51 80 77 81 78 82 87 83 79 84 80 85 86 86 88 87 81 88
REMARK SMILES IDX 82 89 83 90 84 91 85 92 61 93 62 94 71 95 63 96 64 97 70 98
REMARK SMILES IDX 72 99 65 100 66 101 67 102 68 103 69 104
REMARK H PARENT 24 6 2 18 31 35 93 54 59 65
REMARK Flexibility Score: inf
ROOT
ATOM      1  C   UNL A   1      35.348  29.820  27.356  1.00  0.00     0.021 C 
ENDROOT
BRANCH   1   2
ATOM      2  C   UNL A   1      34.443  28.708  26.812  1.00  0.00     0.116 C 
BRANCH   2   3
ATOM      3  N   UNL A   1      33.161  28.649  27.492  1.00  0.00    -0.356 N 
ATOM      4  C   UNL A   1      31.971  28.036  27.277  1.00  0.00     0.220 C 
ATOM      5  O   UNL A   1      31.170  28.095  28.219  1.00  0.00    -0.275 OA
ATOM      6  H   UNL A   1      33.155  29.187  28.315  1.00  0.00     0.163 HD
BRANCH   4   7
ATOM      7  C   UNL A   1      31.577  27.266  26.021  1.00  0.00     0.100 C 
BRANCH   7   8
ATOM      8  C   UNL A   1      31.876  25.766  25.982  1.00  0.00     0.021 C 
BRANCH   8   9
ATOM      9  C   UNL A   1      33.210  25.344  25.334  1.00  0.00     0.067 C 
ATOM     10  C   UNL A   1      33.390  23.830  24.936  1.00  0.00     0.190 C 
ATOM     11  C   UNL A   1      32.677  23.555  23.586  1.00  0.00     0.087 C 
ATOM     12  C   UNL A   1      33.034  24.562  22.504  1.00  0.00     0.126 C 
ATOM     13  C   UNL A   1      33.504  26.293  24.140  1.00  0.00     0.129 C 
ATOM     14  N   UNL A   1      32.759  25.913  22.949  1.00  0.00    -0.335 N 
BRANCH  10  15
ATOM     15  N   UNL A   1      33.018  22.804  25.970  1.00  0.00    -0.337 N 
ATOM     16  C   UNL A   1      34.140  21.972  26.424  1.00  0.00     0.332 C 
ATOM     17  C   UNL A   1      31.997  21.858  25.484  1.00  0.00     0.332 C 
ATOM     18  H   UNL A   1      32.672  23.375  26.741  1.00  0.00     0.347 HD
ENDBRANCH  10  15
BRANCH  14  19
ATOM     19  C   UNL A   1      31.901  26.703  22.173  1.00  0.00     0.294 C 
ATOM     20  O   UNL A   1      31.393  26.285  21.133  1.00  0.00    -0.265 OA
BRANCH  19  21
ATOM     21  C   UNL A   1      31.580  28.153  22.575  1.00  0.00     0.250 C 
ATOM     22  O   UNL A   1      32.471  28.969  22.786  1.00  0.00    -0.283 OA
BRANCH  21  23
ATOM     23  C   UNL A   1      30.161  28.615  22.592  1.00  0.00     0.028 A 
ATOM     24  C   UNL A   1      29.841  29.774  21.868  1.00  0.00     0.012 A 
ATOM     25  C   UNL A   1      29.147  27.937  23.279  1.00  0.00     0.012 A 
ATOM     26  C   UNL A   1      28.522  30.227  21.803  1.00  0.00     0.001 A 
ATOM     27  C   UNL A   1      27.826  28.396  23.214  1.00  0.00     0.001 A 
ATOM     28  C   UNL A   1      27.514  29.536  22.471  1.00  0.00     0.000 A 
ENDBRANCH  21  23
ENDBRANCH  19  21
ENDBRANCH  14  19
ENDBRANCH   8   9
ENDBRANCH   7   8
ENDBRANCH   4   7
ENDBRANCH   2   3
ENDBRANCH   1   2
BRANCH   1  29
ATOM     29  C   UNL A   1      34.561  31.052  27.805  1.00  0.00     0.002 C 
BRANCH  29  30
ATOM     30  C   UNL A   1      35.371  32.354  27.836  1.00  0.00     0.002 C 
BRANCH  30  31
ATOM     31  C   UNL A   1      35.275  33.165  29.131  1.00  0.00     0.021 C 
BRANCH  31  32
ATOM     32  C   UNL A   1      36.408  32.932  30.128  1.00  0.00     0.116 C 
BRANCH  32  33
ATOM     33  N   UNL A   1      36.056  31.943  31.136  1.00  0.00    -0.352 N 
ATOM     34  C   UNL A   1      36.664  30.759  31.463  1.00  0.00     0.251 C 
ATOM     35  H   UNL A   1      35.256  32.160  31.668  1.00  0.00     0.163 HD
ATOM     36  O   UNL A   1      36.088  29.959  32.192  1.00  0.00    -0.269 OA
BRANCH  34  37
ATOM     37  C   UNL A   1      38.007  30.449  30.932  1.00  0.00     0.039 A 
ATOM     38  C   UNL A   1      38.994  29.998  31.812  1.00  0.00     0.014 A 
ATOM     39  C   UNL A   1      38.297  30.627  29.577  1.00  0.00     0.014 A 
ATOM     40  C   UNL A   1      40.260  29.678  31.320  1.00  0.00     0.010 A 
ATOM     41  C   UNL A   1      39.534  30.238  29.078  1.00  0.00     0.010 A 
ATOM     42  C   UNL A   1      40.531  29.768  29.945  1.00  0.00    -0.014 A 
BRANCH  42  43
ATOM     43  C   UNL A   1      41.854  29.382  29.396  1.00  0.00     0.031 A 
ATOM     44  C   UNL A   1      42.951  30.406  29.285  1.00  0.00     0.074 A 
ATOM     45  C   UNL A   1      42.041  28.128  28.942  1.00  0.00     0.049 A 
ATOM     46  N   UNL A   1      44.147  30.279  28.774  1.00  0.00    -0.248 NA
ATOM     47  C   UNL A   1      42.653  31.756  29.791  1.00  0.00     0.031 C 
ATOM     48  C   UNL A   1      41.034  27.065  28.954  1.00  0.00     0.029 A 
ATOM     49  N   UNL A   1      43.140  27.535  28.373  1.00  0.00    -0.354 N 
ATOM     50  C   UNL A   1      44.740  31.532  28.885  1.00  0.00     0.074 A 
ATOM     51  C   UNL A   1      43.752  32.418  29.459  1.00  0.00     0.031 C 
ATOM     52  C   UNL A   1      41.568  25.946  28.440  1.00  0.00     0.029 A 
ATOM     53  C   UNL A   1      42.940  26.220  28.024  1.00  0.00     0.049 A 
ATOM     54  H   UNL A   1      43.991  28.007  28.227  1.00  0.00     0.167 HD
ATOM     55  C   UNL A   1      46.001  31.903  28.560  1.00  0.00     0.037 A 
ATOM     56  C   UNL A   1      43.767  25.338  27.432  1.00  0.00     0.037 A 
ATOM     57  C   UNL A   1      46.984  31.005  28.009  1.00  0.00     0.049 A 
ATOM     58  C   UNL A   1      45.162  25.774  27.077  1.00  0.00     0.074 A 
ATOM     59  C   UNL A   1      48.306  31.264  27.694  1.00  0.00     0.029 A 
ATOM     60  N   UNL A   1      46.750  29.675  27.688  1.00  0.00    -0.354 N 
ATOM     61  N   UNL A   1      45.727  26.946  27.245  1.00  0.00    -0.248 NA
ATOM     62  C   UNL A   1      46.036  24.768  26.459  1.00  0.00     0.031 C 
ATOM     63  C   UNL A   1      48.858  30.104  27.141  1.00  0.00     0.029 A 
ATOM     64  C   UNL A   1      47.897  29.106  27.160  1.00  0.00     0.049 A 
ATOM     65  H   UNL A   1      45.894  29.205  27.817  1.00  0.00     0.167 HD
ATOM     66  C   UNL A   1      47.031  26.811  26.781  1.00  0.00     0.074 A 
ATOM     67  C   UNL A   1      47.173  25.439  26.335  1.00  0.00     0.031 C 
ATOM     68  C   UNL A   1      48.021  27.736  26.729  1.00  0.00     0.037 A 
BRANCH  55  69
ATOM     69  C   UNL A   1      46.391  33.337  28.796  1.00  0.00     0.058 A 
ATOM     70  C   UNL A   1      46.279  34.307  27.787  1.00  0.00     0.135 A 
ATOM     71  C   UNL A   1      46.852  33.755  30.055  1.00  0.00     0.135 A 
ATOM     72  F   UNL A   1      45.858  33.962  26.559  1.00  0.00    -0.206 F 
ATOM     73  C   UNL A   1      46.638  35.633  28.008  1.00  0.00     0.059 A 
ATOM     74  C   UNL A   1      47.190  35.083  30.307  1.00  0.00     0.059 A 
ATOM     75  F   UNL A   1      46.981  32.870  31.056  1.00  0.00    -0.206 F 
ATOM     76  C   UNL A   1      47.093  36.011  29.272  1.00  0.00     0.060 A 
BRANCH  76  77
ATOM     77  S   UNL A   1      47.549  37.737  29.542  1.00  0.00     0.124 S 
ATOM     78  O   UNL A   1      48.994  37.690  29.338  1.00  0.00    -0.237 OA
ATOM     79  O   UNL A   1      46.785  38.427  28.508  1.00  0.00    -0.237 OA
ATOM     80  O   UNL A   1      47.118  37.992  30.914  1.00  0.00    -0.744 OA
ENDBRANCH  76  77
ENDBRANCH  55  69
BRANCH  56  81
ATOM     81  C   UNL A   1      43.304  23.952  27.160  1.00  0.00     0.058 A 
ATOM     82  C   UNL A   1      43.279  22.986  28.178  1.00  0.00     0.135 A 
ATOM     83  C   UNL A   1      42.859  23.567  25.885  1.00  0.00     0.135 A 
ATOM     84  F   UNL A   1      43.697  23.304  29.412  1.00  0.00    -0.206 F 
ATOM     85  C   UNL A   1      42.848  21.685  27.939  1.00  0.00     0.059 A 
ATOM     86  C   UNL A   1      42.399  22.280  25.628  1.00  0.00     0.059 A 
ATOM     87  F   UNL A   1      42.844  24.457  24.881  1.00  0.00    -0.206 F 
ATOM     88  C   UNL A   1      42.406  21.342  26.660  1.00  0.00     0.060 A 
BRANCH  88  89
ATOM     89  S   UNL A   1      41.803  19.665  26.373  1.00  0.00     0.124 S 
ATOM     90  O   UNL A   1      42.574  19.273  25.199  1.00  0.00    -0.237 OA
ATOM     91  O   UNL A   1      42.152  18.996  27.622  1.00  0.00    -0.237 OA
ATOM     92  O   UNL A   1      40.372  19.857  26.153  1.00  0.00    -0.744 OA
ENDBRANCH  88  89
ENDBRANCH  56  81
BRANCH  68  93
ATOM     93  C   UNL A   1      49.358  27.290  26.204  1.00  0.00     0.058 A 
ATOM     94  C   UNL A   1      49.645  27.274  24.831  1.00  0.00     0.135 A 
ATOM     95  C   UNL A   1      50.382  26.924  27.093  1.00  0.00     0.135 A 
ATOM     96  F   UNL A   1      48.699  27.608  23.938  1.00  0.00    -0.206 F 
ATOM     97  C   UNL A   1      50.894  26.889  24.355  1.00  0.00     0.059 A 
ATOM     98  C   UNL A   1      51.646  26.564  26.642  1.00  0.00     0.059 A 
ATOM     99  F   UNL A   1      50.162  26.931  28.418  1.00  0.00    -0.206 F 
ATOM    100  C   UNL A   1      51.890  26.539  25.269  1.00  0.00     0.060 A 
BRANCH 100 101
ATOM    101  S   UNL A   1      53.517  26.075  24.640  1.00  0.00     0.124 S 
ATOM    102  O   UNL A   1      54.353  26.268  25.821  1.00  0.00    -0.237 OA
ATOM    103  O   UNL A   1      53.309  24.690  24.229  1.00  0.00    -0.237 OA
ATOM    104  O   UNL A   1      53.742  27.019  23.550  1.00  0.00    -0.744 OA
ENDBRANCH 100 101
ENDBRANCH  68  93
ENDBRANCH  42  43
ENDBRANCH  34  37
ENDBRANCH  32  33
ENDBRANCH  31  32
ENDBRANCH  30  31
ENDBRANCH  29  30
ENDBRANCH   1  29
TORSDOF 22
ENDMDL
MODEL 3
REMARK VINA RESULT:     -10.9      4.805      5.917
REMARK SMILES C[NH+](C)[C@H]1CCN(C(=O)C(=O)c2ccccc2)C[C@H]1CCC(=O)NCCCCCCNC(=O)c1ccc(-c2c3nc(c(-c4c(F)cc(S(=O)(=O)[O-])cc4F)c4ccc([nH]4)c(-c4c(F)cc(S(=O)(=O)[O-])cc4F)c4nc(c(-c5c(F)cc(S(=O)(=O)[O-])cc5F)c5ccc2[nH]5)C=C4)C=C3)cc1
REMARK SMILES IDX 26 1 25 2 24 3 22 4 23 5 21 7 20 8 19 9 4 10 5 11 6 12 18 13
REMARK SMILES IDX 7 14 2 15 1 16 3 17 8 19 9 20 10 21 11 22 12 23 13 24 17 25
REMARK SMILES IDX 14 26 16 27 15 28 27 29 28 30 29 31 30 32 31 33 32 34 33 36
REMARK SMILES IDX 34 37 35 38 99 39 36 40 98 41 37 42 38 43 39 44 92 45 40 46
REMARK SMILES IDX 97 47 91 48 93 49 41 50 96 51 90 52 89 53 42 55 76 56 55 57
REMARK SMILES IDX 75 58 56 59 59 60 74 61 94 62 57 63 58 64 73 66 95 67 60 68
REMARK SMILES IDX 43 69 44 70 53 71 45 72 46 73 52 74 54 75 47 76 48 77 49 78
REMARK SMILES IDX 50 79 51 80 77 81 78 82 87 83 79 84 80 85 86 86 88 87 81 88
REMARK SMILES IDX 82 89 83 90 84 91 85 92 61 93 62 94 71 95 63 96 64 97 70 98
REMARK SMILES IDX 72 99 65 100 66 101 67 102 68 103 69 104
REMARK H PARENT 24 6 2 18 31 35 93 54 59 65
REMARK Flexibility Score: inf
ROOT
ATOM      1  C   UNL A   1      33.593  21.398  25.940  1.00  0.00     0.021 C 
ENDROOT
BRANCH   1   2
ATOM      2  C   UNL A   1      33.664  22.211  27.239  1.00  0.00     0.116 C 
BRANCH   2   3
ATOM      3  N   UNL A   1      32.513  23.080  27.418  1.00  0.00    -0.356 N 
ATOM      4  C   UNL A   1      32.027  24.190  26.811  1.00  0.00     0.220 C 
ATOM      5  O   UNL A   1      30.888  24.524  27.160  1.00  0.00    -0.275 OA
ATOM      6  H   UNL A   1      31.945  22.789  28.166  1.00  0.00     0.163 HD
BRANCH   4   7
ATOM      7  C   UNL A   1      32.737  25.002  25.732  1.00  0.00     0.100 C 
BRANCH   7   8
ATOM      8  C   UNL A   1      33.195  26.416  26.092  1.00  0.00     0.021 C 
BRANCH   8   9
ATOM      9  C   UNL A   1      32.087  27.460  26.338  1.00  0.00     0.067 C 
ATOM     10  C   UNL A   1      32.518  28.967  26.507  1.00  0.00     0.190 C 
ATOM     11  C   UNL A   1      32.769  29.599  25.113  1.00  0.00     0.087 C 
ATOM     12  C   UNL A   1      31.637  29.350  24.129  1.00  0.00     0.126 C 
ATOM     13  C   UNL A   1      30.996  27.292  25.245  1.00  0.00     0.129 C 
ATOM     14  N   UNL A   1      31.376  27.931  23.995  1.00  0.00    -0.335 N 
BRANCH  10  15
ATOM     15  N   UNL A   1      33.655  29.249  27.449  1.00  0.00    -0.337 N 
ATOM     16  C   UNL A   1      33.732  30.645  27.900  1.00  0.00     0.332 C 
ATOM     17  C   UNL A   1      34.969  28.955  26.849  1.00  0.00     0.332 C 
ATOM     18  H   UNL A   1      33.451  28.637  28.239  1.00  0.00     0.347 HD
ENDBRANCH  10  15
BRANCH  14  19
ATOM     19  C   UNL A   1      31.440  27.366  22.715  1.00  0.00     0.294 C 
ATOM     20  O   UNL A   1      30.590  27.600  21.857  1.00  0.00    -0.265 OA
BRANCH  19  21
ATOM     21  C   UNL A   1      32.568  26.390  22.336  1.00  0.00     0.250 C 
ATOM     22  O   UNL A   1      33.672  26.795  21.989  1.00  0.00    -0.283 OA
BRANCH  21  23
ATOM     23  C   UNL A   1      32.360  24.922  22.510  1.00  0.00     0.028 A 
ATOM     24  C   UNL A   1      31.140  24.493  23.055  1.00  0.00     0.012 A 
ATOM     25  C   UNL A   1      33.316  23.968  22.140  1.00  0.00     0.012 A 
ATOM     26  C   UNL A   1      30.866  23.132  23.195  1.00  0.00     0.001 A 
ATOM     27  C   UNL A   1      33.039  22.604  22.285  1.00  0.00     0.001 A 
ATOM     28  C   UNL A   1      31.813  22.187  22.805  1.00  0.00     0.000 A 
ENDBRANCH  21  23
ENDBRANCH  19  21
ENDBRANCH  14  19
ENDBRANCH   8   9
ENDBRANCH   7   8
ENDBRANCH   4   7
ENDBRANCH   2   3
ENDBRANCH   1   2
BRANCH   1  29
ATOM     29  C   UNL A   1      34.955  20.848  25.517  1.00  0.00     0.002 C 
BRANCH  29  30
ATOM     30  C   UNL A   1      35.717  21.723  24.514  1.00  0.00     0.002 C 
BRANCH  30  31
ATOM     31  C   UNL A   1      35.732  23.223  24.819  1.00  0.00     0.021 C 
BRANCH  31  32
ATOM     32  C   UNL A   1      37.073  23.773  25.302  1.00  0.00     0.116 C 
BRANCH  32  33
ATOM     33  N   UNL A   1      37.909  22.738  25.893  1.00  0.00    -0.352 N 
ATOM     34  C   UNL A   1      39.112  22.837  26.541  1.00  0.00     0.251 C 
ATOM     35  H   UNL A   1      37.553  21.823  25.815  1.00  0.00     0.163 HD
ATOM     36  O   UNL A   1      39.766  21.826  26.771  1.00  0.00    -0.269 OA
BRANCH  34  37
ATOM     37  C   UNL A   1      39.620  24.161  26.956  1.00  0.00     0.039 A 
ATOM     38  C   UNL A   1      39.592  24.501  28.310  1.00  0.00     0.014 A 
ATOM     39  C   UNL A   1      40.095  25.071  26.008  1.00  0.00     0.014 A 
ATOM     40  C   UNL A   1      40.091  25.738  28.719  1.00  0.00     0.010 A 
ATOM     41  C   UNL A   1      40.659  26.271  26.425  1.00  0.00     0.010 A 
ATOM     42  C   UNL A   1      40.655  26.621  27.783  1.00  0.00    -0.014 A 
BRANCH  42  43
ATOM     43  C   UNL A   1      41.237  27.918  28.204  1.00  0.00     0.031 A 
ATOM     44  C   UNL A   1      42.722  28.144  28.110  1.00  0.00     0.074 A 
ATOM     45  C   UNL A   1      40.434  28.864  28.729  1.00  0.00     0.049 A 
ATOM     46  N   UNL A   1      43.423  29.180  28.489  1.00  0.00    -0.248 NA
ATOM     47  C   UNL A   1      43.525  27.050  27.540  1.00  0.00     0.031 C 
ATOM     48  C   UNL A   1      38.987  28.737  28.914  1.00  0.00     0.029 A 
ATOM     49  N   UNL A   1      40.721  30.116  29.212  1.00  0.00    -0.354 N 
ATOM     50  C   UNL A   1      44.748  28.859  28.215  1.00  0.00     0.074 A 
ATOM     51  C   UNL A   1      44.758  27.511  27.692  1.00  0.00     0.031 C 
ATOM     52  C   UNL A   1      38.510  29.873  29.448  1.00  0.00     0.029 A 
ATOM     53  C   UNL A   1      39.619  30.793  29.681  1.00  0.00     0.049 A 
ATOM     54  H   UNL A   1      41.629  30.494  29.223  1.00  0.00     0.167 HD
ATOM     55  C   UNL A   1      45.853  29.628  28.364  1.00  0.00     0.037 A 
ATOM     56  C   UNL A   1      39.516  32.013  30.240  1.00  0.00     0.037 A 
ATOM     57  C   UNL A   1      45.828  30.978  28.866  1.00  0.00     0.049 A 
ATOM     58  C   UNL A   1      40.758  32.848  30.399  1.00  0.00     0.074 A 
ATOM     59  C   UNL A   1      46.882  31.864  29.005  1.00  0.00     0.029 A 
ATOM     60  N   UNL A   1      44.690  31.636  29.312  1.00  0.00    -0.354 N 
ATOM     61  N   UNL A   1      41.995  32.553  30.077  1.00  0.00    -0.248 NA
ATOM     62  C   UNL A   1      40.591  34.183  30.988  1.00  0.00     0.031 C 
ATOM     63  C   UNL A   1      46.389  33.041  29.579  1.00  0.00     0.029 A 
ATOM     64  C   UNL A   1      45.019  32.909  29.746  1.00  0.00     0.049 A 
ATOM     65  H   UNL A   1      43.783  31.254  29.318  1.00  0.00     0.167 HD
ATOM     66  C   UNL A   1      42.750  33.677  30.398  1.00  0.00     0.074 A 
ATOM     67  C   UNL A   1      41.827  34.660  30.928  1.00  0.00     0.031 C 
ATOM     68  C   UNL A   1      44.084  33.877  30.265  1.00  0.00     0.037 A 
BRANCH  55  69
ATOM     69  C   UNL A   1      47.178  29.031  27.975  1.00  0.00     0.058 A 
ATOM     70  C   UNL A   1      47.623  29.027  26.643  1.00  0.00     0.135 A 
ATOM     71  C   UNL A   1      48.031  28.486  28.949  1.00  0.00     0.135 A 
ATOM     72  F   UNL A   1      46.843  29.521  25.667  1.00  0.00    -0.206 F 
ATOM     73  C   UNL A   1      48.850  28.476  26.286  1.00  0.00     0.059 A 
ATOM     74  C   UNL A   1      49.276  27.957  28.618  1.00  0.00     0.059 A 
ATOM     75  F   UNL A   1      47.657  28.463  30.238  1.00  0.00    -0.206 F 
ATOM     76  C   UNL A   1      49.669  27.943  27.281  1.00  0.00     0.060 A 
BRANCH  76  77
ATOM     77  S   UNL A   1      51.260  27.238  26.800  1.00  0.00     0.124 S 
ATOM     78  O   UNL A   1      50.840  26.123  25.956  1.00  0.00    -0.237 OA
ATOM     79  O   UNL A   1      51.899  28.352  26.108  1.00  0.00    -0.237 OA
ATOM     80  O   UNL A   1      51.866  26.864  28.075  1.00  0.00    -0.744 OA
ENDBRANCH  76  77
ENDBRANCH  55  69
BRANCH  56  81
ATOM     81  C   UNL A   1      38.188  32.525  30.669  1.00  0.00     0.058 A 
ATOM     82  C   UNL A   1      37.742  32.360  31.989  1.00  0.00     0.135 A 
ATOM     83  C   UNL A   1      37.344  33.204  29.776  1.00  0.00     0.135 A 
ATOM     84  F   UNL A   1      38.511  31.714  32.879  1.00  0.00    -0.206 F 
ATOM     85  C   UNL A   1      36.502  32.833  32.405  1.00  0.00     0.059 A 
ATOM     86  C   UNL A   1      36.111  33.710  30.175  1.00  0.00     0.059 A 
ATOM     87  F   UNL A   1      37.731  33.406  28.506  1.00  0.00    -0.206 F 
ATOM     88  C   UNL A   1      35.694  33.510  31.490  1.00  0.00     0.060 A 
BRANCH  88  89
ATOM     89  S   UNL A   1      34.108  34.163  32.053  1.00  0.00     0.124 S 
ATOM     90  O   UNL A   1      33.540  33.006  32.735  1.00  0.00    -0.237 OA
ATOM     91  O   UNL A   1      34.518  35.272  32.908  1.00  0.00    -0.237 OA
ATOM     92  O   UNL A   1      33.445  34.551  30.810  1.00  0.00    -0.744 OA
ENDBRANCH  88  89
ENDBRANCH  56  81
BRANCH  68  93
ATOM     93  C   UNL A   1      44.625  35.222  30.665  1.00  0.00     0.058 A 
ATOM     94  C   UNL A   1      45.123  35.464  31.954  1.00  0.00     0.135 A 
ATOM     95  C   UNL A   1      44.693  36.266  29.728  1.00  0.00     0.135 A 
ATOM     96  F   UNL A   1      45.074  34.503  32.890  1.00  0.00    -0.206 F 
ATOM     97  C   UNL A   1      45.649  36.702  32.308  1.00  0.00     0.059 A 
ATOM     98  C   UNL A   1      45.242  37.502  30.051  1.00  0.00     0.059 A 
ATOM     99  F   UNL A   1      44.240  36.083  28.477  1.00  0.00    -0.206 F 
ATOM    100  C   UNL A   1      45.707  37.714  31.348  1.00  0.00     0.060 A 
BRANCH 100 101
ATOM    101  S   UNL A   1      46.425  39.305  31.810  1.00  0.00     0.124 S 
ATOM    102  O   UNL A   1      46.673  39.905  30.503  1.00  0.00    -0.237 OA
ATOM    103  O   UNL A   1      45.356  39.913  32.594  1.00  0.00    -0.237 OA
ATOM    104  O   UNL A   1      47.617  38.934  32.566  1.00  0.00    -0.744 OA
ENDBRANCH 100 101
ENDBRANCH  68  93
ENDBRANCH  42  43
ENDBRANCH  34  37
ENDBRANCH  32  33
ENDBRANCH  31  32
ENDBRANCH  30  31
ENDBRANCH  29  30
ENDBRANCH   1  29
TORSDOF 22
ENDMDL
