MODEL 1
REMARK VINA RESULT:     -13.0      0.000      0.000
REMARK SMILES Cc1cccc(-c2noc(C[N@@H+](C)Cc3ncccc3C(=O)NCCCCCCNC(=O)c3ccc(-c4c5nc(c(-c6c(F)cc(S(=O)(=O)[O-])cc6F)c6ccc([nH]6)c(-c6c(F)cc(S(=O)(=O)[O-])cc6F)c6nc(c(-c7c(F)cc(S(=O)(=O)[O-])cc7F)c7ccc4[nH]7)C=C6)C=C5)cc3)n2)c1
REMARK SMILES IDX 25 1 24 2 23 3 21 4 22 5 20 7 15 8 16 9 17 10 19 11 18 12
REMARK SMILES IDX 14 13 12 14 13 15 11 17 10 18 7 19 8 20 99 21 9 22 6 23 1 24
REMARK SMILES IDX 2 25 3 26 100 27 4 28 5 29 26 30 27 31 28 32 29 33 30 34
REMARK SMILES IDX 31 35 32 37 33 38 34 39 98 40 35 41 97 42 36 43 37 44 38 45
REMARK SMILES IDX 91 46 39 47 96 48 90 49 92 50 40 51 95 52 89 53 88 54 41 56
REMARK SMILES IDX 75 57 54 58 74 59 55 60 58 61 73 62 93 63 56 64 57 65 72 67
REMARK SMILES IDX 94 68 59 69 42 70 43 71 52 72 44 73 45 74 51 75 53 76 46 77
REMARK SMILES IDX 47 78 48 79 49 80 50 81 76 82 77 83 86 84 78 85 79 86 85 87
REMARK SMILES IDX 87 88 80 89 81 90 82 91 83 92 84 93 60 94 61 95 70 96 62 97
REMARK SMILES IDX 63 98 69 99 71 100 64 101 65 102 66 103 67 104 68 105
REMARK H PARENT 23 6 12 16 30 36 92 55 58 66
REMARK Flexibility Score: inf
ROOT
ATOM      1  C   UNL A   1      33.774  25.606  25.441  1.00  0.00     0.021 C 
ENDROOT
BRANCH   1   2
ATOM      2  C   UNL A   1      33.921  25.772  23.926  1.00  0.00     0.116 C 
BRANCH   2   3
ATOM      3  N   UNL A   1      33.472  24.588  23.219  1.00  0.00    -0.352 N 
ATOM      4  C   UNL A   1      33.834  23.264  23.186  1.00  0.00     0.253 C 
ATOM      5  O   UNL A   1      33.056  22.555  22.550  1.00  0.00    -0.269 OA
ATOM      6  H   UNL A   1      32.724  24.782  22.610  1.00  0.00     0.163 HD
BRANCH   4   7
ATOM      7  C   UNL A   1      35.009  22.670  23.909  1.00  0.00     0.067 A 
ATOM      8  C   UNL A   1      34.875  21.952  25.118  1.00  0.00     0.107 A 
ATOM      9  N   UNL A   1      35.966  21.619  25.887  1.00  0.00    -0.254 NA
ATOM     10  C   UNL A   1      37.199  21.874  25.418  1.00  0.00     0.111 A 
ATOM     11  C   UNL A   1      36.316  22.803  23.420  1.00  0.00     0.017 A 
ATOM     12  C   UNL A   1      37.423  22.425  24.180  1.00  0.00     0.021 A 
BRANCH   8  13
ATOM     13  C   UNL A   1      33.558  21.412  25.673  1.00  0.00     0.320 C 
BRANCH  13  14
ATOM     14  N   UNL A   1      32.677  22.371  26.405  1.00  0.00    -0.325 N 
ATOM     15  C   UNL A   1      32.723  22.197  27.852  1.00  0.00     0.333 C 
ATOM     16  H   UNL A   1      33.067  23.290  26.199  1.00  0.00     0.348 HD
BRANCH  14  17
ATOM     17  C   UNL A   1      31.281  22.372  25.914  1.00  0.00     0.364 C 
BRANCH  17  18
ATOM     18  C   UNL A   1      30.712  23.729  25.656  1.00  0.00     0.282 A 
ATOM     19  C   UNL A   1      30.095  25.606  24.955  1.00  0.00     0.202 A 
ATOM     20  N   UNL A   1      29.773  25.637  26.259  1.00  0.00    -0.057 NA
ATOM     21  N   UNL A   1      30.649  24.415  24.536  1.00  0.00    -0.186 NA
ATOM     22  O   UNL A   1      30.177  24.387  26.725  1.00  0.00    -0.333 OA
BRANCH  19  23
ATOM     23  C   UNL A   1      29.860  26.719  24.051  1.00  0.00     0.023 A 
ATOM     24  C   UNL A   1      26.989  28.998  23.003  1.00  0.00     0.044 C 
ATOM     25  C   UNL A   1      28.355  28.385  23.105  1.00  0.00    -0.050 A 
ATOM     26  C   UNL A   1      29.411  28.886  22.335  1.00  0.00     0.003 A 
ATOM     27  C   UNL A   1      28.580  27.281  23.940  1.00  0.00     0.015 A 
ATOM     28  C   UNL A   1      30.684  28.321  22.428  1.00  0.00     0.001 A 
ATOM     29  C   UNL A   1      30.912  27.249  23.292  1.00  0.00     0.012 A 
ENDBRANCH  19  23
ENDBRANCH  17  18
ENDBRANCH  14  17
ENDBRANCH  13  14
ENDBRANCH   8  13
ENDBRANCH   4   7
ENDBRANCH   2   3
ENDBRANCH   1   2
BRANCH   1  30
ATOM     30  C   UNL A   1      33.574  26.919  26.216  1.00  0.00     0.002 C 
BRANCH  30  31
ATOM     31  C   UNL A   1      33.507  28.206  25.380  1.00  0.00     0.002 C 
BRANCH  31  32
ATOM     32  C   UNL A   1      34.460  29.335  25.781  1.00  0.00     0.021 C 
BRANCH  32  33
ATOM     33  C   UNL A   1      34.497  29.605  27.283  1.00  0.00     0.116 C 
BRANCH  33  34
ATOM     34  N   UNL A   1      35.244  30.815  27.606  1.00  0.00    -0.352 N 
ATOM     35  C   UNL A   1      36.510  30.916  28.162  1.00  0.00     0.251 C 
ATOM     36  H   UNL A   1      34.793  31.667  27.403  1.00  0.00     0.163 HD
ATOM     37  O   UNL A   1      36.992  31.960  28.542  1.00  0.00    -0.269 OA
BRANCH  35  38
ATOM     38  C   UNL A   1      37.304  29.673  28.163  1.00  0.00     0.039 A 
ATOM     39  C   UNL A   1      37.376  28.977  29.375  1.00  0.00     0.014 A 
ATOM     40  C   UNL A   1      38.203  29.441  27.126  1.00  0.00     0.014 A 
ATOM     41  C   UNL A   1      38.481  28.176  29.629  1.00  0.00     0.010 A 
ATOM     42  C   UNL A   1      39.330  28.696  27.405  1.00  0.00     0.010 A 
ATOM     43  C   UNL A   1      39.494  28.123  28.677  1.00  0.00    -0.014 A 
BRANCH  43  44
ATOM     44  C   UNL A   1      40.815  27.579  28.953  1.00  0.00     0.031 A 
ATOM     45  C   UNL A   1      41.090  26.154  28.683  1.00  0.00     0.074 A 
ATOM     46  C   UNL A   1      41.804  28.413  29.347  1.00  0.00     0.049 A 
ATOM     47  N   UNL A   1      42.149  25.538  29.082  1.00  0.00    -0.248 NA
ATOM     48  C   UNL A   1      40.144  25.275  27.996  1.00  0.00     0.031 C 
ATOM     49  C   UNL A   1      43.240  28.159  29.315  1.00  0.00     0.029 A 
ATOM     50  N   UNL A   1      41.675  29.594  30.088  1.00  0.00    -0.354 N 
ATOM     51  C   UNL A   1      42.184  24.327  28.439  1.00  0.00     0.074 A 
ATOM     52  C   UNL A   1      40.859  24.148  27.908  1.00  0.00     0.031 C 
ATOM     53  C   UNL A   1      43.846  28.971  30.193  1.00  0.00     0.029 A 
ATOM     54  C   UNL A   1      42.804  29.660  30.931  1.00  0.00     0.049 A 
ATOM     55  H   UNL A   1      40.943  30.249  30.031  1.00  0.00     0.167 HD
ATOM     56  C   UNL A   1      43.386  23.705  28.293  1.00  0.00     0.037 A 
ATOM     57  C   UNL A   1      42.677  29.622  32.290  1.00  0.00     0.037 A 
ATOM     58  C   UNL A   1      44.369  24.262  29.224  1.00  0.00     0.049 A 
ATOM     59  C   UNL A   1      43.364  28.437  32.933  1.00  0.00     0.074 A 
ATOM     60  C   UNL A   1      45.483  25.068  29.076  1.00  0.00     0.029 A 
ATOM     61  N   UNL A   1      44.097  24.218  30.592  1.00  0.00    -0.354 N 
ATOM     62  N   UNL A   1      43.743  27.370  32.282  1.00  0.00    -0.248 NA
ATOM     63  C   UNL A   1      43.696  28.363  34.353  1.00  0.00     0.031 C 
ATOM     64  C   UNL A   1      45.793  25.617  30.354  1.00  0.00     0.029 A 
ATOM     65  C   UNL A   1      44.909  25.094  31.284  1.00  0.00     0.049 A 
ATOM     66  H   UNL A   1      43.416  23.640  31.007  1.00  0.00     0.167 HD
ATOM     67  C   UNL A   1      44.323  26.477  33.145  1.00  0.00     0.074 A 
ATOM     68  C   UNL A   1      44.294  27.159  34.426  1.00  0.00     0.031 C 
ATOM     69  C   UNL A   1      44.770  25.251  32.731  1.00  0.00     0.037 A 
BRANCH  56  70
ATOM     70  C   UNL A   1      43.726  22.748  27.164  1.00  0.00     0.058 A 
ATOM     71  C   UNL A   1      43.079  21.495  27.068  1.00  0.00     0.135 A 
ATOM     72  C   UNL A   1      44.781  22.931  26.239  1.00  0.00     0.135 A 
ATOM     73  F   UNL A   1      42.078  21.171  27.898  1.00  0.00    -0.206 F 
ATOM     74  C   UNL A   1      43.460  20.508  26.147  1.00  0.00     0.059 A 
ATOM     75  C   UNL A   1      45.142  21.984  25.279  1.00  0.00     0.059 A 
ATOM     76  F   UNL A   1      45.578  24.004  26.260  1.00  0.00    -0.206 F 
ATOM     77  C   UNL A   1      44.496  20.760  25.257  1.00  0.00     0.060 A 
BRANCH  77  78
ATOM     78  S   UNL A   1      45.029  19.484  24.101  1.00  0.00     0.124 S 
ATOM     79  O   UNL A   1      44.534  20.006  22.831  1.00  0.00    -0.237 OA
ATOM     80  O   UNL A   1      46.478  19.487  24.273  1.00  0.00    -0.237 OA
ATOM     81  O   UNL A   1      44.351  18.283  24.585  1.00  0.00    -0.744 OA
ENDBRANCH  77  78
ENDBRANCH  56  70
BRANCH  57  82
ATOM     82  C   UNL A   1      41.456  30.320  32.778  1.00  0.00     0.058 A 
ATOM     83  C   UNL A   1      40.375  29.514  33.191  1.00  0.00     0.135 A 
ATOM     84  C   UNL A   1      41.502  31.634  33.264  1.00  0.00     0.135 A 
ATOM     85  F   UNL A   1      40.274  28.251  32.744  1.00  0.00    -0.206 F 
ATOM     86  C   UNL A   1      39.479  29.931  34.169  1.00  0.00     0.059 A 
ATOM     87  C   UNL A   1      40.604  32.078  34.241  1.00  0.00     0.059 A 
ATOM     88  F   UNL A   1      42.504  32.451  32.906  1.00  0.00    -0.206 F 
ATOM     89  C   UNL A   1      39.643  31.193  34.734  1.00  0.00     0.060 A 
BRANCH  89  90
ATOM     90  S   UNL A   1      38.706  31.571  36.237  1.00  0.00     0.124 S 
ATOM     91  O   UNL A   1      38.105  30.280  36.550  1.00  0.00    -0.237 OA
ATOM     92  O   UNL A   1      39.763  32.014  37.147  1.00  0.00    -0.237 OA
ATOM     93  O   UNL A   1      37.781  32.611  35.803  1.00  0.00    -0.744 OA
ENDBRANCH  89  90
ENDBRANCH  57  82
BRANCH  69  94
ATOM     94  C   UNL A   1      45.193  24.106  33.634  1.00  0.00     0.058 A 
ATOM     95  C   UNL A   1      44.350  23.050  34.028  1.00  0.00     0.135 A 
ATOM     96  C   UNL A   1      46.549  23.967  34.026  1.00  0.00     0.135 A 
ATOM     97  F   UNL A   1      43.075  22.982  33.620  1.00  0.00    -0.206 F 
ATOM     98  C   UNL A   1      44.795  21.984  34.815  1.00  0.00     0.059 A 
ATOM     99  C   UNL A   1      47.026  22.882  34.758  1.00  0.00     0.059 A 
ATOM    100  F   UNL A   1      47.471  24.882  33.692  1.00  0.00    -0.206 F 
ATOM    101  C   UNL A   1      46.135  21.908  35.176  1.00  0.00     0.060 A 
BRANCH 101 102
ATOM    102  S   UNL A   1      46.730  20.502  36.135  1.00  0.00     0.124 S 
ATOM    103  O   UNL A   1      47.058  19.548  35.081  1.00  0.00    -0.237 OA
ATOM    104  O   UNL A   1      47.869  21.060  36.858  1.00  0.00    -0.237 OA
ATOM    105  O   UNL A   1      45.580  20.156  36.966  1.00  0.00    -0.744 OA
ENDBRANCH 101 102
ENDBRANCH  69  94
ENDBRANCH  43  44
ENDBRANCH  35  38
ENDBRANCH  33  34
ENDBRANCH  32  33
ENDBRANCH  31  32
ENDBRANCH  30  31
ENDBRANCH   1  30
TORSDOF 21
ENDMDL
MODEL 2
REMARK VINA RESULT:     -12.7      2.337      3.257
REMARK SMILES Cc1cccc(-c2noc(C[N@@H+](C)Cc3ncccc3C(=O)NCCCCCCNC(=O)c3ccc(-c4c5nc(c(-c6c(F)cc(S(=O)(=O)[O-])cc6F)c6ccc([nH]6)c(-c6c(F)cc(S(=O)(=O)[O-])cc6F)c6nc(c(-c7c(F)cc(S(=O)(=O)[O-])cc7F)c7ccc4[nH]7)C=C6)C=C5)cc3)n2)c1
REMARK SMILES IDX 25 1 24 2 23 3 21 4 22 5 20 7 15 8 16 9 17 10 19 11 18 12
REMARK SMILES IDX 14 13 12 14 13 15 11 17 10 18 7 19 8 20 99 21 9 22 6 23 1 24
REMARK SMILES IDX 2 25 3 26 100 27 4 28 5 29 26 30 27 31 28 32 29 33 30 34
REMARK SMILES IDX 31 35 32 37 33 38 34 39 98 40 35 41 97 42 36 43 37 44 38 45
REMARK SMILES IDX 91 46 39 47 96 48 90 49 92 50 40 51 95 52 89 53 88 54 41 56
REMARK SMILES IDX 75 57 54 58 74 59 55 60 58 61 73 62 93 63 56 64 57 65 72 67
REMARK SMILES IDX 94 68 59 69 42 70 43 71 52 72 44 73 45 74 51 75 53 76 46 77
REMARK SMILES IDX 47 78 48 79 49 80 50 81 76 82 77 83 86 84 78 85 79 86 85 87
REMARK SMILES IDX 87 88 80 89 81 90 82 91 83 92 84 93 60 94 61 95 70 96 62 97
REMARK SMILES IDX 63 98 69 99 71 100 64 101 65 102 66 103 67 104 68 105
REMARK H PARENT 23 6 12 16 30 36 92 55 58 66
REMARK Flexibility Score: inf
ROOT
ATOM      1  C   UNL A   1      33.986  27.060  25.405  1.00  0.00     0.021 C 
ENDROOT
BRANCH   1   2
ATOM      2  C   UNL A   1      33.666  27.570  23.997  1.00  0.00     0.116 C 
BRANCH   2   3
ATOM      3  N   UNL A   1      33.691  26.492  23.027  1.00  0.00    -0.352 N 
ATOM      4  C   UNL A   1      33.855  25.130  23.071  1.00  0.00     0.253 C 
ATOM      5  O   UNL A   1      33.633  24.569  21.999  1.00  0.00    -0.269 OA
ATOM      6  H   UNL A   1      33.559  26.818  22.108  1.00  0.00     0.163 HD
BRANCH   4   7
ATOM      7  C   UNL A   1      34.187  24.338  24.304  1.00  0.00     0.067 A 
ATOM      8  C   UNL A   1      33.196  23.784  25.144  1.00  0.00     0.107 A 
ATOM      9  N   UNL A   1      33.501  23.269  26.382  1.00  0.00    -0.254 NA
ATOM     10  C   UNL A   1      34.789  23.179  26.753  1.00  0.00     0.111 A 
ATOM     11  C   UNL A   1      35.515  24.109  24.694  1.00  0.00     0.017 A 
ATOM     12  C   UNL A   1      35.826  23.547  25.931  1.00  0.00     0.021 A 
BRANCH   8  13
ATOM     13  C   UNL A   1      31.722  23.628  24.772  1.00  0.00     0.320 C 
BRANCH  13  14
ATOM     14  N   UNL A   1      30.845  24.827  24.925  1.00  0.00    -0.325 N 
ATOM     15  C   UNL A   1      30.042  24.794  26.142  1.00  0.00     0.333 C 
ATOM     16  H   UNL A   1      31.490  25.611  25.010  1.00  0.00     0.348 HD
BRANCH  14  17
ATOM     17  C   UNL A   1      30.000  25.087  23.739  1.00  0.00     0.364 C 
BRANCH  17  18
ATOM     18  C   UNL A   1      30.087  26.479  23.204  1.00  0.00     0.282 A 
ATOM     19  C   UNL A   1      29.884  28.492  22.653  1.00  0.00     0.202 A 
ATOM     20  N   UNL A   1      30.834  28.033  21.821  1.00  0.00    -0.057 NA
ATOM     21  N   UNL A   1      29.422  27.558  23.555  1.00  0.00    -0.186 NA
ATOM     22  O   UNL A   1      30.974  26.697  22.191  1.00  0.00    -0.333 OA
BRANCH  19  23
ATOM     23  C   UNL A   1      29.397  29.860  22.627  1.00  0.00     0.023 A 
ATOM     24  C   UNL A   1      27.855  32.301  20.137  1.00  0.00     0.044 C 
ATOM     25  C   UNL A   1      28.394  31.718  21.410  1.00  0.00    -0.050 A 
ATOM     26  C   UNL A   1      28.424  32.486  22.580  1.00  0.00     0.003 A 
ATOM     27  C   UNL A   1      28.910  30.414  21.434  1.00  0.00     0.015 A 
ATOM     28  C   UNL A   1      28.922  31.947  23.767  1.00  0.00     0.001 A 
ATOM     29  C   UNL A   1      29.395  30.634  23.795  1.00  0.00     0.012 A 
ENDBRANCH  19  23
ENDBRANCH  17  18
ENDBRANCH  14  17
ENDBRANCH  13  14
ENDBRANCH   8  13
ENDBRANCH   4   7
ENDBRANCH   2   3
ENDBRANCH   1   2
BRANCH   1  30
ATOM     30  C   UNL A   1      32.850  27.236  26.426  1.00  0.00     0.002 C 
BRANCH  30  31
ATOM     31  C   UNL A   1      31.708  28.184  26.027  1.00  0.00     0.002 C 
BRANCH  31  32
ATOM     32  C   UNL A   1      31.972  29.683  26.190  1.00  0.00     0.021 C 
BRANCH  32  33
ATOM     33  C   UNL A   1      32.821  30.029  27.410  1.00  0.00     0.116 C 
BRANCH  33  34
ATOM     34  N   UNL A   1      33.436  31.348  27.296  1.00  0.00    -0.352 N 
ATOM     35  C   UNL A   1      34.680  31.754  27.754  1.00  0.00     0.251 C 
ATOM     36  H   UNL A   1      32.900  32.035  26.836  1.00  0.00     0.163 HD
ATOM     37  O   UNL A   1      35.047  32.907  27.756  1.00  0.00    -0.269 OA
BRANCH  35  38
ATOM     38  C   UNL A   1      35.599  30.667  28.143  1.00  0.00     0.039 A 
ATOM     39  C   UNL A   1      35.782  30.464  29.515  1.00  0.00     0.014 A 
ATOM     40  C   UNL A   1      36.482  30.155  27.197  1.00  0.00     0.014 A 
ATOM     41  C   UNL A   1      36.972  29.907  29.962  1.00  0.00     0.010 A 
ATOM     42  C   UNL A   1      37.689  29.660  27.645  1.00  0.00     0.010 A 
ATOM     43  C   UNL A   1      37.954  29.601  29.024  1.00  0.00    -0.014 A 
BRANCH  43  44
ATOM     44  C   UNL A   1      39.333  29.309  29.385  1.00  0.00     0.031 A 
ATOM     45  C   UNL A   1      39.891  27.970  29.112  1.00  0.00     0.074 A 
ATOM     46  C   UNL A   1      40.116  30.302  29.863  1.00  0.00     0.049 A 
ATOM     47  N   UNL A   1      41.020  27.554  29.576  1.00  0.00    -0.248 NA
ATOM     48  C   UNL A   1      39.179  26.949  28.344  1.00  0.00     0.031 C 
ATOM     49  C   UNL A   1      41.573  30.325  29.929  1.00  0.00     0.029 A 
ATOM     50  N   UNL A   1      39.715  31.415  30.611  1.00  0.00    -0.354 N 
ATOM     51  C   UNL A   1      41.328  26.390  28.917  1.00  0.00     0.074 A 
ATOM     52  C   UNL A   1      40.100  25.980  28.289  1.00  0.00     0.031 C 
ATOM     53  C   UNL A   1      41.952  31.211  30.861  1.00  0.00     0.029 A 
ATOM     54  C   UNL A   1      40.751  31.669  31.534  1.00  0.00     0.049 A 
ATOM     55  H   UNL A   1      38.877  31.922  30.513  1.00  0.00     0.167 HD
ATOM     56  C   UNL A   1      42.633  26.012  28.847  1.00  0.00     0.037 A 
ATOM     57  C   UNL A   1      40.543  31.567  32.880  1.00  0.00     0.037 A 
ATOM     58  C   UNL A   1      43.428  26.717  29.855  1.00  0.00     0.049 A 
ATOM     59  C   UNL A   1      41.398  30.515  33.551  1.00  0.00     0.074 A 
ATOM     60  C   UNL A   1      44.375  27.722  29.800  1.00  0.00     0.029 A 
ATOM     61  N   UNL A   1      43.077  26.581  31.199  1.00  0.00    -0.354 N 
ATOM     62  N   UNL A   1      42.017  29.558  32.911  1.00  0.00    -0.248 NA
ATOM     63  C   UNL A   1      41.643  30.462  34.990  1.00  0.00     0.031 C 
ATOM     64  C   UNL A   1      44.488  28.282  31.106  1.00  0.00     0.029 A 
ATOM     65  C   UNL A   1      43.659  27.574  31.962  1.00  0.00     0.049 A 
ATOM     66  H   UNL A   1      42.493  25.873  31.555  1.00  0.00     0.167 HD
ATOM     67  C   UNL A   1      42.697  28.765  33.798  1.00  0.00     0.074 A 
ATOM     68  C   UNL A   1      42.452  29.391  35.085  1.00  0.00     0.031 C 
ATOM     69  C   UNL A   1      43.396  27.659  33.397  1.00  0.00     0.037 A 
BRANCH  56  70
ATOM     70  C   UNL A   1      43.224  25.170  27.730  1.00  0.00     0.058 A 
ATOM     71  C   UNL A   1      43.089  23.764  27.744  1.00  0.00     0.135 A 
ATOM     72  C   UNL A   1      44.065  25.663  26.703  1.00  0.00     0.135 A 
ATOM     73  F   UNL A   1      42.345  23.153  28.677  1.00  0.00    -0.206 F 
ATOM     74  C   UNL A   1      43.744  22.924  26.831  1.00  0.00     0.059 A 
ATOM     75  C   UNL A   1      44.683  24.851  25.752  1.00  0.00     0.059 A 
ATOM     76  F   UNL A   1      44.400  26.954  26.607  1.00  0.00    -0.206 F 
ATOM     77  C   UNL A   1      44.543  23.478  25.839  1.00  0.00     0.060 A 
BRANCH  77  78
ATOM     78  S   UNL A   1      45.431  22.409  24.689  1.00  0.00     0.124 S 
ATOM     79  O   UNL A   1      44.346  21.606  24.132  1.00  0.00    -0.237 OA
ATOM     80  O   UNL A   1      46.048  23.369  23.780  1.00  0.00    -0.237 OA
ATOM     81  O   UNL A   1      46.362  21.684  25.549  1.00  0.00    -0.744 OA
ENDBRANCH  77  78
ENDBRANCH  56  70
BRANCH  57  82
ATOM     82  C   UNL A   1      39.181  32.006  33.291  1.00  0.00     0.058 A 
ATOM     83  C   UNL A   1      38.926  33.393  33.297  1.00  0.00     0.135 A 
ATOM     84  C   UNL A   1      38.076  31.148  33.216  1.00  0.00     0.135 A 
ATOM     85  F   UNL A   1      39.948  34.261  33.381  1.00  0.00    -0.206 F 
ATOM     86  C   UNL A   1      37.655  33.907  33.067  1.00  0.00     0.059 A 
ATOM     87  C   UNL A   1      36.786  31.644  32.996  1.00  0.00     0.059 A 
ATOM     88  F   UNL A   1      38.253  29.818  33.210  1.00  0.00    -0.206 F 
ATOM     89  C   UNL A   1      36.602  33.020  32.854  1.00  0.00     0.060 A 
BRANCH  89  90
ATOM     90  S   UNL A   1      35.051  33.695  32.206  1.00  0.00     0.124 S 
ATOM     91  O   UNL A   1      34.866  34.878  33.037  1.00  0.00    -0.237 OA
ATOM     92  O   UNL A   1      35.395  33.953  30.807  1.00  0.00    -0.237 OA
ATOM     93  O   UNL A   1      34.098  32.614  32.424  1.00  0.00    -0.744 OA
ENDBRANCH  89  90
ENDBRANCH  57  82
BRANCH  69  94
ATOM     94  C   UNL A   1      43.968  26.588  34.309  1.00  0.00     0.058 A 
ATOM     95  C   UNL A   1      43.201  25.605  34.962  1.00  0.00     0.135 A 
ATOM     96  C   UNL A   1      45.372  26.437  34.443  1.00  0.00     0.135 A 
ATOM     97  F   UNL A   1      41.870  25.547  34.818  1.00  0.00    -0.206 F 
ATOM     98  C   UNL A   1      43.773  24.601  35.749  1.00  0.00     0.059 A 
ATOM     99  C   UNL A   1      45.965  25.408  35.171  1.00  0.00     0.059 A 
ATOM    100  F   UNL A   1      46.227  27.282  33.848  1.00  0.00    -0.206 F 
ATOM    101  C   UNL A   1      45.156  24.510  35.849  1.00  0.00     0.060 A 
BRANCH 101 102
ATOM    102  S   UNL A   1      45.903  23.178  36.808  1.00  0.00     0.124 S 
ATOM    103  O   UNL A   1      45.319  22.001  36.174  1.00  0.00    -0.237 OA
ATOM    104  O   UNL A   1      47.332  23.375  36.579  1.00  0.00    -0.237 OA
ATOM    105  O   UNL A   1      45.452  23.455  38.168  1.00  0.00    -0.744 OA
ENDBRANCH 101 102
ENDBRANCH  69  94
ENDBRANCH  43  44
ENDBRANCH  35  38
ENDBRANCH  33  34
ENDBRANCH  32  33
ENDBRANCH  31  32
ENDBRANCH  30  31
ENDBRANCH   1  30
TORSDOF 21
ENDMDL
MODEL 3
REMARK VINA RESULT:     -12.5      2.265      3.167
REMARK SMILES Cc1cccc(-c2noc(C[N@@H+](C)Cc3ncccc3C(=O)NCCCCCCNC(=O)c3ccc(-c4c5nc(c(-c6c(F)cc(S(=O)(=O)[O-])cc6F)c6ccc([nH]6)c(-c6c(F)cc(S(=O)(=O)[O-])cc6F)c6nc(c(-c7c(F)cc(S(=O)(=O)[O-])cc7F)c7ccc4[nH]7)C=C6)C=C5)cc3)n2)c1
REMARK SMILES IDX 25 1 24 2 23 3 21 4 22 5 20 7 15 8 16 9 17 10 19 11 18 12
REMARK SMILES IDX 14 13 12 14 13 15 11 17 10 18 7 19 8 20 99 21 9 22 6 23 1 24
REMARK SMILES IDX 2 25 3 26 100 27 4 28 5 29 26 30 27 31 28 32 29 33 30 34
REMARK SMILES IDX 31 35 32 37 33 38 34 39 98 40 35 41 97 42 36 43 37 44 38 45
REMARK SMILES IDX 91 46 39 47 96 48 90 49 92 50 40 51 95 52 89 53 88 54 41 56
REMARK SMILES IDX 75 57 54 58 74 59 55 60 58 61 73 62 93 63 56 64 57 65 72 67
REMARK SMILES IDX 94 68 59 69 42 70 43 71 52 72 44 73 45 74 51 75 53 76 46 77
REMARK SMILES IDX 47 78 48 79 49 80 50 81 76 82 77 83 86 84 78 85 79 86 85 87
REMARK SMILES IDX 87 88 80 89 81 90 82 91 83 92 84 93 60 94 61 95 70 96 62 97
REMARK SMILES IDX 63 98 69 99 71 100 64 101 65 102 66 103 67 104 68 105
REMARK H PARENT 23 6 12 16 30 36 92 55 58 66
REMARK Flexibility Score: inf
ROOT
ATOM      1  C   UNL A   1      31.956  25.651  26.429  1.00  0.00     0.021 C 
ENDROOT
BRANCH   1   2
ATOM      2  C   UNL A   1      33.239  24.862  26.153  1.00  0.00     0.116 C 
BRANCH   2   3
ATOM      3  N   UNL A   1      33.206  23.559  26.790  1.00  0.00    -0.352 N 
ATOM      4  C   UNL A   1      34.054  22.484  26.877  1.00  0.00     0.253 C 
ATOM      5  O   UNL A   1      33.686  21.628  27.680  1.00  0.00    -0.269 OA
ATOM      6  H   UNL A   1      32.366  23.409  27.280  1.00  0.00     0.163 HD
BRANCH   4   7
ATOM      7  C   UNL A   1      35.361  22.352  26.149  1.00  0.00     0.067 A 
ATOM      8  C   UNL A   1      35.640  21.280  25.273  1.00  0.00     0.107 A 
ATOM      9  N   UNL A   1      36.910  21.043  24.800  1.00  0.00    -0.254 NA
ATOM     10  C   UNL A   1      37.886  21.923  25.078  1.00  0.00     0.111 A 
ATOM     11  C   UNL A   1      36.387  23.294  26.307  1.00  0.00     0.017 A 
ATOM     12  C   UNL A   1      37.664  23.077  25.790  1.00  0.00     0.021 A 
BRANCH   8  13
ATOM     13  C   UNL A   1      34.596  20.321  24.704  1.00  0.00     0.320 C 
BRANCH  13  14
ATOM     14  N   UNL A   1      33.200  20.831  24.561  1.00  0.00    -0.325 N 
ATOM     15  C   UNL A   1      32.193  19.862  24.978  1.00  0.00     0.333 C 
ATOM     16  H   UNL A   1      33.145  21.619  25.206  1.00  0.00     0.348 HD
BRANCH  14  17
ATOM     17  C   UNL A   1      32.905  21.354  23.210  1.00  0.00     0.364 C 
BRANCH  17  18
ATOM     18  C   UNL A   1      33.125  22.824  23.048  1.00  0.00     0.282 A 
ATOM     19  C   UNL A   1      33.049  24.906  22.818  1.00  0.00     0.202 A 
ATOM     20  N   UNL A   1      34.336  24.610  22.573  1.00  0.00    -0.057 NA
ATOM     21  N   UNL A   1      32.272  23.819  23.156  1.00  0.00    -0.186 NA
ATOM     22  O   UNL A   1      34.390  23.226  22.732  1.00  0.00    -0.333 OA
BRANCH  19  23
ATOM     23  C   UNL A   1      32.518  26.257  22.760  1.00  0.00     0.023 A 
ATOM     24  C   UNL A   1      29.171  28.035  23.169  1.00  0.00     0.044 C 
ATOM     25  C   UNL A   1      30.633  27.790  22.944  1.00  0.00    -0.050 A 
ATOM     26  C   UNL A   1      31.495  28.863  22.682  1.00  0.00     0.003 A 
ATOM     27  C   UNL A   1      31.148  26.485  22.952  1.00  0.00     0.015 A 
ATOM     28  C   UNL A   1      32.857  28.641  22.475  1.00  0.00     0.001 A 
ATOM     29  C   UNL A   1      33.370  27.344  22.526  1.00  0.00     0.012 A 
ENDBRANCH  19  23
ENDBRANCH  17  18
ENDBRANCH  14  17
ENDBRANCH  13  14
ENDBRANCH   8  13
ENDBRANCH   4   7
ENDBRANCH   2   3
ENDBRANCH   1   2
BRANCH   1  30
ATOM     30  C   UNL A   1      32.176  27.040  27.050  1.00  0.00     0.002 C 
BRANCH  30  31
ATOM     31  C   UNL A   1      31.296  28.180  26.515  1.00  0.00     0.002 C 
BRANCH  31  32
ATOM     32  C   UNL A   1      31.879  29.592  26.595  1.00  0.00     0.021 C 
BRANCH  32  33
ATOM     33  C   UNL A   1      33.343  29.631  27.023  1.00  0.00     0.116 C 
BRANCH  33  34
ATOM     34  N   UNL A   1      33.781  30.979  27.367  1.00  0.00    -0.352 N 
ATOM     35  C   UNL A   1      34.910  31.357  28.077  1.00  0.00     0.251 C 
ATOM     36  H   UNL A   1      33.202  31.713  27.055  1.00  0.00     0.163 HD
ATOM     37  O   UNL A   1      35.115  32.489  28.454  1.00  0.00    -0.269 OA
BRANCH  35  38
ATOM     38  C   UNL A   1      35.928  30.305  28.258  1.00  0.00     0.039 A 
ATOM     39  C   UNL A   1      36.012  29.726  29.529  1.00  0.00     0.014 A 
ATOM     40  C   UNL A   1      36.955  30.187  27.326  1.00  0.00     0.014 A 
ATOM     41  C   UNL A   1      37.221  29.188  29.948  1.00  0.00     0.010 A 
ATOM     42  C   UNL A   1      38.172  29.709  27.765  1.00  0.00     0.010 A 
ATOM     43  C   UNL A   1      38.316  29.274  29.094  1.00  0.00    -0.014 A 
BRANCH  43  44
ATOM     44  C   UNL A   1      39.683  29.032  29.529  1.00  0.00     0.031 A 
ATOM     45  C   UNL A   1      40.318  27.729  29.251  1.00  0.00     0.074 A 
ATOM     46  C   UNL A   1      40.389  30.043  30.082  1.00  0.00     0.049 A 
ATOM     47  N   UNL A   1      41.435  27.349  29.769  1.00  0.00    -0.248 NA
ATOM     48  C   UNL A   1      39.701  26.702  28.411  1.00  0.00     0.031 C 
ATOM     49  C   UNL A   1      41.837  30.129  30.238  1.00  0.00     0.029 A 
ATOM     50  N   UNL A   1      39.894  31.112  30.838  1.00  0.00    -0.354 N 
ATOM     51  C   UNL A   1      41.835  26.222  29.096  1.00  0.00     0.074 A 
ATOM     52  C   UNL A   1      40.667  25.778  28.383  1.00  0.00     0.031 C 
ATOM     53  C   UNL A   1      42.119  31.000  31.217  1.00  0.00     0.029 A 
ATOM     54  C   UNL A   1      40.860  31.381  31.830  1.00  0.00     0.049 A 
ATOM     55  H   UNL A   1      39.040  31.584  30.705  1.00  0.00     0.167 HD
ATOM     56  C   UNL A   1      43.159  25.904  29.094  1.00  0.00     0.037 A 
ATOM     57  C   UNL A   1      40.578  31.227  33.156  1.00  0.00     0.037 A 
ATOM     58  C   UNL A   1      43.858  26.610  30.169  1.00  0.00     0.049 A 
ATOM     59  C   UNL A   1      41.440  30.192  33.847  1.00  0.00     0.074 A 
ATOM     60  C   UNL A   1      44.759  27.658  30.202  1.00  0.00     0.029 A 
ATOM     61  N   UNL A   1      43.436  26.416  31.485  1.00  0.00    -0.354 N 
ATOM     62  N   UNL A   1      42.138  29.285  33.217  1.00  0.00    -0.248 NA
ATOM     63  C   UNL A   1      41.600  30.103  35.295  1.00  0.00     0.031 C 
ATOM     64  C   UNL A   1      44.769  28.179  31.528  1.00  0.00     0.029 A 
ATOM     65  C   UNL A   1      43.925  27.408  32.311  1.00  0.00     0.049 A 
ATOM     66  H   UNL A   1      42.865  25.671  31.783  1.00  0.00     0.167 HD
ATOM     67  C   UNL A   1      42.801  28.495  34.120  1.00  0.00     0.074 A 
ATOM     68  C   UNL A   1      42.452  29.067  35.408  1.00  0.00     0.031 C 
ATOM     69  C   UNL A   1      43.573  27.435  33.729  1.00  0.00     0.037 A 
BRANCH  56  70
ATOM     70  C   UNL A   1      43.853  25.126  27.990  1.00  0.00     0.058 A 
ATOM     71  C   UNL A   1      44.102  25.728  26.737  1.00  0.00     0.135 A 
ATOM     72  C   UNL A   1      44.160  23.745  28.044  1.00  0.00     0.135 A 
ATOM     73  F   UNL A   1      43.834  27.025  26.531  1.00  0.00    -0.206 F 
ATOM     74  C   UNL A   1      44.593  25.017  25.632  1.00  0.00     0.059 A 
ATOM     75  C   UNL A   1      44.699  23.030  26.973  1.00  0.00     0.059 A 
ATOM     76  F   UNL A   1      43.881  22.987  29.110  1.00  0.00    -0.206 F 
ATOM     77  C   UNL A   1      44.886  23.665  25.759  1.00  0.00     0.060 A 
BRANCH  77  78
ATOM     78  S   UNL A   1      45.472  22.727  24.335  1.00  0.00     0.124 S 
ATOM     79  O   UNL A   1      44.247  22.572  23.556  1.00  0.00    -0.237 OA
ATOM     80  O   UNL A   1      46.482  23.614  23.768  1.00  0.00    -0.237 OA
ATOM     81  O   UNL A   1      45.991  21.497  24.929  1.00  0.00    -0.744 OA
ENDBRANCH  77  78
ENDBRANCH  56  70
BRANCH  57  82
ATOM     82  C   UNL A   1      39.175  31.591  33.497  1.00  0.00     0.058 A 
ATOM     83  C   UNL A   1      38.876  32.964  33.614  1.00  0.00     0.135 A 
ATOM     84  C   UNL A   1      38.107  30.718  33.253  1.00  0.00     0.135 A 
ATOM     85  F   UNL A   1      39.861  33.844  33.862  1.00  0.00    -0.206 F 
ATOM     86  C   UNL A   1      37.612  33.468  33.333  1.00  0.00     0.059 A 
ATOM     87  C   UNL A   1      36.823  31.202  32.978  1.00  0.00     0.059 A 
ATOM     88  F   UNL A   1      38.325  29.400  33.134  1.00  0.00    -0.206 F 
ATOM     89  C   UNL A   1      36.607  32.581  32.953  1.00  0.00     0.060 A 
BRANCH  89  90
ATOM     90  S   UNL A   1      35.090  33.279  32.250  1.00  0.00     0.124 S 
ATOM     91  O   UNL A   1      34.461  32.102  31.663  1.00  0.00    -0.237 OA
ATOM     92  O   UNL A   1      34.430  33.823  33.436  1.00  0.00    -0.237 OA
ATOM     93  O   UNL A   1      35.585  34.270  31.302  1.00  0.00    -0.744 OA
ENDBRANCH  89  90
ENDBRANCH  57  82
BRANCH  69  94
ATOM     94  C   UNL A   1      44.140  26.361  34.642  1.00  0.00     0.058 A 
ATOM     95  C   UNL A   1      43.376  25.339  35.238  1.00  0.00     0.135 A 
ATOM     96  C   UNL A   1      45.540  26.250  34.834  1.00  0.00     0.135 A 
ATOM     97  F   UNL A   1      42.055  25.243  35.035  1.00  0.00    -0.206 F 
ATOM     98  C   UNL A   1      43.946  24.336  36.027  1.00  0.00     0.059 A 
ATOM     99  C   UNL A   1      46.133  25.224  35.565  1.00  0.00     0.059 A 
ATOM    100  F   UNL A   1      46.392  27.136  34.296  1.00  0.00    -0.206 F 
ATOM    101  C   UNL A   1      45.325  24.286  36.186  1.00  0.00     0.060 A 
BRANCH 101 102
ATOM    102  S   UNL A   1      46.072  22.956  37.148  1.00  0.00     0.124 S 
ATOM    103  O   UNL A   1      45.638  21.779  36.403  1.00  0.00    -0.237 OA
ATOM    104  O   UNL A   1      47.498  23.261  37.071  1.00  0.00    -0.237 OA
ATOM    105  O   UNL A   1      45.475  23.125  38.469  1.00  0.00    -0.744 OA
ENDBRANCH 101 102
ENDBRANCH  69  94
ENDBRANCH  43  44
ENDBRANCH  35  38
ENDBRANCH  33  34
ENDBRANCH  32  33
ENDBRANCH  31  32
ENDBRANCH  30  31
ENDBRANCH   1  30
TORSDOF 21
ENDMDL
