MODEL 1
REMARK VINA RESULT:     -11.3      0.000      0.000
REMARK SMILES O=C(NCCCCCCNC(=O)c1ccc(-c2c3nc(c(-c4c(F)cc(S(=O)(=O)[O-])cc4F)c4ccc([nH]4)c(-c4c(F)cc(S(=O)(=O)[O-])cc4F)c4nc(c(-c5c(F)cc(S(=O)(=O)[O-])cc5F)c5ccc2[nH]5)C=C4)C=C3)cc1)C1=Cc2cc(Cl)ccc2O[C@@H]1C(F)(F)F
REMARK SMILES IDX 7 1 6 2 5 3 4 4 3 5 1 6 2 7 79 9 80 10 89 11 81 12 88 13
REMARK SMILES IDX 82 14 87 15 83 16 86 17 84 18 85 19 90 20 91 21 92 22 93 23
REMARK SMILES IDX 8 24 9 25 10 26 11 27 12 29 13 30 14 31 78 32 15 33 77 34
REMARK SMILES IDX 16 35 17 36 18 37 71 38 19 39 76 40 70 41 72 42 20 43 75 44
REMARK SMILES IDX 69 45 68 46 21 48 55 49 34 50 54 51 35 52 38 53 53 54 73 55
REMARK SMILES IDX 36 56 37 57 52 59 74 60 39 61 22 62 23 63 32 64 24 65 25 66
REMARK SMILES IDX 31 67 33 68 26 69 27 70 28 71 29 72 30 73 56 74 57 75 66 76
REMARK SMILES IDX 58 77 59 78 65 79 67 80 60 81 61 82 62 83 63 84 64 85 40 86
REMARK SMILES IDX 41 87 50 88 42 89 43 90 49 91 51 92 44 93 45 94 46 95 47 96
REMARK SMILES IDX 48 97
REMARK H PARENT 3 8 10 28 72 47 38 58
REMARK Flexibility Score: inf
ROOT
ATOM      1  C   UNL A   1      31.858  28.572  24.696  1.00  0.00     0.002 C 
ENDROOT
BRANCH   1   2
ATOM      2  C   UNL A   1      31.083  27.249  24.694  1.00  0.00     0.002 C 
BRANCH   2   3
ATOM      3  C   UNL A   1      30.951  26.531  26.035  1.00  0.00     0.021 C 
BRANCH   3   4
ATOM      4  C   UNL A   1      30.464  25.089  25.982  1.00  0.00     0.116 C 
BRANCH   4   5
ATOM      5  N   UNL A   1      31.158  24.162  26.860  1.00  0.00    -0.352 N 
ATOM      6  O   UNL A   1      32.840  22.861  27.586  1.00  0.00    -0.270 OA
ATOM      7  C   UNL A   1      32.323  23.475  26.653  1.00  0.00     0.251 C 
ATOM      8  H   UNL A   1      30.727  24.005  27.730  1.00  0.00     0.163 HD
BRANCH   7   9
ATOM      9  C   UNL A   1      33.051  23.514  25.350  1.00  0.00     0.067 C 
ATOM     10  C   UNL A   1      34.243  24.124  25.219  1.00  0.00     0.025 C 
ATOM     11  C   UNL A   1      32.716  22.348  24.448  1.00  0.00     0.314 C 
ATOM     12  C   UNL A   1      35.334  23.132  25.031  1.00  0.00     0.019 A 
ATOM     13  O   UNL A   1      33.766  21.343  24.460  1.00  0.00    -0.475 OA
ATOM     14  C   UNL A   1      36.629  23.495  25.421  1.00  0.00     0.032 A 
ATOM     15  C   UNL A   1      35.028  21.786  24.769  1.00  0.00     0.128 A 
ATOM     16  C   UNL A   1      37.579  22.499  25.643  1.00  0.00     0.041 A 
ATOM     17  C   UNL A   1      36.000  20.803  24.950  1.00  0.00     0.048 A 
ATOM     18  Cl  UNL A   1      39.100  22.919  26.325  1.00  0.00    -0.084 Cl
ATOM     19  C   UNL A   1      37.269  21.159  25.415  1.00  0.00     0.024 A 
BRANCH  11  20
ATOM     20  C   UNL A   1      32.386  22.793  23.015  1.00  0.00     0.429 C 
ATOM     21  F   UNL A   1      31.662  23.939  23.009  1.00  0.00    -0.167 F 
ATOM     22  F   UNL A   1      33.508  23.037  22.296  1.00  0.00    -0.167 F 
ATOM     23  F   UNL A   1      31.674  21.864  22.333  1.00  0.00    -0.167 F 
ENDBRANCH  11  20
ENDBRANCH   7   9
ENDBRANCH   4   5
ENDBRANCH   3   4
ENDBRANCH   2   3
ENDBRANCH   1   2
BRANCH   1  24
ATOM     24  C   UNL A   1      33.387  28.486  24.777  1.00  0.00     0.021 C 
BRANCH  24  25
ATOM     25  C   UNL A   1      33.998  28.551  26.175  1.00  0.00     0.116 C 
BRANCH  25  26
ATOM     26  N   UNL A   1      33.724  29.805  26.855  1.00  0.00    -0.352 N 
ATOM     27  C   UNL A   1      34.471  30.498  27.777  1.00  0.00     0.251 C 
ATOM     28  H   UNL A   1      32.866  30.225  26.617  1.00  0.00     0.163 HD
ATOM     29  O   UNL A   1      33.976  31.474  28.333  1.00  0.00    -0.269 OA
BRANCH  27  30
ATOM     30  C   UNL A   1      35.848  30.072  28.123  1.00  0.00     0.039 A 
ATOM     31  C   UNL A   1      36.832  30.125  27.130  1.00  0.00     0.014 A 
ATOM     32  C   UNL A   1      36.171  29.582  29.391  1.00  0.00     0.014 A 
ATOM     33  C   UNL A   1      38.144  29.741  27.424  1.00  0.00     0.010 A 
ATOM     34  C   UNL A   1      37.494  29.264  29.702  1.00  0.00     0.010 A 
ATOM     35  C   UNL A   1      38.494  29.335  28.722  1.00  0.00    -0.014 A 
BRANCH  35  36
ATOM     36  C   UNL A   1      39.898  28.979  29.062  1.00  0.00     0.031 A 
ATOM     37  C   UNL A   1      40.798  29.986  29.730  1.00  0.00     0.074 A 
ATOM     38  C   UNL A   1      40.379  27.764  28.727  1.00  0.00     0.049 A 
ATOM     39  N   UNL A   1      42.060  29.877  30.054  1.00  0.00    -0.248 NA
ATOM     40  C   UNL A   1      40.209  31.295  30.054  1.00  0.00     0.031 C 
ATOM     41  C   UNL A   1      39.619  26.714  28.041  1.00  0.00     0.029 A 
ATOM     42  N   UNL A   1      41.621  27.208  28.907  1.00  0.00    -0.354 N 
ATOM     43  C   UNL A   1      42.420  31.103  30.604  1.00  0.00     0.074 A 
ATOM     44  C   UNL A   1      41.254  31.956  30.530  1.00  0.00     0.031 C 
ATOM     45  C   UNL A   1      40.404  25.636  27.881  1.00  0.00     0.029 A 
ATOM     46  C   UNL A   1      41.731  25.928  28.412  1.00  0.00     0.049 A 
ATOM     47  H   UNL A   1      42.363  27.679  29.348  1.00  0.00     0.167 HD
ATOM     48  C   UNL A   1      43.607  31.476  31.142  1.00  0.00     0.037 A 
ATOM     49  C   UNL A   1      42.785  25.087  28.382  1.00  0.00     0.037 A 
ATOM     50  C   UNL A   1      44.754  30.612  31.243  1.00  0.00     0.049 A 
ATOM     51  C   UNL A   1      44.093  25.530  28.980  1.00  0.00     0.074 A 
ATOM     52  C   UNL A   1      45.980  30.875  31.831  1.00  0.00     0.029 A 
ATOM     53  N   UNL A   1      44.822  29.319  30.742  1.00  0.00    -0.354 N 
ATOM     54  N   UNL A   1      44.392  26.669  29.559  1.00  0.00    -0.248 NA
ATOM     55  C   UNL A   1      45.207  24.572  28.927  1.00  0.00     0.031 C 
ATOM     56  C   UNL A   1      46.805  29.762  31.641  1.00  0.00     0.029 A 
ATOM     57  C   UNL A   1      46.076  28.783  30.985  1.00  0.00     0.049 A 
ATOM     58  H   UNL A   1      44.087  28.853  30.282  1.00  0.00     0.167 HD
ATOM     59  C   UNL A   1      45.717  26.551  29.966  1.00  0.00     0.074 A 
ATOM     60  C   UNL A   1      46.157  25.228  29.579  1.00  0.00     0.031 C 
ATOM     61  C   UNL A   1      46.498  27.457  30.606  1.00  0.00     0.037 A 
BRANCH  48  62
ATOM     62  C   UNL A   1      43.733  32.880  31.669  1.00  0.00     0.058 A 
ATOM     63  C   UNL A   1      44.232  33.925  30.874  1.00  0.00     0.135 A 
ATOM     64  C   UNL A   1      43.288  33.199  32.962  1.00  0.00     0.135 A 
ATOM     65  F   UNL A   1      44.685  33.676  29.635  1.00  0.00    -0.206 F 
ATOM     66  C   UNL A   1      44.305  35.230  31.350  1.00  0.00     0.059 A 
ATOM     67  C   UNL A   1      43.324  34.503  33.449  1.00  0.00     0.059 A 
ATOM     68  F   UNL A   1      42.801  32.239  33.764  1.00  0.00    -0.206 F 
ATOM     69  C   UNL A   1      43.844  35.511  32.638  1.00  0.00     0.060 A 
BRANCH  69  70
ATOM     70  S   UNL A   1      43.923  37.214  33.229  1.00  0.00     0.124 S 
ATOM     71  O   UNL A   1      43.762  37.962  31.987  1.00  0.00    -0.237 OA
ATOM     72  O   UNL A   1      42.796  37.274  34.155  1.00  0.00    -0.237 OA
ATOM     73  O   UNL A   1      45.242  37.300  33.847  1.00  0.00    -0.744 OA
ENDBRANCH  69  70
ENDBRANCH  48  62
BRANCH  49  74
ATOM     74  C   UNL A   1      42.647  23.733  27.778  1.00  0.00     0.058 A 
ATOM     75  C   UNL A   1      42.416  22.606  28.580  1.00  0.00     0.135 A 
ATOM     76  C   UNL A   1      42.755  23.538  26.392  1.00  0.00     0.135 A 
ATOM     77  F   UNL A   1      42.310  22.739  29.911  1.00  0.00    -0.206 F 
ATOM     78  C   UNL A   1      42.323  21.328  28.035  1.00  0.00     0.059 A 
ATOM     79  C   UNL A   1      42.638  22.274  25.821  1.00  0.00     0.059 A 
ATOM     80  F   UNL A   1      42.958  24.585  25.578  1.00  0.00    -0.206 F 
ATOM     81  C   UNL A   1      42.437  21.174  26.652  1.00  0.00     0.060 A 
BRANCH  81  82
ATOM     82  S   UNL A   1      42.290  19.515  25.951  1.00  0.00     0.124 S 
ATOM     83  O   UNL A   1      43.186  19.600  24.805  1.00  0.00    -0.237 OA
ATOM     84  O   UNL A   1      42.740  18.674  27.056  1.00  0.00    -0.237 OA
ATOM     85  O   UNL A   1      40.868  19.412  25.636  1.00  0.00    -0.744 OA
ENDBRANCH  81  82
ENDBRANCH  49  74
BRANCH  61  86
ATOM     86  C   UNL A   1      47.895  27.038  30.968  1.00  0.00     0.058 A 
ATOM     87  C   UNL A   1      48.173  26.317  32.140  1.00  0.00     0.135 A 
ATOM     88  C   UNL A   1      48.966  27.316  30.102  1.00  0.00     0.135 A 
ATOM     89  F   UNL A   1      47.187  26.030  33.006  1.00  0.00    -0.206 F 
ATOM     90  C   UNL A   1      49.465  25.908  32.453  1.00  0.00     0.059 A 
ATOM     91  C   UNL A   1      50.261  26.890  30.381  1.00  0.00     0.059 A 
ATOM     92  F   UNL A   1      48.755  27.992  28.963  1.00  0.00    -0.206 F 
ATOM     93  C   UNL A   1      50.502  26.197  31.565  1.00  0.00     0.060 A 
BRANCH  93  94
ATOM     94  S   UNL A   1      52.168  25.630  31.966  1.00  0.00     0.124 S 
ATOM     95  O   UNL A   1      52.887  25.934  30.733  1.00  0.00    -0.237 OA
ATOM     96  O   UNL A   1      52.510  26.457  33.120  1.00  0.00    -0.237 OA
ATOM     97  O   UNL A   1      51.986  24.211  32.253  1.00  0.00    -0.744 OA
ENDBRANCH  93  94
ENDBRANCH  61  86
ENDBRANCH  35  36
ENDBRANCH  27  30
ENDBRANCH  25  26
ENDBRANCH  24  25
ENDBRANCH   1  24
TORSDOF 17
ENDMDL
MODEL 2
REMARK VINA RESULT:     -11.2      2.344      2.869
REMARK SMILES O=C(NCCCCCCNC(=O)c1ccc(-c2c3nc(c(-c4c(F)cc(S(=O)(=O)[O-])cc4F)c4ccc([nH]4)c(-c4c(F)cc(S(=O)(=O)[O-])cc4F)c4nc(c(-c5c(F)cc(S(=O)(=O)[O-])cc5F)c5ccc2[nH]5)C=C4)C=C3)cc1)C1=Cc2cc(Cl)ccc2O[C@@H]1C(F)(F)F
REMARK SMILES IDX 7 1 6 2 5 3 4 4 3 5 1 6 2 7 79 9 80 10 89 11 81 12 88 13
REMARK SMILES IDX 82 14 87 15 83 16 86 17 84 18 85 19 90 20 91 21 92 22 93 23
REMARK SMILES IDX 8 24 9 25 10 26 11 27 12 29 13 30 14 31 78 32 15 33 77 34
REMARK SMILES IDX 16 35 17 36 18 37 71 38 19 39 76 40 70 41 72 42 20 43 75 44
REMARK SMILES IDX 69 45 68 46 21 48 55 49 34 50 54 51 35 52 38 53 53 54 73 55
REMARK SMILES IDX 36 56 37 57 52 59 74 60 39 61 22 62 23 63 32 64 24 65 25 66
REMARK SMILES IDX 31 67 33 68 26 69 27 70 28 71 29 72 30 73 56 74 57 75 66 76
REMARK SMILES IDX 58 77 59 78 65 79 67 80 60 81 61 82 62 83 63 84 64 85 40 86
REMARK SMILES IDX 41 87 50 88 42 89 43 90 49 91 51 92 44 93 45 94 46 95 47 96
REMARK SMILES IDX 48 97
REMARK H PARENT 3 8 10 28 72 47 38 58
REMARK Flexibility Score: inf
ROOT
ATOM      1  C   UNL A   1      31.802  28.434  24.626  1.00  0.00     0.002 C 
ENDROOT
BRANCH   1   2
ATOM      2  C   UNL A   1      30.859  27.228  24.710  1.00  0.00     0.002 C 
BRANCH   2   3
ATOM      3  C   UNL A   1      30.851  26.455  26.026  1.00  0.00     0.021 C 
BRANCH   3   4
ATOM      4  C   UNL A   1      30.426  24.995  25.948  1.00  0.00     0.116 C 
BRANCH   4   5
ATOM      5  N   UNL A   1      31.199  24.073  26.762  1.00  0.00    -0.352 N 
ATOM      6  O   UNL A   1      33.026  22.996  27.504  1.00  0.00    -0.270 OA
ATOM      7  C   UNL A   1      32.494  23.656  26.612  1.00  0.00     0.251 C 
ATOM      8  H   UNL A   1      30.723  23.694  27.535  1.00  0.00     0.163 HD
BRANCH   7   9
ATOM      9  C   UNL A   1      33.327  24.050  25.437  1.00  0.00     0.067 C 
ATOM     10  C   UNL A   1      34.511  24.671  25.581  1.00  0.00     0.025 C 
ATOM     11  C   UNL A   1      33.095  23.177  24.226  1.00  0.00     0.314 C 
ATOM     12  C   UNL A   1      35.637  23.768  25.225  1.00  0.00     0.019 A 
ATOM     13  O   UNL A   1      34.163  22.205  24.054  1.00  0.00    -0.475 OA
ATOM     14  C   UNL A   1      36.886  24.009  25.810  1.00  0.00     0.032 A 
ATOM     15  C   UNL A   1      35.385  22.545  24.580  1.00  0.00     0.128 A 
ATOM     16  C   UNL A   1      37.836  22.989  25.832  1.00  0.00     0.041 A 
ATOM     17  C   UNL A   1      36.360  21.550  24.569  1.00  0.00     0.048 A 
ATOM     18  Cl  UNL A   1      39.286  23.205  26.732  1.00  0.00    -0.084 Cl
ATOM     19  C   UNL A   1      37.577  21.763  25.222  1.00  0.00     0.024 A 
BRANCH  11  20
ATOM     20  C   UNL A   1      32.876  23.997  22.945  1.00  0.00     0.429 C 
ATOM     21  F   UNL A   1      33.110  23.253  21.837  1.00  0.00    -0.167 F 
ATOM     22  F   UNL A   1      31.601  24.446  22.851  1.00  0.00    -0.167 F 
ATOM     23  F   UNL A   1      33.683  25.082  22.879  1.00  0.00    -0.167 F 
ENDBRANCH  11  20
ENDBRANCH   7   9
ENDBRANCH   4   5
ENDBRANCH   3   4
ENDBRANCH   2   3
ENDBRANCH   1   2
BRANCH   1  24
ATOM     24  C   UNL A   1      33.307  28.147  24.658  1.00  0.00     0.021 C 
BRANCH  24  25
ATOM     25  C   UNL A   1      34.047  28.541  25.934  1.00  0.00     0.116 C 
BRANCH  25  26
ATOM     26  N   UNL A   1      33.745  29.893  26.369  1.00  0.00    -0.352 N 
ATOM     27  C   UNL A   1      34.352  30.678  27.320  1.00  0.00     0.251 C 
ATOM     28  H   UNL A   1      32.983  30.314  25.910  1.00  0.00     0.163 HD
ATOM     29  O   UNL A   1      33.836  31.749  27.628  1.00  0.00    -0.269 OA
BRANCH  27  30
ATOM     30  C   UNL A   1      35.600  30.242  27.989  1.00  0.00     0.039 A 
ATOM     31  C   UNL A   1      36.815  30.423  27.319  1.00  0.00     0.014 A 
ATOM     32  C   UNL A   1      35.588  29.621  29.241  1.00  0.00     0.014 A 
ATOM     33  C   UNL A   1      38.014  30.033  27.924  1.00  0.00     0.010 A 
ATOM     34  C   UNL A   1      36.789  29.295  29.873  1.00  0.00     0.010 A 
ATOM     35  C   UNL A   1      38.015  29.493  29.221  1.00  0.00    -0.014 A 
BRANCH  35  36
ATOM     36  C   UNL A   1      39.287  29.128  29.899  1.00  0.00     0.031 A 
ATOM     37  C   UNL A   1      39.734  29.872  31.130  1.00  0.00     0.074 A 
ATOM     38  C   UNL A   1      40.066  28.157  29.379  1.00  0.00     0.049 A 
ATOM     39  N   UNL A   1      40.834  29.733  31.825  1.00  0.00    -0.248 NA
ATOM     40  C   UNL A   1      38.840  30.928  31.633  1.00  0.00     0.031 C 
ATOM     41  C   UNL A   1      39.763  27.388  28.168  1.00  0.00     0.029 A 
ATOM     42  N   UNL A   1      41.275  27.655  29.794  1.00  0.00    -0.354 N 
ATOM     43  C   UNL A   1      40.772  30.688  32.834  1.00  0.00     0.074 A 
ATOM     44  C   UNL A   1      39.546  31.432  32.634  1.00  0.00     0.031 C 
ATOM     45  C   UNL A   1      40.747  26.499  27.954  1.00  0.00     0.029 A 
ATOM     46  C   UNL A   1      41.768  26.659  28.983  1.00  0.00     0.049 A 
ATOM     47  H   UNL A   1      41.744  27.976  30.597  1.00  0.00     0.167 HD
ATOM     48  C   UNL A   1      41.645  30.912  33.845  1.00  0.00     0.037 A 
ATOM     49  C   UNL A   1      42.919  25.958  29.054  1.00  0.00     0.037 A 
ATOM     50  C   UNL A   1      42.847  30.148  34.058  1.00  0.00     0.049 A 
ATOM     51  C   UNL A   1      43.874  26.233  30.186  1.00  0.00     0.074 A 
ATOM     52  C   UNL A   1      43.761  30.254  35.092  1.00  0.00     0.029 A 
ATOM     53  N   UNL A   1      43.305  29.140  33.221  1.00  0.00    -0.354 N 
ATOM     54  N   UNL A   1      43.763  27.093  31.169  1.00  0.00    -0.248 NA
ATOM     55  C   UNL A   1      45.109  25.436  30.221  1.00  0.00     0.031 C 
ATOM     56  C   UNL A   1      44.798  29.345  34.854  1.00  0.00     0.029 A 
ATOM     57  C   UNL A   1      44.502  28.634  33.703  1.00  0.00     0.049 A 
ATOM     58  H   UNL A   1      42.848  28.830  32.407  1.00  0.00     0.167 HD
ATOM     59  C   UNL A   1      44.897  26.919  31.957  1.00  0.00     0.074 A 
ATOM     60  C   UNL A   1      45.674  25.864  31.341  1.00  0.00     0.031 C 
ATOM     61  C   UNL A   1      45.260  27.572  33.088  1.00  0.00     0.037 A 
BRANCH  48  62
ATOM     62  C   UNL A   1      41.338  32.027  34.809  1.00  0.00     0.058 A 
ATOM     63  C   UNL A   1      41.833  33.327  34.616  1.00  0.00     0.135 A 
ATOM     64  C   UNL A   1      40.486  31.809  35.904  1.00  0.00     0.135 A 
ATOM     65  F   UNL A   1      42.664  33.591  33.595  1.00  0.00    -0.206 F 
ATOM     66  C   UNL A   1      41.510  34.365  35.484  1.00  0.00     0.059 A 
ATOM     67  C   UNL A   1      40.126  32.838  36.769  1.00  0.00     0.059 A 
ATOM     68  F   UNL A   1      39.984  30.585  36.136  1.00  0.00    -0.206 F 
ATOM     69  C   UNL A   1      40.652  34.112  36.556  1.00  0.00     0.060 A 
BRANCH  69  70
ATOM     70  S   UNL A   1      40.224  35.476  37.658  1.00  0.00     0.124 S 
ATOM     71  O   UNL A   1      39.919  36.537  36.704  1.00  0.00    -0.237 OA
ATOM     72  O   UNL A   1      39.083  34.936  38.392  1.00  0.00    -0.237 OA
ATOM     73  O   UNL A   1      41.436  35.671  38.447  1.00  0.00    -0.744 OA
ENDBRANCH  69  70
ENDBRANCH  48  62
BRANCH  49  74
ATOM     74  C   UNL A   1      43.228  24.919  28.036  1.00  0.00     0.058 A 
ATOM     75  C   UNL A   1      42.749  23.607  28.174  1.00  0.00     0.135 A 
ATOM     76  C   UNL A   1      44.018  25.210  26.912  1.00  0.00     0.135 A 
ATOM     77  F   UNL A   1      41.995  23.277  29.234  1.00  0.00    -0.206 F 
ATOM     78  C   UNL A   1      43.062  22.614  27.251  1.00  0.00     0.059 A 
ATOM     79  C   UNL A   1      44.320  24.240  25.960  1.00  0.00     0.059 A 
ATOM     80  F   UNL A   1      44.487  26.452  26.722  1.00  0.00    -0.206 F 
ATOM     81  C   UNL A   1      43.850  22.941  26.147  1.00  0.00     0.060 A 
BRANCH  81  82
ATOM     82  S   UNL A   1      44.229  21.652  24.940  1.00  0.00     0.124 S 
ATOM     83  O   UNL A   1      43.274  20.614  25.309  1.00  0.00    -0.237 OA
ATOM     84  O   UNL A   1      43.977  22.333  23.674  1.00  0.00    -0.237 OA
ATOM     85  O   UNL A   1      45.631  21.346  25.208  1.00  0.00    -0.744 OA
ENDBRANCH  81  82
ENDBRANCH  49  74
BRANCH  61  86
ATOM     86  C   UNL A   1      46.532  27.140  33.763  1.00  0.00     0.058 A 
ATOM     87  C   UNL A   1      46.552  26.108  34.714  1.00  0.00     0.135 A 
ATOM     88  C   UNL A   1      47.757  27.732  33.412  1.00  0.00     0.135 A 
ATOM     89  F   UNL A   1      45.408  25.513  35.090  1.00  0.00    -0.206 F 
ATOM     90  C   UNL A   1      47.738  25.695  35.312  1.00  0.00     0.059 A 
ATOM     91  C   UNL A   1      48.958  27.313  33.976  1.00  0.00     0.059 A 
ATOM     92  F   UNL A   1      47.795  28.715  32.500  1.00  0.00    -0.206 F 
ATOM     93  C   UNL A   1      48.937  26.302  34.934  1.00  0.00     0.060 A 
BRANCH  93  94
ATOM     94  S   UNL A   1      50.473  25.732  35.692  1.00  0.00     0.124 S 
ATOM     95  O   UNL A   1      50.012  25.313  37.011  1.00  0.00    -0.237 OA
ATOM     96  O   UNL A   1      50.885  24.658  34.793  1.00  0.00    -0.237 OA
ATOM     97  O   UNL A   1      51.323  26.918  35.672  1.00  0.00    -0.744 OA
ENDBRANCH  93  94
ENDBRANCH  61  86
ENDBRANCH  35  36
ENDBRANCH  27  30
ENDBRANCH  25  26
ENDBRANCH  24  25
ENDBRANCH   1  24
TORSDOF 17
ENDMDL
MODEL 3
REMARK VINA RESULT:     -11.1      0.838      8.225
REMARK SMILES O=C(NCCCCCCNC(=O)c1ccc(-c2c3nc(c(-c4c(F)cc(S(=O)(=O)[O-])cc4F)c4ccc([nH]4)c(-c4c(F)cc(S(=O)(=O)[O-])cc4F)c4nc(c(-c5c(F)cc(S(=O)(=O)[O-])cc5F)c5ccc2[nH]5)C=C4)C=C3)cc1)C1=Cc2cc(Cl)ccc2O[C@@H]1C(F)(F)F
REMARK SMILES IDX 7 1 6 2 5 3 4 4 3 5 1 6 2 7 79 9 80 10 89 11 81 12 88 13
REMARK SMILES IDX 82 14 87 15 83 16 86 17 84 18 85 19 90 20 91 21 92 22 93 23
REMARK SMILES IDX 8 24 9 25 10 26 11 27 12 29 13 30 14 31 78 32 15 33 77 34
REMARK SMILES IDX 16 35 17 36 18 37 71 38 19 39 76 40 70 41 72 42 20 43 75 44
REMARK SMILES IDX 69 45 68 46 21 48 55 49 34 50 54 51 35 52 38 53 53 54 73 55
REMARK SMILES IDX 36 56 37 57 52 59 74 60 39 61 22 62 23 63 32 64 24 65 25 66
REMARK SMILES IDX 31 67 33 68 26 69 27 70 28 71 29 72 30 73 56 74 57 75 66 76
REMARK SMILES IDX 58 77 59 78 65 79 67 80 60 81 61 82 62 83 63 84 64 85 40 86
REMARK SMILES IDX 41 87 50 88 42 89 43 90 49 91 51 92 44 93 45 94 46 95 47 96
REMARK SMILES IDX 48 97
REMARK H PARENT 3 8 10 28 72 47 38 58
REMARK Flexibility Score: inf
ROOT
ATOM      1  C   UNL A   1      32.152  27.764  25.390  1.00  0.00     0.002 C 
ENDROOT
BRANCH   1   2
ATOM      2  C   UNL A   1      31.141  26.676  25.010  1.00  0.00     0.002 C 
BRANCH   2   3
ATOM      3  C   UNL A   1      30.437  25.962  26.161  1.00  0.00     0.021 C 
BRANCH   3   4
ATOM      4  C   UNL A   1      30.357  24.444  26.064  1.00  0.00     0.116 C 
BRANCH   4   5
ATOM      5  N   UNL A   1      31.236  23.713  26.961  1.00  0.00    -0.352 N 
ATOM      6  O   UNL A   1      33.175  22.907  27.759  1.00  0.00    -0.270 OA
ATOM      7  C   UNL A   1      32.557  23.389  26.811  1.00  0.00     0.251 C 
ATOM      8  H   UNL A   1      30.820  23.405  27.798  1.00  0.00     0.163 HD
BRANCH   7   9
ATOM      9  C   UNL A   1      33.313  23.686  25.558  1.00  0.00     0.067 C 
ATOM     10  C   UNL A   1      34.508  24.303  25.577  1.00  0.00     0.025 C 
ATOM     11  C   UNL A   1      32.995  22.729  24.432  1.00  0.00     0.314 C 
ATOM     12  C   UNL A   1      35.602  23.363  25.215  1.00  0.00     0.019 A 
ATOM     13  O   UNL A   1      34.043  21.735  24.263  1.00  0.00    -0.475 OA
ATOM     14  C   UNL A   1      36.888  23.631  25.697  1.00  0.00     0.032 A 
ATOM     15  C   UNL A   1      35.299  22.099  24.681  1.00  0.00     0.128 A 
ATOM     16  C   UNL A   1      37.831  22.605  25.733  1.00  0.00     0.041 A 
ATOM     17  C   UNL A   1      36.264  21.094  24.680  1.00  0.00     0.048 A 
ATOM     18  Cl  UNL A   1      39.339  22.870  26.517  1.00  0.00    -0.084 Cl
ATOM     19  C   UNL A   1      37.524  21.340  25.233  1.00  0.00     0.024 A 
BRANCH  11  20
ATOM     20  C   UNL A   1      32.696  23.455  23.112  1.00  0.00     0.429 C 
ATOM     21  F   UNL A   1      33.321  22.857  22.069  1.00  0.00    -0.167 F 
ATOM     22  F   UNL A   1      31.372  23.452  22.827  1.00  0.00    -0.167 F 
ATOM     23  F   UNL A   1      33.094  24.750  23.129  1.00  0.00    -0.167 F 
ENDBRANCH  11  20
ENDBRANCH   7   9
ENDBRANCH   4   5
ENDBRANCH   3   4
ENDBRANCH   2   3
ENDBRANCH   1   2
BRANCH   1  24
ATOM     24  C   UNL A   1      33.093  27.464  26.563  1.00  0.00     0.021 C 
BRANCH  24  25
ATOM     25  C   UNL A   1      34.337  28.342  26.677  1.00  0.00     0.116 C 
BRANCH  25  26
ATOM     26  N   UNL A   1      34.088  29.588  27.380  1.00  0.00    -0.352 N 
ATOM     27  C   UNL A   1      34.897  30.311  28.224  1.00  0.00     0.251 C 
ATOM     28  H   UNL A   1      33.196  29.977  27.229  1.00  0.00     0.163 HD
ATOM     29  O   UNL A   1      34.425  31.271  28.826  1.00  0.00    -0.269 OA
BRANCH  27  30
ATOM     30  C   UNL A   1      36.315  29.935  28.432  1.00  0.00     0.039 A 
ATOM     31  C   UNL A   1      37.212  30.100  27.371  1.00  0.00     0.014 A 
ATOM     32  C   UNL A   1      36.763  29.384  29.636  1.00  0.00     0.014 A 
ATOM     33  C   UNL A   1      38.559  29.766  27.535  1.00  0.00     0.010 A 
ATOM     34  C   UNL A   1      38.120  29.115  29.821  1.00  0.00     0.010 A 
ATOM     35  C   UNL A   1      39.033  29.298  28.772  1.00  0.00    -0.014 A 
BRANCH  35  36
ATOM     36  C   UNL A   1      40.474  28.994  28.977  1.00  0.00     0.031 A 
ATOM     37  C   UNL A   1      41.030  27.647  28.595  1.00  0.00     0.074 A 
ATOM     38  C   UNL A   1      41.274  29.914  29.553  1.00  0.00     0.049 A 
ATOM     39  N   UNL A   1      42.244  27.182  28.746  1.00  0.00    -0.248 NA
ATOM     40  C   UNL A   1      40.096  26.689  27.983  1.00  0.00     0.031 C 
ATOM     41  C   UNL A   1      40.847  31.242  30.006  1.00  0.00     0.029 A 
ATOM     42  N   UNL A   1      42.611  29.874  29.867  1.00  0.00    -0.354 N 
ATOM     43  C   UNL A   1      42.215  25.878  28.265  1.00  0.00     0.074 A 
ATOM     44  C   UNL A   1      40.853  25.609  27.857  1.00  0.00     0.031 C 
ATOM     45  C   UNL A   1      41.904  31.895  30.515  1.00  0.00     0.029 A 
ATOM     46  C   UNL A   1      43.074  31.024  30.466  1.00  0.00     0.049 A 
ATOM     47  H   UNL A   1      43.184  29.097  29.681  1.00  0.00     0.167 HD
ATOM     48  C   UNL A   1      43.235  24.992  28.154  1.00  0.00     0.037 A 
ATOM     49  C   UNL A   1      44.300  31.338  30.931  1.00  0.00     0.037 A 
ATOM     50  C   UNL A   1      44.595  25.276  28.531  1.00  0.00     0.049 A 
ATOM     51  C   UNL A   1      45.413  30.332  30.800  1.00  0.00     0.074 A 
ATOM     52  C   UNL A   1      45.712  24.469  28.395  1.00  0.00     0.029 A 
ATOM     53  N   UNL A   1      45.026  26.456  29.122  1.00  0.00    -0.354 N 
ATOM     54  N   UNL A   1      45.381  29.129  30.278  1.00  0.00    -0.248 NA
ATOM     55  C   UNL A   1      46.731  30.728  31.317  1.00  0.00     0.031 C 
ATOM     56  C   UNL A   1      46.807  25.139  28.949  1.00  0.00     0.029 A 
ATOM     57  C   UNL A   1      46.386  26.386  29.379  1.00  0.00     0.049 A 
ATOM     58  H   UNL A   1      44.451  27.227  29.327  1.00  0.00     0.167 HD
ATOM     59  C   UNL A   1      46.679  28.638  30.374  1.00  0.00     0.074 A 
ATOM     60  C   UNL A   1      47.473  29.679  30.993  1.00  0.00     0.031 C 
ATOM     61  C   UNL A   1      47.169  27.436  29.984  1.00  0.00     0.037 A 
BRANCH  48  62
ATOM     62  C   UNL A   1      42.927  23.627  27.599  1.00  0.00     0.058 A 
ATOM     63  C   UNL A   1      43.133  23.317  26.245  1.00  0.00     0.135 A 
ATOM     64  C   UNL A   1      42.484  22.597  28.445  1.00  0.00     0.135 A 
ATOM     65  F   UNL A   1      43.543  24.265  25.387  1.00  0.00    -0.206 F 
ATOM     66  C   UNL A   1      42.891  22.041  25.746  1.00  0.00     0.059 A 
ATOM     67  C   UNL A   1      42.262  21.307  27.973  1.00  0.00     0.059 A 
ATOM     68  F   UNL A   1      42.270  22.839  29.748  1.00  0.00    -0.206 F 
ATOM     69  C   UNL A   1      42.459  21.041  26.619  1.00  0.00     0.060 A 
BRANCH  69  70
ATOM     70  S   UNL A   1      42.173  19.385  25.959  1.00  0.00     0.124 S 
ATOM     71  O   UNL A   1      42.607  18.548  27.073  1.00  0.00    -0.237 OA
ATOM     72  O   UNL A   1      40.737  19.398  25.698  1.00  0.00    -0.237 OA
ATOM     73  O   UNL A   1      43.022  19.340  24.773  1.00  0.00    -0.744 OA
ENDBRANCH  69  70
ENDBRANCH  48  62
BRANCH  49  74
ATOM     74  C   UNL A   1      44.549  32.669  31.550  1.00  0.00     0.058 A 
ATOM     75  C   UNL A   1      44.386  32.865  32.929  1.00  0.00     0.135 A 
ATOM     76  C   UNL A   1      44.942  33.772  30.775  1.00  0.00     0.135 A 
ATOM     77  F   UNL A   1      44.007  31.842  33.711  1.00  0.00    -0.206 F 
ATOM     78  C   UNL A   1      44.577  34.111  33.518  1.00  0.00     0.059 A 
ATOM     79  C   UNL A   1      45.166  35.022  31.345  1.00  0.00     0.059 A 
ATOM     80  F   UNL A   1      45.128  33.635  29.454  1.00  0.00    -0.206 F 
ATOM     81  C   UNL A   1      44.966  35.185  32.715  1.00  0.00     0.060 A 
BRANCH  81  82
ATOM     82  S   UNL A   1      45.237  36.793  33.491  1.00  0.00     0.124 S 
ATOM     83  O   UNL A   1      45.267  36.436  34.904  1.00  0.00    -0.237 OA
ATOM     84  O   UNL A   1      46.510  37.205  32.908  1.00  0.00    -0.237 OA
ATOM     85  O   UNL A   1      44.079  37.571  33.060  1.00  0.00    -0.744 OA
ENDBRANCH  81  82
ENDBRANCH  49  74
BRANCH  61  86
ATOM     86  C   UNL A   1      48.640  27.191  30.171  1.00  0.00     0.058 A 
ATOM     87  C   UNL A   1      49.580  27.526  29.183  1.00  0.00     0.135 A 
ATOM     88  C   UNL A   1      49.122  26.660  31.380  1.00  0.00     0.135 A 
ATOM     89  F   UNL A   1      49.172  28.030  28.007  1.00  0.00    -0.206 F 
ATOM     90  C   UNL A   1      50.942  27.322  29.377  1.00  0.00     0.059 A 
ATOM     91  C   UNL A   1      50.483  26.476  31.606  1.00  0.00     0.059 A 
ATOM     92  F   UNL A   1      48.268  26.332  32.362  1.00  0.00    -0.206 F 
ATOM     93  C   UNL A   1      51.384  26.799  30.593  1.00  0.00     0.060 A 
BRANCH  93  94
ATOM     94  S   UNL A   1      53.157  26.572  30.845  1.00  0.00     0.124 S 
ATOM     95  O   UNL A   1      53.543  27.864  31.402  1.00  0.00    -0.237 OA
ATOM     96  O   UNL A   1      53.199  25.444  31.771  1.00  0.00    -0.237 OA
ATOM     97  O   UNL A   1      53.658  26.291  29.503  1.00  0.00    -0.744 OA
ENDBRANCH  93  94
ENDBRANCH  61  86
ENDBRANCH  35  36
ENDBRANCH  27  30
ENDBRANCH  25  26
ENDBRANCH  24  25
ENDBRANCH   1  24
TORSDOF 17
ENDMDL
