MODEL 1
REMARK VINA RESULT:     -10.6      0.000      0.000
REMARK SMILES CC(C)[C@@H](ON1C(=O)c2ccccc2C1=O)C(=O)NCCCCCCNC(=O)c1ccc(-c2c3nc(c(-c4c(F)cc(S(=O)(=O)[O-])cc4F)c4ccc([nH]4)c(-c4c(F)cc(S(=O)(=O)[O-])cc4F)c4nc(c(-c5c(F)cc(S(=O)(=O)[O-])cc5F)c5ccc2[nH]5)C=C4)C=C3)cc1
REMARK SMILES IDX 23 1 22 2 21 3 20 4 19 5 17 6 18 7 4 9 2 10 1 11 3 12 5 13
REMARK SMILES IDX 6 14 7 15 15 16 8 17 9 18 14 19 16 20 10 21 13 22 11 23
REMARK SMILES IDX 12 24 24 25 25 26 26 27 27 28 28 30 29 31 30 32 94 33 31 34
REMARK SMILES IDX 93 35 32 36 33 37 34 38 87 39 35 40 92 41 86 42 88 43 36 44
REMARK SMILES IDX 91 45 85 46 84 47 37 49 71 50 50 51 70 52 51 53 54 54 69 55
REMARK SMILES IDX 89 56 52 57 53 58 68 60 90 61 55 62 38 63 39 64 48 65 40 66
REMARK SMILES IDX 41 67 47 68 49 69 42 70 43 71 44 72 45 73 46 74 72 75 73 76
REMARK SMILES IDX 82 77 74 78 75 79 81 80 83 81 76 82 77 83 78 84 79 85 80 86
REMARK SMILES IDX 56 87 57 88 66 89 58 90 59 91 65 92 67 93 60 94 61 95 62 96
REMARK SMILES IDX 63 97 64 98
REMARK H PARENT 19 8 26 29 88 48 54 59
REMARK Flexibility Score: inf
ROOT
ATOM      1  C   UNL A   1      31.547  28.329  26.167  1.00  0.00     0.002 C 
ENDROOT
BRANCH   1   2
ATOM      2  C   UNL A   1      31.274  27.104  27.046  1.00  0.00     0.002 C 
BRANCH   2   3
ATOM      3  C   UNL A   1      31.179  25.777  26.283  1.00  0.00     0.021 C 
BRANCH   3   4
ATOM      4  C   UNL A   1      32.441  24.917  26.383  1.00  0.00     0.116 C 
BRANCH   4   5
ATOM      5  N   UNL A   1      32.168  23.563  25.929  1.00  0.00    -0.354 N 
ATOM      6  C   UNL A   1      32.702  22.868  24.881  1.00  0.00     0.252 C 
ATOM      7  O   UNL A   1      32.243  21.745  24.648  1.00  0.00    -0.272 OA
ATOM      8  H   UNL A   1      31.496  23.074  26.456  1.00  0.00     0.163 HD
BRANCH   6   9
ATOM      9  C   UNL A   1      33.825  23.467  24.012  1.00  0.00     0.241 C 
BRANCH   9  10
ATOM     10  C   UNL A   1      35.079  22.548  23.981  1.00  0.00     0.024 C 
ATOM     11  C   UNL A   1      36.237  23.076  23.129  1.00  0.00     0.011 C 
ATOM     12  C   UNL A   1      35.599  22.306  25.404  1.00  0.00     0.011 C 
ENDBRANCH   9  10
BRANCH   9  13
ATOM     13  O   UNL A   1      33.152  23.702  22.765  1.00  0.00    -0.249 OA
BRANCH  13  14
ATOM     14  N   UNL A   1      32.400  24.870  22.731  1.00  0.00    -0.144 N 
ATOM     15  C   UNL A   1      33.011  26.034  22.368  1.00  0.00     0.285 C 
ATOM     16  C   UNL A   1      31.070  25.001  22.972  1.00  0.00     0.285 C 
ATOM     17  O   UNL A   1      34.166  26.255  22.056  1.00  0.00    -0.266 OA
ATOM     18  C   UNL A   1      31.974  27.060  22.464  1.00  0.00     0.055 A 
ATOM     19  C   UNL A   1      30.800  26.434  22.853  1.00  0.00     0.055 A 
ATOM     20  O   UNL A   1      30.219  24.185  23.262  1.00  0.00    -0.266 OA
ATOM     21  C   UNL A   1      32.053  28.427  22.295  1.00  0.00     0.015 A 
ATOM     22  C   UNL A   1      29.646  27.143  23.120  1.00  0.00     0.015 A 
ATOM     23  C   UNL A   1      30.895  29.166  22.555  1.00  0.00     0.001 A 
ATOM     24  C   UNL A   1      29.705  28.531  22.971  1.00  0.00     0.001 A 
ENDBRANCH  13  14
ENDBRANCH   9  13
ENDBRANCH   6   9
ENDBRANCH   4   5
ENDBRANCH   3   4
ENDBRANCH   2   3
ENDBRANCH   1   2
BRANCH   1  25
ATOM     25  C   UNL A   1      33.014  28.524  25.779  1.00  0.00     0.021 C 
BRANCH  25  26
ATOM     26  C   UNL A   1      33.958  28.701  26.963  1.00  0.00     0.116 C 
BRANCH  26  27
ATOM     27  N   UNL A   1      33.854  30.033  27.542  1.00  0.00    -0.352 N 
ATOM     28  C   UNL A   1      34.742  30.696  28.354  1.00  0.00     0.251 C 
ATOM     29  H   UNL A   1      33.033  30.529  27.320  1.00  0.00     0.163 HD
ATOM     30  O   UNL A   1      34.399  31.723  28.933  1.00  0.00    -0.269 OA
BRANCH  28  31
ATOM     31  C   UNL A   1      36.104  30.153  28.540  1.00  0.00     0.039 A 
ATOM     32  C   UNL A   1      36.984  30.143  27.457  1.00  0.00     0.014 A 
ATOM     33  C   UNL A   1      36.511  29.671  29.787  1.00  0.00     0.014 A 
ATOM     34  C   UNL A   1      38.301  29.715  27.645  1.00  0.00     0.010 A 
ATOM     35  C   UNL A   1      37.841  29.318  29.990  1.00  0.00     0.010 A 
ATOM     36  C   UNL A   1      38.752  29.341  28.922  1.00  0.00    -0.014 A 
BRANCH  36  37
ATOM     37  C   UNL A   1      40.177  28.997  29.169  1.00  0.00     0.031 A 
ATOM     38  C   UNL A   1      41.125  30.034  29.705  1.00  0.00     0.074 A 
ATOM     39  C   UNL A   1      40.629  27.771  28.838  1.00  0.00     0.049 A 
ATOM     40  N   UNL A   1      42.415  29.946  29.906  1.00  0.00    -0.248 NA
ATOM     41  C   UNL A   1      40.554  31.349  30.038  1.00  0.00     0.031 C 
ATOM     42  C   UNL A   1      39.814  26.694  28.271  1.00  0.00     0.029 A 
ATOM     43  N   UNL A   1      41.886  27.225  28.918  1.00  0.00    -0.354 N 
ATOM     44  C   UNL A   1      42.811  31.193  30.377  1.00  0.00     0.074 A 
ATOM     45  C   UNL A   1      41.635  32.035  30.381  1.00  0.00     0.031 C 
ATOM     46  C   UNL A   1      40.586  25.614  28.072  1.00  0.00     0.029 A 
ATOM     47  C   UNL A   1      41.959  25.934  28.450  1.00  0.00     0.049 A 
ATOM     48  H   UNL A   1      42.663  27.713  29.276  1.00  0.00     0.167 HD
ATOM     49  C   UNL A   1      44.040  31.591  30.786  1.00  0.00     0.037 A 
ATOM     50  C   UNL A   1      43.015  25.105  28.322  1.00  0.00     0.037 A 
ATOM     51  C   UNL A   1      45.202  30.741  30.789  1.00  0.00     0.049 A 
ATOM     52  C   UNL A   1      44.375  25.582  28.755  1.00  0.00     0.074 A 
ATOM     53  C   UNL A   1      46.479  31.032  31.236  1.00  0.00     0.029 A 
ATOM     54  N   UNL A   1      45.234  29.437  30.313  1.00  0.00    -0.354 N 
ATOM     55  N   UNL A   1      44.718  26.741  29.263  1.00  0.00    -0.248 NA
ATOM     56  C   UNL A   1      45.491  24.639  28.600  1.00  0.00     0.031 C 
ATOM     57  C   UNL A   1      47.296  29.929  30.974  1.00  0.00     0.029 A 
ATOM     58  C   UNL A   1      46.516  28.924  30.425  1.00  0.00     0.049 A 
ATOM     59  H   UNL A   1      44.460  28.949  29.949  1.00  0.00     0.167 HD
ATOM     60  C   UNL A   1      46.084  26.657  29.514  1.00  0.00     0.074 A 
ATOM     61  C   UNL A   1      46.499  25.329  29.114  1.00  0.00     0.031 C 
ATOM     62  C   UNL A   1      46.917  27.596  30.028  1.00  0.00     0.037 A 
BRANCH  49  63
ATOM     63  C   UNL A   1      44.194  33.010  31.265  1.00  0.00     0.058 A 
ATOM     64  C   UNL A   1      44.561  34.050  30.394  1.00  0.00     0.135 A 
ATOM     65  C   UNL A   1      43.929  33.344  32.604  1.00  0.00     0.135 A 
ATOM     66  F   UNL A   1      44.839  33.788  29.107  1.00  0.00    -0.206 F 
ATOM     67  C   UNL A   1      44.686  35.362  30.838  1.00  0.00     0.059 A 
ATOM     68  C   UNL A   1      44.017  34.656  33.063  1.00  0.00     0.059 A 
ATOM     69  F   UNL A   1      43.576  32.392  33.481  1.00  0.00    -0.206 F 
ATOM     70  C   UNL A   1      44.410  35.655  32.175  1.00  0.00     0.060 A 
BRANCH  70  71
ATOM     71  S   UNL A   1      44.569  37.365  32.731  1.00  0.00     0.124 S 
ATOM     72  O   UNL A   1      46.018  37.541  32.722  1.00  0.00    -0.237 OA
ATOM     73  O   UNL A   1      43.837  38.096  31.701  1.00  0.00    -0.237 OA
ATOM     74  O   UNL A   1      43.947  37.354  34.052  1.00  0.00    -0.744 OA
ENDBRANCH  70  71
ENDBRANCH  49  63
BRANCH  50  75
ATOM     75  C   UNL A   1      42.824  23.738  27.763  1.00  0.00     0.058 A 
ATOM     76  C   UNL A   1      42.838  23.514  26.379  1.00  0.00     0.135 A 
ATOM     77  C   UNL A   1      42.631  22.629  28.601  1.00  0.00     0.135 A 
ATOM     78  F   UNL A   1      43.010  24.543  25.535  1.00  0.00    -0.206 F 
ATOM     79  C   UNL A   1      42.652  22.243  25.844  1.00  0.00     0.059 A 
ATOM     80  C   UNL A   1      42.474  21.343  28.092  1.00  0.00     0.059 A 
ATOM     81  F   UNL A   1      42.623  22.785  29.935  1.00  0.00    -0.206 F 
ATOM     82  C   UNL A   1      42.474  21.163  26.709  1.00  0.00     0.060 A 
BRANCH  82  83
ATOM     83  S   UNL A   1      42.277  19.512  26.004  1.00  0.00     0.124 S 
ATOM     84  O   UNL A   1      42.642  18.666  27.134  1.00  0.00    -0.237 OA
ATOM     85  O   UNL A   1      40.867  19.507  25.630  1.00  0.00    -0.237 OA
ATOM     86  O   UNL A   1      43.215  19.511  24.886  1.00  0.00    -0.744 OA
ENDBRANCH  82  83
ENDBRANCH  50  75
BRANCH  62  87
ATOM     87  C   UNL A   1      48.361  27.215  30.223  1.00  0.00     0.058 A 
ATOM     88  C   UNL A   1      49.329  27.456  29.236  1.00  0.00     0.135 A 
ATOM     89  C   UNL A   1      48.791  26.666  31.443  1.00  0.00     0.135 A 
ATOM     90  F   UNL A   1      48.971  27.971  28.049  1.00  0.00    -0.206 F 
ATOM     91  C   UNL A   1      50.669  27.150  29.444  1.00  0.00     0.059 A 
ATOM     92  C   UNL A   1      50.131  26.381  31.684  1.00  0.00     0.059 A 
ATOM     93  F   UNL A   1      47.908  26.423  32.424  1.00  0.00    -0.206 F 
ATOM     94  C   UNL A   1      51.063  26.620  30.675  1.00  0.00     0.060 A 
BRANCH  94  95
ATOM     95  S   UNL A   1      52.814  26.277  30.948  1.00  0.00     0.124 S 
ATOM     96  O   UNL A   1      53.245  27.482  31.651  1.00  0.00    -0.237 OA
ATOM     97  O   UNL A   1      52.769  25.058  31.750  1.00  0.00    -0.237 OA
ATOM     98  O   UNL A   1      53.345  26.115  29.598  1.00  0.00    -0.744 OA
ENDBRANCH  94  95
ENDBRANCH  62  87
ENDBRANCH  36  37
ENDBRANCH  28  31
ENDBRANCH  26  27
ENDBRANCH  25  26
ENDBRANCH   1  25
TORSDOF 19
ENDMDL
MODEL 2
REMARK VINA RESULT:     -10.6      3.416      9.224
REMARK SMILES CC(C)[C@@H](ON1C(=O)c2ccccc2C1=O)C(=O)NCCCCCCNC(=O)c1ccc(-c2c3nc(c(-c4c(F)cc(S(=O)(=O)[O-])cc4F)c4ccc([nH]4)c(-c4c(F)cc(S(=O)(=O)[O-])cc4F)c4nc(c(-c5c(F)cc(S(=O)(=O)[O-])cc5F)c5ccc2[nH]5)C=C4)C=C3)cc1
REMARK SMILES IDX 23 1 22 2 21 3 20 4 19 5 17 6 18 7 4 9 2 10 1 11 3 12 5 13
REMARK SMILES IDX 6 14 7 15 15 16 8 17 9 18 14 19 16 20 10 21 13 22 11 23
REMARK SMILES IDX 12 24 24 25 25 26 26 27 27 28 28 30 29 31 30 32 94 33 31 34
REMARK SMILES IDX 93 35 32 36 33 37 34 38 87 39 35 40 92 41 86 42 88 43 36 44
REMARK SMILES IDX 91 45 85 46 84 47 37 49 71 50 50 51 70 52 51 53 54 54 69 55
REMARK SMILES IDX 89 56 52 57 53 58 68 60 90 61 55 62 38 63 39 64 48 65 40 66
REMARK SMILES IDX 41 67 47 68 49 69 42 70 43 71 44 72 45 73 46 74 72 75 73 76
REMARK SMILES IDX 82 77 74 78 75 79 81 80 83 81 76 82 77 83 78 84 79 85 80 86
REMARK SMILES IDX 56 87 57 88 66 89 58 90 59 91 65 92 67 93 60 94 61 95 62 96
REMARK SMILES IDX 63 97 64 98
REMARK H PARENT 19 8 26 29 88 48 54 59
REMARK Flexibility Score: inf
ROOT
ATOM      1  C   UNL A   1      36.872  20.828  25.187  1.00  0.00     0.002 C 
ENDROOT
BRANCH   1   2
ATOM      2  C   UNL A   1      37.128  22.292  25.560  1.00  0.00     0.002 C 
BRANCH   2   3
ATOM      3  C   UNL A   1      36.802  23.302  24.453  1.00  0.00     0.021 C 
BRANCH   3   4
ATOM      4  C   UNL A   1      35.995  22.710  23.295  1.00  0.00     0.116 C 
BRANCH   4   5
ATOM      5  N   UNL A   1      34.904  23.599  22.932  1.00  0.00    -0.354 N 
ATOM      6  C   UNL A   1      33.752  23.891  23.606  1.00  0.00     0.252 C 
ATOM      7  O   UNL A   1      32.933  24.626  23.045  1.00  0.00    -0.272 OA
ATOM      8  H   UNL A   1      35.012  24.060  22.069  1.00  0.00     0.163 HD
BRANCH   6   9
ATOM      9  C   UNL A   1      33.476  23.312  25.008  1.00  0.00     0.241 C 
BRANCH   9  10
ATOM     10  C   UNL A   1      33.415  24.429  26.088  1.00  0.00     0.024 C 
ATOM     11  C   UNL A   1      34.087  25.745  25.686  1.00  0.00     0.011 C 
ATOM     12  C   UNL A   1      31.958  24.728  26.466  1.00  0.00     0.011 C 
ENDBRANCH   9  10
BRANCH   9  13
ATOM     13  O   UNL A   1      32.283  22.543  24.790  1.00  0.00    -0.249 OA
BRANCH  13  14
ATOM     14  N   UNL A   1      32.511  21.211  24.467  1.00  0.00    -0.144 N 
ATOM     15  C   UNL A   1      33.004  20.378  25.428  1.00  0.00     0.285 C 
ATOM     16  C   UNL A   1      32.248  20.593  23.288  1.00  0.00     0.285 C 
ATOM     17  O   UNL A   1      33.308  20.600  26.586  1.00  0.00    -0.266 OA
ATOM     18  C   UNL A   1      33.159  19.082  24.772  1.00  0.00     0.055 A 
ATOM     19  C   UNL A   1      32.720  19.218  23.464  1.00  0.00     0.055 A 
ATOM     20  O   UNL A   1      31.767  21.003  22.251  1.00  0.00    -0.266 OA
ATOM     21  C   UNL A   1      33.695  17.901  25.243  1.00  0.00     0.015 A 
ATOM     22  C   UNL A   1      32.817  18.191  22.548  1.00  0.00     0.015 A 
ATOM     23  C   UNL A   1      33.799  16.843  24.334  1.00  0.00     0.001 A 
ATOM     24  C   UNL A   1      33.370  16.989  22.997  1.00  0.00     0.001 A 
ENDBRANCH  13  14
ENDBRANCH   9  13
ENDBRANCH   6   9
ENDBRANCH   4   5
ENDBRANCH   3   4
ENDBRANCH   2   3
ENDBRANCH   1   2
BRANCH   1  25
ATOM     25  C   UNL A   1      38.135  19.992  24.970  1.00  0.00     0.021 C 
BRANCH  25  26
ATOM     26  C   UNL A   1      39.319  20.408  25.837  1.00  0.00     0.116 C 
BRANCH  26  27
ATOM     27  N   UNL A   1      40.270  19.320  26.010  1.00  0.00    -0.352 N 
ATOM     28  C   UNL A   1      41.637  19.376  26.132  1.00  0.00     0.251 C 
ATOM     29  H   UNL A   1      39.880  18.417  26.045  1.00  0.00     0.163 HD
ATOM     30  O   UNL A   1      42.307  18.350  26.048  1.00  0.00    -0.269 OA
BRANCH  28  31
ATOM     31  C   UNL A   1      42.296  20.682  26.345  1.00  0.00     0.039 A 
ATOM     32  C   UNL A   1      42.794  21.378  25.243  1.00  0.00     0.014 A 
ATOM     33  C   UNL A   1      42.404  21.221  27.629  1.00  0.00     0.014 A 
ATOM     34  C   UNL A   1      43.337  22.653  25.422  1.00  0.00     0.010 A 
ATOM     35  C   UNL A   1      42.874  22.520  27.796  1.00  0.00     0.010 A 
ATOM     36  C   UNL A   1      43.342  23.252  26.693  1.00  0.00    -0.014 A 
BRANCH  36  37
ATOM     37  C   UNL A   1      43.804  24.651  26.887  1.00  0.00     0.031 A 
ATOM     38  C   UNL A   1      45.259  24.997  26.733  1.00  0.00     0.074 A 
ATOM     39  C   UNL A   1      42.920  25.593  27.276  1.00  0.00     0.049 A 
ATOM     40  N   UNL A   1      45.862  26.139  26.943  1.00  0.00    -0.248 NA
ATOM     41  C   UNL A   1      46.159  23.913  26.310  1.00  0.00     0.031 C 
ATOM     42  C   UNL A   1      41.490  25.369  27.499  1.00  0.00     0.029 A 
ATOM     43  N   UNL A   1      43.094  26.924  27.565  1.00  0.00    -0.354 N 
ATOM     44  C   UNL A   1      47.209  25.909  26.689  1.00  0.00     0.074 A 
ATOM     45  C   UNL A   1      47.343  24.506  26.361  1.00  0.00     0.031 C 
ATOM     46  C   UNL A   1      40.916  26.524  27.871  1.00  0.00     0.029 A 
ATOM     47  C   UNL A   1      41.941  27.558  27.960  1.00  0.00     0.049 A 
ATOM     48  H   UNL A   1      43.964  27.380  27.495  1.00  0.00     0.167 HD
ATOM     49  C   UNL A   1      48.236  26.792  26.707  1.00  0.00     0.037 A 
ATOM     50  C   UNL A   1      41.733  28.827  28.368  1.00  0.00     0.037 A 
ATOM     51  C   UNL A   1      48.090  28.190  27.023  1.00  0.00     0.049 A 
ATOM     52  C   UNL A   1      42.896  29.781  28.411  1.00  0.00     0.074 A 
ATOM     53  C   UNL A   1      49.059  29.179  27.016  1.00  0.00     0.029 A 
ATOM     54  N   UNL A   1      46.904  28.797  27.414  1.00  0.00    -0.354 N 
ATOM     55  N   UNL A   1      44.152  29.563  28.100  1.00  0.00    -0.248 NA
ATOM     56  C   UNL A   1      42.616  31.153  28.856  1.00  0.00     0.031 C 
ATOM     57  C   UNL A   1      48.473  30.368  27.460  1.00  0.00     0.029 A 
ATOM     58  C   UNL A   1      47.125  30.138  27.681  1.00  0.00     0.049 A 
ATOM     59  H   UNL A   1      46.034  28.341  27.489  1.00  0.00     0.167 HD
ATOM     60  C   UNL A   1      44.805  30.778  28.286  1.00  0.00     0.074 A 
ATOM     61  C   UNL A   1      43.803  31.727  28.722  1.00  0.00     0.031 C 
ATOM     62  C   UNL A   1      46.116  31.077  28.111  1.00  0.00     0.037 A 
BRANCH  49  63
ATOM     63  C   UNL A   1      49.612  26.276  26.380  1.00  0.00     0.058 A 
ATOM     64  C   UNL A   1      50.141  26.350  25.081  1.00  0.00     0.135 A 
ATOM     65  C   UNL A   1      50.432  25.741  27.388  1.00  0.00     0.135 A 
ATOM     66  F   UNL A   1      49.399  26.840  24.075  1.00  0.00    -0.206 F 
ATOM     67  C   UNL A   1      51.420  25.887  24.787  1.00  0.00     0.059 A 
ATOM     68  C   UNL A   1      51.726  25.301  27.124  1.00  0.00     0.059 A 
ATOM     69  F   UNL A   1      49.979  25.645  28.647  1.00  0.00    -0.206 F 
ATOM     70  C   UNL A   1      52.205  25.365  25.817  1.00  0.00     0.060 A 
BRANCH  70  71
ATOM     71  S   UNL A   1      53.864  24.777  25.418  1.00  0.00     0.124 S 
ATOM     72  O   UNL A   1      54.222  25.647  24.303  1.00  0.00    -0.237 OA
ATOM     73  O   UNL A   1      54.587  25.016  26.664  1.00  0.00    -0.237 OA
ATOM     74  O   UNL A   1      53.656  23.373  25.076  1.00  0.00    -0.744 OA
ENDBRANCH  70  71
ENDBRANCH  49  63
BRANCH  50  75
ATOM     75  C   UNL A   1      40.366  29.266  28.763  1.00  0.00     0.058 A 
ATOM     76  C   UNL A   1      40.018  29.420  30.113  1.00  0.00     0.135 A 
ATOM     77  C   UNL A   1      39.385  29.549  27.800  1.00  0.00     0.135 A 
ATOM     78  F   UNL A   1      40.917  29.155  31.072  1.00  0.00    -0.206 F 
ATOM     79  C   UNL A   1      38.742  29.822  30.496  1.00  0.00     0.059 A 
ATOM     80  C   UNL A   1      38.111  29.982  28.156  1.00  0.00     0.059 A 
ATOM     81  F   UNL A   1      39.670  29.432  26.493  1.00  0.00    -0.206 F 
ATOM     82  C   UNL A   1      37.796  30.104  29.509  1.00  0.00     0.060 A 
BRANCH  82  83
ATOM     83  S   UNL A   1      36.157  30.667  30.017  1.00  0.00     0.124 S 
ATOM     84  O   UNL A   1      36.355  32.109  30.100  1.00  0.00    -0.237 OA
ATOM     85  O   UNL A   1      35.320  30.198  28.918  1.00  0.00    -0.237 OA
ATOM     86  O   UNL A   1      35.947  29.984  31.291  1.00  0.00    -0.744 OA
ENDBRANCH  82  83
ENDBRANCH  50  75
BRANCH  62  87
ATOM     87  C   UNL A   1      46.546  32.498  28.357  1.00  0.00     0.058 A 
ATOM     88  C   UNL A   1      47.065  32.910  29.595  1.00  0.00     0.135 A 
ATOM     89  C   UNL A   1      46.501  33.444  27.319  1.00  0.00     0.135 A 
ATOM     90  F   UNL A   1      47.123  32.049  30.624  1.00  0.00    -0.206 F 
ATOM     91  C   UNL A   1      47.509  34.211  29.799  1.00  0.00     0.059 A 
ATOM     92  C   UNL A   1      46.969  34.742  27.492  1.00  0.00     0.059 A 
ATOM     93  F   UNL A   1      46.022  33.101  26.113  1.00  0.00    -0.206 F 
ATOM     94  C   UNL A   1      47.465  35.119  28.739  1.00  0.00     0.060 A 
BRANCH  94  95
ATOM     95  S   UNL A   1      48.093  36.791  29.006  1.00  0.00     0.124 S 
ATOM     96  O   UNL A   1      47.235  37.573  28.121  1.00  0.00    -0.237 OA
ATOM     97  O   UNL A   1      47.870  36.981  30.436  1.00  0.00    -0.237 OA
ATOM     98  O   UNL A   1      49.493  36.698  28.602  1.00  0.00    -0.744 OA
ENDBRANCH  94  95
ENDBRANCH  62  87
ENDBRANCH  36  37
ENDBRANCH  28  31
ENDBRANCH  26  27
ENDBRANCH  25  26
ENDBRANCH   1  25
TORSDOF 19
ENDMDL
MODEL 3
REMARK VINA RESULT:     -10.5      4.941     10.318
REMARK SMILES CC(C)[C@@H](ON1C(=O)c2ccccc2C1=O)C(=O)NCCCCCCNC(=O)c1ccc(-c2c3nc(c(-c4c(F)cc(S(=O)(=O)[O-])cc4F)c4ccc([nH]4)c(-c4c(F)cc(S(=O)(=O)[O-])cc4F)c4nc(c(-c5c(F)cc(S(=O)(=O)[O-])cc5F)c5ccc2[nH]5)C=C4)C=C3)cc1
REMARK SMILES IDX 23 1 22 2 21 3 20 4 19 5 17 6 18 7 4 9 2 10 1 11 3 12 5 13
REMARK SMILES IDX 6 14 7 15 15 16 8 17 9 18 14 19 16 20 10 21 13 22 11 23
REMARK SMILES IDX 12 24 24 25 25 26 26 27 27 28 28 30 29 31 30 32 94 33 31 34
REMARK SMILES IDX 93 35 32 36 33 37 34 38 87 39 35 40 92 41 86 42 88 43 36 44
REMARK SMILES IDX 91 45 85 46 84 47 37 49 71 50 50 51 70 52 51 53 54 54 69 55
REMARK SMILES IDX 89 56 52 57 53 58 68 60 90 61 55 62 38 63 39 64 48 65 40 66
REMARK SMILES IDX 41 67 47 68 49 69 42 70 43 71 44 72 45 73 46 74 72 75 73 76
REMARK SMILES IDX 82 77 74 78 75 79 81 80 83 81 76 82 77 83 78 84 79 85 80 86
REMARK SMILES IDX 56 87 57 88 66 89 58 90 59 91 65 92 67 93 60 94 61 95 62 96
REMARK SMILES IDX 63 97 64 98
REMARK H PARENT 19 8 26 29 88 48 54 59
REMARK Flexibility Score: inf
ROOT
ATOM      1  C   UNL A   1      38.110  21.924  25.728  1.00  0.00     0.002 C 
ENDROOT
BRANCH   1   2
ATOM      2  C   UNL A   1      37.493  21.183  24.538  1.00  0.00     0.002 C 
BRANCH   2   3
ATOM      3  C   UNL A   1      36.391  20.183  24.907  1.00  0.00     0.021 C 
BRANCH   3   4
ATOM      4  C   UNL A   1      34.986  20.791  24.925  1.00  0.00     0.116 C 
BRANCH   4   5
ATOM      5  N   UNL A   1      34.522  20.955  26.292  1.00  0.00    -0.354 N 
ATOM      6  C   UNL A   1      33.657  21.872  26.818  1.00  0.00     0.252 C 
ATOM      7  O   UNL A   1      33.481  21.856  28.041  1.00  0.00    -0.272 OA
ATOM      8  H   UNL A   1      34.888  20.307  26.937  1.00  0.00     0.163 HD
BRANCH   6   9
ATOM      9  C   UNL A   1      32.938  22.900  25.922  1.00  0.00     0.241 C 
BRANCH   9  10
ATOM     10  C   UNL A   1      31.606  22.334  25.353  1.00  0.00     0.024 C 
ATOM     11  C   UNL A   1      30.392  22.518  26.267  1.00  0.00     0.011 C 
ATOM     12  C   UNL A   1      31.290  22.975  23.995  1.00  0.00     0.011 C 
ENDBRANCH   9  10
BRANCH   9  13
ATOM     13  O   UNL A   1      32.850  24.046  26.784  1.00  0.00    -0.249 OA
BRANCH  13  14
ATOM     14  N   UNL A   1      32.689  25.254  26.117  1.00  0.00    -0.144 N 
ATOM     15  C   UNL A   1      33.684  25.683  25.288  1.00  0.00     0.285 C 
ATOM     16  C   UNL A   1      31.605  26.070  26.142  1.00  0.00     0.285 C 
ATOM     17  O   UNL A   1      34.756  25.178  25.014  1.00  0.00    -0.266 OA
ATOM     18  C   UNL A   1      33.228  26.975  24.778  1.00  0.00     0.055 A 
ATOM     19  C   UNL A   1      31.974  27.219  25.314  1.00  0.00     0.055 A 
ATOM     20  O   UNL A   1      30.538  25.978  26.715  1.00  0.00    -0.266 OA
ATOM     21  C   UNL A   1      33.869  27.892  23.970  1.00  0.00     0.015 A 
ATOM     22  C   UNL A   1      31.303  28.406  25.096  1.00  0.00     0.015 A 
ATOM     23  C   UNL A   1      33.206  29.100  23.730  1.00  0.00     0.001 A 
ATOM     24  C   UNL A   1      31.938  29.357  24.294  1.00  0.00     0.001 A 
ENDBRANCH  13  14
ENDBRANCH   9  13
ENDBRANCH   6   9
ENDBRANCH   4   5
ENDBRANCH   3   4
ENDBRANCH   2   3
ENDBRANCH   1   2
BRANCH   1  25
ATOM     25  C   UNL A   1      37.462  23.273  26.048  1.00  0.00     0.021 C 
BRANCH  25  26
ATOM     26  C   UNL A   1      38.453  24.419  26.223  1.00  0.00     0.116 C 
BRANCH  26  27
ATOM     27  N   UNL A   1      39.827  23.942  26.273  1.00  0.00    -0.352 N 
ATOM     28  C   UNL A   1      40.921  24.515  26.874  1.00  0.00     0.251 C 
ATOM     29  H   UNL A   1      39.997  23.088  25.813  1.00  0.00     0.163 HD
ATOM     30  O   UNL A   1      42.049  24.094  26.632  1.00  0.00    -0.269 OA
BRANCH  28  31
ATOM     31  C   UNL A   1      40.732  25.654  27.797  1.00  0.00     0.039 A 
ATOM     32  C   UNL A   1      39.675  25.620  28.708  1.00  0.00     0.014 A 
ATOM     33  C   UNL A   1      41.607  26.742  27.770  1.00  0.00     0.014 A 
ATOM     34  C   UNL A   1      39.540  26.648  29.644  1.00  0.00     0.010 A 
ATOM     35  C   UNL A   1      41.517  27.725  28.750  1.00  0.00     0.010 A 
ATOM     36  C   UNL A   1      40.486  27.687  29.701  1.00  0.00    -0.014 A 
BRANCH  36  37
ATOM     37  C   UNL A   1      40.431  28.725  30.763  1.00  0.00     0.031 A 
ATOM     38  C   UNL A   1      41.313  28.617  31.975  1.00  0.00     0.074 A 
ATOM     39  C   UNL A   1      39.530  29.724  30.666  1.00  0.00     0.049 A 
ATOM     40  N   UNL A   1      41.348  29.377  33.040  1.00  0.00    -0.248 NA
ATOM     41  C   UNL A   1      42.267  27.497  32.007  1.00  0.00     0.031 C 
ATOM     42  C   UNL A   1      38.591  29.911  29.558  1.00  0.00     0.029 A 
ATOM     43  N   UNL A   1      39.247  30.764  31.516  1.00  0.00    -0.354 N 
ATOM     44  C   UNL A   1      42.315  28.822  33.871  1.00  0.00     0.074 A 
ATOM     45  C   UNL A   1      42.805  27.632  33.210  1.00  0.00     0.031 C 
ATOM     46  C   UNL A   1      37.850  31.006  29.787  1.00  0.00     0.029 A 
ATOM     47  C   UNL A   1      38.225  31.573  31.078  1.00  0.00     0.049 A 
ATOM     48  H   UNL A   1      39.729  30.915  32.361  1.00  0.00     0.167 HD
ATOM     49  C   UNL A   1      42.766  29.276  35.065  1.00  0.00     0.037 A 
ATOM     50  C   UNL A   1      37.642  32.642  31.658  1.00  0.00     0.037 A 
ATOM     51  C   UNL A   1      42.279  30.469  35.708  1.00  0.00     0.049 A 
ATOM     52  C   UNL A   1      38.139  33.108  33.000  1.00  0.00     0.074 A 
ATOM     53  C   UNL A   1      42.709  31.043  36.892  1.00  0.00     0.029 A 
ATOM     54  N   UNL A   1      41.247  31.265  35.231  1.00  0.00    -0.354 N 
ATOM     55  N   UNL A   1      39.102  32.611  33.739  1.00  0.00    -0.248 NA
ATOM     56  C   UNL A   1      37.474  34.280  33.586  1.00  0.00     0.031 C 
ATOM     57  C   UNL A   1      41.898  32.150  37.160  1.00  0.00     0.029 A 
ATOM     58  C   UNL A   1      41.005  32.306  36.112  1.00  0.00     0.049 A 
ATOM     59  H   UNL A   1      40.759  31.113  34.389  1.00  0.00     0.167 HD
ATOM     60  C   UNL A   1      39.177  33.426  34.865  1.00  0.00     0.074 A 
ATOM     61  C   UNL A   1      38.170  34.454  34.700  1.00  0.00     0.031 C 
ATOM     62  C   UNL A   1      40.003  33.329  35.935  1.00  0.00     0.037 A 
BRANCH  49  63
ATOM     63  C   UNL A   1      43.839  28.480  35.759  1.00  0.00     0.058 A 
ATOM     64  C   UNL A   1      45.203  28.720  35.532  1.00  0.00     0.135 A 
ATOM     65  C   UNL A   1      43.498  27.491  36.699  1.00  0.00     0.135 A 
ATOM     66  F   UNL A   1      45.588  29.643  34.636  1.00  0.00    -0.206 F 
ATOM     67  C   UNL A   1      46.191  27.993  36.189  1.00  0.00     0.059 A 
ATOM     68  C   UNL A   1      44.469  26.773  37.391  1.00  0.00     0.059 A 
ATOM     69  F   UNL A   1      42.210  27.217  36.955  1.00  0.00    -0.206 F 
ATOM     70  C   UNL A   1      45.813  27.022  37.118  1.00  0.00     0.060 A 
BRANCH  70  71
ATOM     71  S   UNL A   1      47.109  26.095  37.966  1.00  0.00     0.124 S 
ATOM     72  O   UNL A   1      46.885  24.746  37.455  1.00  0.00    -0.237 OA
ATOM     73  O   UNL A   1      48.323  26.756  37.498  1.00  0.00    -0.237 OA
ATOM     74  O   UNL A   1      46.798  26.288  39.380  1.00  0.00    -0.744 OA
ENDBRANCH  70  71
ENDBRANCH  49  63
BRANCH  50  75
ATOM     75  C   UNL A   1      36.525  33.345  30.968  1.00  0.00     0.058 A 
ATOM     76  C   UNL A   1      35.205  33.230  31.427  1.00  0.00     0.135 A 
ATOM     77  C   UNL A   1      36.757  34.152  29.843  1.00  0.00     0.135 A 
ATOM     78  F   UNL A   1      34.930  32.464  32.493  1.00  0.00    -0.206 F 
ATOM     79  C   UNL A   1      34.151  33.875  30.787  1.00  0.00     0.059 A 
ATOM     80  C   UNL A   1      35.725  34.832  29.204  1.00  0.00     0.059 A 
ATOM     81  F   UNL A   1      38.004  34.308  29.371  1.00  0.00    -0.206 F 
ATOM     82  C   UNL A   1      34.422  34.677  29.677  1.00  0.00     0.060 A 
BRANCH  82  83
ATOM     83  S   UNL A   1      33.053  35.544  28.880  1.00  0.00     0.124 S 
ATOM     84  O   UNL A   1      33.760  36.543  28.088  1.00  0.00    -0.237 OA
ATOM     85  O   UNL A   1      32.409  34.471  28.130  1.00  0.00    -0.237 OA
ATOM     86  O   UNL A   1      32.282  36.062  30.007  1.00  0.00    -0.744 OA
ENDBRANCH  82  83
ENDBRANCH  50  75
BRANCH  62  87
ATOM     87  C   UNL A   1      39.884  34.382  37.005  1.00  0.00     0.058 A 
ATOM     88  C   UNL A   1      39.082  34.193  38.142  1.00  0.00     0.135 A 
ATOM     89  C   UNL A   1      40.637  35.565  36.924  1.00  0.00     0.135 A 
ATOM     90  F   UNL A   1      38.335  33.084  38.266  1.00  0.00    -0.206 F 
ATOM     91  C   UNL A   1      39.018  35.147  39.151  1.00  0.00     0.059 A 
ATOM     92  C   UNL A   1      40.613  36.518  37.937  1.00  0.00     0.059 A 
ATOM     93  F   UNL A   1      41.427  35.792  35.863  1.00  0.00    -0.206 F 
ATOM     94  C   UNL A   1      39.793  36.304  39.044  1.00  0.00     0.060 A 
BRANCH  94  95
ATOM     95  S   UNL A   1      39.739  37.508  40.388  1.00  0.00     0.124 S 
ATOM     96  O   UNL A   1      40.755  38.468  39.965  1.00  0.00    -0.237 OA
ATOM     97  O   UNL A   1      38.359  37.979  40.326  1.00  0.00    -0.237 OA
ATOM     98  O   UNL A   1      40.075  36.719  41.569  1.00  0.00    -0.744 OA
ENDBRANCH  94  95
ENDBRANCH  62  87
ENDBRANCH  36  37
ENDBRANCH  28  31
ENDBRANCH  26  27
ENDBRANCH  25  26
ENDBRANCH   1  25
TORSDOF 19
ENDMDL
