MODEL 1
REMARK VINA RESULT:     -11.2      0.000      0.000
REMARK SMILES CN(C(=O)c1cccn1CC(=O)NCCCCCCNC(=O)c1ccc(-c2c3nc(c(-c4c(F)cc(S(=O)(=O)[O-])cc4F)c4ccc([nH]4)c(-c4c(F)cc(S(=O)(=O)[O-])cc4F)c4nc(c(-c5c(F)cc(S(=O)(=O)[O-])cc5F)c5ccc2[nH]5)C=C4)C=C3)cc1)C1CCC(C)(C)CC1
REMARK SMILES IDX 16 1 15 2 14 3 13 4 11 5 12 6 10 8 9 9 5 10 6 11 7 12 8 13
REMARK SMILES IDX 3 14 4 15 2 16 1 17 89 18 90 19 96 20 91 21 95 22 92 23
REMARK SMILES IDX 93 24 94 25 17 26 18 27 19 28 20 29 21 30 22 32 23 33 24 34
REMARK SMILES IDX 88 35 25 36 87 37 26 38 27 39 28 40 81 41 29 42 86 43 80 44
REMARK SMILES IDX 82 45 30 46 85 47 79 48 78 49 31 51 65 52 44 53 64 54 45 55
REMARK SMILES IDX 48 56 63 57 83 58 46 59 47 60 62 62 84 63 49 64 32 65 33 66
REMARK SMILES IDX 42 67 34 68 35 69 41 70 43 71 36 72 37 73 38 74 39 75 40 76
REMARK SMILES IDX 66 77 67 78 76 79 68 80 69 81 75 82 77 83 70 84 71 85 72 86
REMARK SMILES IDX 73 87 74 88 50 89 51 90 60 91 52 92 53 93 59 94 61 95 54 96
REMARK SMILES IDX 55 97 56 98 57 99 58 100
REMARK H PARENT 13 7 20 31 82 50 48 61
REMARK Flexibility Score: inf
ROOT
ATOM      1  C   UNL A   1      40.711  20.816  27.371  1.00  0.00     0.002 C 
ENDROOT
BRANCH   1   2
ATOM      2  C   UNL A   1      39.834  20.901  26.119  1.00  0.00     0.021 C 
BRANCH   2   3
ATOM      3  C   UNL A   1      38.751  21.976  26.196  1.00  0.00     0.116 C 
BRANCH   3   4
ATOM      4  N   UNL A   1      38.244  22.305  24.879  1.00  0.00    -0.355 N 
ATOM      5  C   UNL A   1      36.954  22.541  24.495  1.00  0.00     0.239 C 
ATOM      6  O   UNL A   1      36.734  22.742  23.297  1.00  0.00    -0.273 OA
ATOM      7  H   UNL A   1      38.919  22.365  24.166  1.00  0.00     0.163 HD
BRANCH   5   8
ATOM      8  C   UNL A   1      35.852  22.650  25.530  1.00  0.00     0.222 C 
BRANCH   8   9
ATOM      9  N   UNL A   1      34.641  21.911  25.197  1.00  0.00    -0.334 N 
ATOM     10  C   UNL A   1      33.356  22.427  25.073  1.00  0.00     0.107 A 
ATOM     11  C   UNL A   1      32.555  21.369  24.658  1.00  0.00     0.033 A 
ATOM     12  C   UNL A   1      33.340  20.196  24.619  1.00  0.00     0.020 A 
ATOM     13  C   UNL A   1      34.624  20.559  24.943  1.00  0.00     0.087 A 
BRANCH  10  14
ATOM     14  C   UNL A   1      32.987  23.821  25.314  1.00  0.00     0.270 C 
ATOM     15  O   UNL A   1      32.720  24.208  26.447  1.00  0.00    -0.267 OA
BRANCH  14  16
ATOM     16  N   UNL A   1      32.876  24.691  24.205  1.00  0.00    -0.337 N 
ATOM     17  C   UNL A   1      34.064  25.156  23.490  1.00  0.00     0.147 C 
BRANCH  16  18
ATOM     18  C   UNL A   1      31.540  24.852  23.561  1.00  0.00     0.085 C 
ATOM     19  C   UNL A   1      30.422  25.292  24.532  1.00  0.00     0.026 C 
ATOM     20  C   UNL A   1      31.486  25.804  22.341  1.00  0.00     0.026 C 
ATOM     21  C   UNL A   1      30.573  26.746  24.968  1.00  0.00     0.008 C 
ATOM     22  C   UNL A   1      31.597  27.287  22.713  1.00  0.00     0.008 C 
ATOM     23  C   UNL A   1      30.587  27.740  23.787  1.00  0.00    -0.035 C 
ATOM     24  C   UNL A   1      31.001  29.125  24.318  1.00  0.00     0.011 C 
ATOM     25  C   UNL A   1      29.182  27.869  23.165  1.00  0.00     0.011 C 
ENDBRANCH  16  18
ENDBRANCH  14  16
ENDBRANCH  10  14
ENDBRANCH   8   9
ENDBRANCH   5   8
ENDBRANCH   3   4
ENDBRANCH   2   3
ENDBRANCH   1   2
BRANCH   1  26
ATOM     26  C   UNL A   1      41.916  19.875  27.246  1.00  0.00     0.002 C 
BRANCH  26  27
ATOM     27  C   UNL A   1      42.331  19.529  25.806  1.00  0.00     0.021 C 
BRANCH  27  28
ATOM     28  C   UNL A   1      43.845  19.572  25.577  1.00  0.00     0.116 C 
BRANCH  28  29
ATOM     29  N   UNL A   1      44.165  20.558  24.560  1.00  0.00    -0.352 N 
ATOM     30  C   UNL A   1      44.135  21.925  24.592  1.00  0.00     0.251 C 
ATOM     31  H   UNL A   1      44.454  20.178  23.699  1.00  0.00     0.163 HD
ATOM     32  O   UNL A   1      44.068  22.524  23.519  1.00  0.00    -0.269 OA
BRANCH  30  33
ATOM     33  C   UNL A   1      44.177  22.700  25.852  1.00  0.00     0.039 A 
ATOM     34  C   UNL A   1      45.402  22.746  26.534  1.00  0.00     0.014 A 
ATOM     35  C   UNL A   1      43.038  23.271  26.431  1.00  0.00     0.014 A 
ATOM     36  C   UNL A   1      45.501  23.402  27.756  1.00  0.00     0.010 A 
ATOM     37  C   UNL A   1      43.133  23.938  27.654  1.00  0.00     0.010 A 
ATOM     38  C   UNL A   1      44.372  24.025  28.302  1.00  0.00    -0.014 A 
BRANCH  38  39
ATOM     39  C   UNL A   1      44.576  24.975  29.424  1.00  0.00     0.031 A 
ATOM     40  C   UNL A   1      44.973  26.379  28.873  1.00  0.00     0.074 A 
ATOM     41  C   UNL A   1      44.435  24.472  30.694  1.00  0.00     0.049 A 
ATOM     42  N   UNL A   1      45.717  27.318  29.380  1.00  0.00    -0.248 NA
ATOM     43  C   UNL A   1      44.542  26.754  27.491  1.00  0.00     0.031 C 
ATOM     44  C   UNL A   1      43.988  23.095  31.020  1.00  0.00     0.029 A 
ATOM     45  N   UNL A   1      44.625  24.986  31.963  1.00  0.00    -0.354 N 
ATOM     46  C   UNL A   1      45.654  28.441  28.510  1.00  0.00     0.074 A 
ATOM     47  C   UNL A   1      45.028  27.984  27.311  1.00  0.00     0.031 C 
ATOM     48  C   UNL A   1      44.034  22.866  32.353  1.00  0.00     0.029 A 
ATOM     49  C   UNL A   1      44.498  24.055  33.039  1.00  0.00     0.049 A 
ATOM     50  H   UNL A   1      44.835  25.935  32.116  1.00  0.00     0.167 HD
ATOM     51  C   UNL A   1      45.989  29.713  28.888  1.00  0.00     0.037 A 
ATOM     52  C   UNL A   1      44.807  24.222  34.368  1.00  0.00     0.037 A 
ATOM     53  C   UNL A   1      46.444  29.694  30.233  1.00  0.00     0.049 A 
ATOM     54  C   UNL A   1      45.175  25.641  34.474  1.00  0.00     0.074 A 
ATOM     55  C   UNL A   1      47.622  29.315  30.818  1.00  0.00     0.029 A 
ATOM     56  N   UNL A   1      45.482  29.838  31.201  1.00  0.00    -0.354 N 
ATOM     57  N   UNL A   1      44.341  26.634  34.419  1.00  0.00    -0.248 NA
ATOM     58  C   UNL A   1      46.603  25.982  34.515  1.00  0.00     0.031 C 
ATOM     59  C   UNL A   1      47.214  28.790  32.060  1.00  0.00     0.029 A 
ATOM     60  C   UNL A   1      45.851  29.045  32.256  1.00  0.00     0.049 A 
ATOM     61  H   UNL A   1      44.679  30.404  31.146  1.00  0.00     0.167 HD
ATOM     62  C   UNL A   1      45.158  27.688  34.095  1.00  0.00     0.074 A 
ATOM     63  C   UNL A   1      46.500  27.306  34.475  1.00  0.00     0.031 C 
ATOM     64  C   UNL A   1      44.799  28.554  33.116  1.00  0.00     0.037 A 
BRANCH  51  65
ATOM     65  C   UNL A   1      45.731  31.086  28.305  1.00  0.00     0.058 A 
ATOM     66  C   UNL A   1      44.377  31.456  28.079  1.00  0.00     0.135 A 
ATOM     67  C   UNL A   1      46.691  31.839  27.616  1.00  0.00     0.135 A 
ATOM     68  F   UNL A   1      43.380  30.874  28.768  1.00  0.00    -0.206 F 
ATOM     69  C   UNL A   1      43.997  32.355  27.090  1.00  0.00     0.059 A 
ATOM     70  C   UNL A   1      46.330  32.792  26.654  1.00  0.00     0.059 A 
ATOM     71  F   UNL A   1      48.001  31.622  27.797  1.00  0.00    -0.206 F 
ATOM     72  C   UNL A   1      44.983  32.987  26.348  1.00  0.00     0.060 A 
BRANCH  72  73
ATOM     73  S   UNL A   1      44.472  34.032  24.967  1.00  0.00     0.124 S 
ATOM     74  O   UNL A   1      44.044  33.040  23.987  1.00  0.00    -0.237 OA
ATOM     75  O   UNL A   1      43.406  34.834  25.561  1.00  0.00    -0.237 OA
ATOM     76  O   UNL A   1      45.688  34.769  24.639  1.00  0.00    -0.744 OA
ENDBRANCH  72  73
ENDBRANCH  51  65
BRANCH  52  77
ATOM     77  C   UNL A   1      45.026  23.380  35.622  1.00  0.00     0.058 A 
ATOM     78  C   UNL A   1      45.595  22.101  35.685  1.00  0.00     0.135 A 
ATOM     79  C   UNL A   1      44.757  23.944  36.907  1.00  0.00     0.135 A 
ATOM     80  F   UNL A   1      45.741  21.360  34.579  1.00  0.00    -0.206 F 
ATOM     81  C   UNL A   1      46.040  21.528  36.898  1.00  0.00     0.059 A 
ATOM     82  C   UNL A   1      45.238  23.430  38.109  1.00  0.00     0.059 A 
ATOM     83  F   UNL A   1      44.030  25.060  37.052  1.00  0.00    -0.206 F 
ATOM     84  C   UNL A   1      45.921  22.234  38.095  1.00  0.00     0.060 A 
BRANCH  84  85
ATOM     85  S   UNL A   1      46.763  21.687  39.601  1.00  0.00     0.124 S 
ATOM     86  O   UNL A   1      45.650  21.473  40.517  1.00  0.00    -0.237 OA
ATOM     87  O   UNL A   1      47.461  20.487  39.153  1.00  0.00    -0.237 OA
ATOM     88  O   UNL A   1      47.635  22.816  39.923  1.00  0.00    -0.744 OA
ENDBRANCH  84  85
ENDBRANCH  52  77
BRANCH  64  89
ATOM     89  C   UNL A   1      43.307  28.614  32.826  1.00  0.00     0.058 A 
ATOM     90  C   UNL A   1      42.435  29.177  33.769  1.00  0.00     0.135 A 
ATOM     91  C   UNL A   1      42.698  28.068  31.680  1.00  0.00     0.135 A 
ATOM     92  F   UNL A   1      42.930  29.718  34.893  1.00  0.00    -0.206 F 
ATOM     93  C   UNL A   1      41.049  29.206  33.581  1.00  0.00     0.059 A 
ATOM     94  C   UNL A   1      41.318  28.090  31.461  1.00  0.00     0.059 A 
ATOM     95  F   UNL A   1      43.437  27.491  30.733  1.00  0.00    -0.206 F 
ATOM     96  C   UNL A   1      40.496  28.664  32.421  1.00  0.00     0.060 A 
BRANCH  96  97
ATOM     97  S   UNL A   1      38.705  28.737  32.179  1.00  0.00     0.124 S 
ATOM     98  O   UNL A   1      38.585  28.738  30.725  1.00  0.00    -0.237 OA
ATOM     99  O   UNL A   1      38.256  27.521  32.850  1.00  0.00    -0.237 OA
ATOM    100  O   UNL A   1      38.317  29.986  32.833  1.00  0.00    -0.744 OA
ENDBRANCH  96  97
ENDBRANCH  64  89
ENDBRANCH  38  39
ENDBRANCH  30  33
ENDBRANCH  28  29
ENDBRANCH  27  28
ENDBRANCH  26  27
ENDBRANCH   1  26
TORSDOF 20
ENDMDL
MODEL 2
REMARK VINA RESULT:     -11.1      3.901      6.970
REMARK SMILES CN(C(=O)c1cccn1CC(=O)NCCCCCCNC(=O)c1ccc(-c2c3nc(c(-c4c(F)cc(S(=O)(=O)[O-])cc4F)c4ccc([nH]4)c(-c4c(F)cc(S(=O)(=O)[O-])cc4F)c4nc(c(-c5c(F)cc(S(=O)(=O)[O-])cc5F)c5ccc2[nH]5)C=C4)C=C3)cc1)C1CCC(C)(C)CC1
REMARK SMILES IDX 16 1 15 2 14 3 13 4 11 5 12 6 10 8 9 9 5 10 6 11 7 12 8 13
REMARK SMILES IDX 3 14 4 15 2 16 1 17 89 18 90 19 96 20 91 21 95 22 92 23
REMARK SMILES IDX 93 24 94 25 17 26 18 27 19 28 20 29 21 30 22 32 23 33 24 34
REMARK SMILES IDX 88 35 25 36 87 37 26 38 27 39 28 40 81 41 29 42 86 43 80 44
REMARK SMILES IDX 82 45 30 46 85 47 79 48 78 49 31 51 65 52 44 53 64 54 45 55
REMARK SMILES IDX 48 56 63 57 83 58 46 59 47 60 62 62 84 63 49 64 32 65 33 66
REMARK SMILES IDX 42 67 34 68 35 69 41 70 43 71 36 72 37 73 38 74 39 75 40 76
REMARK SMILES IDX 66 77 67 78 76 79 68 80 69 81 75 82 77 83 70 84 71 85 72 86
REMARK SMILES IDX 73 87 74 88 50 89 51 90 60 91 52 92 53 93 59 94 61 95 54 96
REMARK SMILES IDX 55 97 56 98 57 99 58 100
REMARK H PARENT 13 7 20 31 82 50 48 61
REMARK Flexibility Score: inf
ROOT
ATOM      1  C   UNL A   1      37.902  23.200  25.660  1.00  0.00     0.002 C 
ENDROOT
BRANCH   1   2
ATOM      2  C   UNL A   1      36.497  22.599  25.555  1.00  0.00     0.021 C 
BRANCH   2   3
ATOM      3  C   UNL A   1      35.395  23.509  26.095  1.00  0.00     0.116 C 
BRANCH   3   4
ATOM      4  N   UNL A   1      34.672  22.870  27.177  1.00  0.00    -0.355 N 
ATOM      5  C   UNL A   1      33.322  22.782  27.367  1.00  0.00     0.239 C 
ATOM      6  O   UNL A   1      32.916  22.244  28.400  1.00  0.00    -0.273 OA
ATOM      7  H   UNL A   1      35.229  22.443  27.867  1.00  0.00     0.163 HD
BRANCH   5   8
ATOM      8  C   UNL A   1      32.363  23.246  26.289  1.00  0.00     0.222 C 
BRANCH   8   9
ATOM      9  N   UNL A   1      32.322  22.388  25.111  1.00  0.00    -0.334 N 
ATOM     10  C   UNL A   1      31.931  22.751  23.827  1.00  0.00     0.107 A 
ATOM     11  C   UNL A   1      32.144  21.632  23.030  1.00  0.00     0.033 A 
ATOM     12  C   UNL A   1      32.577  20.568  23.851  1.00  0.00     0.020 A 
ATOM     13  C   UNL A   1      32.692  21.063  25.126  1.00  0.00     0.087 A 
BRANCH  10  14
ATOM     14  C   UNL A   1      31.432  24.072  23.446  1.00  0.00     0.270 C 
ATOM     15  O   UNL A   1      30.253  24.229  23.145  1.00  0.00    -0.267 OA
BRANCH  14  16
ATOM     16  N   UNL A   1      32.351  25.142  23.364  1.00  0.00    -0.337 N 
ATOM     17  C   UNL A   1      33.751  24.909  23.009  1.00  0.00     0.147 C 
BRANCH  16  18
ATOM     18  C   UNL A   1      31.816  26.533  23.301  1.00  0.00     0.085 C 
ATOM     19  C   UNL A   1      31.099  26.991  24.591  1.00  0.00     0.026 C 
ATOM     20  C   UNL A   1      32.837  27.636  22.930  1.00  0.00     0.026 C 
ATOM     21  C   UNL A   1      32.074  27.239  25.737  1.00  0.00     0.008 C 
ATOM     22  C   UNL A   1      33.827  27.961  24.055  1.00  0.00     0.008 C 
ATOM     23  C   UNL A   1      33.155  28.289  25.404  1.00  0.00    -0.035 C 
ATOM     24  C   UNL A   1      34.219  28.265  26.517  1.00  0.00     0.011 C 
ATOM     25  C   UNL A   1      32.546  29.705  25.357  1.00  0.00     0.011 C 
ENDBRANCH  16  18
ENDBRANCH  14  16
ENDBRANCH  10  14
ENDBRANCH   8   9
ENDBRANCH   5   8
ENDBRANCH   3   4
ENDBRANCH   2   3
ENDBRANCH   1   2
BRANCH   1  26
ATOM     26  C   UNL A   1      38.960  22.256  26.246  1.00  0.00     0.002 C 
BRANCH  26  27
ATOM     27  C   UNL A   1      39.283  21.021  25.388  1.00  0.00     0.021 C 
BRANCH  27  28
ATOM     28  C   UNL A   1      39.104  19.694  26.132  1.00  0.00     0.116 C 
BRANCH  28  29
ATOM     29  N   UNL A   1      40.314  18.899  26.027  1.00  0.00    -0.352 N 
ATOM     30  C   UNL A   1      41.630  19.267  25.970  1.00  0.00     0.251 C 
ATOM     31  H   UNL A   1      40.162  17.927  25.991  1.00  0.00     0.163 HD
ATOM     32  O   UNL A   1      42.432  18.462  25.495  1.00  0.00    -0.269 OA
BRANCH  30  33
ATOM     33  C   UNL A   1      42.119  20.579  26.448  1.00  0.00     0.039 A 
ATOM     34  C   UNL A   1      42.733  21.415  25.504  1.00  0.00     0.014 A 
ATOM     35  C   UNL A   1      42.097  20.953  27.797  1.00  0.00     0.014 A 
ATOM     36  C   UNL A   1      43.272  22.636  25.893  1.00  0.00     0.010 A 
ATOM     37  C   UNL A   1      42.629  22.181  28.192  1.00  0.00     0.010 A 
ATOM     38  C   UNL A   1      43.193  23.033  27.233  1.00  0.00    -0.014 A 
BRANCH  38  39
ATOM     39  C   UNL A   1      43.482  24.453  27.557  1.00  0.00     0.031 A 
ATOM     40  C   UNL A   1      42.150  25.261  27.657  1.00  0.00     0.074 A 
ATOM     41  C   UNL A   1      44.804  24.808  27.661  1.00  0.00     0.049 A 
ATOM     42  N   UNL A   1      41.885  26.508  27.402  1.00  0.00    -0.248 NA
ATOM     43  C   UNL A   1      40.895  24.531  28.014  1.00  0.00     0.031 C 
ATOM     44  C   UNL A   1      45.947  23.867  27.586  1.00  0.00     0.029 A 
ATOM     45  N   UNL A   1      45.470  26.005  27.849  1.00  0.00    -0.354 N 
ATOM     46  C   UNL A   1      40.535  26.752  27.775  1.00  0.00     0.074 A 
ATOM     47  C   UNL A   1      39.949  25.472  28.015  1.00  0.00     0.031 C 
ATOM     48  C   UNL A   1      47.129  24.524  27.631  1.00  0.00     0.029 A 
ATOM     49  C   UNL A   1      46.894  25.948  27.750  1.00  0.00     0.049 A 
ATOM     50  H   UNL A   1      44.993  26.844  28.039  1.00  0.00     0.167 HD
ATOM     51  C   UNL A   1      40.025  28.001  28.002  1.00  0.00     0.037 A 
ATOM     52  C   UNL A   1      47.800  26.982  27.706  1.00  0.00     0.037 A 
ATOM     53  C   UNL A   1      41.034  28.969  27.755  1.00  0.00     0.049 A 
ATOM     54  C   UNL A   1      46.982  28.183  27.925  1.00  0.00     0.074 A 
ATOM     55  C   UNL A   1      41.561  29.500  26.610  1.00  0.00     0.029 A 
ATOM     56  N   UNL A   1      41.843  29.285  28.818  1.00  0.00    -0.354 N 
ATOM     57  N   UNL A   1      46.458  28.532  29.060  1.00  0.00    -0.248 NA
ATOM     58  C   UNL A   1      46.614  28.990  26.755  1.00  0.00     0.031 C 
ATOM     59  C   UNL A   1      42.911  29.722  26.946  1.00  0.00     0.029 A 
ATOM     60  C   UNL A   1      43.101  29.502  28.316  1.00  0.00     0.049 A 
ATOM     61  H   UNL A   1      41.571  29.346  29.761  1.00  0.00     0.167 HD
ATOM     62  C   UNL A   1      45.458  29.389  28.673  1.00  0.00     0.074 A 
ATOM     63  C   UNL A   1      45.803  29.858  27.349  1.00  0.00     0.031 C 
ATOM     64  C   UNL A   1      44.216  29.274  29.203  1.00  0.00     0.037 A 
BRANCH  51  65
ATOM     65  C   UNL A   1      38.777  28.518  28.686  1.00  0.00     0.058 A 
ATOM     66  C   UNL A   1      38.067  29.567  28.042  1.00  0.00     0.135 A 
ATOM     67  C   UNL A   1      38.496  28.338  30.047  1.00  0.00     0.135 A 
ATOM     68  F   UNL A   1      38.176  29.762  26.717  1.00  0.00    -0.206 F 
ATOM     69  C   UNL A   1      37.302  30.497  28.738  1.00  0.00     0.059 A 
ATOM     70  C   UNL A   1      37.682  29.232  30.757  1.00  0.00     0.059 A 
ATOM     71  F   UNL A   1      39.059  27.342  30.743  1.00  0.00    -0.206 F 
ATOM     72  C   UNL A   1      37.153  30.347  30.108  1.00  0.00     0.060 A 
BRANCH  72  73
ATOM     73  S   UNL A   1      36.288  31.644  31.018  1.00  0.00     0.124 S 
ATOM     74  O   UNL A   1      35.981  30.970  32.275  1.00  0.00    -0.237 OA
ATOM     75  O   UNL A   1      37.298  32.696  31.097  1.00  0.00    -0.237 OA
ATOM     76  O   UNL A   1      35.146  31.949  30.162  1.00  0.00    -0.744 OA
ENDBRANCH  72  73
ENDBRANCH  51  65
BRANCH  52  77
ATOM     77  C   UNL A   1      49.263  27.225  27.349  1.00  0.00     0.058 A 
ATOM     78  C   UNL A   1      50.223  27.872  28.137  1.00  0.00     0.135 A 
ATOM     79  C   UNL A   1      49.803  26.652  26.156  1.00  0.00     0.135 A 
ATOM     80  F   UNL A   1      49.859  28.614  29.191  1.00  0.00    -0.206 F 
ATOM     81  C   UNL A   1      51.609  27.783  27.871  1.00  0.00     0.059 A 
ATOM     82  C   UNL A   1      51.163  26.498  25.901  1.00  0.00     0.059 A 
ATOM     83  F   UNL A   1      49.016  26.176  25.181  1.00  0.00    -0.206 F 
ATOM     84  C   UNL A   1      52.071  27.032  26.790  1.00  0.00     0.060 A 
BRANCH  84  85
ATOM     85  S   UNL A   1      53.824  26.622  26.605  1.00  0.00     0.124 S 
ATOM     86  O   UNL A   1      54.159  27.264  25.340  1.00  0.00    -0.237 OA
ATOM     87  O   UNL A   1      54.414  27.219  27.799  1.00  0.00    -0.237 OA
ATOM     88  O   UNL A   1      53.824  25.161  26.589  1.00  0.00    -0.744 OA
ENDBRANCH  84  85
ENDBRANCH  52  77
BRANCH  64  89
ATOM     89  C   UNL A   1      44.157  28.575  30.553  1.00  0.00     0.058 A 
ATOM     90  C   UNL A   1      44.656  29.219  31.695  1.00  0.00     0.135 A 
ATOM     91  C   UNL A   1      43.691  27.261  30.747  1.00  0.00     0.135 A 
ATOM     92  F   UNL A   1      45.123  30.473  31.600  1.00  0.00    -0.206 F 
ATOM     93  C   UNL A   1      44.679  28.603  32.950  1.00  0.00     0.059 A 
ATOM     94  C   UNL A   1      43.694  26.622  31.991  1.00  0.00     0.059 A 
ATOM     95  F   UNL A   1      43.215  26.555  29.722  1.00  0.00    -0.206 F 
ATOM     96  C   UNL A   1      44.192  27.303  33.093  1.00  0.00     0.060 A 
BRANCH  96  97
ATOM     97  S   UNL A   1      44.202  26.531  34.729  1.00  0.00     0.124 S 
ATOM     98  O   UNL A   1      45.532  25.933  34.784  1.00  0.00    -0.237 OA
ATOM     99  O   UNL A   1      43.987  27.676  35.608  1.00  0.00    -0.237 OA
ATOM    100  O   UNL A   1      43.096  25.577  34.669  1.00  0.00    -0.744 OA
ENDBRANCH  96  97
ENDBRANCH  64  89
ENDBRANCH  38  39
ENDBRANCH  30  33
ENDBRANCH  28  29
ENDBRANCH  27  28
ENDBRANCH  26  27
ENDBRANCH   1  26
TORSDOF 20
ENDMDL
MODEL 3
REMARK VINA RESULT:     -10.9      4.197      8.129
REMARK SMILES CN(C(=O)c1cccn1CC(=O)NCCCCCCNC(=O)c1ccc(-c2c3nc(c(-c4c(F)cc(S(=O)(=O)[O-])cc4F)c4ccc([nH]4)c(-c4c(F)cc(S(=O)(=O)[O-])cc4F)c4nc(c(-c5c(F)cc(S(=O)(=O)[O-])cc5F)c5ccc2[nH]5)C=C4)C=C3)cc1)C1CCC(C)(C)CC1
REMARK SMILES IDX 16 1 15 2 14 3 13 4 11 5 12 6 10 8 9 9 5 10 6 11 7 12 8 13
REMARK SMILES IDX 3 14 4 15 2 16 1 17 89 18 90 19 96 20 91 21 95 22 92 23
REMARK SMILES IDX 93 24 94 25 17 26 18 27 19 28 20 29 21 30 22 32 23 33 24 34
REMARK SMILES IDX 88 35 25 36 87 37 26 38 27 39 28 40 81 41 29 42 86 43 80 44
REMARK SMILES IDX 82 45 30 46 85 47 79 48 78 49 31 51 65 52 44 53 64 54 45 55
REMARK SMILES IDX 48 56 63 57 83 58 46 59 47 60 62 62 84 63 49 64 32 65 33 66
REMARK SMILES IDX 42 67 34 68 35 69 41 70 43 71 36 72 37 73 38 74 39 75 40 76
REMARK SMILES IDX 66 77 67 78 76 79 68 80 69 81 75 82 77 83 70 84 71 85 72 86
REMARK SMILES IDX 73 87 74 88 50 89 51 90 60 91 52 92 53 93 59 94 61 95 54 96
REMARK SMILES IDX 55 97 56 98 57 99 58 100
REMARK H PARENT 13 7 20 31 82 50 48 61
REMARK Flexibility Score: inf
ROOT
ATOM      1  C   UNL A   1      35.784  21.686  24.592  1.00  0.00     0.002 C 
ENDROOT
BRANCH   1   2
ATOM      2  C   UNL A   1      35.452  21.463  26.071  1.00  0.00     0.021 C 
BRANCH   2   3
ATOM      3  C   UNL A   1      34.956  22.719  26.788  1.00  0.00     0.116 C 
BRANCH   3   4
ATOM      4  N   UNL A   1      33.667  22.490  27.410  1.00  0.00    -0.355 N 
ATOM      5  C   UNL A   1      32.453  23.025  27.081  1.00  0.00     0.239 C 
ATOM      6  O   UNL A   1      31.485  22.743  27.792  1.00  0.00    -0.273 OA
ATOM      7  H   UNL A   1      33.666  21.867  28.172  1.00  0.00     0.163 HD
BRANCH   5   8
ATOM      8  C   UNL A   1      32.296  23.858  25.825  1.00  0.00     0.222 C 
BRANCH   8   9
ATOM      9  N   UNL A   1      32.345  23.091  24.586  1.00  0.00    -0.334 N 
ATOM     10  C   UNL A   1      32.905  23.492  23.378  1.00  0.00     0.107 A 
ATOM     11  C   UNL A   1      32.794  22.401  22.523  1.00  0.00     0.033 A 
ATOM     12  C   UNL A   1      32.087  21.375  23.187  1.00  0.00     0.020 A 
ATOM     13  C   UNL A   1      31.834  21.820  24.461  1.00  0.00     0.087 A 
BRANCH  10  14
ATOM     14  C   UNL A   1      33.503  24.802  23.126  1.00  0.00     0.270 C 
ATOM     15  O   UNL A   1      34.717  24.957  23.202  1.00  0.00    -0.267 OA
BRANCH  14  16
ATOM     16  N   UNL A   1      32.647  25.895  22.864  1.00  0.00    -0.337 N 
ATOM     17  C   UNL A   1      31.854  25.956  21.636  1.00  0.00     0.147 C 
BRANCH  16  18
ATOM     18  C   UNL A   1      32.294  26.807  23.992  1.00  0.00     0.085 C 
ATOM     19  C   UNL A   1      32.853  28.239  23.841  1.00  0.00     0.026 C 
ATOM     20  C   UNL A   1      30.785  26.936  24.313  1.00  0.00     0.026 C 
ATOM     21  C   UNL A   1      32.130  29.031  22.755  1.00  0.00     0.008 C 
ATOM     22  C   UNL A   1      30.004  27.753  23.277  1.00  0.00     0.008 C 
ATOM     23  C   UNL A   1      30.609  29.142  22.991  1.00  0.00    -0.035 C 
ATOM     24  C   UNL A   1      29.960  29.724  21.721  1.00  0.00     0.011 C 
ATOM     25  C   UNL A   1      30.306  30.098  24.162  1.00  0.00     0.011 C 
ENDBRANCH  16  18
ENDBRANCH  14  16
ENDBRANCH  10  14
ENDBRANCH   8   9
ENDBRANCH   5   8
ENDBRANCH   3   4
ENDBRANCH   2   3
ENDBRANCH   1   2
BRANCH   1  26
ATOM     26  C   UNL A   1      37.276  21.887  24.295  1.00  0.00     0.002 C 
BRANCH  26  27
ATOM     27  C   UNL A   1      38.239  21.208  25.283  1.00  0.00     0.021 C 
BRANCH  27  28
ATOM     28  C   UNL A   1      39.112  22.194  26.064  1.00  0.00     0.116 C 
BRANCH  28  29
ATOM     29  N   UNL A   1      40.516  21.914  25.822  1.00  0.00    -0.352 N 
ATOM     30  C   UNL A   1      41.608  22.738  25.808  1.00  0.00     0.251 C 
ATOM     31  H   UNL A   1      40.717  20.969  25.635  1.00  0.00     0.163 HD
ATOM     32  O   UNL A   1      42.610  22.354  25.203  1.00  0.00    -0.269 OA
BRANCH  30  33
ATOM     33  C   UNL A   1      41.629  24.055  26.481  1.00  0.00     0.039 A 
ATOM     34  C   UNL A   1      41.251  24.089  27.831  1.00  0.00     0.014 A 
ATOM     35  C   UNL A   1      41.889  25.252  25.802  1.00  0.00     0.014 A 
ATOM     36  C   UNL A   1      41.186  25.301  28.512  1.00  0.00     0.010 A 
ATOM     37  C   UNL A   1      41.833  26.469  26.482  1.00  0.00     0.010 A 
ATOM     38  C   UNL A   1      41.507  26.489  27.844  1.00  0.00    -0.014 A 
BRANCH  38  39
ATOM     39  C   UNL A   1      41.738  27.706  28.661  1.00  0.00     0.031 A 
ATOM     40  C   UNL A   1      43.157  27.655  29.309  1.00  0.00     0.074 A 
ATOM     41  C   UNL A   1      40.701  28.602  28.746  1.00  0.00     0.049 A 
ATOM     42  N   UNL A   1      43.605  28.142  30.429  1.00  0.00    -0.248 NA
ATOM     43  C   UNL A   1      44.223  26.851  28.635  1.00  0.00     0.031 C 
ATOM     44  C   UNL A   1      39.424  28.499  27.998  1.00  0.00     0.029 A 
ATOM     45  N   UNL A   1      40.489  29.769  29.455  1.00  0.00    -0.354 N 
ATOM     46  C   UNL A   1      45.006  27.907  30.476  1.00  0.00     0.074 A 
ATOM     47  C   UNL A   1      45.296  26.998  29.414  1.00  0.00     0.031 C 
ATOM     48  C   UNL A   1      38.564  29.480  28.357  1.00  0.00     0.029 A 
ATOM     49  C   UNL A   1      39.178  30.328  29.357  1.00  0.00     0.049 A 
ATOM     50  H   UNL A   1      41.197  30.189  29.994  1.00  0.00     0.167 HD
ATOM     51  C   UNL A   1      45.862  28.589  31.298  1.00  0.00     0.037 A 
ATOM     52  C   UNL A   1      38.621  31.358  30.080  1.00  0.00     0.037 A 
ATOM     53  C   UNL A   1      45.116  29.497  32.097  1.00  0.00     0.049 A 
ATOM     54  C   UNL A   1      39.733  31.863  30.898  1.00  0.00     0.074 A 
ATOM     55  C   UNL A   1      44.333  29.340  33.206  1.00  0.00     0.029 A 
ATOM     56  N   UNL A   1      44.902  30.741  31.560  1.00  0.00    -0.354 N 
ATOM     57  N   UNL A   1      40.733  32.558  30.450  1.00  0.00    -0.248 NA
ATOM     58  C   UNL A   1      39.798  31.448  32.305  1.00  0.00     0.031 C 
ATOM     59  C   UNL A   1      43.329  30.314  33.035  1.00  0.00     0.029 A 
ATOM     60  C   UNL A   1      43.648  31.136  31.947  1.00  0.00     0.049 A 
ATOM     61  H   UNL A   1      45.531  31.253  31.002  1.00  0.00     0.167 HD
ATOM     62  C   UNL A   1      41.678  32.381  31.428  1.00  0.00     0.074 A 
ATOM     63  C   UNL A   1      40.968  31.988  32.625  1.00  0.00     0.031 C 
ATOM     64  C   UNL A   1      42.956  32.074  31.095  1.00  0.00     0.037 A 
BRANCH  51  65
ATOM     65  C   UNL A   1      47.365  28.768  31.335  1.00  0.00     0.058 A 
ATOM     66  C   UNL A   1      47.988  29.298  30.173  1.00  0.00     0.135 A 
ATOM     67  C   UNL A   1      48.212  28.105  32.232  1.00  0.00     0.135 A 
ATOM     68  F   UNL A   1      47.293  30.045  29.297  1.00  0.00    -0.206 F 
ATOM     69  C   UNL A   1      49.302  29.009  29.824  1.00  0.00     0.059 A 
ATOM     70  C   UNL A   1      49.557  27.851  31.926  1.00  0.00     0.059 A 
ATOM     71  F   UNL A   1      47.749  27.619  33.391  1.00  0.00    -0.206 F 
ATOM     72  C   UNL A   1      50.068  28.243  30.689  1.00  0.00     0.060 A 
BRANCH  72  73
ATOM     73  S   UNL A   1      51.719  27.746  30.153  1.00  0.00     0.124 S 
ATOM     74  O   UNL A   1      51.838  26.420  30.749  1.00  0.00    -0.237 OA
ATOM     75  O   UNL A   1      51.597  27.776  28.698  1.00  0.00    -0.237 OA
ATOM     76  O   UNL A   1      52.579  28.780  30.721  1.00  0.00    -0.744 OA
ENDBRANCH  72  73
ENDBRANCH  51  65
BRANCH  52  77
ATOM     77  C   UNL A   1      37.248  31.956  30.374  1.00  0.00     0.058 A 
ATOM     78  C   UNL A   1      36.292  31.461  31.269  1.00  0.00     0.135 A 
ATOM     79  C   UNL A   1      36.891  33.216  29.803  1.00  0.00     0.135 A 
ATOM     80  F   UNL A   1      36.384  30.215  31.752  1.00  0.00    -0.206 F 
ATOM     81  C   UNL A   1      35.192  32.233  31.708  1.00  0.00     0.059 A 
ATOM     82  C   UNL A   1      35.850  34.022  30.260  1.00  0.00     0.059 A 
ATOM     83  F   UNL A   1      37.571  33.748  28.778  1.00  0.00    -0.206 F 
ATOM     84  C   UNL A   1      35.022  33.540  31.250  1.00  0.00     0.060 A 
BRANCH  84  85
ATOM     85  S   UNL A   1      33.834  34.664  32.024  1.00  0.00     0.124 S 
ATOM     86  O   UNL A   1      33.198  33.806  33.016  1.00  0.00    -0.237 OA
ATOM     87  O   UNL A   1      34.695  35.718  32.550  1.00  0.00    -0.237 OA
ATOM     88  O   UNL A   1      32.984  35.071  30.906  1.00  0.00    -0.744 OA
ENDBRANCH  84  85
ENDBRANCH  52  77
BRANCH  64  89
ATOM     89  C   UNL A   1      43.366  32.473  29.686  1.00  0.00     0.058 A 
ATOM     90  C   UNL A   1      43.466  33.830  29.345  1.00  0.00     0.135 A 
ATOM     91  C   UNL A   1      43.593  31.561  28.637  1.00  0.00     0.135 A 
ATOM     92  F   UNL A   1      43.262  34.768  30.283  1.00  0.00    -0.206 F 
ATOM     93  C   UNL A   1      43.783  34.254  28.051  1.00  0.00     0.059 A 
ATOM     94  C   UNL A   1      43.920  31.955  27.336  1.00  0.00     0.059 A 
ATOM     95  F   UNL A   1      43.502  30.249  28.852  1.00  0.00    -0.206 F 
ATOM     96  C   UNL A   1      44.014  33.310  27.050  1.00  0.00     0.060 A 
BRANCH  96  97
ATOM     97  S   UNL A   1      44.452  33.875  25.388  1.00  0.00     0.124 S 
ATOM     98  O   UNL A   1      43.251  34.595  24.976  1.00  0.00    -0.237 OA
ATOM     99  O   UNL A   1      45.627  34.700  25.646  1.00  0.00    -0.237 OA
ATOM    100  O   UNL A   1      44.711  32.636  24.657  1.00  0.00    -0.744 OA
ENDBRANCH  96  97
ENDBRANCH  64  89
ENDBRANCH  38  39
ENDBRANCH  30  33
ENDBRANCH  28  29
ENDBRANCH  27  28
ENDBRANCH  26  27
ENDBRANCH   1  26
TORSDOF 20
ENDMDL
