MODEL 1
REMARK VINA RESULT:     -11.4      0.000      0.000
REMARK SMILES C[C@@H](C(=O)NCCCCCCNC(=O)c1ccc(-c2c3nc(c(-c4c(F)cc(S(=O)(=O)[O-])cc4F)c4ccc([nH]4)c(-c4c(F)cc(S(=O)(=O)[O-])cc4F)c4nc(c(-c5c(F)cc(S(=O)(=O)[O-])cc5F)c5ccc2[nH]5)C=C4)C=C3)cc1)c1ccc(C[C@H]2CCC[C@H]2O)cc1-c1ccc(O)cc1
REMARK SMILES IDX 8 1 7 2 6 3 5 4 3 5 4 6 2 8 1 9 81 10 82 11 93 12 83 13
REMARK SMILES IDX 92 14 84 15 94 16 95 17 100 18 96 19 99 20 97 21 98 22 85 24
REMARK SMILES IDX 86 25 87 26 90 27 88 28 89 29 91 30 9 32 10 33 11 34 12 35
REMARK SMILES IDX 13 36 14 38 15 39 16 40 80 41 17 42 79 43 18 44 19 45 20 46
REMARK SMILES IDX 73 47 21 48 78 49 72 50 74 51 22 52 77 53 71 54 70 55 23 57
REMARK SMILES IDX 57 58 36 59 56 60 37 61 40 62 55 63 75 64 38 65 39 66 54 68
REMARK SMILES IDX 76 69 41 70 24 71 25 72 34 73 26 74 27 75 33 76 35 77 28 78
REMARK SMILES IDX 29 79 30 80 31 81 32 82 58 83 59 84 68 85 60 86 61 87 67 88
REMARK SMILES IDX 69 89 62 90 63 91 64 92 65 93 66 94 42 95 43 96 52 97 44 98
REMARK SMILES IDX 45 99 51 100 53 101 46 102 47 103 48 104 49 105 50 106
REMARK H PARENT 5 7 98 23 91 31 12 37 74 56 40 67
REMARK Flexibility Score: inf
ROOT
ATOM      1  C   UNL A   1      32.980  26.836  22.907  1.00  0.00     0.002 C 
ENDROOT
BRANCH   1   2
ATOM      2  C   UNL A   1      32.962  25.361  22.483  1.00  0.00     0.021 C 
BRANCH   2   3
ATOM      3  C   UNL A   1      31.569  24.736  22.460  1.00  0.00     0.116 C 
BRANCH   3   4
ATOM      4  N   UNL A   1      30.750  25.237  23.538  1.00  0.00    -0.356 N 
ATOM      5  C   UNL A   1      30.631  24.813  24.821  1.00  0.00     0.227 C 
ATOM      6  O   UNL A   1      30.235  25.666  25.621  1.00  0.00    -0.274 OA
ATOM      7  H   UNL A   1      30.189  26.011  23.306  1.00  0.00     0.163 HD
BRANCH   5   8
ATOM      8  C   UNL A   1      31.113  23.427  25.267  1.00  0.00     0.106 C 
ATOM      9  C   UNL A   1      30.540  22.757  26.525  1.00  0.00     0.023 C 
BRANCH   8  10
ATOM     10  C   UNL A   1      32.638  23.318  25.374  1.00  0.00    -0.028 A 
ATOM     11  C   UNL A   1      33.267  24.316  26.142  1.00  0.00     0.005 A 
ATOM     12  C   UNL A   1      33.435  22.353  24.696  1.00  0.00    -0.014 A 
ATOM     13  C   UNL A   1      34.648  24.424  26.187  1.00  0.00     0.004 A 
ATOM     14  C   UNL A   1      34.834  22.540  24.701  1.00  0.00     0.012 A 
ATOM     15  C   UNL A   1      35.443  23.599  25.396  1.00  0.00    -0.047 A 
BRANCH  12  16
ATOM     16  C   UNL A   1      32.897  21.110  24.091  1.00  0.00    -0.018 A 
ATOM     17  C   UNL A   1      32.422  21.152  22.764  1.00  0.00     0.012 A 
ATOM     18  C   UNL A   1      32.884  19.865  24.738  1.00  0.00     0.012 A 
ATOM     19  C   UNL A   1      32.031  19.992  22.089  1.00  0.00     0.047 A 
ATOM     20  C   UNL A   1      32.519  18.695  24.058  1.00  0.00     0.047 A 
ATOM     21  C   UNL A   1      32.112  18.768  22.732  1.00  0.00     0.115 A 
BRANCH  21  22
ATOM     22  O   UNL A   1      31.790  17.650  22.022  1.00  0.00    -0.508 OA
ATOM     23  H   UNL A   1      31.967  17.612  21.102  1.00  0.00     0.293 HD
ENDBRANCH  21  22
ENDBRANCH  12  16
BRANCH  15  24
ATOM     24  C   UNL A   1      36.921  23.869  25.281  1.00  0.00     0.041 C 
BRANCH  24  25
ATOM     25  C   UNL A   1      37.855  23.005  26.150  1.00  0.00     0.022 C 
ATOM     26  C   UNL A   1      38.380  21.717  25.491  1.00  0.00     0.007 C 
ATOM     27  C   UNL A   1      39.101  23.652  26.781  1.00  0.00     0.117 C 
ATOM     28  C   UNL A   1      39.737  21.429  26.141  1.00  0.00     0.003 C 
ATOM     29  C   UNL A   1      39.886  22.442  27.272  1.00  0.00     0.032 C 
BRANCH  27  30
ATOM     30  O   UNL A   1      39.928  24.377  25.889  1.00  0.00    -0.393 OA
ATOM     31  H   UNL A   1      40.250  25.181  26.327  1.00  0.00     0.210 HD
ENDBRANCH  27  30
ENDBRANCH  24  25
ENDBRANCH  15  24
ENDBRANCH   8  10
ENDBRANCH   5   8
ENDBRANCH   3   4
ENDBRANCH   2   3
ENDBRANCH   1   2
BRANCH   1  32
ATOM     32  C   UNL A   1      33.771  27.135  24.185  1.00  0.00     0.002 C 
BRANCH  32  33
ATOM     33  C   UNL A   1      33.825  28.612  24.577  1.00  0.00     0.021 C 
BRANCH  33  34
ATOM     34  C   UNL A   1      34.215  28.860  26.026  1.00  0.00     0.116 C 
BRANCH  34  35
ATOM     35  N   UNL A   1      33.800  30.176  26.478  1.00  0.00    -0.352 N 
ATOM     36  C   UNL A   1      34.303  30.926  27.512  1.00  0.00     0.251 C 
ATOM     37  H   UNL A   1      33.059  30.586  25.976  1.00  0.00     0.163 HD
ATOM     38  O   UNL A   1      33.702  31.921  27.899  1.00  0.00    -0.269 OA
BRANCH  36  39
ATOM     39  C   UNL A   1      35.564  30.510  28.163  1.00  0.00     0.039 A 
ATOM     40  C   UNL A   1      36.772  31.029  27.697  1.00  0.00     0.014 A 
ATOM     41  C   UNL A   1      35.549  29.607  29.231  1.00  0.00     0.014 A 
ATOM     42  C   UNL A   1      37.967  30.666  28.323  1.00  0.00     0.010 A 
ATOM     43  C   UNL A   1      36.728  29.315  29.907  1.00  0.00     0.010 A 
ATOM     44  C   UNL A   1      37.953  29.821  29.445  1.00  0.00    -0.014 A 
BRANCH  44  45
ATOM     45  C   UNL A   1      39.211  29.413  30.120  1.00  0.00     0.031 A 
ATOM     46  C   UNL A   1      39.639  30.107  31.386  1.00  0.00     0.074 A 
ATOM     47  C   UNL A   1      39.989  28.460  29.571  1.00  0.00     0.049 A 
ATOM     48  N   UNL A   1      40.720  29.930  32.101  1.00  0.00    -0.248 NA
ATOM     49  C   UNL A   1      38.749  31.161  31.897  1.00  0.00     0.031 C 
ATOM     50  C   UNL A   1      39.701  27.745  28.326  1.00  0.00     0.029 A 
ATOM     51  N   UNL A   1      41.184  27.931  29.989  1.00  0.00    -0.354 N 
ATOM     52  C   UNL A   1      40.650  30.864  33.129  1.00  0.00     0.074 A 
ATOM     53  C   UNL A   1      39.453  31.644  32.909  1.00  0.00     0.031 C 
ATOM     54  C   UNL A   1      40.674  26.846  28.101  1.00  0.00     0.029 A 
ATOM     55  C   UNL A   1      41.672  26.947  29.162  1.00  0.00     0.049 A 
ATOM     56  H   UNL A   1      41.648  28.228  30.804  1.00  0.00     0.167 HD
ATOM     57  C   UNL A   1      41.492  31.039  34.175  1.00  0.00     0.037 A 
ATOM     58  C   UNL A   1      42.796  26.209  29.251  1.00  0.00     0.037 A 
ATOM     59  C   UNL A   1      42.667  30.238  34.400  1.00  0.00     0.049 A 
ATOM     60  C   UNL A   1      43.718  26.419  30.422  1.00  0.00     0.074 A 
ATOM     61  C   UNL A   1      43.553  30.287  35.461  1.00  0.00     0.029 A 
ATOM     62  N   UNL A   1      43.122  29.242  33.545  1.00  0.00    -0.354 N 
ATOM     63  N   UNL A   1      43.604  27.262  31.422  1.00  0.00    -0.248 NA
ATOM     64  C   UNL A   1      44.914  25.570  30.483  1.00  0.00     0.031 C 
ATOM     65  C   UNL A   1      44.574  29.361  35.221  1.00  0.00     0.029 A 
ATOM     66  C   UNL A   1      44.289  28.688  34.042  1.00  0.00     0.049 A 
ATOM     67  H   UNL A   1      42.679  28.971  32.709  1.00  0.00     0.167 HD
ATOM     68  C   UNL A   1      44.692  27.016  32.252  1.00  0.00     0.074 A 
ATOM     69  C   UNL A   1      45.451  25.945  31.637  1.00  0.00     0.031 C 
ATOM     70  C   UNL A   1      45.029  27.615  33.423  1.00  0.00     0.037 A 
BRANCH  57  71
ATOM     71  C   UNL A   1      41.177  32.149  35.143  1.00  0.00     0.058 A 
ATOM     72  C   UNL A   1      40.225  31.998  36.165  1.00  0.00     0.135 A 
ATOM     73  C   UNL A   1      41.838  33.384  35.047  1.00  0.00     0.135 A 
ATOM     74  F   UNL A   1      39.551  30.844  36.297  1.00  0.00    -0.206 F 
ATOM     75  C   UNL A   1      39.901  33.046  37.022  1.00  0.00     0.059 A 
ATOM     76  C   UNL A   1      41.556  34.435  35.916  1.00  0.00     0.059 A 
ATOM     77  F   UNL A   1      42.760  33.587  34.093  1.00  0.00    -0.206 F 
ATOM     78  C   UNL A   1      40.569  34.263  36.884  1.00  0.00     0.060 A 
BRANCH  78  79
ATOM     79  S   UNL A   1      40.120  35.622  37.985  1.00  0.00     0.124 S 
ATOM     80  O   UNL A   1      39.888  36.703  37.031  1.00  0.00    -0.237 OA
ATOM     81  O   UNL A   1      38.932  35.103  38.655  1.00  0.00    -0.237 OA
ATOM     82  O   UNL A   1      41.299  35.777  38.833  1.00  0.00    -0.744 OA
ENDBRANCH  78  79
ENDBRANCH  57  71
BRANCH  58  83
ATOM     83  C   UNL A   1      43.080  25.168  28.227  1.00  0.00     0.058 A 
ATOM     84  C   UNL A   1      43.591  25.522  26.970  1.00  0.00     0.135 A 
ATOM     85  C   UNL A   1      42.878  23.804  28.491  1.00  0.00     0.135 A 
ATOM     86  F   UNL A   1      43.796  26.812  26.668  1.00  0.00    -0.206 F 
ATOM     87  C   UNL A   1      43.883  24.563  26.006  1.00  0.00     0.059 A 
ATOM     88  C   UNL A   1      43.186  22.825  27.553  1.00  0.00     0.059 A 
ATOM     89  F   UNL A   1      42.407  23.414  29.685  1.00  0.00    -0.206 F 
ATOM     90  C   UNL A   1      43.683  23.215  26.309  1.00  0.00     0.060 A 
BRANCH  90  91
ATOM     91  S   UNL A   1      44.126  21.976  25.072  1.00  0.00     0.124 S 
ATOM     92  O   UNL A   1      43.215  20.887  25.407  1.00  0.00    -0.237 OA
ATOM     93  O   UNL A   1      43.850  22.680  23.824  1.00  0.00    -0.237 OA
ATOM     94  O   UNL A   1      45.539  21.723  25.341  1.00  0.00    -0.744 OA
ENDBRANCH  90  91
ENDBRANCH  58  83
BRANCH  70  95
ATOM     95  C   UNL A   1      46.238  27.091  34.150  1.00  0.00     0.058 A 
ATOM     96  C   UNL A   1      47.517  27.635  33.957  1.00  0.00     0.135 A 
ATOM     97  C   UNL A   1      46.100  26.057  35.090  1.00  0.00     0.135 A 
ATOM     98  F   UNL A   1      47.706  28.622  33.067  1.00  0.00    -0.206 F 
ATOM     99  C   UNL A   1      48.623  27.151  34.649  1.00  0.00     0.059 A 
ATOM    100  C   UNL A   1      47.186  25.579  35.817  1.00  0.00     0.059 A 
ATOM    101  F   UNL A   1      44.897  25.508  35.323  1.00  0.00    -0.206 F 
ATOM    102  C   UNL A   1      48.447  26.124  35.578  1.00  0.00     0.060 A 
BRANCH 102 103
ATOM    103  S   UNL A   1      49.886  25.522  36.489  1.00  0.00     0.124 S 
ATOM    104  O   UNL A   1      50.057  24.191  35.920  1.00  0.00    -0.237 OA
ATOM    105  O   UNL A   1      50.910  26.501  36.135  1.00  0.00    -0.237 OA
ATOM    106  O   UNL A   1      49.447  25.559  37.881  1.00  0.00    -0.744 OA
ENDBRANCH 102 103
ENDBRANCH  70  95
ENDBRANCH  44  45
ENDBRANCH  36  39
ENDBRANCH  34  35
ENDBRANCH  33  34
ENDBRANCH  32  33
ENDBRANCH   1  32
TORSDOF 22
ENDMDL
MODEL 2
REMARK VINA RESULT:     -11.3      3.338      9.761
REMARK SMILES C[C@@H](C(=O)NCCCCCCNC(=O)c1ccc(-c2c3nc(c(-c4c(F)cc(S(=O)(=O)[O-])cc4F)c4ccc([nH]4)c(-c4c(F)cc(S(=O)(=O)[O-])cc4F)c4nc(c(-c5c(F)cc(S(=O)(=O)[O-])cc5F)c5ccc2[nH]5)C=C4)C=C3)cc1)c1ccc(C[C@H]2CCC[C@H]2O)cc1-c1ccc(O)cc1
REMARK SMILES IDX 8 1 7 2 6 3 5 4 3 5 4 6 2 8 1 9 81 10 82 11 93 12 83 13
REMARK SMILES IDX 92 14 84 15 94 16 95 17 100 18 96 19 99 20 97 21 98 22 85 24
REMARK SMILES IDX 86 25 87 26 90 27 88 28 89 29 91 30 9 32 10 33 11 34 12 35
REMARK SMILES IDX 13 36 14 38 15 39 16 40 80 41 17 42 79 43 18 44 19 45 20 46
REMARK SMILES IDX 73 47 21 48 78 49 72 50 74 51 22 52 77 53 71 54 70 55 23 57
REMARK SMILES IDX 57 58 36 59 56 60 37 61 40 62 55 63 75 64 38 65 39 66 54 68
REMARK SMILES IDX 76 69 41 70 24 71 25 72 34 73 26 74 27 75 33 76 35 77 28 78
REMARK SMILES IDX 29 79 30 80 31 81 32 82 58 83 59 84 68 85 60 86 61 87 67 88
REMARK SMILES IDX 69 89 62 90 63 91 64 92 65 93 66 94 42 95 43 96 52 97 44 98
REMARK SMILES IDX 45 99 51 100 53 101 46 102 47 103 48 104 49 105 50 106
REMARK H PARENT 5 7 98 23 91 31 12 37 74 56 40 67
REMARK Flexibility Score: inf
ROOT
ATOM      1  C   UNL A   1      36.361  23.460  25.498  1.00  0.00     0.002 C 
ENDROOT
BRANCH   1   2
ATOM      2  C   UNL A   1      35.432  24.504  24.863  1.00  0.00     0.021 C 
BRANCH   2   3
ATOM      3  C   UNL A   1      34.107  24.689  25.599  1.00  0.00     0.116 C 
BRANCH   3   4
ATOM      4  N   UNL A   1      33.925  26.059  26.016  1.00  0.00    -0.356 N 
ATOM      5  C   UNL A   1      33.350  27.104  25.371  1.00  0.00     0.227 C 
ATOM      6  O   UNL A   1      32.926  28.004  26.103  1.00  0.00    -0.274 OA
ATOM      7  H   UNL A   1      34.273  26.268  26.912  1.00  0.00     0.163 HD
BRANCH   5   8
ATOM      8  C   UNL A   1      33.098  27.087  23.858  1.00  0.00     0.106 C 
ATOM      9  C   UNL A   1      34.003  27.874  22.896  1.00  0.00     0.023 C 
BRANCH   8  10
ATOM     10  C   UNL A   1      31.655  27.433  23.477  1.00  0.00    -0.028 A 
ATOM     11  C   UNL A   1      31.493  28.597  22.702  1.00  0.00     0.005 A 
ATOM     12  C   UNL A   1      30.503  26.721  23.916  1.00  0.00    -0.014 A 
ATOM     13  C   UNL A   1      30.233  29.106  22.427  1.00  0.00     0.004 A 
ATOM     14  C   UNL A   1      29.242  27.309  23.683  1.00  0.00     0.012 A 
ATOM     15  C   UNL A   1      29.101  28.523  22.990  1.00  0.00    -0.047 A 
BRANCH  12  16
ATOM     16  C   UNL A   1      30.543  25.354  24.492  1.00  0.00    -0.018 A 
ATOM     17  C   UNL A   1      30.863  24.271  23.647  1.00  0.00     0.012 A 
ATOM     18  C   UNL A   1      30.341  25.069  25.851  1.00  0.00     0.012 A 
ATOM     19  C   UNL A   1      31.053  22.981  24.150  1.00  0.00     0.047 A 
ATOM     20  C   UNL A   1      30.557  23.783  26.366  1.00  0.00     0.047 A 
ATOM     21  C   UNL A   1      30.928  22.754  25.511  1.00  0.00     0.115 A 
BRANCH  21  22
ATOM     22  O   UNL A   1      31.189  21.499  25.976  1.00  0.00    -0.508 OA
ATOM     23  H   UNL A   1      32.061  21.158  25.940  1.00  0.00     0.293 HD
ENDBRANCH  21  22
ENDBRANCH  12  16
BRANCH  15  24
ATOM     24  C   UNL A   1      27.765  29.210  22.868  1.00  0.00     0.041 C 
BRANCH  24  25
ATOM     25  C   UNL A   1      27.766  30.749  22.945  1.00  0.00     0.022 C 
ATOM     26  C   UNL A   1      28.819  31.372  23.879  1.00  0.00     0.007 C 
ATOM     27  C   UNL A   1      27.875  31.562  21.642  1.00  0.00     0.117 C 
ATOM     28  C   UNL A   1      29.139  32.752  23.298  1.00  0.00     0.003 C 
ATOM     29  C   UNL A   1      28.150  32.970  22.156  1.00  0.00     0.032 C 
BRANCH  27  30
ATOM     30  O   UNL A   1      28.940  31.196  20.783  1.00  0.00    -0.393 OA
ATOM     31  H   UNL A   1      29.710  30.937  21.313  1.00  0.00     0.210 HD
ENDBRANCH  27  30
ENDBRANCH  24  25
ENDBRANCH  15  24
ENDBRANCH   8  10
ENDBRANCH   5   8
ENDBRANCH   3   4
ENDBRANCH   2   3
ENDBRANCH   1   2
BRANCH   1  32
ATOM     32  C   UNL A   1      37.651  24.020  26.107  1.00  0.00     0.002 C 
BRANCH  32  33
ATOM     33  C   UNL A   1      38.712  22.973  26.443  1.00  0.00     0.021 C 
BRANCH  33  34
ATOM     34  C   UNL A   1      39.955  23.536  27.113  1.00  0.00     0.116 C 
BRANCH  34  35
ATOM     35  N   UNL A   1      40.879  24.103  26.146  1.00  0.00    -0.352 N 
ATOM     36  C   UNL A   1      41.365  25.385  26.074  1.00  0.00     0.251 C 
ATOM     37  H   UNL A   1      41.200  23.486  25.450  1.00  0.00     0.163 HD
ATOM     38  O   UNL A   1      41.968  25.759  25.076  1.00  0.00    -0.269 OA
BRANCH  36  39
ATOM     39  C   UNL A   1      41.139  26.311  27.205  1.00  0.00     0.039 A 
ATOM     40  C   UNL A   1      40.131  26.025  28.127  1.00  0.00     0.014 A 
ATOM     41  C   UNL A   1      41.921  27.461  27.350  1.00  0.00     0.014 A 
ATOM     42  C   UNL A   1      39.928  26.876  29.215  1.00  0.00     0.010 A 
ATOM     43  C   UNL A   1      41.776  28.260  28.479  1.00  0.00     0.010 A 
ATOM     44  C   UNL A   1      40.761  27.991  29.410  1.00  0.00    -0.014 A 
BRANCH  44  45
ATOM     45  C   UNL A   1      40.556  28.916  30.553  1.00  0.00     0.031 A 
ATOM     46  C   UNL A   1      41.410  28.781  31.786  1.00  0.00     0.074 A 
ATOM     47  C   UNL A   1      39.576  29.839  30.503  1.00  0.00     0.049 A 
ATOM     48  N   UNL A   1      41.361  29.458  32.904  1.00  0.00    -0.248 NA
ATOM     49  C   UNL A   1      42.433  27.722  31.771  1.00  0.00     0.031 C 
ATOM     50  C   UNL A   1      38.658  30.039  29.381  1.00  0.00     0.029 A 
ATOM     51  N   UNL A   1      39.188  30.780  31.422  1.00  0.00    -0.354 N 
ATOM     52  C   UNL A   1      42.327  28.893  33.731  1.00  0.00     0.074 A 
ATOM     53  C   UNL A   1      42.902  27.781  33.008  1.00  0.00     0.031 C 
ATOM     54  C   UNL A   1      37.836  31.064  29.663  1.00  0.00     0.029 A 
ATOM     55  C   UNL A   1      38.143  31.567  30.998  1.00  0.00     0.049 A 
ATOM     56  H   UNL A   1      39.616  30.883  32.303  1.00  0.00     0.167 HD
ATOM     57  C   UNL A   1      42.717  29.281  34.968  1.00  0.00     0.037 A 
ATOM     58  C   UNL A   1      37.506  32.582  31.617  1.00  0.00     0.037 A 
ATOM     59  C   UNL A   1      42.156  30.408  35.668  1.00  0.00     0.049 A 
ATOM     60  C   UNL A   1      37.956  32.998  32.992  1.00  0.00     0.074 A 
ATOM     61  C   UNL A   1      42.522  30.927  36.897  1.00  0.00     0.029 A 
ATOM     62  N   UNL A   1      41.107  31.188  35.200  1.00  0.00    -0.354 N 
ATOM     63  N   UNL A   1      38.915  32.496  33.734  1.00  0.00    -0.248 NA
ATOM     64  C   UNL A   1      37.245  34.125  33.608  1.00  0.00     0.031 C 
ATOM     65  C   UNL A   1      41.658  31.985  37.197  1.00  0.00     0.029 A 
ATOM     66  C   UNL A   1      40.796  32.168  36.127  1.00  0.00     0.049 A 
ATOM     67  H   UNL A   1      40.652  31.062  34.336  1.00  0.00     0.167 HD
ATOM     68  C   UNL A   1      38.950  33.272  34.887  1.00  0.00     0.074 A 
ATOM     69  C   UNL A   1      37.916  34.278  34.743  1.00  0.00     0.031 C 
ATOM     70  C   UNL A   1      39.769  33.169  35.964  1.00  0.00     0.037 A 
BRANCH  57  71
ATOM     71  C   UNL A   1      43.790  28.469  35.645  1.00  0.00     0.058 A 
ATOM     72  C   UNL A   1      45.157  28.715  35.431  1.00  0.00     0.135 A 
ATOM     73  C   UNL A   1      43.445  27.429  36.523  1.00  0.00     0.135 A 
ATOM     74  F   UNL A   1      45.546  29.688  34.592  1.00  0.00    -0.206 F 
ATOM     75  C   UNL A   1      46.141  27.926  36.020  1.00  0.00     0.059 A 
ATOM     76  C   UNL A   1      44.414  26.649  37.151  1.00  0.00     0.059 A 
ATOM     77  F   UNL A   1      42.156  27.150  36.770  1.00  0.00    -0.206 F 
ATOM     78  C   UNL A   1      45.757  26.891  36.874  1.00  0.00     0.060 A 
BRANCH  78  79
ATOM     79  S   UNL A   1      47.044  25.859  37.608  1.00  0.00     0.124 S 
ATOM     80  O   UNL A   1      46.689  25.916  39.023  1.00  0.00    -0.237 OA
ATOM     81  O   UNL A   1      46.827  24.574  36.952  1.00  0.00    -0.237 OA
ATOM     82  O   UNL A   1      48.280  26.546  37.244  1.00  0.00    -0.744 OA
ENDBRANCH  78  79
ENDBRANCH  57  71
BRANCH  58  83
ATOM     83  C   UNL A   1      36.412  33.305  30.916  1.00  0.00     0.058 A 
ATOM     84  C   UNL A   1      35.079  33.160  31.328  1.00  0.00     0.135 A 
ATOM     85  C   UNL A   1      36.675  34.175  29.846  1.00  0.00     0.135 A 
ATOM     86  F   UNL A   1      34.777  32.336  32.343  1.00  0.00    -0.206 F 
ATOM     87  C   UNL A   1      34.043  33.843  30.700  1.00  0.00     0.059 A 
ATOM     88  C   UNL A   1      35.659  34.888  29.218  1.00  0.00     0.059 A 
ATOM     89  F   UNL A   1      37.935  34.360  29.425  1.00  0.00    -0.206 F 
ATOM     90  C   UNL A   1      34.344  34.711  29.649  1.00  0.00     0.060 A 
BRANCH  90  91
ATOM     91  S   UNL A   1      32.998  35.640  28.883  1.00  0.00     0.124 S 
ATOM     92  O   UNL A   1      32.242  36.079  30.051  1.00  0.00    -0.237 OA
ATOM     93  O   UNL A   1      33.720  36.682  28.160  1.00  0.00    -0.237 OA
ATOM     94  O   UNL A   1      32.340  34.645  28.041  1.00  0.00    -0.744 OA
ENDBRANCH  90  91
ENDBRANCH  58  83
BRANCH  70  95
ATOM     95  C   UNL A   1      39.624  34.202  37.049  1.00  0.00     0.058 A 
ATOM     96  C   UNL A   1      38.889  33.958  38.218  1.00  0.00     0.135 A 
ATOM     97  C   UNL A   1      40.276  35.442  36.932  1.00  0.00     0.135 A 
ATOM     98  F   UNL A   1      38.242  32.792  38.380  1.00  0.00    -0.206 F 
ATOM     99  C   UNL A   1      38.778  34.916  39.221  1.00  0.00     0.059 A 
ATOM    100  C   UNL A   1      40.206  36.402  37.935  1.00  0.00     0.059 A 
ATOM    101  F   UNL A   1      41.004  35.724  35.840  1.00  0.00    -0.206 F 
ATOM    102  C   UNL A   1      39.441  36.136  39.070  1.00  0.00     0.060 A 
BRANCH 102 103
ATOM    103  S   UNL A   1      39.311  37.362  40.389  1.00  0.00     0.124 S 
ATOM    104  O   UNL A   1      38.339  38.293  39.830  1.00  0.00    -0.237 OA
ATOM    105  O   UNL A   1      38.846  36.559  41.517  1.00  0.00    -0.237 OA
ATOM    106  O   UNL A   1      40.673  37.874  40.513  1.00  0.00    -0.744 OA
ENDBRANCH 102 103
ENDBRANCH  70  95
ENDBRANCH  44  45
ENDBRANCH  36  39
ENDBRANCH  34  35
ENDBRANCH  33  34
ENDBRANCH  32  33
ENDBRANCH   1  32
TORSDOF 22
ENDMDL
MODEL 3
REMARK VINA RESULT:     -11.3      3.258      5.887
REMARK SMILES C[C@@H](C(=O)NCCCCCCNC(=O)c1ccc(-c2c3nc(c(-c4c(F)cc(S(=O)(=O)[O-])cc4F)c4ccc([nH]4)c(-c4c(F)cc(S(=O)(=O)[O-])cc4F)c4nc(c(-c5c(F)cc(S(=O)(=O)[O-])cc5F)c5ccc2[nH]5)C=C4)C=C3)cc1)c1ccc(C[C@H]2CCC[C@H]2O)cc1-c1ccc(O)cc1
REMARK SMILES IDX 8 1 7 2 6 3 5 4 3 5 4 6 2 8 1 9 81 10 82 11 93 12 83 13
REMARK SMILES IDX 92 14 84 15 94 16 95 17 100 18 96 19 99 20 97 21 98 22 85 24
REMARK SMILES IDX 86 25 87 26 90 27 88 28 89 29 91 30 9 32 10 33 11 34 12 35
REMARK SMILES IDX 13 36 14 38 15 39 16 40 80 41 17 42 79 43 18 44 19 45 20 46
REMARK SMILES IDX 73 47 21 48 78 49 72 50 74 51 22 52 77 53 71 54 70 55 23 57
REMARK SMILES IDX 57 58 36 59 56 60 37 61 40 62 55 63 75 64 38 65 39 66 54 68
REMARK SMILES IDX 76 69 41 70 24 71 25 72 34 73 26 74 27 75 33 76 35 77 28 78
REMARK SMILES IDX 29 79 30 80 31 81 32 82 58 83 59 84 68 85 60 86 61 87 67 88
REMARK SMILES IDX 69 89 62 90 63 91 64 92 65 93 66 94 42 95 43 96 52 97 44 98
REMARK SMILES IDX 45 99 51 100 53 101 46 102 47 103 48 104 49 105 50 106
REMARK H PARENT 5 7 98 23 91 31 12 37 74 56 40 67
REMARK Flexibility Score: inf
ROOT
ATOM      1  C   UNL A   1      33.922  31.651  27.678  1.00  0.00     0.002 C 
ENDROOT
BRANCH   1   2
ATOM      2  C   UNL A   1      35.055  30.616  27.681  1.00  0.00     0.021 C 
BRANCH   2   3
ATOM      3  C   UNL A   1      34.590  29.182  27.436  1.00  0.00     0.116 C 
BRANCH   3   4
ATOM      4  N   UNL A   1      33.193  29.020  27.759  1.00  0.00    -0.356 N 
ATOM      5  C   UNL A   1      32.270  28.161  27.260  1.00  0.00     0.227 C 
ATOM      6  O   UNL A   1      31.313  27.927  28.007  1.00  0.00    -0.274 OA
ATOM      7  H   UNL A   1      32.855  29.632  28.453  1.00  0.00     0.163 HD
BRANCH   5   8
ATOM      8  C   UNL A   1      32.486  27.411  25.940  1.00  0.00     0.106 C 
ATOM      9  C   UNL A   1      33.788  27.578  25.140  1.00  0.00     0.023 C 
BRANCH   8  10
ATOM     10  C   UNL A   1      31.338  27.590  24.942  1.00  0.00    -0.028 A 
ATOM     11  C   UNL A   1      31.234  28.866  24.356  1.00  0.00     0.005 A 
ATOM     12  C   UNL A   1      30.353  26.605  24.649  1.00  0.00    -0.014 A 
ATOM     13  C   UNL A   1      30.149  29.205  23.562  1.00  0.00     0.004 A 
ATOM     14  C   UNL A   1      29.226  27.009  23.901  1.00  0.00     0.012 A 
ATOM     15  C   UNL A   1      29.091  28.315  23.402  1.00  0.00    -0.047 A 
BRANCH  12  16
ATOM     16  C   UNL A   1      30.497  25.165  24.977  1.00  0.00    -0.018 A 
ATOM     17  C   UNL A   1      31.012  24.295  23.995  1.00  0.00     0.012 A 
ATOM     18  C   UNL A   1      30.207  24.615  26.234  1.00  0.00     0.012 A 
ATOM     19  C   UNL A   1      31.302  22.957  24.281  1.00  0.00     0.047 A 
ATOM     20  C   UNL A   1      30.521  23.282  26.536  1.00  0.00     0.047 A 
ATOM     21  C   UNL A   1      31.083  22.470  25.559  1.00  0.00     0.115 A 
BRANCH  21  22
ATOM     22  O   UNL A   1      31.443  21.182  25.822  1.00  0.00    -0.508 OA
ATOM     23  H   UNL A   1      31.662  20.926  26.697  1.00  0.00     0.293 HD
ENDBRANCH  21  22
ENDBRANCH  12  16
BRANCH  15  24
ATOM     24  C   UNL A   1      27.824  28.772  22.726  1.00  0.00     0.041 C 
BRANCH  24  25
ATOM     25  C   UNL A   1      27.666  30.288  22.499  1.00  0.00     0.022 C 
ATOM     26  C   UNL A   1      28.210  31.193  23.619  1.00  0.00     0.007 C 
ATOM     27  C   UNL A   1      28.209  30.910  21.200  1.00  0.00     0.117 C 
ATOM     28  C   UNL A   1      28.616  32.507  22.944  1.00  0.00     0.003 C 
ATOM     29  C   UNL A   1      28.141  32.403  21.498  1.00  0.00     0.032 C 
BRANCH  27  30
ATOM     30  O   UNL A   1      29.552  30.589  20.886  1.00  0.00    -0.393 OA
ATOM     31  H   UNL A   1      29.770  30.936  20.007  1.00  0.00     0.210 HD
ENDBRANCH  27  30
ENDBRANCH  24  25
ENDBRANCH  15  24
ENDBRANCH   8  10
ENDBRANCH   5   8
ENDBRANCH   3   4
ENDBRANCH   2   3
ENDBRANCH   1   2
BRANCH   1  32
ATOM     32  C   UNL A   1      34.151  32.869  28.579  1.00  0.00     0.002 C 
BRANCH  32  33
ATOM     33  C   UNL A   1      33.227  34.056  28.305  1.00  0.00     0.021 C 
BRANCH  33  34
ATOM     34  C   UNL A   1      33.670  35.356  28.957  1.00  0.00     0.116 C 
BRANCH  34  35
ATOM     35  N   UNL A   1      32.811  35.721  30.070  1.00  0.00    -0.352 N 
ATOM     36  C   UNL A   1      32.899  35.333  31.384  1.00  0.00     0.251 C 
ATOM     37  H   UNL A   1      32.068  36.329  29.854  1.00  0.00     0.163 HD
ATOM     38  O   UNL A   1      31.974  35.558  32.154  1.00  0.00    -0.269 OA
BRANCH  36  39
ATOM     39  C   UNL A   1      34.111  34.627  31.852  1.00  0.00     0.039 A 
ATOM     40  C   UNL A   1      34.011  33.291  32.245  1.00  0.00     0.014 A 
ATOM     41  C   UNL A   1      35.343  35.287  31.905  1.00  0.00     0.014 A 
ATOM     42  C   UNL A   1      35.154  32.606  32.661  1.00  0.00     0.010 A 
ATOM     43  C   UNL A   1      36.494  34.580  32.235  1.00  0.00     0.010 A 
ATOM     44  C   UNL A   1      36.408  33.239  32.642  1.00  0.00    -0.014 A 
BRANCH  44  45
ATOM     45  C   UNL A   1      37.636  32.535  33.090  1.00  0.00     0.031 A 
ATOM     46  C   UNL A   1      38.285  32.921  34.393  1.00  0.00     0.074 A 
ATOM     47  C   UNL A   1      38.192  31.589  32.308  1.00  0.00     0.049 A 
ATOM     48  N   UNL A   1      39.381  32.461  34.939  1.00  0.00    -0.248 NA
ATOM     49  C   UNL A   1      37.633  33.989  35.168  1.00  0.00     0.031 C 
ATOM     50  C   UNL A   1      37.678  31.158  31.007  1.00  0.00     0.029 A 
ATOM     51  N   UNL A   1      39.314  30.822  32.494  1.00  0.00    -0.354 N 
ATOM     52  C   UNL A   1      39.560  33.197  36.105  1.00  0.00     0.074 A 
ATOM     53  C   UNL A   1      38.495  34.174  36.156  1.00  0.00     0.031 C 
ATOM     54  C   UNL A   1      38.463  30.178  30.528  1.00  0.00     0.029 A 
ATOM     55  C   UNL A   1      39.555  29.940  31.467  1.00  0.00     0.049 A 
ATOM     56  H   UNL A   1      39.893  30.897  33.286  1.00  0.00     0.167 HD
ATOM     57  C   UNL A   1      40.510  33.055  37.061  1.00  0.00     0.037 A 
ATOM     58  C   UNL A   1      40.543  29.038  31.305  1.00  0.00     0.037 A 
ATOM     59  C   UNL A   1      41.550  32.061  37.015  1.00  0.00     0.049 A 
ATOM     60  C   UNL A   1      41.588  28.896  32.379  1.00  0.00     0.074 A 
ATOM     61  C   UNL A   1      42.523  31.788  37.959  1.00  0.00     0.029 A 
ATOM     62  N   UNL A   1      41.754  31.176  35.964  1.00  0.00    -0.354 N 
ATOM     63  N   UNL A   1      41.707  29.555  33.508  1.00  0.00    -0.248 NA
ATOM     64  C   UNL A   1      42.627  27.881  32.162  1.00  0.00     0.031 C 
ATOM     65  C   UNL A   1      43.349  30.778  37.456  1.00  0.00     0.029 A 
ATOM     66  C   UNL A   1      42.852  30.375  36.225  1.00  0.00     0.049 A 
ATOM     67  H   UNL A   1      41.199  31.127  35.152  1.00  0.00     0.167 HD
ATOM     68  C   UNL A   1      42.808  29.006  34.155  1.00  0.00     0.074 A 
ATOM     69  C   UNL A   1      43.320  27.961  33.291  1.00  0.00     0.031 C 
ATOM     70  C   UNL A   1      43.343  29.330  35.359  1.00  0.00     0.037 A 
BRANCH  57  71
ATOM     71  C   UNL A   1      40.472  34.010  38.225  1.00  0.00     0.058 A 
ATOM     72  C   UNL A   1      39.725  33.742  39.385  1.00  0.00     0.135 A 
ATOM     73  C   UNL A   1      41.195  35.213  38.181  1.00  0.00     0.135 A 
ATOM     74  F   UNL A   1      39.004  32.613  39.478  1.00  0.00    -0.206 F 
ATOM     75  C   UNL A   1      39.654  34.653  40.434  1.00  0.00     0.059 A 
ATOM     76  C   UNL A   1      41.167  36.124  39.234  1.00  0.00     0.059 A 
ATOM     77  F   UNL A   1      41.929  35.523  37.101  1.00  0.00    -0.206 F 
ATOM     78  C   UNL A   1      40.374  35.845  40.345  1.00  0.00     0.060 A 
BRANCH  78  79
ATOM     79  S   UNL A   1      40.249  37.030  41.702  1.00  0.00     0.124 S 
ATOM     80  O   UNL A   1      39.234  36.403  42.542  1.00  0.00    -0.237 OA
ATOM     81  O   UNL A   1      41.605  37.032  42.241  1.00  0.00    -0.237 OA
ATOM     82  O   UNL A   1      39.839  38.264  41.038  1.00  0.00    -0.744 OA
ENDBRANCH  78  79
ENDBRANCH  57  71
BRANCH  58  83
ATOM     83  C   UNL A   1      40.557  28.165  30.101  1.00  0.00     0.058 A 
ATOM     84  C   UNL A   1      41.481  28.385  29.068  1.00  0.00     0.135 A 
ATOM     85  C   UNL A   1      39.675  27.081  29.970  1.00  0.00     0.135 A 
ATOM     86  F   UNL A   1      42.341  29.411  29.144  1.00  0.00    -0.206 F 
ATOM     87  C   UNL A   1      41.524  27.568  27.943  1.00  0.00     0.059 A 
ATOM     88  C   UNL A   1      39.716  26.235  28.866  1.00  0.00     0.059 A 
ATOM     89  F   UNL A   1      38.784  26.819  30.938  1.00  0.00    -0.206 F 
ATOM     90  C   UNL A   1      40.641  26.491  27.854  1.00  0.00     0.060 A 
BRANCH  90  91
ATOM     91  S   UNL A   1      40.751  25.400  26.418  1.00  0.00     0.124 S 
ATOM     92  O   UNL A   1      41.755  24.437  26.856  1.00  0.00    -0.237 OA
ATOM     93  O   UNL A   1      39.385  24.897  26.314  1.00  0.00    -0.237 OA
ATOM     94  O   UNL A   1      41.164  26.299  25.345  1.00  0.00    -0.744 OA
ENDBRANCH  90  91
ENDBRANCH  58  83
BRANCH  70  95
ATOM     95  C   UNL A   1      44.508  28.511  35.846  1.00  0.00     0.058 A 
ATOM     96  C   UNL A   1      45.838  28.888  35.604  1.00  0.00     0.135 A 
ATOM     97  C   UNL A   1      44.284  27.353  36.609  1.00  0.00     0.135 A 
ATOM     98  F   UNL A   1      46.109  29.984  34.877  1.00  0.00    -0.206 F 
ATOM     99  C   UNL A   1      46.905  28.130  36.075  1.00  0.00     0.059 A 
ATOM    100  C   UNL A   1      45.335  26.598  37.118  1.00  0.00     0.059 A 
ATOM    101  F   UNL A   1      43.032  26.953  36.881  1.00  0.00    -0.206 F 
ATOM    102  C   UNL A   1      46.643  26.986  36.833  1.00  0.00     0.060 A 
BRANCH 102 103
ATOM    103  S   UNL A   1      48.036  26.025  37.460  1.00  0.00     0.124 S 
ATOM    104  O   UNL A   1      48.737  27.016  38.268  1.00  0.00    -0.237 OA
ATOM    105  O   UNL A   1      47.370  24.957  38.201  1.00  0.00    -0.237 OA
ATOM    106  O   UNL A   1      48.729  25.598  36.248  1.00  0.00    -0.744 OA
ENDBRANCH 102 103
ENDBRANCH  70  95
ENDBRANCH  44  45
ENDBRANCH  36  39
ENDBRANCH  34  35
ENDBRANCH  33  34
ENDBRANCH  32  33
ENDBRANCH   1  32
TORSDOF 22
ENDMDL
