MODEL 1
REMARK VINA RESULT:     -12.1      0.000      0.000
REMARK SMILES CC(C)(C)c1cc2c(cc1Cl)C=C(C(=O)NCCCCCCNC(=O)c1ccc(-c3c4nc(c(-c5c(F)cc(S(=O)(=O)[O-])cc5F)c5ccc([nH]5)c(-c5c(F)cc(S(=O)(=O)[O-])cc5F)c5nc(c(-c6c(F)cc(S(=O)(=O)[O-])cc6F)c6ccc3[nH]6)C=C5)C=C4)cc1)[C@@H](C(F)(F)F)O2
REMARK SMILES IDX 20 1 19 2 18 3 17 4 16 5 14 6 15 7 13 9 5 10 6 11 10 12 7 13
REMARK SMILES IDX 9 14 11 15 8 16 97 17 12 18 92 19 2 20 1 21 3 22 4 23 93 24
REMARK SMILES IDX 94 25 95 26 96 27 21 28 22 29 23 30 24 31 25 33 26 34 27 35
REMARK SMILES IDX 91 36 28 37 90 38 29 39 30 40 31 41 84 42 32 43 89 44 83 45
REMARK SMILES IDX 85 46 33 47 88 48 82 49 81 50 34 52 68 53 47 54 67 55 48 56
REMARK SMILES IDX 51 57 66 58 86 59 49 60 50 61 65 63 87 64 52 65 35 66 36 67
REMARK SMILES IDX 45 68 37 69 38 70 44 71 46 72 39 73 40 74 41 75 42 76 43 77
REMARK SMILES IDX 69 78 70 79 79 80 71 81 72 82 78 83 80 84 73 85 74 86 75 87
REMARK SMILES IDX 76 88 77 89 53 90 54 91 63 92 55 93 56 94 62 95 64 96 57 97
REMARK SMILES IDX 58 98 59 99 60 100 61 101
REMARK H PARENT 16 8 23 32 85 51 51 62
REMARK Flexibility Score: inf
ROOT
ATOM      1  C   UNL A   1      37.389  22.234  24.547  1.00  0.00     0.002 C 
ENDROOT
BRANCH   1   2
ATOM      2  C   UNL A   1      36.719  21.150  25.402  1.00  0.00     0.002 C 
BRANCH   2   3
ATOM      3  C   UNL A   1      35.647  20.315  24.696  1.00  0.00     0.021 C 
BRANCH   3   4
ATOM      4  C   UNL A   1      34.213  20.732  25.014  1.00  0.00     0.116 C 
BRANCH   4   5
ATOM      5  N   UNL A   1      34.077  21.220  26.376  1.00  0.00    -0.352 N 
ATOM      6  C   UNL A   1      33.462  22.247  27.007  1.00  0.00     0.251 C 
ATOM      7  O   UNL A   1      33.594  22.261  28.235  1.00  0.00    -0.270 OA
ATOM      8  H   UNL A   1      34.564  20.649  27.012  1.00  0.00     0.163 HD
BRANCH   6   9
ATOM      9  C   UNL A   1      32.673  23.330  26.341  1.00  0.00     0.067 C 
ATOM     10  C   UNL A   1      31.225  27.783  24.320  1.00  0.00    -0.020 A 
ATOM     11  C   UNL A   1      30.765  26.449  24.289  1.00  0.00     0.053 A 
ATOM     12  C   UNL A   1      32.384  28.014  25.098  1.00  0.00     0.045 A 
ATOM     13  C   UNL A   1      31.409  25.417  24.973  1.00  0.00     0.128 A 
ATOM     14  C   UNL A   1      33.029  26.966  25.786  1.00  0.00     0.032 A 
ATOM     15  Cl  UNL A   1      33.153  29.555  25.266  1.00  0.00    -0.084 Cl
ATOM     16  C   UNL A   1      32.550  25.661  25.717  1.00  0.00     0.019 A 
ATOM     17  O   UNL A   1      30.880  24.174  24.806  1.00  0.00    -0.475 OA
ATOM     18  C   UNL A   1      33.245  24.549  26.350  1.00  0.00     0.025 C 
ATOM     19  C   UNL A   1      31.315  23.135  25.725  1.00  0.00     0.314 C 
BRANCH  10  20
ATOM     20  C   UNL A   1      30.482  28.858  23.488  1.00  0.00    -0.012 C 
ATOM     21  C   UNL A   1      31.266  29.245  22.214  1.00  0.00     0.016 C 
ATOM     22  C   UNL A   1      30.266  30.196  24.252  1.00  0.00     0.016 C 
ATOM     23  C   UNL A   1      29.069  28.353  23.123  1.00  0.00     0.016 C 
ENDBRANCH  10  20
BRANCH  19  24
ATOM     24  C   UNL A   1      30.212  22.917  26.776  1.00  0.00     0.429 C 
ATOM     25  F   UNL A   1      30.754  22.734  28.003  1.00  0.00    -0.167 F 
ATOM     26  F   UNL A   1      29.377  23.977  26.878  1.00  0.00    -0.167 F 
ATOM     27  F   UNL A   1      29.448  21.836  26.500  1.00  0.00    -0.167 F 
ENDBRANCH  19  24
ENDBRANCH   6   9
ENDBRANCH   4   5
ENDBRANCH   3   4
ENDBRANCH   2   3
ENDBRANCH   1   2
BRANCH   1  28
ATOM     28  C   UNL A   1      37.234  23.672  25.047  1.00  0.00     0.021 C 
BRANCH  28  29
ATOM     29  C   UNL A   1      38.054  24.021  26.284  1.00  0.00     0.116 C 
BRANCH  29  30
ATOM     30  N   UNL A   1      39.469  23.734  26.118  1.00  0.00    -0.352 N 
ATOM     31  C   UNL A   1      40.554  24.421  26.607  1.00  0.00     0.251 C 
ATOM     32  H   UNL A   1      39.679  22.935  25.581  1.00  0.00     0.163 HD
ATOM     33  O   UNL A   1      41.690  24.115  26.255  1.00  0.00    -0.269 OA
BRANCH  31  34
ATOM     34  C   UNL A   1      40.339  25.555  27.532  1.00  0.00     0.039 A 
ATOM     35  C   UNL A   1      41.087  26.728  27.405  1.00  0.00     0.014 A 
ATOM     36  C   UNL A   1      39.404  25.419  28.561  1.00  0.00     0.014 A 
ATOM     37  C   UNL A   1      41.008  27.703  28.395  1.00  0.00     0.010 A 
ATOM     38  C   UNL A   1      39.279  26.431  29.517  1.00  0.00     0.010 A 
ATOM     39  C   UNL A   1      40.114  27.559  29.468  1.00  0.00    -0.014 A 
BRANCH  39  40
ATOM     40  C   UNL A   1      40.083  28.576  30.551  1.00  0.00     0.031 A 
ATOM     41  C   UNL A   1      41.066  28.505  31.688  1.00  0.00     0.074 A 
ATOM     42  C   UNL A   1      39.192  29.584  30.491  1.00  0.00     0.049 A 
ATOM     43  N   UNL A   1      41.160  29.269  32.748  1.00  0.00    -0.248 NA
ATOM     44  C   UNL A   1      42.077  27.437  31.630  1.00  0.00     0.031 C 
ATOM     45  C   UNL A   1      38.204  29.775  29.427  1.00  0.00     0.029 A 
ATOM     46  N   UNL A   1      38.981  30.642  31.336  1.00  0.00    -0.354 N 
ATOM     47  C   UNL A   1      42.218  28.760  33.492  1.00  0.00     0.074 A 
ATOM     48  C   UNL A   1      42.724  27.611  32.774  1.00  0.00     0.031 C 
ATOM     49  C   UNL A   1      37.516  30.902  29.665  1.00  0.00     0.029 A 
ATOM     50  C   UNL A   1      37.970  31.479  30.926  1.00  0.00     0.049 A 
ATOM     51  H   UNL A   1      39.501  30.790  32.158  1.00  0.00     0.167 HD
ATOM     52  C   UNL A   1      42.725  29.215  34.663  1.00  0.00     0.037 A 
ATOM     53  C   UNL A   1      37.452  32.576  31.510  1.00  0.00     0.037 A 
ATOM     54  C   UNL A   1      42.233  30.374  35.363  1.00  0.00     0.049 A 
ATOM     55  C   UNL A   1      38.001  33.035  32.829  1.00  0.00     0.074 A 
ATOM     56  C   UNL A   1      42.694  30.927  36.546  1.00  0.00     0.029 A 
ATOM     57  N   UNL A   1      41.171  31.161  34.943  1.00  0.00    -0.354 N 
ATOM     58  N   UNL A   1      38.987  32.529  33.530  1.00  0.00    -0.248 NA
ATOM     59  C   UNL A   1      37.358  34.203  33.445  1.00  0.00     0.031 C 
ATOM     60  C   UNL A   1      41.889  32.028  36.858  1.00  0.00     0.029 A 
ATOM     61  C   UNL A   1      40.949  32.184  35.852  1.00  0.00     0.049 A 
ATOM     62  H   UNL A   1      40.651  31.015  34.120  1.00  0.00     0.167 HD
ATOM     63  C   UNL A   1      39.080  33.313  34.674  1.00  0.00     0.074 A 
ATOM     64  C   UNL A   1      38.068  34.345  34.555  1.00  0.00     0.031 C 
ATOM     65  C   UNL A   1      39.922  33.187  35.730  1.00  0.00     0.037 A 
BRANCH  52  66
ATOM     66  C   UNL A   1      43.864  28.447  35.273  1.00  0.00     0.058 A 
ATOM     67  C   UNL A   1      45.200  28.711  34.930  1.00  0.00     0.135 A 
ATOM     68  C   UNL A   1      43.619  27.454  36.236  1.00  0.00     0.135 A 
ATOM     69  F   UNL A   1      45.489  29.637  34.002  1.00  0.00    -0.206 F 
ATOM     70  C   UNL A   1      46.251  28.002  35.503  1.00  0.00     0.059 A 
ATOM     71  C   UNL A   1      44.657  26.746  36.837  1.00  0.00     0.059 A 
ATOM     72  F   UNL A   1      42.361  27.160  36.598  1.00  0.00    -0.206 F 
ATOM     73  C   UNL A   1      45.969  27.020  36.454  1.00  0.00     0.060 A 
BRANCH  73  74
ATOM     74  S   UNL A   1      47.346  26.106  37.184  1.00  0.00     0.124 S 
ATOM     75  O   UNL A   1      46.644  25.192  38.081  1.00  0.00    -0.237 OA
ATOM     76  O   UNL A   1      47.968  25.493  36.016  1.00  0.00    -0.237 OA
ATOM     77  O   UNL A   1      48.134  27.145  37.839  1.00  0.00    -0.744 OA
ENDBRANCH  73  74
ENDBRANCH  52  66
BRANCH  53  78
ATOM     78  C   UNL A   1      36.336  33.298  30.847  1.00  0.00     0.058 A 
ATOM     79  C   UNL A   1      35.030  33.222  31.350  1.00  0.00     0.135 A 
ATOM     80  C   UNL A   1      36.564  34.119  29.731  1.00  0.00     0.135 A 
ATOM     81  F   UNL A   1      34.763  32.441  32.408  1.00  0.00    -0.206 F 
ATOM     82  C   UNL A   1      33.987  33.940  30.774  1.00  0.00     0.059 A 
ATOM     83  C   UNL A   1      35.543  34.865  29.153  1.00  0.00     0.059 A 
ATOM     84  F   UNL A   1      37.801  34.233  29.223  1.00  0.00    -0.206 F 
ATOM     85  C   UNL A   1      34.257  34.766  29.680  1.00  0.00     0.060 A 
BRANCH  85  86
ATOM     86  S   UNL A   1      32.914  35.762  28.998  1.00  0.00     0.124 S 
ATOM     87  O   UNL A   1      32.153  36.092  30.197  1.00  0.00    -0.237 OA
ATOM     88  O   UNL A   1      33.637  36.868  28.376  1.00  0.00    -0.237 OA
ATOM     89  O   UNL A   1      32.261  34.848  28.064  1.00  0.00    -0.744 OA
ENDBRANCH  85  86
ENDBRANCH  53  78
BRANCH  65  90
ATOM     90  C   UNL A   1      39.771  34.182  36.844  1.00  0.00     0.058 A 
ATOM     91  C   UNL A   1      40.323  35.469  36.750  1.00  0.00     0.135 A 
ATOM     92  C   UNL A   1      39.047  33.859  38.002  1.00  0.00     0.135 A 
ATOM     93  F   UNL A   1      41.031  35.823  35.665  1.00  0.00    -0.206 F 
ATOM     94  C   UNL A   1      40.182  36.394  37.778  1.00  0.00     0.059 A 
ATOM     95  C   UNL A   1      38.876  34.777  39.033  1.00  0.00     0.059 A 
ATOM     96  F   UNL A   1      38.492  32.643  38.136  1.00  0.00    -0.206 F 
ATOM     97  C   UNL A   1      39.459  36.038  38.918  1.00  0.00     0.060 A 
BRANCH  97  98
ATOM     98  S   UNL A   1      39.271  37.254  40.239  1.00  0.00     0.124 S 
ATOM     99  O   UNL A   1      40.662  37.554  40.560  1.00  0.00    -0.237 OA
ATOM    100  O   UNL A   1      38.527  38.323  39.579  1.00  0.00    -0.237 OA
ATOM    101  O   UNL A   1      38.532  36.526  41.266  1.00  0.00    -0.744 OA
ENDBRANCH  97  98
ENDBRANCH  65  90
ENDBRANCH  39  40
ENDBRANCH  31  34
ENDBRANCH  29  30
ENDBRANCH  28  29
ENDBRANCH   1  28
TORSDOF 18
ENDMDL
MODEL 2
REMARK VINA RESULT:     -12.0      6.467     11.905
REMARK SMILES CC(C)(C)c1cc2c(cc1Cl)C=C(C(=O)NCCCCCCNC(=O)c1ccc(-c3c4nc(c(-c5c(F)cc(S(=O)(=O)[O-])cc5F)c5ccc([nH]5)c(-c5c(F)cc(S(=O)(=O)[O-])cc5F)c5nc(c(-c6c(F)cc(S(=O)(=O)[O-])cc6F)c6ccc3[nH]6)C=C5)C=C4)cc1)[C@@H](C(F)(F)F)O2
REMARK SMILES IDX 20 1 19 2 18 3 17 4 16 5 14 6 15 7 13 9 5 10 6 11 10 12 7 13
REMARK SMILES IDX 9 14 11 15 8 16 97 17 12 18 92 19 2 20 1 21 3 22 4 23 93 24
REMARK SMILES IDX 94 25 95 26 96 27 21 28 22 29 23 30 24 31 25 33 26 34 27 35
REMARK SMILES IDX 91 36 28 37 90 38 29 39 30 40 31 41 84 42 32 43 89 44 83 45
REMARK SMILES IDX 85 46 33 47 88 48 82 49 81 50 34 52 68 53 47 54 67 55 48 56
REMARK SMILES IDX 51 57 66 58 86 59 49 60 50 61 65 63 87 64 52 65 35 66 36 67
REMARK SMILES IDX 45 68 37 69 38 70 44 71 46 72 39 73 40 74 41 75 42 76 43 77
REMARK SMILES IDX 69 78 70 79 79 80 71 81 72 82 78 83 80 84 73 85 74 86 75 87
REMARK SMILES IDX 76 88 77 89 53 90 54 91 63 92 55 93 56 94 62 95 64 96 57 97
REMARK SMILES IDX 58 98 59 99 60 100 61 101
REMARK H PARENT 16 8 23 32 85 51 51 62
REMARK Flexibility Score: inf
ROOT
ATOM      1  C   UNL A   1      33.000  28.671  26.895  1.00  0.00     0.002 C 
ENDROOT
BRANCH   1   2
ATOM      2  C   UNL A   1      32.760  27.676  25.752  1.00  0.00     0.002 C 
BRANCH   2   3
ATOM      3  C   UNL A   1      33.918  27.509  24.763  1.00  0.00     0.021 C 
BRANCH   3   4
ATOM      4  C   UNL A   1      33.549  26.763  23.483  1.00  0.00     0.116 C 
BRANCH   4   5
ATOM      5  N   UNL A   1      32.144  26.395  23.452  1.00  0.00    -0.352 N 
ATOM      6  C   UNL A   1      31.400  25.291  23.696  1.00  0.00     0.251 C 
ATOM      7  O   UNL A   1      30.180  25.443  23.569  1.00  0.00    -0.270 OA
ATOM      8  H   UNL A   1      31.580  27.155  23.181  1.00  0.00     0.163 HD
BRANCH   6   9
ATOM      9  C   UNL A   1      31.935  23.949  24.084  1.00  0.00     0.067 C 
ATOM     10  C   UNL A   1      33.354  19.051  24.023  1.00  0.00    -0.020 A 
ATOM     11  C   UNL A   1      33.595  20.174  24.842  1.00  0.00     0.053 A 
ATOM     12  C   UNL A   1      32.503  19.273  22.913  1.00  0.00     0.045 A 
ATOM     13  C   UNL A   1      33.041  21.428  24.580  1.00  0.00     0.128 A 
ATOM     14  C   UNL A   1      31.947  20.541  22.655  1.00  0.00     0.032 A 
ATOM     15  Cl  UNL A   1      32.084  18.060  21.751  1.00  0.00    -0.084 Cl
ATOM     16  C   UNL A   1      32.222  21.627  23.481  1.00  0.00     0.019 A 
ATOM     17  O   UNL A   1      33.406  22.428  25.427  1.00  0.00    -0.475 OA
ATOM     18  C   UNL A   1      31.728  22.965  23.188  1.00  0.00     0.025 C 
ATOM     19  C   UNL A   1      32.628  23.655  25.386  1.00  0.00     0.314 C 
BRANCH  10  20
ATOM     20  C   UNL A   1      34.053  17.709  24.355  1.00  0.00    -0.012 C 
ATOM     21  C   UNL A   1      33.388  16.992  25.551  1.00  0.00     0.016 C 
ATOM     22  C   UNL A   1      35.547  17.870  24.762  1.00  0.00     0.016 C 
ATOM     23  C   UNL A   1      34.057  16.798  23.110  1.00  0.00     0.016 C 
ENDBRANCH  10  20
BRANCH  19  24
ATOM     24  C   UNL A   1      31.667  23.667  26.587  1.00  0.00     0.429 C 
ATOM     25  F   UNL A   1      32.246  23.092  27.667  1.00  0.00    -0.167 F 
ATOM     26  F   UNL A   1      31.320  24.922  26.959  1.00  0.00    -0.167 F 
ATOM     27  F   UNL A   1      30.519  22.998  26.331  1.00  0.00    -0.167 F 
ENDBRANCH  19  24
ENDBRANCH   6   9
ENDBRANCH   4   5
ENDBRANCH   3   4
ENDBRANCH   2   3
ENDBRANCH   1   2
BRANCH   1  28
ATOM     28  C   UNL A   1      34.412  28.685  27.485  1.00  0.00     0.021 C 
BRANCH  28  29
ATOM     29  C   UNL A   1      35.117  30.036  27.451  1.00  0.00     0.116 C 
BRANCH  29  30
ATOM     30  N   UNL A   1      35.160  30.680  28.753  1.00  0.00    -0.352 N 
ATOM     31  C   UNL A   1      36.162  30.663  29.693  1.00  0.00     0.251 C 
ATOM     32  H   UNL A   1      34.359  31.200  28.995  1.00  0.00     0.163 HD
ATOM     33  O   UNL A   1      35.976  31.152  30.803  1.00  0.00    -0.269 OA
BRANCH  31  34
ATOM     34  C   UNL A   1      37.453  30.019  29.367  1.00  0.00     0.039 A 
ATOM     35  C   UNL A   1      38.225  29.424  30.368  1.00  0.00     0.014 A 
ATOM     36  C   UNL A   1      37.909  30.050  28.047  1.00  0.00     0.014 A 
ATOM     37  C   UNL A   1      39.516  28.996  30.077  1.00  0.00     0.010 A 
ATOM     38  C   UNL A   1      39.182  29.558  27.745  1.00  0.00     0.010 A 
ATOM     39  C   UNL A   1      40.013  29.072  28.767  1.00  0.00    -0.014 A 
BRANCH  39  40
ATOM     40  C   UNL A   1      41.415  28.669  28.480  1.00  0.00     0.031 A 
ATOM     41  C   UNL A   1      42.531  29.672  28.596  1.00  0.00     0.074 A 
ATOM     42  C   UNL A   1      41.686  27.393  28.149  1.00  0.00     0.049 A 
ATOM     43  N   UNL A   1      43.806  29.523  28.336  1.00  0.00    -0.248 NA
ATOM     44  C   UNL A   1      42.171  31.020  29.064  1.00  0.00     0.031 C 
ATOM     45  C   UNL A   1      40.694  26.323  28.029  1.00  0.00     0.029 A 
ATOM     46  N   UNL A   1      42.877  26.776  27.866  1.00  0.00    -0.354 N 
ATOM     47  C   UNL A   1      44.394  30.758  28.583  1.00  0.00     0.074 A 
ATOM     48  C   UNL A   1      43.334  31.653  28.995  1.00  0.00     0.031 C 
ATOM     49  C   UNL A   1      41.321  25.175  27.730  1.00  0.00     0.029 A 
ATOM     50  C   UNL A   1      42.748  25.438  27.579  1.00  0.00     0.049 A 
ATOM     51  H   UNL A   1      43.742  27.244  27.867  1.00  0.00     0.167 HD
ATOM     52  C   UNL A   1      45.697  31.111  28.482  1.00  0.00     0.037 A 
ATOM     53  C   UNL A   1      43.671  24.528  27.213  1.00  0.00     0.037 A 
ATOM     54  C   UNL A   1      46.753  30.210  28.093  1.00  0.00     0.049 A 
ATOM     55  C   UNL A   1      45.102  24.953  27.066  1.00  0.00     0.074 A 
ATOM     56  C   UNL A   1      48.109  30.468  27.982  1.00  0.00     0.029 A 
ATOM     57  N   UNL A   1      46.572  28.877  27.756  1.00  0.00    -0.354 N 
ATOM     58  N   UNL A   1      45.637  26.131  27.281  1.00  0.00    -0.248 NA
ATOM     59  C   UNL A   1      46.054  23.931  26.610  1.00  0.00     0.031 C 
ATOM     60  C   UNL A   1      48.742  29.299  27.545  1.00  0.00     0.029 A 
ATOM     61  C   UNL A   1      47.787  28.303  27.418  1.00  0.00     0.049 A 
ATOM     62  H   UNL A   1      45.707  28.407  27.757  1.00  0.00     0.167 HD
ATOM     63  C   UNL A   1      46.987  25.995  26.981  1.00  0.00     0.074 A 
ATOM     64  C   UNL A   1      47.191  24.612  26.598  1.00  0.00     0.031 C 
ATOM     65  C   UNL A   1      47.968  26.931  27.015  1.00  0.00     0.037 A 
BRANCH  52  66
ATOM     66  C   UNL A   1      46.057  32.539  28.781  1.00  0.00     0.058 A 
ATOM     67  C   UNL A   1      46.047  33.527  27.783  1.00  0.00     0.135 A 
ATOM     68  C   UNL A   1      46.386  32.933  30.089  1.00  0.00     0.135 A 
ATOM     69  F   UNL A   1      45.757  33.202  26.513  1.00  0.00    -0.206 F 
ATOM     70  C   UNL A   1      46.373  34.849  28.066  1.00  0.00     0.059 A 
ATOM     71  C   UNL A   1      46.696  34.254  30.398  1.00  0.00     0.059 A 
ATOM     72  F   UNL A   1      46.413  32.028  31.079  1.00  0.00    -0.206 F 
ATOM     73  C   UNL A   1      46.699  35.203  29.377  1.00  0.00     0.060 A 
BRANCH  73  74
ATOM     74  S   UNL A   1      47.125  36.923  29.726  1.00  0.00     0.124 S 
ATOM     75  O   UNL A   1      46.513  37.113  31.038  1.00  0.00    -0.237 OA
ATOM     76  O   UNL A   1      48.584  36.894  29.707  1.00  0.00    -0.237 OA
ATOM     77  O   UNL A   1      46.500  37.657  28.631  1.00  0.00    -0.744 OA
ENDBRANCH  73  74
ENDBRANCH  52  66
BRANCH  53  78
ATOM     78  C   UNL A   1      43.252  23.129  26.947  1.00  0.00     0.058 A 
ATOM     79  C   UNL A   1      43.205  22.628  25.638  1.00  0.00     0.135 A 
ATOM     80  C   UNL A   1      42.940  22.251  27.997  1.00  0.00     0.135 A 
ATOM     81  F   UNL A   1      43.485  23.434  24.601  1.00  0.00    -0.206 F 
ATOM     82  C   UNL A   1      42.872  21.303  25.379  1.00  0.00     0.059 A 
ATOM     83  C   UNL A   1      42.627  20.917  27.765  1.00  0.00     0.059 A 
ATOM     84  F   UNL A   1      42.983  22.683  29.268  1.00  0.00    -0.206 F 
ATOM     85  C   UNL A   1      42.593  20.453  26.451  1.00  0.00     0.060 A 
BRANCH  85  86
ATOM     86  S   UNL A   1      42.249  18.714  26.108  1.00  0.00     0.124 S 
ATOM     87  O   UNL A   1      42.528  18.098  27.400  1.00  0.00    -0.237 OA
ATOM     88  O   UNL A   1      40.845  18.751  25.708  1.00  0.00    -0.237 OA
ATOM     89  O   UNL A   1      43.189  18.391  25.037  1.00  0.00    -0.744 OA
ENDBRANCH  85  86
ENDBRANCH  53  78
BRANCH  65  90
ATOM     90  C   UNL A   1      49.345  26.490  26.611  1.00  0.00     0.058 A 
ATOM     91  C   UNL A   1      49.800  26.639  25.292  1.00  0.00     0.135 A 
ATOM     92  C   UNL A   1      50.228  25.940  27.554  1.00  0.00     0.135 A 
ATOM     93  F   UNL A   1      48.989  27.152  24.352  1.00  0.00    -0.206 F 
ATOM     94  C   UNL A   1      51.075  26.235  24.915  1.00  0.00     0.059 A 
ATOM     95  C   UNL A   1      51.516  25.550  27.203  1.00  0.00     0.059 A 
ATOM     96  F   UNL A   1      49.843  25.786  28.831  1.00  0.00    -0.206 F 
ATOM     97  C   UNL A   1      51.926  25.688  25.877  1.00  0.00     0.060 A 
BRANCH  97  98
ATOM     98  S   UNL A   1      53.586  25.182  25.379  1.00  0.00     0.124 S 
ATOM     99  O   UNL A   1      53.713  25.836  24.081  1.00  0.00    -0.237 OA
ATOM    100  O   UNL A   1      54.416  25.727  26.449  1.00  0.00    -0.237 OA
ATOM    101  O   UNL A   1      53.499  23.725  25.342  1.00  0.00    -0.744 OA
ENDBRANCH  97  98
ENDBRANCH  65  90
ENDBRANCH  39  40
ENDBRANCH  31  34
ENDBRANCH  29  30
ENDBRANCH  28  29
ENDBRANCH   1  28
TORSDOF 18
ENDMDL
MODEL 3
REMARK VINA RESULT:     -12.0      6.777     11.535
REMARK SMILES CC(C)(C)c1cc2c(cc1Cl)C=C(C(=O)NCCCCCCNC(=O)c1ccc(-c3c4nc(c(-c5c(F)cc(S(=O)(=O)[O-])cc5F)c5ccc([nH]5)c(-c5c(F)cc(S(=O)(=O)[O-])cc5F)c5nc(c(-c6c(F)cc(S(=O)(=O)[O-])cc6F)c6ccc3[nH]6)C=C5)C=C4)cc1)[C@@H](C(F)(F)F)O2
REMARK SMILES IDX 20 1 19 2 18 3 17 4 16 5 14 6 15 7 13 9 5 10 6 11 10 12 7 13
REMARK SMILES IDX 9 14 11 15 8 16 97 17 12 18 92 19 2 20 1 21 3 22 4 23 93 24
REMARK SMILES IDX 94 25 95 26 96 27 21 28 22 29 23 30 24 31 25 33 26 34 27 35
REMARK SMILES IDX 91 36 28 37 90 38 29 39 30 40 31 41 84 42 32 43 89 44 83 45
REMARK SMILES IDX 85 46 33 47 88 48 82 49 81 50 34 52 68 53 47 54 67 55 48 56
REMARK SMILES IDX 51 57 66 58 86 59 49 60 50 61 65 63 87 64 52 65 35 66 36 67
REMARK SMILES IDX 45 68 37 69 38 70 44 71 46 72 39 73 40 74 41 75 42 76 43 77
REMARK SMILES IDX 69 78 70 79 79 80 71 81 72 82 78 83 80 84 73 85 74 86 75 87
REMARK SMILES IDX 76 88 77 89 53 90 54 91 63 92 55 93 56 94 62 95 64 96 57 97
REMARK SMILES IDX 58 98 59 99 60 100 61 101
REMARK H PARENT 16 8 23 32 85 51 51 62
REMARK Flexibility Score: inf
ROOT
ATOM      1  C   UNL A   1      34.222  29.205  26.735  1.00  0.00     0.002 C 
ENDROOT
BRANCH   1   2
ATOM      2  C   UNL A   1      32.861  28.781  27.302  1.00  0.00     0.002 C 
BRANCH   2   3
ATOM      3  C   UNL A   1      31.680  29.689  26.946  1.00  0.00     0.021 C 
BRANCH   3   4
ATOM      4  C   UNL A   1      31.680  30.183  25.502  1.00  0.00     0.116 C 
BRANCH   4   5
ATOM      5  N   UNL A   1      30.741  29.444  24.674  1.00  0.00    -0.352 N 
ATOM      6  C   UNL A   1      30.718  28.268  24.005  1.00  0.00     0.251 C 
ATOM      7  O   UNL A   1      29.654  28.012  23.432  1.00  0.00    -0.270 OA
ATOM      8  H   UNL A   1      29.891  29.930  24.572  1.00  0.00     0.163 HD
BRANCH   6   9
ATOM      9  C   UNL A   1      31.854  27.300  23.908  1.00  0.00     0.067 C 
ATOM     10  C   UNL A   1      35.122  23.492  24.826  1.00  0.00    -0.020 A 
ATOM     11  C   UNL A   1      34.803  24.323  23.731  1.00  0.00     0.053 A 
ATOM     12  C   UNL A   1      34.380  23.726  26.009  1.00  0.00     0.045 A 
ATOM     13  C   UNL A   1      33.817  25.309  23.798  1.00  0.00     0.128 A 
ATOM     14  C   UNL A   1      33.387  24.723  26.070  1.00  0.00     0.032 A 
ATOM     15  Cl  UNL A   1      34.569  22.818  27.470  1.00  0.00    -0.084 Cl
ATOM     16  C   UNL A   1      33.094  25.512  24.961  1.00  0.00     0.019 A 
ATOM     17  O   UNL A   1      33.584  25.996  22.646  1.00  0.00    -0.475 OA
ATOM     18  C   UNL A   1      32.015  26.491  24.973  1.00  0.00     0.025 C 
ATOM     19  C   UNL A   1      32.805  27.218  22.745  1.00  0.00     0.314 C 
BRANCH  10  20
ATOM     20  C   UNL A   1      36.192  22.386  24.648  1.00  0.00    -0.012 C 
ATOM     21  C   UNL A   1      37.365  22.554  25.639  1.00  0.00     0.016 C 
ATOM     22  C   UNL A   1      36.851  22.379  23.239  1.00  0.00     0.016 C 
ATOM     23  C   UNL A   1      35.540  20.996  24.810  1.00  0.00     0.016 C 
ENDBRANCH  10  20
BRANCH  19  24
ATOM     24  C   UNL A   1      33.764  28.419  22.677  1.00  0.00     0.429 C 
ATOM     25  F   UNL A   1      33.071  29.576  22.552  1.00  0.00    -0.167 F 
ATOM     26  F   UNL A   1      34.519  28.543  23.794  1.00  0.00    -0.167 F 
ATOM     27  F   UNL A   1      34.616  28.336  21.630  1.00  0.00    -0.167 F 
ENDBRANCH  19  24
ENDBRANCH   6   9
ENDBRANCH   4   5
ENDBRANCH   3   4
ENDBRANCH   2   3
ENDBRANCH   1   2
BRANCH   1  28
ATOM     28  C   UNL A   1      35.006  30.222  27.568  1.00  0.00     0.021 C 
BRANCH  28  29
ATOM     29  C   UNL A   1      35.489  29.718  28.923  1.00  0.00     0.116 C 
BRANCH  29  30
ATOM     30  N   UNL A   1      35.717  30.794  29.873  1.00  0.00    -0.352 N 
ATOM     31  C   UNL A   1      36.892  31.190  30.465  1.00  0.00     0.251 C 
ATOM     32  H   UNL A   1      34.918  31.311  30.128  1.00  0.00     0.163 HD
ATOM     33  O   UNL A   1      36.883  32.037  31.353  1.00  0.00    -0.269 OA
BRANCH  31  34
ATOM     34  C   UNL A   1      38.164  30.561  30.047  1.00  0.00     0.039 A 
ATOM     35  C   UNL A   1      39.074  30.094  30.998  1.00  0.00     0.014 A 
ATOM     36  C   UNL A   1      38.460  30.477  28.684  1.00  0.00     0.014 A 
ATOM     37  C   UNL A   1      40.341  29.683  30.594  1.00  0.00     0.010 A 
ATOM     38  C   UNL A   1      39.710  30.001  28.278  1.00  0.00     0.010 A 
ATOM     39  C   UNL A   1      40.677  29.646  29.232  1.00  0.00    -0.014 A 
BRANCH  39  40
ATOM     40  C   UNL A   1      42.052  29.265  28.816  1.00  0.00     0.031 A 
ATOM     41  C   UNL A   1      42.345  27.861  28.360  1.00  0.00     0.074 A 
ATOM     42  C   UNL A   1      43.028  30.192  28.815  1.00  0.00     0.049 A 
ATOM     43  N   UNL A   1      43.489  27.328  28.011  1.00  0.00    -0.248 NA
ATOM     44  C   UNL A   1      41.206  26.932  28.288  1.00  0.00     0.031 C 
ATOM     45  C   UNL A   1      42.862  31.592  29.211  1.00  0.00     0.029 A 
ATOM     46  N   UNL A   1      44.349  30.101  28.459  1.00  0.00    -0.354 N 
ATOM     47  C   UNL A   1      43.214  26.001  27.703  1.00  0.00     0.074 A 
ATOM     48  C   UNL A   1      41.798  25.802  27.925  1.00  0.00     0.031 C 
ATOM     49  C   UNL A   1      44.027  32.236  29.043  1.00  0.00     0.029 A 
ATOM     50  C   UNL A   1      45.035  31.285  28.587  1.00  0.00     0.049 A 
ATOM     51  H   UNL A   1      44.766  29.268  28.143  1.00  0.00     0.167 HD
ATOM     52  C   UNL A   1      44.063  25.038  27.269  1.00  0.00     0.037 A 
ATOM     53  C   UNL A   1      46.335  31.569  28.381  1.00  0.00     0.037 A 
ATOM     54  C   UNL A   1      45.467  25.247  27.027  1.00  0.00     0.049 A 
ATOM     55  C   UNL A   1      47.265  30.476  27.942  1.00  0.00     0.074 A 
ATOM     56  C   UNL A   1      46.406  24.340  26.565  1.00  0.00     0.029 A 
ATOM     57  N   UNL A   1      46.135  26.447  27.222  1.00  0.00    -0.354 N 
ATOM     58  N   UNL A   1      46.992  29.221  27.678  1.00  0.00    -0.248 NA
ATOM     59  C   UNL A   1      48.682  30.832  27.789  1.00  0.00     0.031 C 
ATOM     60  C   UNL A   1      47.649  24.983  26.515  1.00  0.00     0.029 A 
ATOM     61  C   UNL A   1      47.477  26.300  26.910  1.00  0.00     0.049 A 
ATOM     62  H   UNL A   1      45.717  27.281  27.537  1.00  0.00     0.167 HD
ATOM     63  C   UNL A   1      48.204  28.634  27.332  1.00  0.00     0.074 A 
ATOM     64  C   UNL A   1      49.205  29.681  27.393  1.00  0.00     0.031 C 
ATOM     65  C   UNL A   1      48.465  27.346  27.000  1.00  0.00     0.037 A 
BRANCH  52  66
ATOM     66  C   UNL A   1      43.498  23.664  27.042  1.00  0.00     0.058 A 
ATOM     67  C   UNL A   1      43.215  22.797  28.110  1.00  0.00     0.135 A 
ATOM     68  C   UNL A   1      43.210  23.218  25.741  1.00  0.00     0.135 A 
ATOM     69  F   UNL A   1      43.489  23.166  29.371  1.00  0.00    -0.206 F 
ATOM     70  C   UNL A   1      42.686  21.529  27.894  1.00  0.00     0.059 A 
ATOM     71  C   UNL A   1      42.661  21.960  25.505  1.00  0.00     0.059 A 
ATOM     72  F   UNL A   1      43.464  24.005  24.686  1.00  0.00    -0.206 F 
ATOM     73  C   UNL A   1      42.415  21.118  26.588  1.00  0.00     0.060 A 
BRANCH  73  74
ATOM     74  S   UNL A   1      41.733  19.466  26.326  1.00  0.00     0.124 S 
ATOM     75  O   UNL A   1      42.494  19.019  25.163  1.00  0.00    -0.237 OA
ATOM     76  O   UNL A   1      42.048  18.796  27.584  1.00  0.00    -0.237 OA
ATOM     77  O   UNL A   1      40.315  19.717  26.090  1.00  0.00    -0.744 OA
ENDBRANCH  73  74
ENDBRANCH  52  66
BRANCH  53  78
ATOM     78  C   UNL A   1      46.825  32.952  28.610  1.00  0.00     0.058 A 
ATOM     79  C   UNL A   1      47.338  33.336  29.857  1.00  0.00     0.135 A 
ATOM     80  C   UNL A   1      46.839  33.898  27.573  1.00  0.00     0.135 A 
ATOM     81  F   UNL A   1      47.336  32.469  30.880  1.00  0.00    -0.206 F 
ATOM     82  C   UNL A   1      47.855  34.610  30.067  1.00  0.00     0.059 A 
ATOM     83  C   UNL A   1      47.372  35.170  27.753  1.00  0.00     0.059 A 
ATOM     84  F   UNL A   1      46.369  33.571  26.359  1.00  0.00    -0.206 F 
ATOM     85  C   UNL A   1      47.875  35.517  29.005  1.00  0.00     0.060 A 
BRANCH  85  86
ATOM     86  S   UNL A   1      48.630  37.137  29.265  1.00  0.00     0.124 S 
ATOM     87  O   UNL A   1      49.227  36.975  30.586  1.00  0.00    -0.237 OA
ATOM     88  O   UNL A   1      49.566  37.222  28.148  1.00  0.00    -0.237 OA
ATOM     89  O   UNL A   1      47.494  38.052  29.191  1.00  0.00    -0.744 OA
ENDBRANCH  85  86
ENDBRANCH  53  78
BRANCH  65  90
ATOM     90  C   UNL A   1      49.892  26.997  26.694  1.00  0.00     0.058 A 
ATOM     91  C   UNL A   1      50.433  27.199  25.414  1.00  0.00     0.135 A 
ATOM     92  C   UNL A   1      50.736  26.483  27.690  1.00  0.00     0.135 A 
ATOM     93  F   UNL A   1      49.663  27.681  24.425  1.00  0.00    -0.206 F 
ATOM     94  C   UNL A   1      51.755  26.881  25.127  1.00  0.00     0.059 A 
ATOM     95  C   UNL A   1      52.068  26.179  27.430  1.00  0.00     0.059 A 
ATOM     96  F   UNL A   1      50.269  26.280  28.933  1.00  0.00    -0.206 F 
ATOM     97  C   UNL A   1      52.565  26.368  26.141  1.00  0.00     0.060 A 
BRANCH  97  98
ATOM     98  S   UNL A   1      54.285  25.973  25.759  1.00  0.00     0.124 S 
ATOM     99  O   UNL A   1      54.638  25.101  26.874  1.00  0.00    -0.237 OA
ATOM    100  O   UNL A   1      54.177  25.325  24.456  1.00  0.00    -0.237 OA
ATOM    101  O   UNL A   1      54.938  27.278  25.751  1.00  0.00    -0.744 OA
ENDBRANCH  97  98
ENDBRANCH  65  90
ENDBRANCH  39  40
ENDBRANCH  31  34
ENDBRANCH  29  30
ENDBRANCH  28  29
ENDBRANCH   1  28
TORSDOF 18
ENDMDL
