MODEL 1
REMARK VINA RESULT:     -12.4      0.000      0.000
REMARK SMILES Cn1c(=O)c2c(nc(Nc3cccc(Cl)c3Cl)n2CC(=O)NCCCCCCNC(=O)c2ccc(-c3c4nc(c(-c5c(F)cc(S(=O)(=O)[O-])cc5F)c5ccc([nH]5)c(-c5c(F)cc(S(=O)(=O)[O-])cc5F)c5nc(c(-c6c(F)cc(S(=O)(=O)[O-])cc6F)c6ccc3[nH]6)C=C5)C=C4)cc2)n(C)c1=O
REMARK SMILES IDX 25 1 24 2 23 3 22 4 20 5 21 6 19 8 18 9 1 10 2 11 3 12
REMARK SMILES IDX 100 13 4 14 5 15 98 16 101 17 6 18 99 19 7 20 8 21 9 22
REMARK SMILES IDX 10 24 11 25 16 26 12 27 14 28 17 29 13 30 15 31 26 32 27 33
REMARK SMILES IDX 28 34 29 35 30 36 31 38 32 39 33 40 97 41 34 42 96 43 35 44
REMARK SMILES IDX 36 45 37 46 90 47 38 48 95 49 89 50 91 51 39 52 94 53 88 54
REMARK SMILES IDX 87 55 40 57 74 58 53 59 73 60 54 61 57 62 72 63 92 64 55 65
REMARK SMILES IDX 56 66 71 68 93 69 58 70 41 71 42 72 51 73 43 74 44 75 50 76
REMARK SMILES IDX 52 77 45 78 46 79 47 80 48 81 49 82 75 83 76 84 85 85 77 86
REMARK SMILES IDX 78 87 84 88 86 89 79 90 80 91 81 92 82 93 83 94 59 95 60 96
REMARK SMILES IDX 69 97 61 98 62 99 68 100 70 101 63 102 64 103 65 104 66 105
REMARK SMILES IDX 67 106
REMARK H PARENT 22 7 9 23 29 37 91 56 57 67
REMARK Flexibility Score: inf
ROOT
ATOM      1  C   UNL A   1      39.857  21.898  26.311  1.00  0.00     0.002 C 
ENDROOT
BRANCH   1   2
ATOM      2  C   UNL A   1      38.916  23.104  26.376  1.00  0.00     0.021 C 
BRANCH   2   3
ATOM      3  C   UNL A   1      37.608  22.885  25.630  1.00  0.00     0.116 C 
BRANCH   3   4
ATOM      4  N   UNL A   1      36.614  22.250  26.460  1.00  0.00    -0.355 N 
ATOM      5  C   UNL A   1      35.273  22.115  26.253  1.00  0.00     0.240 C 
ATOM      6  O   UNL A   1      34.654  21.421  27.064  1.00  0.00    -0.273 OA
ATOM      7  H   UNL A   1      36.952  21.855  27.297  1.00  0.00     0.163 HD
BRANCH   5   8
ATOM      8  C   UNL A   1      34.616  22.632  24.987  1.00  0.00     0.226 C 
BRANCH   8   9
ATOM      9  N   UNL A   1      33.264  23.155  25.112  1.00  0.00    -0.295 N 
ATOM     10  C   UNL A   1      33.720  28.091  24.604  1.00  0.00     0.159 C 
ATOM     11  N   UNL A   1      33.007  26.845  24.802  1.00  0.00    -0.261 N 
ATOM     12  C   UNL A   1      33.758  25.668  24.889  1.00  0.00     0.282 A 
ATOM     13  C   UNL A   1      31.611  26.940  24.953  1.00  0.00     0.332 A 
ATOM     14  O   UNL A   1      34.977  25.633  24.847  1.00  0.00    -0.267 OA
ATOM     15  C   UNL A   1      32.952  24.499  25.052  1.00  0.00     0.154 A 
ATOM     16  N   UNL A   1      30.917  25.750  25.165  1.00  0.00    -0.279 N 
ATOM     17  O   UNL A   1      31.047  28.035  24.893  1.00  0.00    -0.247 OA
ATOM     18  C   UNL A   1      31.605  24.564  25.196  1.00  0.00     0.170 A 
ATOM     19  C   UNL A   1      29.480  25.766  25.359  1.00  0.00     0.157 C 
ATOM     20  N   UNL A   1      31.061  23.339  25.374  1.00  0.00    -0.194 NA
ATOM     21  C   UNL A   1      32.067  22.488  25.374  1.00  0.00     0.210 A 
BRANCH  21  22
ATOM     22  N   UNL A   1      31.822  21.163  25.511  1.00  0.00    -0.324 N 
ATOM     23  H   UNL A   1      31.237  20.956  26.276  1.00  0.00     0.170 HD
BRANCH  22  24
ATOM     24  C   UNL A   1      32.220  20.020  24.799  1.00  0.00     0.061 A 
ATOM     25  C   UNL A   1      32.707  18.938  25.558  1.00  0.00     0.028 A 
ATOM     26  C   UNL A   1      32.182  19.896  23.396  1.00  0.00     0.083 A 
ATOM     27  C   UNL A   1      33.033  17.721  24.962  1.00  0.00     0.004 A 
ATOM     28  C   UNL A   1      32.494  18.662  22.801  1.00  0.00     0.061 A 
ATOM     29  Cl  UNL A   1      31.758  21.266  22.417  1.00  0.00    -0.080 Cl
ATOM     30  C   UNL A   1      32.903  17.577  23.585  1.00  0.00     0.022 A 
ATOM     31  Cl  UNL A   1      32.363  18.393  21.096  1.00  0.00    -0.083 Cl
ENDBRANCH  22  24
ENDBRANCH  21  22
ENDBRANCH   8   9
ENDBRANCH   5   8
ENDBRANCH   3   4
ENDBRANCH   2   3
ENDBRANCH   1   2
BRANCH   1  32
ATOM     32  C   UNL A   1      40.741  21.678  27.550  1.00  0.00     0.002 C 
BRANCH  32  33
ATOM     33  C   UNL A   1      41.697  20.475  27.507  1.00  0.00     0.021 C 
BRANCH  33  34
ATOM     34  C   UNL A   1      41.905  19.913  26.113  1.00  0.00     0.116 C 
BRANCH  34  35
ATOM     35  N   UNL A   1      43.317  19.667  25.810  1.00  0.00    -0.352 N 
ATOM     36  C   UNL A   1      44.280  20.587  25.433  1.00  0.00     0.251 C 
ATOM     37  H   UNL A   1      43.618  18.733  25.883  1.00  0.00     0.163 HD
ATOM     38  O   UNL A   1      45.291  20.229  24.842  1.00  0.00    -0.269 OA
BRANCH  36  39
ATOM     39  C   UNL A   1      44.059  22.004  25.771  1.00  0.00     0.039 A 
ATOM     40  C   UNL A   1      43.230  22.836  25.017  1.00  0.00     0.014 A 
ATOM     41  C   UNL A   1      44.691  22.482  26.915  1.00  0.00     0.014 A 
ATOM     42  C   UNL A   1      43.005  24.132  25.473  1.00  0.00     0.010 A 
ATOM     43  C   UNL A   1      44.281  23.654  27.479  1.00  0.00     0.010 A 
ATOM     44  C   UNL A   1      43.525  24.527  26.719  1.00  0.00    -0.014 A 
BRANCH  44  45
ATOM     45  C   UNL A   1      43.248  25.833  27.292  1.00  0.00     0.031 A 
ATOM     46  C   UNL A   1      44.222  26.880  26.904  1.00  0.00     0.074 A 
ATOM     47  C   UNL A   1      42.116  26.123  27.971  1.00  0.00     0.049 A 
ATOM     48  N   UNL A   1      45.189  27.338  27.624  1.00  0.00    -0.248 NA
ATOM     49  C   UNL A   1      44.258  27.329  25.504  1.00  0.00     0.031 C 
ATOM     50  C   UNL A   1      40.918  25.303  28.193  1.00  0.00     0.029 A 
ATOM     51  N   UNL A   1      41.780  27.293  28.574  1.00  0.00    -0.354 N 
ATOM     52  C   UNL A   1      45.800  28.325  26.860  1.00  0.00     0.074 A 
ATOM     53  C   UNL A   1      45.335  28.120  25.512  1.00  0.00     0.031 C 
ATOM     54  C   UNL A   1      39.918  26.073  28.679  1.00  0.00     0.029 A 
ATOM     55  C   UNL A   1      40.451  27.389  28.976  1.00  0.00     0.049 A 
ATOM     56  H   UNL A   1      42.429  28.020  28.716  1.00  0.00     0.167 HD
ATOM     57  C   UNL A   1      46.439  29.369  27.459  1.00  0.00     0.037 A 
ATOM     58  C   UNL A   1      39.850  28.481  29.517  1.00  0.00     0.037 A 
ATOM     59  C   UNL A   1      46.650  29.098  28.865  1.00  0.00     0.049 A 
ATOM     60  C   UNL A   1      40.943  29.314  30.091  1.00  0.00     0.074 A 
ATOM     61  C   UNL A   1      47.312  28.109  29.570  1.00  0.00     0.029 A 
ATOM     62  N   UNL A   1      45.785  29.678  29.765  1.00  0.00    -0.354 N 
ATOM     63  N   UNL A   1      41.681  28.932  31.102  1.00  0.00    -0.248 NA
ATOM     64  C   UNL A   1      41.543  30.320  29.228  1.00  0.00     0.031 C 
ATOM     65  C   UNL A   1      46.461  27.816  30.677  1.00  0.00     0.029 A 
ATOM     66  C   UNL A   1      45.377  28.696  30.633  1.00  0.00     0.049 A 
ATOM     67  H   UNL A   1      45.509  30.623  29.782  1.00  0.00     0.167 HD
ATOM     68  C   UNL A   1      42.972  29.319  30.769  1.00  0.00     0.074 A 
ATOM     69  C   UNL A   1      42.814  30.224  29.631  1.00  0.00     0.031 C 
ATOM     70  C   UNL A   1      44.066  28.652  31.247  1.00  0.00     0.037 A 
BRANCH  57  71
ATOM     71  C   UNL A   1      46.526  30.770  26.899  1.00  0.00     0.058 A 
ATOM     72  C   UNL A   1      47.779  31.419  26.897  1.00  0.00     0.135 A 
ATOM     73  C   UNL A   1      45.413  31.601  26.644  1.00  0.00     0.135 A 
ATOM     74  F   UNL A   1      48.911  30.727  27.104  1.00  0.00    -0.206 F 
ATOM     75  C   UNL A   1      47.904  32.801  26.766  1.00  0.00     0.059 A 
ATOM     76  C   UNL A   1      45.521  32.974  26.460  1.00  0.00     0.059 A 
ATOM     77  F   UNL A   1      44.156  31.146  26.654  1.00  0.00    -0.206 F 
ATOM     78  C   UNL A   1      46.765  33.572  26.572  1.00  0.00     0.060 A 
BRANCH  78  79
ATOM     79  S   UNL A   1      46.911  35.365  26.535  1.00  0.00     0.124 S 
ATOM     80  O   UNL A   1      47.359  35.647  27.893  1.00  0.00    -0.237 OA
ATOM     81  O   UNL A   1      47.899  35.562  25.480  1.00  0.00    -0.237 OA
ATOM     82  O   UNL A   1      45.557  35.804  26.210  1.00  0.00    -0.744 OA
ENDBRANCH  78  79
ENDBRANCH  57  71
BRANCH  58  83
ATOM     83  C   UNL A   1      38.494  29.021  29.212  1.00  0.00     0.058 A 
ATOM     84  C   UNL A   1      37.573  29.312  30.238  1.00  0.00     0.135 A 
ATOM     85  C   UNL A   1      38.177  29.540  27.940  1.00  0.00     0.135 A 
ATOM     86  F   UNL A   1      37.796  28.870  31.485  1.00  0.00    -0.206 F 
ATOM     87  C   UNL A   1      36.447  30.126  30.034  1.00  0.00     0.059 A 
ATOM     88  C   UNL A   1      37.058  30.340  27.717  1.00  0.00     0.059 A 
ATOM     89  F   UNL A   1      39.001  29.371  26.895  1.00  0.00    -0.206 F 
ATOM     90  C   UNL A   1      36.213  30.657  28.770  1.00  0.00     0.060 A 
BRANCH  90  91
ATOM     91  S   UNL A   1      34.893  31.873  28.521  1.00  0.00     0.124 S 
ATOM     92  O   UNL A   1      33.862  31.075  27.868  1.00  0.00    -0.237 OA
ATOM     93  O   UNL A   1      34.603  32.295  29.888  1.00  0.00    -0.237 OA
ATOM     94  O   UNL A   1      35.523  32.891  27.683  1.00  0.00    -0.744 OA
ENDBRANCH  90  91
ENDBRANCH  58  83
BRANCH  70  95
ATOM     95  C   UNL A   1      43.875  27.632  32.344  1.00  0.00     0.058 A 
ATOM     96  C   UNL A   1      43.820  26.240  32.141  1.00  0.00     0.135 A 
ATOM     97  C   UNL A   1      43.943  28.076  33.674  1.00  0.00     0.135 A 
ATOM     98  F   UNL A   1      43.852  25.723  30.907  1.00  0.00    -0.206 F 
ATOM     99  C   UNL A   1      43.807  25.337  33.208  1.00  0.00     0.059 A 
ATOM    100  C   UNL A   1      43.961  27.194  34.752  1.00  0.00     0.059 A 
ATOM    101  F   UNL A   1      44.058  29.388  33.938  1.00  0.00    -0.206 F 
ATOM    102  C   UNL A   1      43.885  25.824  34.512  1.00  0.00     0.060 A 
BRANCH 102 103
ATOM    103  S   UNL A   1      43.950  24.655  35.888  1.00  0.00     0.124 S 
ATOM    104  O   UNL A   1      42.673  24.890  36.554  1.00  0.00    -0.237 OA
ATOM    105  O   UNL A   1      44.082  23.371  35.207  1.00  0.00    -0.237 OA
ATOM    106  O   UNL A   1      45.129  25.076  36.640  1.00  0.00    -0.744 OA
ENDBRANCH 102 103
ENDBRANCH  70  95
ENDBRANCH  44  45
ENDBRANCH  36  39
ENDBRANCH  34  35
ENDBRANCH  33  34
ENDBRANCH  32  33
ENDBRANCH   1  32
TORSDOF 19
ENDMDL
MODEL 2
REMARK VINA RESULT:     -11.9      1.473      3.560
REMARK SMILES Cn1c(=O)c2c(nc(Nc3cccc(Cl)c3Cl)n2CC(=O)NCCCCCCNC(=O)c2ccc(-c3c4nc(c(-c5c(F)cc(S(=O)(=O)[O-])cc5F)c5ccc([nH]5)c(-c5c(F)cc(S(=O)(=O)[O-])cc5F)c5nc(c(-c6c(F)cc(S(=O)(=O)[O-])cc6F)c6ccc3[nH]6)C=C5)C=C4)cc2)n(C)c1=O
REMARK SMILES IDX 25 1 24 2 23 3 22 4 20 5 21 6 19 8 18 9 1 10 2 11 3 12
REMARK SMILES IDX 100 13 4 14 5 15 98 16 101 17 6 18 99 19 7 20 8 21 9 22
REMARK SMILES IDX 10 24 11 25 16 26 12 27 14 28 17 29 13 30 15 31 26 32 27 33
REMARK SMILES IDX 28 34 29 35 30 36 31 38 32 39 33 40 97 41 34 42 96 43 35 44
REMARK SMILES IDX 36 45 37 46 90 47 38 48 95 49 89 50 91 51 39 52 94 53 88 54
REMARK SMILES IDX 87 55 40 57 74 58 53 59 73 60 54 61 57 62 72 63 92 64 55 65
REMARK SMILES IDX 56 66 71 68 93 69 58 70 41 71 42 72 51 73 43 74 44 75 50 76
REMARK SMILES IDX 52 77 45 78 46 79 47 80 48 81 49 82 75 83 76 84 85 85 77 86
REMARK SMILES IDX 78 87 84 88 86 89 79 90 80 91 81 92 82 93 83 94 59 95 60 96
REMARK SMILES IDX 69 97 61 98 62 99 68 100 70 101 63 102 64 103 65 104 66 105
REMARK SMILES IDX 67 106
REMARK H PARENT 22 7 9 23 29 37 91 56 57 67
REMARK Flexibility Score: inf
ROOT
ATOM      1  C   UNL A   1      39.717  21.619  26.435  1.00  0.00     0.002 C 
ENDROOT
BRANCH   1   2
ATOM      2  C   UNL A   1      39.062  22.986  26.215  1.00  0.00     0.021 C 
BRANCH   2   3
ATOM      3  C   UNL A   1      37.766  22.909  25.421  1.00  0.00     0.116 C 
BRANCH   3   4
ATOM      4  N   UNL A   1      36.621  22.704  26.275  1.00  0.00    -0.355 N 
ATOM      5  C   UNL A   1      35.475  22.008  26.032  1.00  0.00     0.240 C 
ATOM      6  O   UNL A   1      34.691  21.883  26.977  1.00  0.00    -0.273 OA
ATOM      7  H   UNL A   1      36.677  23.128  27.163  1.00  0.00     0.163 HD
BRANCH   5   8
ATOM      8  C   UNL A   1      35.268  21.264  24.727  1.00  0.00     0.226 C 
BRANCH   8   9
ATOM      9  N   UNL A   1      34.198  20.279  24.691  1.00  0.00    -0.295 N 
ATOM     10  C   UNL A   1      36.424  15.900  25.520  1.00  0.00     0.159 C 
ATOM     11  N   UNL A   1      35.305  16.783  25.264  1.00  0.00    -0.261 N 
ATOM     12  C   UNL A   1      35.575  18.142  25.066  1.00  0.00     0.282 A 
ATOM     13  C   UNL A   1      34.037  16.177  25.174  1.00  0.00     0.332 A 
ATOM     14  O   UNL A   1      36.697  18.619  25.059  1.00  0.00    -0.267 OA
ATOM     15  C   UNL A   1      34.397  18.922  24.855  1.00  0.00     0.154 A 
ATOM     16  N   UNL A   1      32.955  17.015  24.906  1.00  0.00    -0.279 N 
ATOM     17  O   UNL A   1      33.911  14.961  25.330  1.00  0.00    -0.247 OA
ATOM     18  C   UNL A   1      33.164  18.363  24.767  1.00  0.00     0.170 A 
ATOM     19  C   UNL A   1      31.621  16.464  24.770  1.00  0.00     0.157 C 
ATOM     20  N   UNL A   1      32.210  19.290  24.526  1.00  0.00    -0.194 NA
ATOM     21  C   UNL A   1      32.837  20.445  24.429  1.00  0.00     0.210 A 
BRANCH  21  22
ATOM     22  N   UNL A   1      32.125  21.576  24.210  1.00  0.00    -0.324 N 
ATOM     23  H   UNL A   1      31.431  21.467  23.521  1.00  0.00     0.170 HD
BRANCH  22  24
ATOM     24  C   UNL A   1      32.162  22.870  24.754  1.00  0.00     0.061 A 
ATOM     25  C   UNL A   1      31.452  23.073  25.955  1.00  0.00     0.028 A 
ATOM     26  C   UNL A   1      32.836  23.964  24.177  1.00  0.00     0.083 A 
ATOM     27  C   UNL A   1      31.506  24.290  26.633  1.00  0.00     0.004 A 
ATOM     28  C   UNL A   1      32.903  25.183  24.873  1.00  0.00     0.061 A 
ATOM     29  Cl  UNL A   1      33.571  23.799  22.613  1.00  0.00    -0.080 Cl
ATOM     30  C   UNL A   1      32.252  25.336  26.103  1.00  0.00     0.022 A 
ATOM     31  Cl  UNL A   1      33.806  26.538  24.288  1.00  0.00    -0.083 Cl
ENDBRANCH  22  24
ENDBRANCH  21  22
ENDBRANCH   8   9
ENDBRANCH   5   8
ENDBRANCH   3   4
ENDBRANCH   2   3
ENDBRANCH   1   2
BRANCH   1  32
ATOM     32  C   UNL A   1      40.818  21.575  27.507  1.00  0.00     0.002 C 
BRANCH  32  33
ATOM     33  C   UNL A   1      41.810  20.405  27.426  1.00  0.00     0.021 C 
BRANCH  33  34
ATOM     34  C   UNL A   1      41.974  19.844  26.025  1.00  0.00     0.116 C 
BRANCH  34  35
ATOM     35  N   UNL A   1      43.377  19.616  25.670  1.00  0.00    -0.352 N 
ATOM     36  C   UNL A   1      44.316  20.550  25.269  1.00  0.00     0.251 C 
ATOM     37  H   UNL A   1      43.690  18.684  25.723  1.00  0.00     0.163 HD
ATOM     38  O   UNL A   1      45.309  20.208  24.639  1.00  0.00    -0.269 OA
BRANCH  36  39
ATOM     39  C   UNL A   1      44.093  21.961  25.629  1.00  0.00     0.039 A 
ATOM     40  C   UNL A   1      43.230  22.791  24.911  1.00  0.00     0.014 A 
ATOM     41  C   UNL A   1      44.757  22.433  26.757  1.00  0.00     0.014 A 
ATOM     42  C   UNL A   1      43.007  24.081  25.389  1.00  0.00     0.010 A 
ATOM     43  C   UNL A   1      44.354  23.595  27.347  1.00  0.00     0.010 A 
ATOM     44  C   UNL A   1      43.565  24.468  26.621  1.00  0.00    -0.014 A 
BRANCH  44  45
ATOM     45  C   UNL A   1      43.294  25.765  27.217  1.00  0.00     0.031 A 
ATOM     46  C   UNL A   1      44.277  26.812  26.854  1.00  0.00     0.074 A 
ATOM     47  C   UNL A   1      42.160  26.051  27.895  1.00  0.00     0.049 A 
ATOM     48  N   UNL A   1      45.244  27.250  27.588  1.00  0.00    -0.248 NA
ATOM     49  C   UNL A   1      44.325  27.287  25.463  1.00  0.00     0.031 C 
ATOM     50  C   UNL A   1      40.955  25.236  28.095  1.00  0.00     0.029 A 
ATOM     51  N   UNL A   1      41.830  27.212  28.517  1.00  0.00    -0.354 N 
ATOM     52  C   UNL A   1      45.867  28.246  26.845  1.00  0.00     0.074 A 
ATOM     53  C   UNL A   1      45.408  28.069  25.492  1.00  0.00     0.031 C 
ATOM     54  C   UNL A   1      39.958  26.004  28.589  1.00  0.00     0.029 A 
ATOM     55  C   UNL A   1      40.499  27.310  28.914  1.00  0.00     0.049 A 
ATOM     56  H   UNL A   1      42.482  27.931  28.676  1.00  0.00     0.167 HD
ATOM     57  C   UNL A   1      46.509  29.275  27.467  1.00  0.00     0.037 A 
ATOM     58  C   UNL A   1      39.902  28.396  29.472  1.00  0.00     0.037 A 
ATOM     59  C   UNL A   1      46.710  28.975  28.869  1.00  0.00     0.049 A 
ATOM     60  C   UNL A   1      40.998  29.210  30.068  1.00  0.00     0.074 A 
ATOM     61  C   UNL A   1      47.361  27.969  29.559  1.00  0.00     0.029 A 
ATOM     62  N   UNL A   1      45.844  29.545  29.775  1.00  0.00    -0.354 N 
ATOM     63  N   UNL A   1      41.728  28.805  31.075  1.00  0.00    -0.248 NA
ATOM     64  C   UNL A   1      41.610  30.228  29.226  1.00  0.00     0.031 C 
ATOM     65  C   UNL A   1      46.501  27.662  30.656  1.00  0.00     0.029 A 
ATOM     66  C   UNL A   1      45.425  28.550  30.622  1.00  0.00     0.049 A 
ATOM     67  H   UNL A   1      45.576  30.491  29.808  1.00  0.00     0.167 HD
ATOM     68  C   UNL A   1      43.024  29.188  30.757  1.00  0.00     0.074 A 
ATOM     69  C   UNL A   1      42.878  30.116  29.634  1.00  0.00     0.031 C 
ATOM     70  C   UNL A   1      44.110  28.504  31.228  1.00  0.00     0.037 A 
BRANCH  57  71
ATOM     71  C   UNL A   1      46.610  30.684  26.934  1.00  0.00     0.058 A 
ATOM     72  C   UNL A   1      47.871  31.318  26.933  1.00  0.00     0.135 A 
ATOM     73  C   UNL A   1      45.505  31.534  26.705  1.00  0.00     0.135 A 
ATOM     74  F   UNL A   1      48.996  30.607  27.117  1.00  0.00    -0.206 F 
ATOM     75  C   UNL A   1      48.013  32.700  26.829  1.00  0.00     0.059 A 
ATOM     76  C   UNL A   1      45.630  32.910  26.547  1.00  0.00     0.059 A 
ATOM     77  F   UNL A   1      44.242  31.096  26.717  1.00  0.00    -0.206 F 
ATOM     78  C   UNL A   1      46.882  33.489  26.660  1.00  0.00     0.060 A 
BRANCH  78  79
ATOM     79  S   UNL A   1      47.051  35.281  26.656  1.00  0.00     0.124 S 
ATOM     80  O   UNL A   1      46.860  35.592  28.068  1.00  0.00    -0.237 OA
ATOM     81  O   UNL A   1      48.404  35.452  26.139  1.00  0.00    -0.237 OA
ATOM     82  O   UNL A   1      45.982  35.716  25.761  1.00  0.00    -0.744 OA
ENDBRANCH  78  79
ENDBRANCH  57  71
BRANCH  58  83
ATOM     83  C   UNL A   1      38.552  28.951  29.169  1.00  0.00     0.058 A 
ATOM     84  C   UNL A   1      37.616  29.199  30.193  1.00  0.00     0.135 A 
ATOM     85  C   UNL A   1      38.257  29.526  27.917  1.00  0.00     0.135 A 
ATOM     86  F   UNL A   1      37.818  28.702  31.422  1.00  0.00    -0.206 F 
ATOM     87  C   UNL A   1      36.494  30.023  30.007  1.00  0.00     0.059 A 
ATOM     88  C   UNL A   1      37.141  30.338  27.711  1.00  0.00     0.059 A 
ATOM     89  F   UNL A   1      39.096  29.402  26.879  1.00  0.00    -0.206 F 
ATOM     90  C   UNL A   1      36.280  30.610  28.764  1.00  0.00     0.060 A 
BRANCH  90  91
ATOM     91  S   UNL A   1      34.966  31.838  28.548  1.00  0.00     0.124 S 
ATOM     92  O   UNL A   1      34.696  32.241  29.923  1.00  0.00    -0.237 OA
ATOM     93  O   UNL A   1      35.615  32.838  27.707  1.00  0.00    -0.237 OA
ATOM     94  O   UNL A   1      33.899  31.083  27.894  1.00  0.00    -0.744 OA
ENDBRANCH  90  91
ENDBRANCH  58  83
BRANCH  70  95
ATOM     95  C   UNL A   1      43.906  27.465  32.305  1.00  0.00     0.058 A 
ATOM     96  C   UNL A   1      43.851  26.077  32.077  1.00  0.00     0.135 A 
ATOM     97  C   UNL A   1      43.959  27.886  33.643  1.00  0.00     0.135 A 
ATOM     98  F   UNL A   1      43.894  25.582  30.834  1.00  0.00    -0.206 F 
ATOM     99  C   UNL A   1      43.824  25.155  33.128  1.00  0.00     0.059 A 
ATOM    100  C   UNL A   1      43.965  26.985  34.705  1.00  0.00     0.059 A 
ATOM    101  F   UNL A   1      44.073  29.193  33.931  1.00  0.00    -0.206 F 
ATOM    102  C   UNL A   1      43.889  25.620  34.441  1.00  0.00     0.060 A 
BRANCH 102 103
ATOM    103  S   UNL A   1      43.937  24.427  35.796  1.00  0.00     0.124 S 
ATOM    104  O   UNL A   1      43.233  25.137  36.859  1.00  0.00    -0.237 OA
ATOM    105  O   UNL A   1      43.236  23.277  35.232  1.00  0.00    -0.237 OA
ATOM    106  O   UNL A   1      45.365  24.225  36.025  1.00  0.00    -0.744 OA
ENDBRANCH 102 103
ENDBRANCH  70  95
ENDBRANCH  44  45
ENDBRANCH  36  39
ENDBRANCH  34  35
ENDBRANCH  33  34
ENDBRANCH  32  33
ENDBRANCH   1  32
TORSDOF 19
ENDMDL
MODEL 3
REMARK VINA RESULT:     -11.7      2.934      9.292
REMARK SMILES Cn1c(=O)c2c(nc(Nc3cccc(Cl)c3Cl)n2CC(=O)NCCCCCCNC(=O)c2ccc(-c3c4nc(c(-c5c(F)cc(S(=O)(=O)[O-])cc5F)c5ccc([nH]5)c(-c5c(F)cc(S(=O)(=O)[O-])cc5F)c5nc(c(-c6c(F)cc(S(=O)(=O)[O-])cc6F)c6ccc3[nH]6)C=C5)C=C4)cc2)n(C)c1=O
REMARK SMILES IDX 25 1 24 2 23 3 22 4 20 5 21 6 19 8 18 9 1 10 2 11 3 12
REMARK SMILES IDX 100 13 4 14 5 15 98 16 101 17 6 18 99 19 7 20 8 21 9 22
REMARK SMILES IDX 10 24 11 25 16 26 12 27 14 28 17 29 13 30 15 31 26 32 27 33
REMARK SMILES IDX 28 34 29 35 30 36 31 38 32 39 33 40 97 41 34 42 96 43 35 44
REMARK SMILES IDX 36 45 37 46 90 47 38 48 95 49 89 50 91 51 39 52 94 53 88 54
REMARK SMILES IDX 87 55 40 57 74 58 53 59 73 60 54 61 57 62 72 63 92 64 55 65
REMARK SMILES IDX 56 66 71 68 93 69 58 70 41 71 42 72 51 73 43 74 44 75 50 76
REMARK SMILES IDX 52 77 45 78 46 79 47 80 48 81 49 82 75 83 76 84 85 85 77 86
REMARK SMILES IDX 78 87 84 88 86 89 79 90 80 91 81 92 82 93 83 94 59 95 60 96
REMARK SMILES IDX 69 97 61 98 62 99 68 100 70 101 63 102 64 103 65 104 66 105
REMARK SMILES IDX 67 106
REMARK H PARENT 22 7 9 23 29 37 91 56 57 67
REMARK Flexibility Score: inf
ROOT
ATOM      1  C   UNL A   1      31.802  29.423  26.392  1.00  0.00     0.002 C 
ENDROOT
BRANCH   1   2
ATOM      2  C   UNL A   1      31.699  28.151  27.238  1.00  0.00     0.021 C 
BRANCH   2   3
ATOM      3  C   UNL A   1      32.059  26.889  26.468  1.00  0.00     0.116 C 
BRANCH   3   4
ATOM      4  N   UNL A   1      31.284  25.752  26.903  1.00  0.00    -0.355 N 
ATOM      5  C   UNL A   1      31.499  24.424  26.681  1.00  0.00     0.240 C 
ATOM      6  O   UNL A   1      30.749  23.636  27.265  1.00  0.00    -0.273 OA
ATOM      7  H   UNL A   1      30.486  25.966  27.439  1.00  0.00     0.163 HD
BRANCH   5   8
ATOM      8  C   UNL A   1      32.712  23.940  25.911  1.00  0.00     0.226 C 
BRANCH   8   9
ATOM      9  N   UNL A   1      32.466  23.261  24.648  1.00  0.00    -0.295 N 
ATOM     10  C   UNL A   1      32.915  18.404  25.665  1.00  0.00     0.159 C 
ATOM     11  N   UNL A   1      32.670  19.560  24.825  1.00  0.00    -0.261 N 
ATOM     12  C   UNL A   1      32.815  20.828  25.398  1.00  0.00     0.282 A 
ATOM     13  C   UNL A   1      32.367  19.299  23.475  1.00  0.00     0.332 A 
ATOM     14  O   UNL A   1      33.170  21.018  26.549  1.00  0.00    -0.267 OA
ATOM     15  C   UNL A   1      32.518  21.890  24.490  1.00  0.00     0.154 A 
ATOM     16  N   UNL A   1      32.151  20.404  22.653  1.00  0.00    -0.279 N 
ATOM     17  O   UNL A   1      32.298  18.140  23.060  1.00  0.00    -0.247 OA
ATOM     18  C   UNL A   1      32.220  21.665  23.186  1.00  0.00     0.170 A 
ATOM     19  C   UNL A   1      31.862  20.221  21.244  1.00  0.00     0.157 C 
ATOM     20  N   UNL A   1      32.017  22.820  22.513  1.00  0.00    -0.194 NA
ATOM     21  C   UNL A   1      32.214  23.791  23.382  1.00  0.00     0.210 A 
BRANCH  21  22
ATOM     22  N   UNL A   1      32.053  25.079  22.994  1.00  0.00    -0.324 N 
ATOM     23  H   UNL A   1      32.816  25.423  22.475  1.00  0.00     0.170 HD
BRANCH  22  24
ATOM     24  C   UNL A   1      31.034  26.029  23.171  1.00  0.00     0.061 A 
ATOM     25  C   UNL A   1      29.769  25.538  23.550  1.00  0.00     0.028 A 
ATOM     26  C   UNL A   1      31.189  27.416  22.980  1.00  0.00     0.083 A 
ATOM     27  C   UNL A   1      28.716  26.401  23.851  1.00  0.00     0.004 A 
ATOM     28  C   UNL A   1      30.131  28.283  23.303  1.00  0.00     0.061 A 
ATOM     29  Cl  UNL A   1      32.679  28.040  22.343  1.00  0.00    -0.080 Cl
ATOM     30  C   UNL A   1      28.907  27.774  23.750  1.00  0.00     0.022 A 
ATOM     31  Cl  UNL A   1      30.278  30.004  23.204  1.00  0.00    -0.083 Cl
ENDBRANCH  22  24
ENDBRANCH  21  22
ENDBRANCH   8   9
ENDBRANCH   5   8
ENDBRANCH   3   4
ENDBRANCH   2   3
ENDBRANCH   1   2
BRANCH   1  32
ATOM     32  C   UNL A   1      33.210  30.030  26.275  1.00  0.00     0.002 C 
BRANCH  32  33
ATOM     33  C   UNL A   1      34.001  30.191  27.583  1.00  0.00     0.021 C 
BRANCH  33  34
ATOM     34  C   UNL A   1      34.860  31.442  27.623  1.00  0.00     0.116 C 
BRANCH  34  35
ATOM     35  N   UNL A   1      34.581  32.279  28.792  1.00  0.00    -0.352 N 
ATOM     36  C   UNL A   1      35.046  32.119  30.086  1.00  0.00     0.251 C 
ATOM     37  H   UNL A   1      33.989  33.050  28.639  1.00  0.00     0.163 HD
ATOM     38  O   UNL A   1      34.456  32.625  31.031  1.00  0.00    -0.269 OA
BRANCH  36  39
ATOM     39  C   UNL A   1      36.275  31.332  30.291  1.00  0.00     0.039 A 
ATOM     40  C   UNL A   1      36.252  29.971  30.601  1.00  0.00     0.014 A 
ATOM     41  C   UNL A   1      37.483  32.001  30.122  1.00  0.00     0.014 A 
ATOM     42  C   UNL A   1      37.465  29.291  30.676  1.00  0.00     0.010 A 
ATOM     43  C   UNL A   1      38.637  31.291  29.959  1.00  0.00     0.010 A 
ATOM     44  C   UNL A   1      38.655  29.961  30.336  1.00  0.00    -0.014 A 
BRANCH  44  45
ATOM     45  C   UNL A   1      39.940  29.283  30.305  1.00  0.00     0.031 A 
ATOM     46  C   UNL A   1      40.512  29.014  31.645  1.00  0.00     0.074 A 
ATOM     47  C   UNL A   1      40.490  28.780  29.178  1.00  0.00     0.049 A 
ATOM     48  N   UNL A   1      41.454  29.675  32.229  1.00  0.00    -0.248 NA
ATOM     49  C   UNL A   1      39.843  28.038  32.519  1.00  0.00     0.031 C 
ATOM     50  C   UNL A   1      39.933  28.690  27.822  1.00  0.00     0.029 A 
ATOM     51  N   UNL A   1      41.693  28.167  29.037  1.00  0.00    -0.354 N 
ATOM     52  C   UNL A   1      41.675  29.035  33.442  1.00  0.00     0.074 A 
ATOM     53  C   UNL A   1      40.527  28.193  33.655  1.00  0.00     0.031 C 
ATOM     54  C   UNL A   1      40.697  27.869  27.065  1.00  0.00     0.029 A 
ATOM     55  C   UNL A   1      41.888  27.525  27.817  1.00  0.00     0.049 A 
ATOM     56  H   UNL A   1      42.377  28.176  29.745  1.00  0.00     0.167 HD
ATOM     57  C   UNL A   1      42.903  29.077  34.033  1.00  0.00     0.037 A 
ATOM     58  C   UNL A   1      42.963  26.771  27.467  1.00  0.00     0.037 A 
ATOM     59  C   UNL A   1      43.729  30.093  33.418  1.00  0.00     0.049 A 
ATOM     60  C   UNL A   1      44.078  27.200  28.356  1.00  0.00     0.074 A 
ATOM     61  C   UNL A   1      43.614  31.461  33.246  1.00  0.00     0.029 A 
ATOM     62  N   UNL A   1      44.669  29.683  32.500  1.00  0.00    -0.354 N 
ATOM     63  N   UNL A   1      44.611  28.394  28.314  1.00  0.00    -0.248 NA
ATOM     64  C   UNL A   1      44.243  26.490  29.616  1.00  0.00     0.031 C 
ATOM     65  C   UNL A   1      44.091  31.705  31.924  1.00  0.00     0.029 A 
ATOM     66  C   UNL A   1      44.548  30.495  31.399  1.00  0.00     0.049 A 
ATOM     67  H   UNL A   1      45.309  28.944  32.611  1.00  0.00     0.167 HD
ATOM     68  C   UNL A   1      44.798  28.751  29.642  1.00  0.00     0.074 A 
ATOM     69  C   UNL A   1      44.609  27.511  30.396  1.00  0.00     0.031 C 
ATOM     70  C   UNL A   1      44.796  30.059  30.041  1.00  0.00     0.037 A 
BRANCH  57  71
ATOM     71  C   UNL A   1      43.497  27.975  34.879  1.00  0.00     0.058 A 
ATOM     72  C   UNL A   1      44.051  28.309  36.133  1.00  0.00     0.135 A 
ATOM     73  C   UNL A   1      43.812  26.682  34.403  1.00  0.00     0.135 A 
ATOM     74  F   UNL A   1      43.801  29.502  36.697  1.00  0.00    -0.206 F 
ATOM     75  C   UNL A   1      44.939  27.471  36.805  1.00  0.00     0.059 A 
ATOM     76  C   UNL A   1      44.654  25.811  35.083  1.00  0.00     0.059 A 
ATOM     77  F   UNL A   1      43.400  26.230  33.214  1.00  0.00    -0.206 F 
ATOM     78  C   UNL A   1      45.252  26.233  36.258  1.00  0.00     0.060 A 
BRANCH  78  79
ATOM     79  S   UNL A   1      46.496  25.207  37.057  1.00  0.00     0.124 S 
ATOM     80  O   UNL A   1      45.693  24.492  38.041  1.00  0.00    -0.237 OA
ATOM     81  O   UNL A   1      46.993  24.416  35.937  1.00  0.00    -0.237 OA
ATOM     82  O   UNL A   1      47.438  26.183  37.596  1.00  0.00    -0.744 OA
ENDBRANCH  78  79
ENDBRANCH  57  71
BRANCH  58  83
ATOM     83  C   UNL A   1      42.966  25.474  26.730  1.00  0.00     0.058 A 
ATOM     84  C   UNL A   1      43.453  25.382  25.411  1.00  0.00     0.135 A 
ATOM     85  C   UNL A   1      42.772  24.248  27.398  1.00  0.00     0.135 A 
ATOM     86  F   UNL A   1      43.679  26.497  24.700  1.00  0.00    -0.206 F 
ATOM     87  C   UNL A   1      43.792  24.157  24.814  1.00  0.00     0.059 A 
ATOM     88  C   UNL A   1      43.094  23.022  26.817  1.00  0.00     0.059 A 
ATOM     89  F   UNL A   1      42.360  24.208  28.673  1.00  0.00    -0.206 F 
ATOM     90  C   UNL A   1      43.632  22.981  25.539  1.00  0.00     0.060 A 
BRANCH  90  91
ATOM     91  S   UNL A   1      44.252  21.411  24.881  1.00  0.00     0.124 S 
ATOM     92  O   UNL A   1      45.432  21.180  25.705  1.00  0.00    -0.237 OA
ATOM     93  O   UNL A   1      43.125  20.514  25.115  1.00  0.00    -0.237 OA
ATOM     94  O   UNL A   1      44.517  21.713  23.476  1.00  0.00    -0.744 OA
ENDBRANCH  90  91
ENDBRANCH  58  83
BRANCH  70  95
ATOM     95  C   UNL A   1      44.836  31.141  28.987  1.00  0.00     0.058 A 
ATOM     96  C   UNL A   1      45.980  31.495  28.248  1.00  0.00     0.135 A 
ATOM     97  C   UNL A   1      43.618  31.707  28.580  1.00  0.00     0.135 A 
ATOM     98  F   UNL A   1      47.166  30.930  28.502  1.00  0.00    -0.206 F 
ATOM     99  C   UNL A   1      45.919  32.389  27.174  1.00  0.00     0.059 A 
ATOM    100  C   UNL A   1      43.528  32.576  27.495  1.00  0.00     0.059 A 
ATOM    101  F   UNL A   1      42.478  31.367  29.205  1.00  0.00    -0.206 F 
ATOM    102  C   UNL A   1      44.685  32.919  26.800  1.00  0.00     0.060 A 
BRANCH 102 103
ATOM    103  S   UNL A   1      44.593  34.009  25.363  1.00  0.00     0.124 S 
ATOM    104  O   UNL A   1      43.392  34.790  25.643  1.00  0.00    -0.237 OA
ATOM    105  O   UNL A   1      45.854  34.740  25.437  1.00  0.00    -0.237 OA
ATOM    106  O   UNL A   1      44.484  33.084  24.237  1.00  0.00    -0.744 OA
ENDBRANCH 102 103
ENDBRANCH  70  95
ENDBRANCH  44  45
ENDBRANCH  36  39
ENDBRANCH  34  35
ENDBRANCH  33  34
ENDBRANCH  32  33
ENDBRANCH   1  32
TORSDOF 19
ENDMDL
