MODEL 1
REMARK VINA RESULT:      -8.7      0.000      0.000
REMARK SMILES CCOc1cccc(-c2ccc([C@@H](C)C(=O)NCCCCCCNC(=O)c3ccc(-c4c5nc(c(-c6c(F)cc(S(=O)(=O)[O-])cc6F)c6ccc([nH]6)c(-c6c(F)cc(S(=O)(=O)[O-])cc6F)c6nc(c(-c7c(F)cc(S(=O)(=O)[O-])cc7F)c7ccc4[nH]7)C=C6)C=C5)cc3)cc2F)c1
REMARK SMILES IDX 20 1 19 2 18 3 17 4 15 5 16 6 13 8 14 9 12 10 9 11 10 12
REMARK SMILES IDX 94 13 11 14 93 15 95 16 8 17 4 18 5 19 96 20 6 21 7 22 3 23
REMARK SMILES IDX 2 24 1 25 21 26 22 27 23 28 24 29 25 30 26 32 27 33 28 34
REMARK SMILES IDX 92 35 29 36 91 37 30 38 31 39 32 40 85 41 33 42 90 43 84 44
REMARK SMILES IDX 86 45 34 46 89 47 83 48 82 49 35 51 69 52 48 53 68 54 49 55
REMARK SMILES IDX 52 56 67 57 87 58 50 59 51 60 66 62 88 63 53 64 36 65 37 66
REMARK SMILES IDX 46 67 38 68 39 69 45 70 47 71 40 72 41 73 42 74 43 75 44 76
REMARK SMILES IDX 70 77 71 78 80 79 72 80 73 81 79 82 81 83 74 84 75 85 76 86
REMARK SMILES IDX 77 87 78 88 54 89 55 90 64 91 56 92 57 93 63 94 65 95 58 96
REMARK SMILES IDX 59 97 60 98 61 99 62 100
REMARK H PARENT 17 7 24 31 86 50 52 61
REMARK Flexibility Score: inf
ROOT
ATOM      1  C   UNL A   1      36.258  34.458  32.399  1.00  0.00     0.002 C 
ENDROOT
BRANCH   1   2
ATOM      2  C   UNL A   1      37.609  34.025  31.821  1.00  0.00     0.021 C 
BRANCH   2   3
ATOM      3  C   UNL A   1      38.776  34.204  32.795  1.00  0.00     0.116 C 
BRANCH   3   4
ATOM      4  N   UNL A   1      38.563  33.453  34.014  1.00  0.00    -0.356 N 
ATOM      5  C   UNL A   1      38.245  32.148  34.225  1.00  0.00     0.227 C 
ATOM      6  O   UNL A   1      38.011  31.822  35.396  1.00  0.00    -0.274 OA
ATOM      7  H   UNL A   1      38.668  33.982  34.839  1.00  0.00     0.163 HD
BRANCH   5   8
ATOM      8  C   UNL A   1      38.187  31.091  33.111  1.00  0.00     0.105 C 
ATOM      9  C   UNL A   1      36.796  30.505  32.876  1.00  0.00     0.023 C 
BRANCH   8  10
ATOM     10  C   UNL A   1      39.327  30.086  33.151  1.00  0.00    -0.033 A 
ATOM     11  C   UNL A   1      41.482  28.216  33.436  1.00  0.00     0.018 A 
ATOM     12  C   UNL A   1      40.236  27.833  32.918  1.00  0.00     0.012 A 
ATOM     13  C   UNL A   1      41.632  29.579  33.746  1.00  0.00     0.131 A 
ATOM     14  C   UNL A   1      39.196  28.756  32.743  1.00  0.00     0.005 A 
ATOM     15  C   UNL A   1      40.577  30.488  33.635  1.00  0.00     0.044 A 
ATOM     16  F   UNL A   1      42.809  30.061  34.175  1.00  0.00    -0.206 F 
BRANCH  11  17
ATOM     17  C   UNL A   1      42.547  27.214  33.681  1.00  0.00    -0.012 A 
ATOM     18  C   UNL A   1      43.412  25.322  34.969  1.00  0.00     0.119 A 
ATOM     19  C   UNL A   1      44.519  25.230  34.136  1.00  0.00     0.046 A 
ATOM     20  C   UNL A   1      42.455  26.312  34.754  1.00  0.00     0.055 A 
ATOM     21  C   UNL A   1      44.647  26.114  33.067  1.00  0.00     0.004 A 
ATOM     22  C   UNL A   1      43.672  27.095  32.844  1.00  0.00     0.009 A 
BRANCH  18  23
ATOM     23  O   UNL A   1      43.350  24.511  36.069  1.00  0.00    -0.494 OA
BRANCH  23  24
ATOM     24  C   UNL A   1      44.536  24.544  36.874  1.00  0.00     0.226 C 
ATOM     25  C   UNL A   1      44.380  25.414  38.112  1.00  0.00     0.049 C 
ENDBRANCH  23  24
ENDBRANCH  18  23
ENDBRANCH  11  17
ENDBRANCH   8  10
ENDBRANCH   5   8
ENDBRANCH   3   4
ENDBRANCH   2   3
ENDBRANCH   1   2
BRANCH   1  26
ATOM     26  C   UNL A   1      35.068  34.299  31.442  1.00  0.00     0.002 C 
BRANCH  26  27
ATOM     27  C   UNL A   1      34.893  32.898  30.847  1.00  0.00     0.021 C 
BRANCH  27  28
ATOM     28  C   UNL A   1      35.145  32.819  29.343  1.00  0.00     0.116 C 
BRANCH  28  29
ATOM     29  N   UNL A   1      34.280  31.834  28.707  1.00  0.00    -0.352 N 
ATOM     30  C   UNL A   1      34.611  30.645  28.102  1.00  0.00     0.251 C 
ATOM     31  H   UNL A   1      33.320  32.053  28.710  1.00  0.00     0.163 HD
ATOM     32  O   UNL A   1      33.800  30.069  27.387  1.00  0.00    -0.269 OA
BRANCH  30  33
ATOM     33  C   UNL A   1      35.958  30.076  28.312  1.00  0.00     0.039 A 
ATOM     34  C   UNL A   1      36.917  30.203  27.305  1.00  0.00     0.014 A 
ATOM     35  C   UNL A   1      36.272  29.431  29.510  1.00  0.00     0.014 A 
ATOM     36  C   UNL A   1      38.221  29.757  27.537  1.00  0.00     0.010 A 
ATOM     37  C   UNL A   1      37.585  29.048  29.765  1.00  0.00     0.010 A 
ATOM     38  C   UNL A   1      38.575  29.222  28.787  1.00  0.00    -0.014 A 
BRANCH  38  39
ATOM     39  C   UNL A   1      39.983  28.885  29.117  1.00  0.00     0.031 A 
ATOM     40  C   UNL A   1      40.900  29.930  29.688  1.00  0.00     0.074 A 
ATOM     41  C   UNL A   1      40.455  27.658  28.815  1.00  0.00     0.049 A 
ATOM     42  N   UNL A   1      42.184  29.859  29.924  1.00  0.00    -0.248 NA
ATOM     43  C   UNL A   1      40.299  31.233  30.018  1.00  0.00     0.031 C 
ATOM     44  C   UNL A   1      39.668  26.571  28.226  1.00  0.00     0.029 A 
ATOM     45  N   UNL A   1      41.712  27.122  28.940  1.00  0.00    -0.354 N 
ATOM     46  C   UNL A   1      42.547  31.104  30.424  1.00  0.00     0.074 A 
ATOM     47  C   UNL A   1      41.357  31.928  30.410  1.00  0.00     0.031 C 
ATOM     48  C   UNL A   1      40.455  25.498  28.053  1.00  0.00     0.029 A 
ATOM     49  C   UNL A   1      41.814  25.833  28.468  1.00  0.00     0.049 A 
ATOM     50  H   UNL A   1      42.471  27.613  29.330  1.00  0.00     0.167 HD
ATOM     51  C   UNL A   1      43.757  31.514  30.873  1.00  0.00     0.037 A 
ATOM     52  C   UNL A   1      42.884  25.022  28.359  1.00  0.00     0.037 A 
ATOM     53  C   UNL A   1      44.932  30.681  30.891  1.00  0.00     0.049 A 
ATOM     54  C   UNL A   1      44.229  25.521  28.811  1.00  0.00     0.074 A 
ATOM     55  C   UNL A   1      46.194  30.986  31.374  1.00  0.00     0.029 A 
ATOM     56  N   UNL A   1      44.995  29.384  30.402  1.00  0.00    -0.354 N 
ATOM     57  N   UNL A   1      44.541  26.679  29.344  1.00  0.00    -0.248 NA
ATOM     58  C   UNL A   1      45.371  24.611  28.643  1.00  0.00     0.031 C 
ATOM     59  C   UNL A   1      47.033  29.896  31.124  1.00  0.00     0.029 A 
ATOM     60  C   UNL A   1      46.283  28.890  30.537  1.00  0.00     0.049 A 
ATOM     61  H   UNL A   1      44.239  28.889  30.016  1.00  0.00     0.167 HD
ATOM     62  C   UNL A   1      45.908  26.628  29.592  1.00  0.00     0.074 A 
ATOM     63  C   UNL A   1      46.360  25.319  29.170  1.00  0.00     0.031 C 
ATOM     64  C   UNL A   1      46.717  27.581  30.115  1.00  0.00     0.037 A 
BRANCH  51  65
ATOM     65  C   UNL A   1      43.879  32.922  31.386  1.00  0.00     0.058 A 
ATOM     66  C   UNL A   1      43.869  34.024  30.517  1.00  0.00     0.135 A 
ATOM     67  C   UNL A   1      43.940  33.178  32.766  1.00  0.00     0.135 A 
ATOM     68  F   UNL A   1      43.827  33.838  29.189  1.00  0.00    -0.206 F 
ATOM     69  C   UNL A   1      43.934  35.329  30.995  1.00  0.00     0.059 A 
ATOM     70  C   UNL A   1      43.976  34.476  33.269  1.00  0.00     0.059 A 
ATOM     71  F   UNL A   1      43.953  32.161  33.643  1.00  0.00    -0.206 F 
ATOM     72  C   UNL A   1      43.983  35.544  32.374  1.00  0.00     0.060 A 
BRANCH  72  73
ATOM     73  S   UNL A   1      44.044  37.246  32.974  1.00  0.00     0.124 S 
ATOM     74  O   UNL A   1      44.234  37.987  31.732  1.00  0.00    -0.237 OA
ATOM     75  O   UNL A   1      42.739  37.397  33.609  1.00  0.00    -0.237 OA
ATOM     76  O   UNL A   1      45.186  37.246  33.884  1.00  0.00    -0.744 OA
ENDBRANCH  72  73
ENDBRANCH  51  65
BRANCH  52  77
ATOM     77  C   UNL A   1      42.733  23.657  27.784  1.00  0.00     0.058 A 
ATOM     78  C   UNL A   1      42.863  23.435  26.406  1.00  0.00     0.135 A 
ATOM     79  C   UNL A   1      42.448  22.548  28.598  1.00  0.00     0.135 A 
ATOM     80  F   UNL A   1      43.129  24.464  25.584  1.00  0.00    -0.206 F 
ATOM     81  C   UNL A   1      42.693  22.172  25.849  1.00  0.00     0.059 A 
ATOM     82  C   UNL A   1      42.303  21.269  28.070  1.00  0.00     0.059 A 
ATOM     83  F   UNL A   1      42.327  22.700  29.926  1.00  0.00    -0.206 F 
ATOM     84  C   UNL A   1      42.414  21.094  26.691  1.00  0.00     0.060 A 
BRANCH  84  85
ATOM     85  S   UNL A   1      42.225  19.453  25.962  1.00  0.00     0.124 S 
ATOM     86  O   UNL A   1      40.784  19.396  25.737  1.00  0.00    -0.237 OA
ATOM     87  O   UNL A   1      43.055  19.551  24.767  1.00  0.00    -0.237 OA
ATOM     88  O   UNL A   1      42.737  18.564  27.002  1.00  0.00    -0.744 OA
ENDBRANCH  84  85
ENDBRANCH  52  77
BRANCH  64  89
ATOM     89  C   UNL A   1      48.175  27.247  30.277  1.00  0.00     0.058 A 
ATOM     90  C   UNL A   1      49.105  27.528  29.265  1.00  0.00     0.135 A 
ATOM     91  C   UNL A   1      48.657  26.718  31.485  1.00  0.00     0.135 A 
ATOM     92  F   UNL A   1      48.694  28.023  28.087  1.00  0.00    -0.206 F 
ATOM     93  C   UNL A   1      50.464  27.293  29.443  1.00  0.00     0.059 A 
ATOM     94  C   UNL A   1      50.015  26.502  31.696  1.00  0.00     0.059 A 
ATOM     95  F   UNL A   1      47.809  26.437  32.486  1.00  0.00    -0.206 F 
ATOM     96  C   UNL A   1      50.911  26.790  30.667  1.00  0.00     0.060 A 
BRANCH  96  97
ATOM     97  S   UNL A   1      52.685  26.558  30.906  1.00  0.00     0.124 S 
ATOM     98  O   UNL A   1      53.182  26.648  29.537  1.00  0.00    -0.237 OA
ATOM     99  O   UNL A   1      53.029  27.674  31.780  1.00  0.00    -0.237 OA
ATOM    100  O   UNL A   1      52.776  25.235  31.520  1.00  0.00    -0.744 OA
ENDBRANCH  96  97
ENDBRANCH  64  89
ENDBRANCH  38  39
ENDBRANCH  30  33
ENDBRANCH  28  29
ENDBRANCH  27  28
ENDBRANCH  26  27
ENDBRANCH   1  26
TORSDOF 20
ENDMDL
MODEL 2
REMARK VINA RESULT:      -8.7      3.618     10.536
REMARK SMILES CCOc1cccc(-c2ccc([C@@H](C)C(=O)NCCCCCCNC(=O)c3ccc(-c4c5nc(c(-c6c(F)cc(S(=O)(=O)[O-])cc6F)c6ccc([nH]6)c(-c6c(F)cc(S(=O)(=O)[O-])cc6F)c6nc(c(-c7c(F)cc(S(=O)(=O)[O-])cc7F)c7ccc4[nH]7)C=C6)C=C5)cc3)cc2F)c1
REMARK SMILES IDX 20 1 19 2 18 3 17 4 15 5 16 6 13 8 14 9 12 10 9 11 10 12
REMARK SMILES IDX 94 13 11 14 93 15 95 16 8 17 4 18 5 19 96 20 6 21 7 22 3 23
REMARK SMILES IDX 2 24 1 25 21 26 22 27 23 28 24 29 25 30 26 32 27 33 28 34
REMARK SMILES IDX 92 35 29 36 91 37 30 38 31 39 32 40 85 41 33 42 90 43 84 44
REMARK SMILES IDX 86 45 34 46 89 47 83 48 82 49 35 51 69 52 48 53 68 54 49 55
REMARK SMILES IDX 52 56 67 57 87 58 50 59 51 60 66 62 88 63 53 64 36 65 37 66
REMARK SMILES IDX 46 67 38 68 39 69 45 70 47 71 40 72 41 73 42 74 43 75 44 76
REMARK SMILES IDX 70 77 71 78 80 79 72 80 73 81 79 82 81 83 74 84 75 85 76 86
REMARK SMILES IDX 77 87 78 88 54 89 55 90 64 91 56 92 57 93 63 94 65 95 58 96
REMARK SMILES IDX 59 97 60 98 61 99 62 100
REMARK H PARENT 17 7 24 31 86 50 52 61
REMARK Flexibility Score: inf
ROOT
ATOM      1  C   UNL A   1      35.784  34.583  33.870  1.00  0.00     0.002 C 
ENDROOT
BRANCH   1   2
ATOM      2  C   UNL A   1      34.466  35.078  33.266  1.00  0.00     0.021 C 
BRANCH   2   3
ATOM      3  C   UNL A   1      34.002  34.259  32.058  1.00  0.00     0.116 C 
BRANCH   3   4
ATOM      4  N   UNL A   1      33.052  34.999  31.255  1.00  0.00    -0.356 N 
ATOM      5  C   UNL A   1      33.033  35.296  29.928  1.00  0.00     0.227 C 
ATOM      6  O   UNL A   1      32.133  36.057  29.549  1.00  0.00    -0.274 OA
ATOM      7  H   UNL A   1      32.281  35.349  31.759  1.00  0.00     0.163 HD
BRANCH   5   8
ATOM      8  C   UNL A   1      34.035  34.729  28.910  1.00  0.00     0.105 C 
ATOM      9  C   UNL A   1      34.689  35.784  28.020  1.00  0.00     0.023 C 
BRANCH   8  10
ATOM     10  C   UNL A   1      33.551  33.476  28.198  1.00  0.00    -0.033 A 
ATOM     11  C   UNL A   1      32.639  31.014  27.043  1.00  0.00     0.018 A 
ATOM     12  C   UNL A   1      31.870  32.187  26.986  1.00  0.00     0.012 A 
ATOM     13  C   UNL A   1      33.906  31.133  27.641  1.00  0.00     0.131 A 
ATOM     14  C   UNL A   1      32.334  33.398  27.516  1.00  0.00     0.005 A 
ATOM     15  C   UNL A   1      34.343  32.322  28.229  1.00  0.00     0.044 A 
ATOM     16  F   UNL A   1      34.749  30.090  27.677  1.00  0.00    -0.206 F 
BRANCH  11  17
ATOM     17  C   UNL A   1      32.105  29.726  26.540  1.00  0.00    -0.012 A 
ATOM     18  C   UNL A   1      31.355  28.335  24.671  1.00  0.00     0.119 A 
ATOM     19  C   UNL A   1      31.160  27.256  25.522  1.00  0.00     0.046 A 
ATOM     20  C   UNL A   1      31.801  29.555  25.179  1.00  0.00     0.055 A 
ATOM     21  C   UNL A   1      31.443  27.393  26.879  1.00  0.00     0.004 A 
ATOM     22  C   UNL A   1      31.909  28.615  27.381  1.00  0.00     0.009 A 
BRANCH  18  23
ATOM     23  O   UNL A   1      30.981  28.214  23.361  1.00  0.00    -0.494 OA
BRANCH  23  24
ATOM     24  C   UNL A   1      29.621  28.595  23.115  1.00  0.00     0.226 C 
ATOM     25  C   UNL A   1      29.502  29.708  22.084  1.00  0.00     0.049 C 
ENDBRANCH  23  24
ENDBRANCH  18  23
ENDBRANCH  11  17
ENDBRANCH   8  10
ENDBRANCH   5   8
ENDBRANCH   3   4
ENDBRANCH   2   3
ENDBRANCH   1   2
BRANCH   1  26
ATOM     26  C   UNL A   1      36.044  33.080  33.702  1.00  0.00     0.002 C 
BRANCH  26  27
ATOM     27  C   UNL A   1      37.519  32.666  33.726  1.00  0.00     0.021 C 
BRANCH  27  28
ATOM     28  C   UNL A   1      37.747  31.157  33.759  1.00  0.00     0.116 C 
BRANCH  28  29
ATOM     29  N   UNL A   1      36.786  30.452  32.922  1.00  0.00    -0.352 N 
ATOM     30  C   UNL A   1      36.921  29.997  31.632  1.00  0.00     0.251 C 
ATOM     31  H   UNL A   1      35.912  30.277  33.341  1.00  0.00     0.163 HD
ATOM     32  O   UNL A   1      35.935  29.664  30.988  1.00  0.00    -0.269 OA
BRANCH  30  33
ATOM     33  C   UNL A   1      38.268  29.927  31.027  1.00  0.00     0.039 A 
ATOM     34  C   UNL A   1      39.331  29.431  31.784  1.00  0.00     0.014 A 
ATOM     35  C   UNL A   1      38.470  30.339  29.708  1.00  0.00     0.014 A 
ATOM     36  C   UNL A   1      40.583  29.267  31.186  1.00  0.00     0.010 A 
ATOM     37  C   UNL A   1      39.698  30.113  29.095  1.00  0.00     0.010 A 
ATOM     38  C   UNL A   1      40.762  29.561  29.824  1.00  0.00    -0.014 A 
BRANCH  38  39
ATOM     39  C   UNL A   1      42.034  29.251  29.122  1.00  0.00     0.031 A 
ATOM     40  C   UNL A   1      42.297  27.865  28.603  1.00  0.00     0.074 A 
ATOM     41  C   UNL A   1      42.987  30.202  29.037  1.00  0.00     0.049 A 
ATOM     42  N   UNL A   1      43.389  27.376  28.077  1.00  0.00    -0.248 NA
ATOM     43  C   UNL A   1      41.193  26.896  28.709  1.00  0.00     0.031 C 
ATOM     44  C   UNL A   1      42.860  31.574  29.536  1.00  0.00     0.029 A 
ATOM     45  N   UNL A   1      44.258  30.157  28.521  1.00  0.00    -0.354 N 
ATOM     46  C   UNL A   1      43.110  26.045  27.793  1.00  0.00     0.074 A 
ATOM     47  C   UNL A   1      41.761  25.789  28.251  1.00  0.00     0.031 C 
ATOM     48  C   UNL A   1      43.998  32.241  29.290  1.00  0.00     0.029 A 
ATOM     49  C   UNL A   1      44.956  31.334  28.665  1.00  0.00     0.049 A 
ATOM     50  H   UNL A   1      44.636  29.357  28.088  1.00  0.00     0.167 HD
ATOM     51  C   UNL A   1      43.900  25.127  27.186  1.00  0.00     0.037 A 
ATOM     52  C   UNL A   1      46.230  31.642  28.354  1.00  0.00     0.037 A 
ATOM     53  C   UNL A   1      45.237  25.396  26.725  1.00  0.00     0.049 A 
ATOM     54  C   UNL A   1      47.106  30.586  27.733  1.00  0.00     0.074 A 
ATOM     55  C   UNL A   1      46.101  24.548  26.052  1.00  0.00     0.029 A 
ATOM     56  N   UNL A   1      45.909  26.599  26.893  1.00  0.00    -0.354 N 
ATOM     57  N   UNL A   1      46.803  29.351  27.410  1.00  0.00    -0.248 NA
ATOM     58  C   UNL A   1      48.497  30.961  27.440  1.00  0.00     0.031 C 
ATOM     59  C   UNL A   1      47.313  25.219  25.864  1.00  0.00     0.029 A 
ATOM     60  C   UNL A   1      47.189  26.502  26.371  1.00  0.00     0.049 A 
ATOM     61  H   UNL A   1      45.533  27.401  27.321  1.00  0.00     0.167 HD
ATOM     62  C   UNL A   1      47.959  28.809  26.858  1.00  0.00     0.074 A 
ATOM     63  C   UNL A   1      48.959  29.855  26.873  1.00  0.00     0.031 C 
ATOM     64  C   UNL A   1      48.173  27.556  26.389  1.00  0.00     0.037 A 
BRANCH  51  65
ATOM     65  C   UNL A   1      43.343  23.746  26.979  1.00  0.00     0.058 A 
ATOM     66  C   UNL A   1      42.976  23.285  25.705  1.00  0.00     0.135 A 
ATOM     67  C   UNL A   1      43.236  22.847  28.054  1.00  0.00     0.135 A 
ATOM     68  F   UNL A   1      43.043  24.106  24.644  1.00  0.00    -0.206 F 
ATOM     69  C   UNL A   1      42.505  21.992  25.506  1.00  0.00     0.059 A 
ATOM     70  C   UNL A   1      42.795  21.540  27.874  1.00  0.00     0.059 A 
ATOM     71  F   UNL A   1      43.573  23.235  29.294  1.00  0.00    -0.206 F 
ATOM     72  C   UNL A   1      42.422  21.125  26.597  1.00  0.00     0.060 A 
BRANCH  72  73
ATOM     73  S   UNL A   1      41.830  19.443  26.312  1.00  0.00     0.124 S 
ATOM     74  O   UNL A   1      42.484  19.113  25.051  1.00  0.00    -0.237 OA
ATOM     75  O   UNL A   1      42.327  18.737  27.488  1.00  0.00    -0.237 OA
ATOM     76  O   UNL A   1      40.380  19.599  26.243  1.00  0.00    -0.744 OA
ENDBRANCH  72  73
ENDBRANCH  51  65
BRANCH  52  77
ATOM     77  C   UNL A   1      46.763  33.002  28.636  1.00  0.00     0.058 A 
ATOM     78  C   UNL A   1      47.340  33.309  29.876  1.00  0.00     0.135 A 
ATOM     79  C   UNL A   1      46.699  34.026  27.676  1.00  0.00     0.135 A 
ATOM     80  F   UNL A   1      47.419  32.367  30.830  1.00  0.00    -0.206 F 
ATOM     81  C   UNL A   1      47.813  34.585  30.167  1.00  0.00     0.059 A 
ATOM     82  C   UNL A   1      47.191  35.302  27.932  1.00  0.00     0.059 A 
ATOM     83  F   UNL A   1      46.170  33.784  26.466  1.00  0.00    -0.206 F 
ATOM     84  C   UNL A   1      47.735  35.575  29.187  1.00  0.00     0.060 A 
BRANCH  84  85
ATOM     85  S   UNL A   1      48.378  37.220  29.563  1.00  0.00     0.124 S 
ATOM     86  O   UNL A   1      47.369  38.076  28.950  1.00  0.00    -0.237 OA
ATOM     87  O   UNL A   1      48.408  37.209  31.022  1.00  0.00    -0.237 OA
ATOM     88  O   UNL A   1      49.687  37.223  28.916  1.00  0.00    -0.744 OA
ENDBRANCH  84  85
ENDBRANCH  52  77
BRANCH  64  89
ATOM     89  C   UNL A   1      49.537  27.242  25.837  1.00  0.00     0.058 A 
ATOM     90  C   UNL A   1      50.569  26.772  26.664  1.00  0.00     0.135 A 
ATOM     91  C   UNL A   1      49.789  27.332  24.458  1.00  0.00     0.135 A 
ATOM     92  F   UNL A   1      50.384  26.679  27.990  1.00  0.00    -0.206 F 
ATOM     93  C   UNL A   1      51.806  26.407  26.144  1.00  0.00     0.059 A 
ATOM     94  C   UNL A   1      51.008  26.944  23.912  1.00  0.00     0.059 A 
ATOM     95  F   UNL A   1      48.833  27.770  23.624  1.00  0.00    -0.206 F 
ATOM     96  C   UNL A   1      52.012  26.486  24.765  1.00  0.00     0.060 A 
BRANCH  96  97
ATOM     97  S   UNL A   1      53.599  25.939  24.100  1.00  0.00     0.124 S 
ATOM     98  O   UNL A   1      53.748  24.631  24.728  1.00  0.00    -0.237 OA
ATOM     99  O   UNL A   1      53.346  25.928  22.663  1.00  0.00    -0.237 OA
ATOM    100  O   UNL A   1      54.532  26.965  24.559  1.00  0.00    -0.744 OA
ENDBRANCH  96  97
ENDBRANCH  64  89
ENDBRANCH  38  39
ENDBRANCH  30  33
ENDBRANCH  28  29
ENDBRANCH  27  28
ENDBRANCH  26  27
ENDBRANCH   1  26
TORSDOF 20
ENDMDL
MODEL 3
REMARK VINA RESULT:      -8.4      5.282      8.861
REMARK SMILES CCOc1cccc(-c2ccc([C@@H](C)C(=O)NCCCCCCNC(=O)c3ccc(-c4c5nc(c(-c6c(F)cc(S(=O)(=O)[O-])cc6F)c6ccc([nH]6)c(-c6c(F)cc(S(=O)(=O)[O-])cc6F)c6nc(c(-c7c(F)cc(S(=O)(=O)[O-])cc7F)c7ccc4[nH]7)C=C6)C=C5)cc3)cc2F)c1
REMARK SMILES IDX 20 1 19 2 18 3 17 4 15 5 16 6 13 8 14 9 12 10 9 11 10 12
REMARK SMILES IDX 94 13 11 14 93 15 95 16 8 17 4 18 5 19 96 20 6 21 7 22 3 23
REMARK SMILES IDX 2 24 1 25 21 26 22 27 23 28 24 29 25 30 26 32 27 33 28 34
REMARK SMILES IDX 92 35 29 36 91 37 30 38 31 39 32 40 85 41 33 42 90 43 84 44
REMARK SMILES IDX 86 45 34 46 89 47 83 48 82 49 35 51 69 52 48 53 68 54 49 55
REMARK SMILES IDX 52 56 67 57 87 58 50 59 51 60 66 62 88 63 53 64 36 65 37 66
REMARK SMILES IDX 46 67 38 68 39 69 45 70 47 71 40 72 41 73 42 74 43 75 44 76
REMARK SMILES IDX 70 77 71 78 80 79 72 80 73 81 79 82 81 83 74 84 75 85 76 86
REMARK SMILES IDX 77 87 78 88 54 89 55 90 64 91 56 92 57 93 63 94 65 95 58 96
REMARK SMILES IDX 59 97 60 98 61 99 62 100
REMARK H PARENT 17 7 24 31 86 50 52 61
REMARK Flexibility Score: inf
ROOT
ATOM      1  C   UNL A   1      35.585  31.117  28.095  1.00  0.00     0.002 C 
ENDROOT
BRANCH   1   2
ATOM      2  C   UNL A   1      34.464  30.589  27.194  1.00  0.00     0.021 C 
BRANCH   2   3
ATOM      3  C   UNL A   1      34.377  29.061  27.160  1.00  0.00     0.116 C 
BRANCH   3   4
ATOM      4  N   UNL A   1      33.131  28.592  27.728  1.00  0.00    -0.356 N 
ATOM      5  C   UNL A   1      32.099  27.894  27.185  1.00  0.00     0.227 C 
ATOM      6  O   UNL A   1      31.102  27.740  27.902  1.00  0.00    -0.274 OA
ATOM      7  H   UNL A   1      33.008  28.821  28.679  1.00  0.00     0.163 HD
BRANCH   5   8
ATOM      8  C   UNL A   1      32.126  27.288  25.772  1.00  0.00     0.105 C 
ATOM      9  C   UNL A   1      30.829  27.470  24.987  1.00  0.00     0.023 C 
BRANCH   8  10
ATOM     10  C   UNL A   1      32.747  25.902  25.705  1.00  0.00    -0.033 A 
ATOM     11  C   UNL A   1      33.742  23.221  25.482  1.00  0.00     0.018 A 
ATOM     12  C   UNL A   1      34.389  24.304  24.867  1.00  0.00     0.012 A 
ATOM     13  C   UNL A   1      32.617  23.536  26.264  1.00  0.00     0.131 A 
ATOM     14  C   UNL A   1      33.925  25.618  25.009  1.00  0.00     0.005 A 
ATOM     15  C   UNL A   1      32.113  24.836  26.354  1.00  0.00     0.044 A 
ATOM     16  F   UNL A   1      31.972  22.584  26.956  1.00  0.00    -0.206 F 
BRANCH  11  17
ATOM     17  C   UNL A   1      34.206  21.830  25.265  1.00  0.00    -0.012 A 
ATOM     18  C   UNL A   1      33.709  19.502  24.699  1.00  0.00     0.119 A 
ATOM     19  C   UNL A   1      35.058  19.175  24.760  1.00  0.00     0.046 A 
ATOM     20  C   UNL A   1      33.293  20.805  24.968  1.00  0.00     0.055 A 
ATOM     21  C   UNL A   1      35.990  20.166  25.060  1.00  0.00     0.004 A 
ATOM     22  C   UNL A   1      35.567  21.477  25.310  1.00  0.00     0.009 A 
BRANCH  18  23
ATOM     23  O   UNL A   1      32.800  18.500  24.499  1.00  0.00    -0.494 OA
BRANCH  23  24
ATOM     24  C   UNL A   1      33.076  17.696  23.345  1.00  0.00     0.226 C 
ATOM     25  C   UNL A   1      32.353  18.191  22.100  1.00  0.00     0.049 C 
ENDBRANCH  23  24
ENDBRANCH  18  23
ENDBRANCH  11  17
ENDBRANCH   8  10
ENDBRANCH   5   8
ENDBRANCH   3   4
ENDBRANCH   2   3
ENDBRANCH   1   2
BRANCH   1  26
ATOM     26  C   UNL A   1      35.690  32.647  28.160  1.00  0.00     0.002 C 
BRANCH  26  27
ATOM     27  C   UNL A   1      34.357  33.397  28.067  1.00  0.00     0.021 C 
BRANCH  27  28
ATOM     28  C   UNL A   1      34.464  34.900  28.310  1.00  0.00     0.116 C 
BRANCH  28  29
ATOM     29  N   UNL A   1      33.447  35.365  29.243  1.00  0.00    -0.352 N 
ATOM     30  C   UNL A   1      33.298  35.087  30.581  1.00  0.00     0.251 C 
ATOM     31  H   UNL A   1      32.766  35.964  28.859  1.00  0.00     0.163 HD
ATOM     32  O   UNL A   1      32.245  35.343  31.151  1.00  0.00    -0.269 OA
BRANCH  30  33
ATOM     33  C   UNL A   1      34.415  34.465  31.320  1.00  0.00     0.039 A 
ATOM     34  C   UNL A   1      34.355  33.104  31.630  1.00  0.00     0.014 A 
ATOM     35  C   UNL A   1      35.526  35.226  31.691  1.00  0.00     0.014 A 
ATOM     36  C   UNL A   1      35.452  32.489  32.238  1.00  0.00     0.010 A 
ATOM     37  C   UNL A   1      36.643  34.600  32.235  1.00  0.00     0.010 A 
ATOM     38  C   UNL A   1      36.622  33.222  32.499  1.00  0.00    -0.014 A 
BRANCH  38  39
ATOM     39  C   UNL A   1      37.857  32.564  32.998  1.00  0.00     0.031 A 
ATOM     40  C   UNL A   1      38.362  32.852  34.384  1.00  0.00     0.074 A 
ATOM     41  C   UNL A   1      38.568  31.778  32.165  1.00  0.00     0.049 A 
ATOM     42  N   UNL A   1      39.478  32.472  34.950  1.00  0.00    -0.248 NA
ATOM     43  C   UNL A   1      37.511  33.695  35.240  1.00  0.00     0.031 C 
ATOM     44  C   UNL A   1      38.195  31.454  30.785  1.00  0.00     0.029 A 
ATOM     45  N   UNL A   1      39.762  31.125  32.344  1.00  0.00    -0.354 N 
ATOM     46  C   UNL A   1      39.468  33.031  36.222  1.00  0.00     0.074 A 
ATOM     47  C   UNL A   1      38.258  33.817  36.328  1.00  0.00     0.031 C 
ATOM     48  C   UNL A   1      39.132  30.655  30.250  1.00  0.00     0.029 A 
ATOM     49  C   UNL A   1      40.198  30.453  31.226  1.00  0.00     0.049 A 
ATOM     50  H   UNL A   1      40.260  31.137  33.193  1.00  0.00     0.167 HD
ATOM     51  C   UNL A   1      40.375  32.882  37.217  1.00  0.00     0.037 A 
ATOM     52  C   UNL A   1      41.339  29.771  31.002  1.00  0.00     0.037 A 
ATOM     53  C   UNL A   1      41.570  32.087  37.103  1.00  0.00     0.049 A 
ATOM     54  C   UNL A   1      42.358  29.669  32.105  1.00  0.00     0.074 A 
ATOM     55  C   UNL A   1      42.527  31.832  38.070  1.00  0.00     0.029 A 
ATOM     56  N   UNL A   1      41.978  31.425  35.954  1.00  0.00    -0.354 N 
ATOM     57  N   UNL A   1      42.300  30.148  33.326  1.00  0.00    -0.248 NA
ATOM     58  C   UNL A   1      43.599  28.942  31.803  1.00  0.00     0.031 C 
ATOM     59  C   UNL A   1      43.541  31.064  37.490  1.00  0.00     0.029 A 
ATOM     60  C   UNL A   1      43.191  30.794  36.178  1.00  0.00     0.049 A 
ATOM     61  H   UNL A   1      41.481  31.408  35.105  1.00  0.00     0.167 HD
ATOM     62  C   UNL A   1      43.486  29.764  33.941  1.00  0.00     0.074 A 
ATOM     63  C   UNL A   1      44.232  28.996  32.966  1.00  0.00     0.031 C 
ATOM     64  C   UNL A   1      43.920  30.028  35.197  1.00  0.00     0.037 A 
BRANCH  51  65
ATOM     65  C   UNL A   1      40.114  33.587  38.519  1.00  0.00     0.058 A 
ATOM     66  C   UNL A   1      40.774  34.779  38.855  1.00  0.00     0.135 A 
ATOM     67  C   UNL A   1      39.145  33.102  39.414  1.00  0.00     0.135 A 
ATOM     68  F   UNL A   1      41.719  35.280  38.044  1.00  0.00    -0.206 F 
ATOM     69  C   UNL A   1      40.498  35.456  40.038  1.00  0.00     0.059 A 
ATOM     70  C   UNL A   1      38.832  33.777  40.590  1.00  0.00     0.059 A 
ATOM     71  F   UNL A   1      38.484  31.965  39.144  1.00  0.00    -0.206 F 
ATOM     72  C   UNL A   1      39.522  34.949  40.898  1.00  0.00     0.060 A 
BRANCH  72  73
ATOM     73  S   UNL A   1      39.163  35.855  42.418  1.00  0.00     0.124 S 
ATOM     74  O   UNL A   1      40.207  35.357  43.307  1.00  0.00    -0.237 OA
ATOM     75  O   UNL A   1      39.303  37.243  41.991  1.00  0.00    -0.237 OA
ATOM     76  O   UNL A   1      37.805  35.436  42.752  1.00  0.00    -0.744 OA
ENDBRANCH  72  73
ENDBRANCH  51  65
BRANCH  52  77
ATOM     77  C   UNL A   1      41.588  29.142  29.676  1.00  0.00     0.058 A 
ATOM     78  C   UNL A   1      42.401  29.769  28.721  1.00  0.00     0.135 A 
ATOM     79  C   UNL A   1      41.013  27.908  29.332  1.00  0.00     0.135 A 
ATOM     80  F   UNL A   1      42.968  30.955  28.999  1.00  0.00    -0.206 F 
ATOM     81  C   UNL A   1      42.618  29.211  27.466  1.00  0.00     0.059 A 
ATOM     82  C   UNL A   1      41.239  27.314  28.095  1.00  0.00     0.059 A 
ATOM     83  F   UNL A   1      40.238  27.256  30.214  1.00  0.00    -0.206 F 
ATOM     84  C   UNL A   1      42.033  27.981  27.162  1.00  0.00     0.060 A 
BRANCH  84  85
ATOM     85  S   UNL A   1      42.344  27.250  25.541  1.00  0.00     0.124 S 
ATOM     86  O   UNL A   1      43.639  26.611  25.751  1.00  0.00    -0.237 OA
ATOM     87  O   UNL A   1      41.205  26.351  25.387  1.00  0.00    -0.237 OA
ATOM     88  O   UNL A   1      42.347  28.405  24.648  1.00  0.00    -0.744 OA
ENDBRANCH  84  85
ENDBRANCH  52  77
BRANCH  64  89
ATOM     89  C   UNL A   1      45.260  29.476  35.602  1.00  0.00     0.058 A 
ATOM     90  C   UNL A   1      46.432  30.235  35.474  1.00  0.00     0.135 A 
ATOM     91  C   UNL A   1      45.359  28.209  36.201  1.00  0.00     0.135 A 
ATOM     92  F   UNL A   1      46.394  31.447  34.898  1.00  0.00    -0.206 F 
ATOM     93  C   UNL A   1      47.659  29.757  35.921  1.00  0.00     0.059 A 
ATOM     94  C   UNL A   1      46.570  27.722  36.682  1.00  0.00     0.059 A 
ATOM     95  F   UNL A   1      44.265  27.446  36.352  1.00  0.00    -0.206 F 
ATOM     96  C   UNL A   1      47.716  28.502  36.534  1.00  0.00     0.060 A 
BRANCH  96  97
ATOM     97  S   UNL A   1      49.303  27.928  37.173  1.00  0.00     0.124 S 
ATOM     98  O   UNL A   1      49.424  26.622  36.533  1.00  0.00    -0.237 OA
ATOM     99  O   UNL A   1      50.221  28.956  36.693  1.00  0.00    -0.237 OA
ATOM    100  O   UNL A   1      49.100  27.901  38.619  1.00  0.00    -0.744 OA
ENDBRANCH  96  97
ENDBRANCH  64  89
ENDBRANCH  38  39
ENDBRANCH  30  33
ENDBRANCH  28  29
ENDBRANCH  27  28
ENDBRANCH  26  27
ENDBRANCH   1  26
TORSDOF 20
ENDMDL
