MODEL 1
REMARK VINA RESULT:     -11.3      0.000      0.000
REMARK SMILES O=C(NCCCCCCNC(=O)[C@@H]1C[C@@H](O)CN1C(=O)CSc1ccc(F)cc1F)c1ccc(-c2c3nc(c(-c4c(F)cc(S(=O)(=O)[O-])cc4F)c4ccc([nH]4)c(-c4c(F)cc(S(=O)(=O)[O-])cc4F)c4nc(c(-c5c(F)cc(S(=O)(=O)[O-])cc5F)c5ccc2[nH]5)C=C4)C=C3)cc1
REMARK SMILES IDX 7 1 6 2 5 3 4 4 3 5 1 6 2 7 31 9 32 10 96 11 33 12 95 13
REMARK SMILES IDX 34 14 35 15 36 16 89 17 37 18 94 19 88 20 90 21 38 22 93 23
REMARK SMILES IDX 87 24 86 25 39 27 73 28 52 29 72 30 53 31 56 32 71 33 91 34
REMARK SMILES IDX 54 35 55 36 70 38 92 39 57 40 40 41 41 42 50 43 42 44 43 45
REMARK SMILES IDX 49 46 51 47 44 48 45 49 46 50 47 51 48 52 74 53 75 54 84 55
REMARK SMILES IDX 76 56 77 57 83 58 85 59 78 60 79 61 80 62 81 63 82 64 58 65
REMARK SMILES IDX 59 66 68 67 60 68 61 69 67 70 69 71 62 72 63 73 64 74 65 75
REMARK SMILES IDX 66 76 8 77 9 78 10 79 11 80 12 82 13 83 14 84 18 85 15 86
REMARK SMILES IDX 17 87 19 88 20 89 21 90 22 91 23 92 24 93 29 94 25 95 28 96
REMARK SMILES IDX 30 97 26 98 27 99 16 100
REMARK H PARENT 3 8 90 26 56 37 10 81 16 101
REMARK Flexibility Score: inf
ROOT
ATOM      1  C   UNL A   1      38.647  22.057  25.878  1.00  0.00     0.002 C 
ENDROOT
BRANCH   1   2
ATOM      2  C   UNL A   1      40.074  21.676  26.289  1.00  0.00     0.002 C 
BRANCH   2   3
ATOM      3  C   UNL A   1      40.559  22.316  27.590  1.00  0.00     0.021 C 
BRANCH   3   4
ATOM      4  C   UNL A   1      41.802  23.181  27.433  1.00  0.00     0.116 C 
BRANCH   4   5
ATOM      5  N   UNL A   1      41.764  23.971  26.214  1.00  0.00    -0.352 N 
ATOM      6  O   UNL A   1      41.279  25.783  24.960  1.00  0.00    -0.269 OA
ATOM      7  C   UNL A   1      41.463  25.303  26.075  1.00  0.00     0.251 C 
ATOM      8  H   UNL A   1      41.981  23.490  25.383  1.00  0.00     0.163 HD
BRANCH   7   9
ATOM      9  C   UNL A   1      41.348  26.146  27.283  1.00  0.00     0.039 A 
ATOM     10  C   UNL A   1      42.351  27.070  27.594  1.00  0.00     0.014 A 
ATOM     11  C   UNL A   1      40.226  26.018  28.105  1.00  0.00     0.014 A 
ATOM     12  C   UNL A   1      42.278  27.795  28.778  1.00  0.00     0.010 A 
ATOM     13  C   UNL A   1      40.118  26.804  29.256  1.00  0.00     0.010 A 
ATOM     14  C   UNL A   1      41.148  27.692  29.603  1.00  0.00    -0.014 A 
BRANCH  14  15
ATOM     15  C   UNL A   1      41.010  28.619  30.754  1.00  0.00     0.031 A 
ATOM     16  C   UNL A   1      41.911  28.521  31.952  1.00  0.00     0.074 A 
ATOM     17  C   UNL A   1      40.055  29.567  30.687  1.00  0.00     0.049 A 
ATOM     18  N   UNL A   1      41.910  29.255  33.034  1.00  0.00    -0.248 NA
ATOM     19  C   UNL A   1      42.939  27.469  31.942  1.00  0.00     0.031 C 
ATOM     20  C   UNL A   1      39.113  29.733  29.574  1.00  0.00     0.029 A 
ATOM     21  N   UNL A   1      39.718  30.572  31.555  1.00  0.00    -0.354 N 
ATOM     22  C   UNL A   1      42.922  28.750  33.841  1.00  0.00     0.074 A 
ATOM     23  C   UNL A   1      43.510  27.634  33.129  1.00  0.00     0.031 C 
ATOM     24  C   UNL A   1      38.333  30.797  29.810  1.00  0.00     0.029 A 
ATOM     25  C   UNL A   1      38.673  31.350  31.115  1.00  0.00     0.049 A 
ATOM     26  H   UNL A   1      40.180  30.723  32.411  1.00  0.00     0.167 HD
ATOM     27  C   UNL A   1      43.321  29.185  35.060  1.00  0.00     0.037 A 
ATOM     28  C   UNL A   1      38.038  32.380  31.705  1.00  0.00     0.037 A 
ATOM     29  C   UNL A   1      42.738  30.312  35.745  1.00  0.00     0.049 A 
ATOM     30  C   UNL A   1      38.493  32.825  33.064  1.00  0.00     0.074 A 
ATOM     31  C   UNL A   1      43.106  30.860  36.962  1.00  0.00     0.029 A 
ATOM     32  N   UNL A   1      41.664  31.059  35.280  1.00  0.00    -0.354 N 
ATOM     33  N   UNL A   1      39.476  32.357  33.793  1.00  0.00    -0.248 NA
ATOM     34  C   UNL A   1      37.749  33.928  33.685  1.00  0.00     0.031 C 
ATOM     35  C   UNL A   1      42.229  31.910  37.253  1.00  0.00     0.029 A 
ATOM     36  C   UNL A   1      41.341  32.044  36.198  1.00  0.00     0.049 A 
ATOM     37  H   UNL A   1      41.201  30.909  34.425  1.00  0.00     0.167 HD
ATOM     38  C   UNL A   1      39.471  33.108  34.961  1.00  0.00     0.074 A 
ATOM     39  C   UNL A   1      38.405  34.081  34.828  1.00  0.00     0.031 C 
ATOM     40  C   UNL A   1      40.271  32.997  36.048  1.00  0.00     0.037 A 
BRANCH  27  41
ATOM     41  C   UNL A   1      44.439  28.457  35.751  1.00  0.00     0.058 A 
ATOM     42  C   UNL A   1      44.159  27.451  36.689  1.00  0.00     0.135 A 
ATOM     43  C   UNL A   1      45.779  28.835  35.576  1.00  0.00     0.135 A 
ATOM     44  F   UNL A   1      42.894  27.050  36.892  1.00  0.00    -0.206 F 
ATOM     45  C   UNL A   1      45.164  26.858  37.449  1.00  0.00     0.059 A 
ATOM     46  C   UNL A   1      46.802  28.244  36.312  1.00  0.00     0.059 A 
ATOM     47  F   UNL A   1      46.103  29.782  34.681  1.00  0.00    -0.206 F 
ATOM     48  C   UNL A   1      46.483  27.264  37.254  1.00  0.00     0.060 A 
BRANCH  48  49
ATOM     49  S   UNL A   1      47.819  26.551  38.238  1.00  0.00     0.124 S 
ATOM     50  O   UNL A   1      47.361  25.175  38.399  1.00  0.00    -0.237 OA
ATOM     51  O   UNL A   1      48.977  26.736  37.369  1.00  0.00    -0.237 OA
ATOM     52  O   UNL A   1      47.815  27.358  39.455  1.00  0.00    -0.744 OA
ENDBRANCH  48  49
ENDBRANCH  27  41
BRANCH  28  53
ATOM     53  C   UNL A   1      36.890  33.029  31.022  1.00  0.00     0.058 A 
ATOM     54  C   UNL A   1      35.572  32.800  31.448  1.00  0.00     0.135 A 
ATOM     55  C   UNL A   1      37.084  33.872  29.919  1.00  0.00     0.135 A 
ATOM     56  F   UNL A   1      35.333  31.985  32.489  1.00  0.00    -0.206 F 
ATOM     57  C   UNL A   1      34.483  33.371  30.800  1.00  0.00     0.059 A 
ATOM     58  C   UNL A   1      36.012  34.479  29.272  1.00  0.00     0.059 A 
ATOM     59  F   UNL A   1      38.325  34.123  29.477  1.00  0.00    -0.206 F 
ATOM     60  C   UNL A   1      34.715  34.221  29.720  1.00  0.00     0.060 A 
BRANCH  60  61
ATOM     61  S   UNL A   1      33.329  34.983  28.849  1.00  0.00     0.124 S 
ATOM     62  O   UNL A   1      32.359  35.140  29.926  1.00  0.00    -0.237 OA
ATOM     63  O   UNL A   1      33.926  36.214  28.340  1.00  0.00    -0.237 OA
ATOM     64  O   UNL A   1      32.988  33.994  27.831  1.00  0.00    -0.744 OA
ENDBRANCH  60  61
ENDBRANCH  28  53
BRANCH  40  65
ATOM     65  C   UNL A   1      40.023  33.952  37.180  1.00  0.00     0.058 A 
ATOM     66  C   UNL A   1      39.237  33.572  38.278  1.00  0.00     0.135 A 
ATOM     67  C   UNL A   1      40.523  35.263  37.148  1.00  0.00     0.135 A 
ATOM     68  F   UNL A   1      38.731  32.330  38.350  1.00  0.00    -0.206 F 
ATOM     69  C   UNL A   1      38.944  34.462  39.305  1.00  0.00     0.059 A 
ATOM     70  C   UNL A   1      40.263  36.163  38.176  1.00  0.00     0.059 A 
ATOM     71  F   UNL A   1      41.289  35.671  36.124  1.00  0.00    -0.206 F 
ATOM     72  C   UNL A   1      39.469  35.753  39.249  1.00  0.00     0.060 A 
BRANCH  72  73
ATOM     73  S   UNL A   1      39.108  36.944  40.557  1.00  0.00     0.124 S 
ATOM     74  O   UNL A   1      38.046  36.263  41.290  1.00  0.00    -0.237 OA
ATOM     75  O   UNL A   1      40.391  37.045  41.246  1.00  0.00    -0.237 OA
ATOM     76  O   UNL A   1      38.700  38.139  39.826  1.00  0.00    -0.744 OA
ENDBRANCH  72  73
ENDBRANCH  40  65
ENDBRANCH  14  15
ENDBRANCH   7   9
ENDBRANCH   4   5
ENDBRANCH   3   4
ENDBRANCH   2   3
ENDBRANCH   1   2
BRANCH   1  77
ATOM     77  C   UNL A   1      38.259  23.518  26.153  1.00  0.00     0.021 C 
BRANCH  77  78
ATOM     78  C   UNL A   1      36.755  23.786  26.071  1.00  0.00     0.116 C 
BRANCH  78  79
ATOM     79  N   UNL A   1      36.319  23.736  24.691  1.00  0.00    -0.354 N 
ATOM     80  C   UNL A   1      35.365  22.968  24.093  1.00  0.00     0.242 C 
ATOM     81  H   UNL A   1      36.788  24.356  24.087  1.00  0.00     0.163 HD
ATOM     82  O   UNL A   1      35.332  22.987  22.862  1.00  0.00    -0.273 OA
BRANCH  80  83
ATOM     83  C   UNL A   1      34.395  22.145  24.972  1.00  0.00     0.177 C 
ATOM     84  C   UNL A   1      34.656  20.638  24.829  1.00  0.00     0.069 C 
ATOM     85  N   UNL A   1      32.970  22.278  24.612  1.00  0.00    -0.327 N 
ATOM     86  C   UNL A   1      33.310  20.015  25.169  1.00  0.00     0.136 C 
ATOM     87  C   UNL A   1      32.321  20.975  24.518  1.00  0.00     0.152 C 
BRANCH  85  88
ATOM     88  C   UNL A   1      32.356  23.510  24.566  1.00  0.00     0.233 C 
ATOM     89  O   UNL A   1      32.280  24.211  25.582  1.00  0.00    -0.274 OA
BRANCH  88  90
ATOM     90  C   UNL A   1      31.652  23.971  23.296  1.00  0.00     0.175 C 
BRANCH  90  91
ATOM     91  S   UNL A   1      32.500  25.226  22.278  1.00  0.00    -0.113 SA
BRANCH  91  92
ATOM     92  C   UNL A   1      31.926  26.741  23.020  1.00  0.00     0.044 A 
ATOM     93  C   UNL A   1      30.713  27.300  22.600  1.00  0.00     0.021 A 
ATOM     94  C   UNL A   1      32.705  27.447  23.945  1.00  0.00     0.139 A 
ATOM     95  C   UNL A   1      30.272  28.510  23.141  1.00  0.00     0.040 A 
ATOM     96  C   UNL A   1      32.255  28.632  24.518  1.00  0.00     0.079 A 
ATOM     97  F   UNL A   1      33.933  27.013  24.266  1.00  0.00    -0.206 F 
ATOM     98  C   UNL A   1      31.037  29.154  24.109  1.00  0.00     0.126 A 
ATOM     99  F   UNL A   1      30.601  30.308  24.631  1.00  0.00    -0.207 F 
ENDBRANCH  91  92
ENDBRANCH  90  91
ENDBRANCH  88  90
ENDBRANCH  85  88
BRANCH  86 100
ATOM    100  O   UNL A   1      33.135  19.972  26.585  1.00  0.00    -0.391 OA
ATOM    101  H   UNL A   1      33.788  19.369  26.974  1.00  0.00     0.211 HD
ENDBRANCH  86 100
ENDBRANCH  80  83
ENDBRANCH  78  79
ENDBRANCH  77  78
ENDBRANCH   1  77
TORSDOF 21
ENDMDL
MODEL 2
REMARK VINA RESULT:     -11.2      0.772      8.157
REMARK SMILES O=C(NCCCCCCNC(=O)[C@@H]1C[C@@H](O)CN1C(=O)CSc1ccc(F)cc1F)c1ccc(-c2c3nc(c(-c4c(F)cc(S(=O)(=O)[O-])cc4F)c4ccc([nH]4)c(-c4c(F)cc(S(=O)(=O)[O-])cc4F)c4nc(c(-c5c(F)cc(S(=O)(=O)[O-])cc5F)c5ccc2[nH]5)C=C4)C=C3)cc1
REMARK SMILES IDX 7 1 6 2 5 3 4 4 3 5 1 6 2 7 31 9 32 10 96 11 33 12 95 13
REMARK SMILES IDX 34 14 35 15 36 16 89 17 37 18 94 19 88 20 90 21 38 22 93 23
REMARK SMILES IDX 87 24 86 25 39 27 73 28 52 29 72 30 53 31 56 32 71 33 91 34
REMARK SMILES IDX 54 35 55 36 70 38 92 39 57 40 40 41 41 42 50 43 42 44 43 45
REMARK SMILES IDX 49 46 51 47 44 48 45 49 46 50 47 51 48 52 74 53 75 54 84 55
REMARK SMILES IDX 76 56 77 57 83 58 85 59 78 60 79 61 80 62 81 63 82 64 58 65
REMARK SMILES IDX 59 66 68 67 60 68 61 69 67 70 69 71 62 72 63 73 64 74 65 75
REMARK SMILES IDX 66 76 8 77 9 78 10 79 11 80 12 82 13 83 14 84 18 85 15 86
REMARK SMILES IDX 17 87 19 88 20 89 21 90 22 91 23 92 24 93 29 94 25 95 28 96
REMARK SMILES IDX 30 97 26 98 27 99 16 100
REMARK H PARENT 3 8 90 26 56 37 10 81 16 101
REMARK Flexibility Score: inf
ROOT
ATOM      1  C   UNL A   1      38.769  21.941  26.068  1.00  0.00     0.002 C 
ENDROOT
BRANCH   1   2
ATOM      2  C   UNL A   1      40.241  21.700  26.424  1.00  0.00     0.002 C 
BRANCH   2   3
ATOM      3  C   UNL A   1      40.707  22.373  27.715  1.00  0.00     0.021 C 
BRANCH   3   4
ATOM      4  C   UNL A   1      41.902  23.300  27.538  1.00  0.00     0.116 C 
BRANCH   4   5
ATOM      5  N   UNL A   1      41.823  24.058  26.302  1.00  0.00    -0.352 N 
ATOM      6  O   UNL A   1      41.231  25.805  25.002  1.00  0.00    -0.269 OA
ATOM      7  C   UNL A   1      41.436  25.364  26.129  1.00  0.00     0.251 C 
ATOM      8  H   UNL A   1      42.080  23.574  25.484  1.00  0.00     0.163 HD
BRANCH   7   9
ATOM      9  C   UNL A   1      41.254  26.224  27.317  1.00  0.00     0.039 A 
ATOM     10  C   UNL A   1      42.191  27.217  27.617  1.00  0.00     0.014 A 
ATOM     11  C   UNL A   1      40.132  26.043  28.130  1.00  0.00     0.014 A 
ATOM     12  C   UNL A   1      42.059  27.962  28.783  1.00  0.00     0.010 A 
ATOM     13  C   UNL A   1      39.961  26.845  29.261  1.00  0.00     0.010 A 
ATOM     14  C   UNL A   1      40.928  27.805  29.599  1.00  0.00    -0.014 A 
BRANCH  14  15
ATOM     15  C   UNL A   1      40.718  28.746  30.727  1.00  0.00     0.031 A 
ATOM     16  C   UNL A   1      39.642  29.792  30.688  1.00  0.00     0.074 A 
ATOM     17  C   UNL A   1      41.520  28.624  31.804  1.00  0.00     0.049 A 
ATOM     18  N   UNL A   1      39.341  30.686  31.593  1.00  0.00    -0.248 NA
ATOM     19  C   UNL A   1      38.799  29.850  29.484  1.00  0.00     0.031 C 
ATOM     20  C   UNL A   1      42.611  27.652  31.932  1.00  0.00     0.029 A 
ATOM     21  N   UNL A   1      41.545  29.304  32.994  1.00  0.00    -0.354 N 
ATOM     22  C   UNL A   1      38.286  31.423  31.069  1.00  0.00     0.074 A 
ATOM     23  C   UNL A   1      38.007  30.881  29.756  1.00  0.00     0.031 C 
ATOM     24  C   UNL A   1      43.171  27.772  33.144  1.00  0.00     0.029 A 
ATOM     25  C   UNL A   1      42.525  28.869  33.854  1.00  0.00     0.049 A 
ATOM     26  H   UNL A   1      40.919  30.032  33.211  1.00  0.00     0.167 HD
ATOM     27  C   UNL A   1      37.616  32.453  31.638  1.00  0.00     0.037 A 
ATOM     28  C   UNL A   1      42.885  29.319  35.070  1.00  0.00     0.037 A 
ATOM     29  C   UNL A   1      37.895  32.967  32.956  1.00  0.00     0.049 A 
ATOM     30  C   UNL A   1      42.134  30.474  35.665  1.00  0.00     0.074 A 
ATOM     31  C   UNL A   1      37.237  33.975  33.641  1.00  0.00     0.029 A 
ATOM     32  N   UNL A   1      38.912  32.519  33.787  1.00  0.00    -0.354 N 
ATOM     33  N   UNL A   1      41.116  31.132  35.168  1.00  0.00    -0.248 NA
ATOM     34  C   UNL A   1      42.584  30.954  36.977  1.00  0.00     0.031 C 
ATOM     35  C   UNL A   1      37.884  34.167  34.866  1.00  0.00     0.029 A 
ATOM     36  C   UNL A   1      38.917  33.249  34.964  1.00  0.00     0.049 A 
ATOM     37  H   UNL A   1      39.538  31.791  33.571  1.00  0.00     0.167 HD
ATOM     38  C   UNL A   1      40.801  32.106  36.106  1.00  0.00     0.074 A 
ATOM     39  C   UNL A   1      41.719  31.931  37.213  1.00  0.00     0.031 C 
ATOM     40  C   UNL A   1      39.844  33.063  36.051  1.00  0.00     0.037 A 
BRANCH  27  41
ATOM     41  C   UNL A   1      36.511  33.109  30.858  1.00  0.00     0.058 A 
ATOM     42  C   UNL A   1      36.810  34.006  29.821  1.00  0.00     0.135 A 
ATOM     43  C   UNL A   1      35.164  32.943  31.214  1.00  0.00     0.135 A 
ATOM     44  F   UNL A   1      38.083  34.198  29.440  1.00  0.00    -0.206 F 
ATOM     45  C   UNL A   1      35.816  34.737  29.175  1.00  0.00     0.059 A 
ATOM     46  C   UNL A   1      34.152  33.650  30.571  1.00  0.00     0.059 A 
ATOM     47  F   UNL A   1      34.822  32.087  32.189  1.00  0.00    -0.206 F 
ATOM     48  C   UNL A   1      34.489  34.552  29.560  1.00  0.00     0.060 A 
BRANCH  48  49
ATOM     49  S   UNL A   1      33.165  35.500  28.778  1.00  0.00     0.124 S 
ATOM     50  O   UNL A   1      32.487  34.468  28.001  1.00  0.00    -0.237 OA
ATOM     51  O   UNL A   1      32.430  36.013  29.929  1.00  0.00    -0.237 OA
ATOM     52  O   UNL A   1      33.880  36.504  27.995  1.00  0.00    -0.744 OA
ENDBRANCH  48  49
ENDBRANCH  27  41
BRANCH  28  53
ATOM     53  C   UNL A   1      44.029  28.692  35.781  1.00  0.00     0.058 A 
ATOM     54  C   UNL A   1      45.347  29.116  35.546  1.00  0.00     0.135 A 
ATOM     55  C   UNL A   1      43.832  27.644  36.691  1.00  0.00     0.135 A 
ATOM     56  F   UNL A   1      45.589  30.104  34.669  1.00  0.00    -0.206 F 
ATOM     57  C   UNL A   1      46.432  28.518  36.176  1.00  0.00     0.059 A 
ATOM     58  C   UNL A   1      44.899  27.049  37.356  1.00  0.00     0.059 A 
ATOM     59  F   UNL A   1      42.590  27.206  36.950  1.00  0.00    -0.206 F 
ATOM     60  C   UNL A   1      46.196  27.493  37.090  1.00  0.00     0.060 A 
BRANCH  60  61
ATOM     61  S   UNL A   1      47.578  26.688  37.930  1.00  0.00     0.124 S 
ATOM     62  O   UNL A   1      48.208  25.968  36.830  1.00  0.00    -0.237 OA
ATOM     63  O   UNL A   1      48.321  27.828  38.459  1.00  0.00    -0.237 OA
ATOM     64  O   UNL A   1      46.920  25.858  38.935  1.00  0.00    -0.744 OA
ENDBRANCH  60  61
ENDBRANCH  28  53
BRANCH  40  65
ATOM     65  C   UNL A   1      39.742  33.995  37.224  1.00  0.00     0.058 A 
ATOM     66  C   UNL A   1      38.852  33.727  38.276  1.00  0.00     0.135 A 
ATOM     67  C   UNL A   1      40.488  35.182  37.277  1.00  0.00     0.135 A 
ATOM     68  F   UNL A   1      38.111  32.607  38.266  1.00  0.00    -0.206 F 
ATOM     69  C   UNL A   1      38.697  34.609  39.339  1.00  0.00     0.059 A 
ATOM     70  C   UNL A   1      40.366  36.067  38.342  1.00  0.00     0.059 A 
ATOM     71  F   UNL A   1      41.360  35.477  36.300  1.00  0.00    -0.206 F 
ATOM     72  C   UNL A   1      39.464  35.772  39.367  1.00  0.00     0.060 A 
BRANCH  72  73
ATOM     73  S   UNL A   1      39.290  36.950  40.725  1.00  0.00     0.124 S 
ATOM     74  O   UNL A   1      40.673  37.364  40.935  1.00  0.00    -0.237 OA
ATOM     75  O   UNL A   1      38.405  37.958  40.149  1.00  0.00    -0.237 OA
ATOM     76  O   UNL A   1      38.705  36.149  41.796  1.00  0.00    -0.744 OA
ENDBRANCH  72  73
ENDBRANCH  40  65
ENDBRANCH  14  15
ENDBRANCH   7   9
ENDBRANCH   4   5
ENDBRANCH   3   4
ENDBRANCH   2   3
ENDBRANCH   1   2
BRANCH   1  77
ATOM     77  C   UNL A   1      38.331  23.414  26.077  1.00  0.00     0.021 C 
BRANCH  77  78
ATOM     78  C   UNL A   1      36.814  23.609  26.114  1.00  0.00     0.116 C 
BRANCH  78  79
ATOM     79  N   UNL A   1      36.282  23.609  24.768  1.00  0.00    -0.354 N 
ATOM     80  C   UNL A   1      35.307  22.843  24.202  1.00  0.00     0.242 C 
ATOM     81  H   UNL A   1      36.691  24.270  24.162  1.00  0.00     0.163 HD
ATOM     82  O   UNL A   1      35.186  22.916  22.979  1.00  0.00    -0.273 OA
BRANCH  80  83
ATOM     83  C   UNL A   1      34.424  21.954  25.106  1.00  0.00     0.177 C 
ATOM     84  C   UNL A   1      34.450  20.488  24.645  1.00  0.00     0.069 C 
ATOM     85  N   UNL A   1      32.986  22.289  25.089  1.00  0.00    -0.327 N 
ATOM     86  C   UNL A   1      33.123  19.938  25.149  1.00  0.00     0.136 C 
ATOM     87  C   UNL A   1      32.164  21.097  24.905  1.00  0.00     0.152 C 
BRANCH  85  88
ATOM     88  C   UNL A   1      32.543  23.556  25.395  1.00  0.00     0.233 C 
ATOM     89  O   UNL A   1      33.282  24.354  25.984  1.00  0.00    -0.274 OA
BRANCH  88  90
ATOM     90  C   UNL A   1      31.097  23.951  25.125  1.00  0.00     0.175 C 
BRANCH  90  91
ATOM     91  S   UNL A   1      30.663  24.423  23.417  1.00  0.00    -0.113 SA
BRANCH  91  92
ATOM     92  C   UNL A   1      31.696  25.852  23.163  1.00  0.00     0.044 A 
ATOM     93  C   UNL A   1      32.843  25.742  22.366  1.00  0.00     0.021 A 
ATOM     94  C   UNL A   1      31.450  27.064  23.820  1.00  0.00     0.139 A 
ATOM     95  C   UNL A   1      33.687  26.842  22.194  1.00  0.00     0.040 A 
ATOM     96  C   UNL A   1      32.263  28.175  23.622  1.00  0.00     0.079 A 
ATOM     97  F   UNL A   1      30.441  27.163  24.699  1.00  0.00    -0.206 F 
ATOM     98  C   UNL A   1      33.378  28.053  22.807  1.00  0.00     0.126 A 
ATOM     99  F   UNL A   1      34.186  29.106  22.627  1.00  0.00    -0.207 F 
ENDBRANCH  91  92
ENDBRANCH  90  91
ENDBRANCH  88  90
ENDBRANCH  85  88
BRANCH  86 100
ATOM    100  O   UNL A   1      33.219  19.627  26.538  1.00  0.00    -0.391 OA
ATOM    101  H   UNL A   1      32.553  20.133  27.030  1.00  0.00     0.211 HD
ENDBRANCH  86 100
ENDBRANCH  80  83
ENDBRANCH  78  79
ENDBRANCH  77  78
ENDBRANCH   1  77
TORSDOF 21
ENDMDL
MODEL 3
REMARK VINA RESULT:     -11.2      5.062     10.161
REMARK SMILES O=C(NCCCCCCNC(=O)[C@@H]1C[C@@H](O)CN1C(=O)CSc1ccc(F)cc1F)c1ccc(-c2c3nc(c(-c4c(F)cc(S(=O)(=O)[O-])cc4F)c4ccc([nH]4)c(-c4c(F)cc(S(=O)(=O)[O-])cc4F)c4nc(c(-c5c(F)cc(S(=O)(=O)[O-])cc5F)c5ccc2[nH]5)C=C4)C=C3)cc1
REMARK SMILES IDX 7 1 6 2 5 3 4 4 3 5 1 6 2 7 31 9 32 10 96 11 33 12 95 13
REMARK SMILES IDX 34 14 35 15 36 16 89 17 37 18 94 19 88 20 90 21 38 22 93 23
REMARK SMILES IDX 87 24 86 25 39 27 73 28 52 29 72 30 53 31 56 32 71 33 91 34
REMARK SMILES IDX 54 35 55 36 70 38 92 39 57 40 40 41 41 42 50 43 42 44 43 45
REMARK SMILES IDX 49 46 51 47 44 48 45 49 46 50 47 51 48 52 74 53 75 54 84 55
REMARK SMILES IDX 76 56 77 57 83 58 85 59 78 60 79 61 80 62 81 63 82 64 58 65
REMARK SMILES IDX 59 66 68 67 60 68 61 69 67 70 69 71 62 72 63 73 64 74 65 75
REMARK SMILES IDX 66 76 8 77 9 78 10 79 11 80 12 82 13 83 14 84 18 85 15 86
REMARK SMILES IDX 17 87 19 88 20 89 21 90 22 91 23 92 24 93 29 94 25 95 28 96
REMARK SMILES IDX 30 97 26 98 27 99 16 100
REMARK H PARENT 3 8 90 26 56 37 10 81 16 101
REMARK Flexibility Score: inf
ROOT
ATOM      1  C   UNL A   1      33.107  28.645  23.218  1.00  0.00     0.002 C 
ENDROOT
BRANCH   1   2
ATOM      2  C   UNL A   1      33.166  29.103  24.681  1.00  0.00     0.002 C 
BRANCH   2   3
ATOM      3  C   UNL A   1      34.173  28.347  25.549  1.00  0.00     0.021 C 
BRANCH   3   4
ATOM      4  C   UNL A   1      33.895  28.432  27.043  1.00  0.00     0.116 C 
BRANCH   4   5
ATOM      5  N   UNL A   1      33.693  29.802  27.481  1.00  0.00    -0.352 N 
ATOM      6  O   UNL A   1      34.164  31.670  28.657  1.00  0.00    -0.269 OA
ATOM      7  C   UNL A   1      34.554  30.603  28.190  1.00  0.00     0.251 C 
ATOM      8  H   UNL A   1      32.829  30.208  27.239  1.00  0.00     0.163 HD
BRANCH   7   9
ATOM      9  C   UNL A   1      35.947  30.158  28.396  1.00  0.00     0.039 A 
ATOM     10  C   UNL A   1      36.876  30.246  27.354  1.00  0.00     0.014 A 
ATOM     11  C   UNL A   1      36.331  29.658  29.643  1.00  0.00     0.014 A 
ATOM     12  C   UNL A   1      38.159  29.743  27.528  1.00  0.00     0.010 A 
ATOM     13  C   UNL A   1      37.644  29.224  29.840  1.00  0.00     0.010 A 
ATOM     14  C   UNL A   1      38.566  29.257  28.781  1.00  0.00    -0.014 A 
BRANCH  14  15
ATOM     15  C   UNL A   1      39.993  28.910  28.990  1.00  0.00     0.031 A 
ATOM     16  C   UNL A   1      40.540  27.567  28.599  1.00  0.00     0.074 A 
ATOM     17  C   UNL A   1      40.795  29.847  29.534  1.00  0.00     0.049 A 
ATOM     18  N   UNL A   1      41.761  27.116  28.722  1.00  0.00    -0.248 NA
ATOM     19  C   UNL A   1      39.604  26.605  27.997  1.00  0.00     0.031 C 
ATOM     20  C   UNL A   1      40.356  31.178  29.968  1.00  0.00     0.029 A 
ATOM     21  N   UNL A   1      42.138  29.839  29.807  1.00  0.00    -0.354 N 
ATOM     22  C   UNL A   1      41.742  25.817  28.231  1.00  0.00     0.074 A 
ATOM     23  C   UNL A   1      40.381  25.543  27.818  1.00  0.00     0.031 C 
ATOM     24  C   UNL A   1      41.413  31.868  30.416  1.00  0.00     0.029 A 
ATOM     25  C   UNL A   1      42.591  31.012  30.361  1.00  0.00     0.049 A 
ATOM     26  H   UNL A   1      42.720  29.067  29.622  1.00  0.00     0.167 HD
ATOM     27  C   UNL A   1      42.771  24.941  28.133  1.00  0.00     0.037 A 
ATOM     28  C   UNL A   1      43.815  31.355  30.804  1.00  0.00     0.037 A 
ATOM     29  C   UNL A   1      44.124  25.239  28.530  1.00  0.00     0.049 A 
ATOM     30  C   UNL A   1      44.929  30.355  30.698  1.00  0.00     0.074 A 
ATOM     31  C   UNL A   1      45.246  24.434  28.423  1.00  0.00     0.029 A 
ATOM     32  N   UNL A   1      44.541  26.427  29.112  1.00  0.00    -0.354 N 
ATOM     33  N   UNL A   1      44.898  29.145  30.195  1.00  0.00    -0.248 NA
ATOM     34  C   UNL A   1      46.238  30.759  31.226  1.00  0.00     0.031 C 
ATOM     35  C   UNL A   1      46.331  25.118  28.980  1.00  0.00     0.029 A 
ATOM     36  C   UNL A   1      45.895  26.366  29.395  1.00  0.00     0.049 A 
ATOM     37  H   UNL A   1      43.959  27.199  29.298  1.00  0.00     0.167 HD
ATOM     38  C   UNL A   1      46.183  28.640  30.346  1.00  0.00     0.074 A 
ATOM     39  C   UNL A   1      46.974  29.688  30.959  1.00  0.00     0.031 C 
ATOM     40  C   UNL A   1      46.662  27.418  30.013  1.00  0.00     0.037 A 
BRANCH  27  41
ATOM     41  C   UNL A   1      42.496  23.572  27.576  1.00  0.00     0.058 A 
ATOM     42  C   UNL A   1      42.302  22.481  28.439  1.00  0.00     0.135 A 
ATOM     43  C   UNL A   1      42.544  23.318  26.197  1.00  0.00     0.135 A 
ATOM     44  F   UNL A   1      42.245  22.672  29.766  1.00  0.00    -0.206 F 
ATOM     45  C   UNL A   1      42.188  21.179  27.957  1.00  0.00     0.059 A 
ATOM     46  C   UNL A   1      42.416  22.027  25.693  1.00  0.00     0.059 A 
ATOM     47  F   UNL A   1      42.713  24.327  25.329  1.00  0.00    -0.206 F 
ATOM     48  C   UNL A   1      42.248  20.963  26.582  1.00  0.00     0.060 A 
BRANCH  48  49
ATOM     49  S   UNL A   1      42.140  19.290  25.909  1.00  0.00     0.124 S 
ATOM     50  O   UNL A   1      42.670  18.497  27.014  1.00  0.00    -0.237 OA
ATOM     51  O   UNL A   1      40.710  19.150  25.656  1.00  0.00    -0.237 OA
ATOM     52  O   UNL A   1      42.984  19.345  24.718  1.00  0.00    -0.744 OA
ENDBRANCH  48  49
ENDBRANCH  27  41
BRANCH  28  53
ATOM     53  C   UNL A   1      44.033  32.692  31.414  1.00  0.00     0.058 A 
ATOM     54  C   UNL A   1      43.775  32.916  32.776  1.00  0.00     0.135 A 
ATOM     55  C   UNL A   1      44.479  33.776  30.646  1.00  0.00     0.135 A 
ATOM     56  F   UNL A   1      43.327  31.914  33.550  1.00  0.00    -0.206 F 
ATOM     57  C   UNL A   1      43.940  34.168  33.356  1.00  0.00     0.059 A 
ATOM     58  C   UNL A   1      44.680  35.032  31.209  1.00  0.00     0.059 A 
ATOM     59  F   UNL A   1      44.742  33.610  29.340  1.00  0.00    -0.206 F 
ATOM     60  C   UNL A   1      44.406  35.218  32.566  1.00  0.00     0.060 A 
BRANCH  60  61
ATOM     61  S   UNL A   1      44.633  36.862  33.279  1.00  0.00     0.124 S 
ATOM     62  O   UNL A   1      43.298  37.430  33.133  1.00  0.00    -0.237 OA
ATOM     63  O   UNL A   1      45.050  36.549  34.643  1.00  0.00    -0.237 OA
ATOM     64  O   UNL A   1      45.667  37.453  32.436  1.00  0.00    -0.744 OA
ENDBRANCH  60  61
ENDBRANCH  28  53
BRANCH  40  65
ATOM     65  C   UNL A   1      48.109  27.148  30.306  1.00  0.00     0.058 A 
ATOM     66  C   UNL A   1      48.499  26.591  31.533  1.00  0.00     0.135 A 
ATOM     67  C   UNL A   1      49.114  27.492  29.387  1.00  0.00     0.135 A 
ATOM     68  F   UNL A   1      47.575  26.252  32.446  1.00  0.00    -0.206 F 
ATOM     69  C   UNL A   1      49.839  26.391  31.848  1.00  0.00     0.059 A 
ATOM     70  C   UNL A   1      50.458  27.279  29.672  1.00  0.00     0.059 A 
ATOM     71  F   UNL A   1      48.790  28.017  28.196  1.00  0.00    -0.206 F 
ATOM     72  C   UNL A   1      50.810  26.731  30.907  1.00  0.00     0.060 A 
BRANCH  72  73
ATOM     73  S   UNL A   1      52.562  26.496  31.277  1.00  0.00     0.124 S 
ATOM     74  O   UNL A   1      52.545  25.219  31.982  1.00  0.00    -0.237 OA
ATOM     75  O   UNL A   1      53.160  26.479  29.946  1.00  0.00    -0.237 OA
ATOM     76  O   UNL A   1      52.897  27.659  32.093  1.00  0.00    -0.744 OA
ENDBRANCH  72  73
ENDBRANCH  40  65
ENDBRANCH  14  15
ENDBRANCH   7   9
ENDBRANCH   4   5
ENDBRANCH   3   4
ENDBRANCH   2   3
ENDBRANCH   1   2
BRANCH   1  77
ATOM     77  C   UNL A   1      31.847  27.853  22.836  1.00  0.00     0.021 C 
BRANCH  77  78
ATOM     78  C   UNL A   1      32.139  26.478  22.233  1.00  0.00     0.116 C 
BRANCH  78  79
ATOM     79  N   UNL A   1      33.309  25.901  22.862  1.00  0.00    -0.354 N 
ATOM     80  C   UNL A   1      33.429  25.178  24.011  1.00  0.00     0.242 C 
ATOM     81  H   UNL A   1      34.155  26.057  22.381  1.00  0.00     0.163 HD
ATOM     82  O   UNL A   1      34.574  24.977  24.420  1.00  0.00    -0.273 OA
BRANCH  80  83
ATOM     83  C   UNL A   1      32.156  24.657  24.714  1.00  0.00     0.177 C 
ATOM     84  C   UNL A   1      32.037  25.216  26.141  1.00  0.00     0.069 C 
ATOM     85  N   UNL A   1      32.115  23.196  24.918  1.00  0.00    -0.327 N 
ATOM     86  C   UNL A   1      31.203  24.166  26.860  1.00  0.00     0.136 C 
ATOM     87  C   UNL A   1      31.737  22.859  26.287  1.00  0.00     0.152 C 
BRANCH  85  88
ATOM     88  C   UNL A   1      32.250  22.322  23.862  1.00  0.00     0.233 C 
ATOM     89  O   UNL A   1      32.130  22.722  22.698  1.00  0.00    -0.274 OA
BRANCH  88  90
ATOM     90  C   UNL A   1      32.423  20.830  24.116  1.00  0.00     0.175 C 
BRANCH  90  91
ATOM     91  S   UNL A   1      34.077  20.256  24.632  1.00  0.00    -0.113 SA
BRANCH  91  92
ATOM     92  C   UNL A   1      33.809  18.504  24.819  1.00  0.00     0.044 A 
ATOM     93  C   UNL A   1      32.534  18.032  25.151  1.00  0.00     0.021 A 
ATOM     94  C   UNL A   1      34.865  17.587  24.742  1.00  0.00     0.139 A 
ATOM     95  C   UNL A   1      32.319  16.665  25.345  1.00  0.00     0.040 A 
ATOM     96  C   UNL A   1      34.652  16.221  24.894  1.00  0.00     0.079 A 
ATOM     97  F   UNL A   1      36.123  18.018  24.564  1.00  0.00    -0.206 F 
ATOM     98  C   UNL A   1      33.375  15.772  25.195  1.00  0.00     0.126 A 
ATOM     99  F   UNL A   1      33.158  14.462  25.371  1.00  0.00    -0.207 F 
ENDBRANCH  91  92
ENDBRANCH  90  91
ENDBRANCH  88  90
ENDBRANCH  85  88
BRANCH  86 100
ATOM    100  O   UNL A   1      29.821  24.343  26.548  1.00  0.00    -0.391 OA
ATOM    101  H   UNL A   1      29.341  24.614  27.347  1.00  0.00     0.211 HD
ENDBRANCH  86 100
ENDBRANCH  80  83
ENDBRANCH  78  79
ENDBRANCH  77  78
ENDBRANCH   1  77
TORSDOF 21
ENDMDL
