MODEL 1
REMARK VINA RESULT:     -10.2      0.000      0.000
REMARK SMILES O=C(COC1CC[NH+](Cc2nccs2)CC1)NCCCCCCNC(=O)c1ccc(-c2c3nc(c(-c4c(F)cc(S(=O)(=O)[O-])cc4F)c4ccc([nH]4)c(-c4c(F)cc(S(=O)(=O)[O-])cc4F)c4nc(c(-c5c(F)cc(S(=O)(=O)[O-])cc5F)c5ccc2[nH]5)C=C4)C=C3)cc1
REMARK SMILES IDX 20 1 19 2 18 3 17 4 1 5 2 6 3 8 4 9 5 10 6 11 16 12 7 13
REMARK SMILES IDX 15 14 8 15 9 17 10 18 11 19 14 20 12 21 13 22 21 23 22 24
REMARK SMILES IDX 23 25 24 26 25 27 26 29 27 30 28 31 92 32 29 33 91 34 30 35
REMARK SMILES IDX 31 36 32 37 85 38 33 39 90 40 84 41 86 42 34 43 89 44 83 45
REMARK SMILES IDX 82 46 35 48 69 49 48 50 68 51 49 52 52 53 67 54 87 55 50 56
REMARK SMILES IDX 51 57 66 59 88 60 53 61 36 62 37 63 46 64 38 65 39 66 45 67
REMARK SMILES IDX 47 68 40 69 41 70 42 71 43 72 44 73 70 74 71 75 80 76 72 77
REMARK SMILES IDX 73 78 79 79 81 80 74 81 75 82 76 83 77 84 78 85 54 86 55 87
REMARK SMILES IDX 64 88 56 89 57 90 63 91 65 92 58 93 59 94 60 95 61 96 62 97
REMARK H PARENT 17 7 8 16 24 28 86 47 52 58
REMARK Flexibility Score: inf
ROOT
ATOM      1  C   UNL A   1      35.322  32.503  28.745  1.00  0.00     0.002 C 
ENDROOT
BRANCH   1   2
ATOM      2  C   UNL A   1      35.946  31.380  27.907  1.00  0.00     0.021 C 
BRANCH   2   3
ATOM      3  C   UNL A   1      35.210  30.046  27.999  1.00  0.00     0.116 C 
BRANCH   3   4
ATOM      4  N   UNL A   1      34.534  29.709  26.771  1.00  0.00    -0.354 N 
ATOM      5  O   UNL A   1      32.550  30.777  27.243  1.00  0.00    -0.272 OA
ATOM      6  C   UNL A   1      33.256  30.134  26.474  1.00  0.00     0.246 C 
ATOM      7  H   UNL A   1      35.005  29.148  26.114  1.00  0.00     0.163 HD
BRANCH   6   8
ATOM      8  C   UNL A   1      32.809  29.695  25.078  1.00  0.00     0.260 C 
BRANCH   8   9
ATOM      9  O   UNL A   1      32.615  28.291  24.959  1.00  0.00    -0.368 OA
BRANCH   9  10
ATOM     10  C   UNL A   1      32.299  27.716  23.684  1.00  0.00     0.130 C 
ATOM     11  C   UNL A   1      32.006  28.617  22.482  1.00  0.00     0.093 C 
ATOM     12  C   UNL A   1      31.195  26.671  23.822  1.00  0.00     0.093 C 
ATOM     13  C   UNL A   1      30.585  29.187  22.466  1.00  0.00     0.265 C 
ATOM     14  C   UNL A   1      29.816  27.314  23.874  1.00  0.00     0.265 C 
ATOM     15  N   UNL A   1      29.548  28.180  22.720  1.00  0.00    -0.329 N 
ATOM     16  H   UNL A   1      29.565  27.557  21.914  1.00  0.00     0.348 HD
BRANCH  15  17
ATOM     17  C   UNL A   1      28.203  28.812  22.809  1.00  0.00     0.331 C 
BRANCH  17  18
ATOM     18  C   UNL A   1      28.077  30.192  22.189  1.00  0.00     0.147 A 
ATOM     19  N   UNL A   1      28.036  30.439  20.894  1.00  0.00    -0.244 NA
ATOM     20  S   UNL A   1      28.038  31.596  23.193  1.00  0.00    -0.122 S 
ATOM     21  C   UNL A   1      28.029  31.798  20.666  1.00  0.00     0.123 A 
ATOM     22  C   UNL A   1      28.034  32.586  21.795  1.00  0.00     0.087 A 
ENDBRANCH  17  18
ENDBRANCH  15  17
ENDBRANCH   9  10
ENDBRANCH   8   9
ENDBRANCH   6   8
ENDBRANCH   3   4
ENDBRANCH   2   3
ENDBRANCH   1   2
BRANCH   1  23
ATOM     23  C   UNL A   1      34.775  33.689  27.947  1.00  0.00     0.002 C 
BRANCH  23  24
ATOM     24  C   UNL A   1      33.494  34.310  28.502  1.00  0.00     0.021 C 
BRANCH  24  25
ATOM     25  C   UNL A   1      33.655  35.724  29.047  1.00  0.00     0.116 C 
BRANCH  25  26
ATOM     26  N   UNL A   1      32.743  36.000  30.144  1.00  0.00    -0.352 N 
ATOM     27  C   UNL A   1      32.787  35.553  31.442  1.00  0.00     0.251 C 
ATOM     28  H   UNL A   1      31.986  36.591  29.926  1.00  0.00     0.163 HD
ATOM     29  O   UNL A   1      31.830  35.738  32.185  1.00  0.00    -0.269 OA
BRANCH  27  30
ATOM     30  C   UNL A   1      33.983  34.830  31.931  1.00  0.00     0.039 A 
ATOM     31  C   UNL A   1      33.879  33.465  32.211  1.00  0.00     0.014 A 
ATOM     32  C   UNL A   1      35.197  35.495  32.125  1.00  0.00     0.014 A 
ATOM     33  C   UNL A   1      35.005  32.761  32.646  1.00  0.00     0.010 A 
ATOM     34  C   UNL A   1      36.335  34.775  32.478  1.00  0.00     0.010 A 
ATOM     35  C   UNL A   1      36.249  33.404  32.760  1.00  0.00    -0.014 A 
BRANCH  35  36
ATOM     36  C   UNL A   1      37.458  32.668  33.214  1.00  0.00     0.031 A 
ATOM     37  C   UNL A   1      38.125  33.051  34.510  1.00  0.00     0.074 A 
ATOM     38  C   UNL A   1      37.976  31.686  32.450  1.00  0.00     0.049 A 
ATOM     39  N   UNL A   1      39.223  32.582  35.045  1.00  0.00    -0.248 NA
ATOM     40  C   UNL A   1      37.489  34.122  35.297  1.00  0.00     0.031 C 
ATOM     41  C   UNL A   1      37.448  31.251  31.154  1.00  0.00     0.029 A 
ATOM     42  N   UNL A   1      39.070  30.879  32.646  1.00  0.00    -0.354 N 
ATOM     43  C   UNL A   1      39.404  33.294  36.225  1.00  0.00     0.074 A 
ATOM     44  C   UNL A   1      38.347  34.279  36.293  1.00  0.00     0.031 C 
ATOM     45  C   UNL A   1      38.207  30.249  30.682  1.00  0.00     0.029 A 
ATOM     46  C   UNL A   1      39.297  29.994  31.618  1.00  0.00     0.049 A 
ATOM     47  H   UNL A   1      39.639  30.930  33.448  1.00  0.00     0.167 HD
ATOM     48  C   UNL A   1      40.345  33.122  37.185  1.00  0.00     0.037 A 
ATOM     49  C   UNL A   1      40.279  29.087  31.446  1.00  0.00     0.037 A 
ATOM     50  C   UNL A   1      41.385  32.130  37.123  1.00  0.00     0.049 A 
ATOM     51  C   UNL A   1      41.323  28.926  32.522  1.00  0.00     0.074 A 
ATOM     52  C   UNL A   1      42.380  31.867  38.049  1.00  0.00     0.029 A 
ATOM     53  N   UNL A   1      41.561  31.229  36.083  1.00  0.00    -0.354 N 
ATOM     54  N   UNL A   1      41.456  29.586  33.649  1.00  0.00    -0.248 NA
ATOM     55  C   UNL A   1      42.341  27.886  32.313  1.00  0.00     0.031 C 
ATOM     56  C   UNL A   1      43.178  30.830  37.552  1.00  0.00     0.029 A 
ATOM     57  C   UNL A   1      42.646  30.410  36.344  1.00  0.00     0.049 A 
ATOM     58  H   UNL A   1      40.996  31.180  35.277  1.00  0.00     0.167 HD
ATOM     59  C   UNL A   1      42.542  29.010  34.299  1.00  0.00     0.074 A 
ATOM     60  C   UNL A   1      43.023  27.944  33.446  1.00  0.00     0.031 C 
ATOM     61  C   UNL A   1      43.093  29.333  35.496  1.00  0.00     0.037 A 
BRANCH  48  62
ATOM     62  C   UNL A   1      40.273  34.005  38.402  1.00  0.00     0.058 A 
ATOM     63  C   UNL A   1      39.411  33.708  39.470  1.00  0.00     0.135 A 
ATOM     64  C   UNL A   1      41.113  35.123  38.531  1.00  0.00     0.135 A 
ATOM     65  F   UNL A   1      38.571  32.663  39.392  1.00  0.00    -0.206 F 
ATOM     66  C   UNL A   1      39.371  34.495  40.615  1.00  0.00     0.059 A 
ATOM     67  C   UNL A   1      41.112  35.907  39.683  1.00  0.00     0.059 A 
ATOM     68  F   UNL A   1      41.955  35.456  37.541  1.00  0.00    -0.206 F 
ATOM     69  C   UNL A   1      40.231  35.590  40.715  1.00  0.00     0.060 A 
BRANCH  69  70
ATOM     70  S   UNL A   1      40.190  36.577  42.226  1.00  0.00     0.124 S 
ATOM     71  O   UNL A   1      38.976  36.081  42.866  1.00  0.00    -0.237 OA
ATOM     72  O   UNL A   1      41.445  36.207  42.873  1.00  0.00    -0.237 OA
ATOM     73  O   UNL A   1      40.122  37.950  41.734  1.00  0.00    -0.744 OA
ENDBRANCH  69  70
ENDBRANCH  48  62
BRANCH  49  74
ATOM     74  C   UNL A   1      40.330  28.254  30.212  1.00  0.00     0.058 A 
ATOM     75  C   UNL A   1      39.489  27.142  30.048  1.00  0.00     0.135 A 
ATOM     76  C   UNL A   1      41.248  28.531  29.186  1.00  0.00     0.135 A 
ATOM     77  F   UNL A   1      38.593  26.833  30.998  1.00  0.00    -0.206 F 
ATOM     78  C   UNL A   1      39.587  26.309  28.937  1.00  0.00     0.059 A 
ATOM     79  C   UNL A   1      41.343  27.732  28.052  1.00  0.00     0.059 A 
ATOM     80  F   UNL A   1      42.061  29.595  29.280  1.00  0.00    -0.206 F 
ATOM     81  C   UNL A   1      40.522  26.610  27.947  1.00  0.00     0.060 A 
BRANCH  81  82
ATOM     82  S   UNL A   1      40.649  25.521  26.511  1.00  0.00     0.124 S 
ATOM     83  O   UNL A   1      40.978  26.469  25.453  1.00  0.00    -0.237 OA
ATOM     84  O   UNL A   1      41.718  24.611  26.910  1.00  0.00    -0.237 OA
ATOM     85  O   UNL A   1      39.321  24.919  26.429  1.00  0.00    -0.744 OA
ENDBRANCH  81  82
ENDBRANCH  49  74
BRANCH  61  86
ATOM     86  C   UNL A   1      44.227  28.478  35.993  1.00  0.00     0.058 A 
ATOM     87  C   UNL A   1      44.015  27.335  36.778  1.00  0.00     0.135 A 
ATOM     88  C   UNL A   1      45.551  28.793  35.641  1.00  0.00     0.135 A 
ATOM     89  F   UNL A   1      42.770  26.989  37.146  1.00  0.00    -0.206 F 
ATOM     90  C   UNL A   1      45.075  26.557  37.231  1.00  0.00     0.059 A 
ATOM     91  C   UNL A   1      46.625  28.010  36.054  1.00  0.00     0.059 A 
ATOM     92  F   UNL A   1      45.812  29.867  34.879  1.00  0.00    -0.206 F 
ATOM     93  C   UNL A   1      46.377  26.902  36.864  1.00  0.00     0.060 A 
BRANCH  93  94
ATOM     94  S   UNL A   1      47.743  25.875  37.444  1.00  0.00     0.124 S 
ATOM     95  O   UNL A   1      48.750  26.117  36.416  1.00  0.00    -0.237 OA
ATOM     96  O   UNL A   1      48.026  26.447  38.757  1.00  0.00    -0.237 OA
ATOM     97  O   UNL A   1      47.174  24.530  37.462  1.00  0.00    -0.744 OA
ENDBRANCH  93  94
ENDBRANCH  61  86
ENDBRANCH  35  36
ENDBRANCH  27  30
ENDBRANCH  25  26
ENDBRANCH  24  25
ENDBRANCH  23  24
ENDBRANCH   1  23
TORSDOF 20
ENDMDL
MODEL 2
REMARK VINA RESULT:     -10.1      4.140      6.429
REMARK SMILES O=C(COC1CC[NH+](Cc2nccs2)CC1)NCCCCCCNC(=O)c1ccc(-c2c3nc(c(-c4c(F)cc(S(=O)(=O)[O-])cc4F)c4ccc([nH]4)c(-c4c(F)cc(S(=O)(=O)[O-])cc4F)c4nc(c(-c5c(F)cc(S(=O)(=O)[O-])cc5F)c5ccc2[nH]5)C=C4)C=C3)cc1
REMARK SMILES IDX 20 1 19 2 18 3 17 4 1 5 2 6 3 8 4 9 5 10 6 11 16 12 7 13
REMARK SMILES IDX 15 14 8 15 9 17 10 18 11 19 14 20 12 21 13 22 21 23 22 24
REMARK SMILES IDX 23 25 24 26 25 27 26 29 27 30 28 31 92 32 29 33 91 34 30 35
REMARK SMILES IDX 31 36 32 37 85 38 33 39 90 40 84 41 86 42 34 43 89 44 83 45
REMARK SMILES IDX 82 46 35 48 69 49 48 50 68 51 49 52 52 53 67 54 87 55 50 56
REMARK SMILES IDX 51 57 66 59 88 60 53 61 36 62 37 63 46 64 38 65 39 66 45 67
REMARK SMILES IDX 47 68 40 69 41 70 42 71 43 72 44 73 70 74 71 75 80 76 72 77
REMARK SMILES IDX 73 78 79 79 81 80 74 81 75 82 76 83 77 84 78 85 54 86 55 87
REMARK SMILES IDX 64 88 56 89 57 90 63 91 65 92 58 93 59 94 60 95 61 96 62 97
REMARK H PARENT 17 7 8 16 24 28 86 47 52 58
REMARK Flexibility Score: inf
ROOT
ATOM      1  C   UNL A   1      30.729  26.977  24.961  1.00  0.00     0.002 C 
ENDROOT
BRANCH   1   2
ATOM      2  C   UNL A   1      30.307  27.538  23.597  1.00  0.00     0.021 C 
BRANCH   2   3
ATOM      3  C   UNL A   1      31.146  27.035  22.426  1.00  0.00     0.116 C 
BRANCH   3   4
ATOM      4  N   UNL A   1      31.817  25.795  22.728  1.00  0.00    -0.354 N 
ATOM      5  O   UNL A   1      33.833  26.324  21.750  1.00  0.00    -0.272 OA
ATOM      6  C   UNL A   1      33.131  25.550  22.391  1.00  0.00     0.246 C 
ATOM      7  H   UNL A   1      31.314  25.090  23.195  1.00  0.00     0.163 HD
BRANCH   6   8
ATOM      8  C   UNL A   1      33.613  24.187  22.893  1.00  0.00     0.260 C 
BRANCH   8   9
ATOM      9  O   UNL A   1      34.527  24.272  23.979  1.00  0.00    -0.368 OA
BRANCH   9  10
ATOM     10  C   UNL A   1      34.322  23.475  25.154  1.00  0.00     0.130 C 
ATOM     11  C   UNL A   1      35.068  22.151  25.328  1.00  0.00     0.093 C 
ATOM     12  C   UNL A   1      32.832  23.262  25.409  1.00  0.00     0.093 C 
ATOM     13  C   UNL A   1      34.452  20.984  24.552  1.00  0.00     0.265 C 
ATOM     14  C   UNL A   1      32.271  22.137  24.549  1.00  0.00     0.265 C 
ATOM     15  N   UNL A   1      32.998  20.874  24.719  1.00  0.00    -0.329 N 
ATOM     16  H   UNL A   1      32.852  20.616  25.695  1.00  0.00     0.348 HD
BRANCH  15  17
ATOM     17  C   UNL A   1      32.442  19.799  23.852  1.00  0.00     0.331 C 
BRANCH  17  18
ATOM     18  C   UNL A   1      32.669  18.377  24.332  1.00  0.00     0.147 A 
ATOM     19  N   UNL A   1      32.245  17.890  25.482  1.00  0.00    -0.244 NA
ATOM     20  S   UNL A   1      33.594  17.274  23.377  1.00  0.00    -0.122 S 
ATOM     21  C   UNL A   1      32.710  16.604  25.657  1.00  0.00     0.123 A 
ATOM     22  C   UNL A   1      33.465  16.103  24.621  1.00  0.00     0.087 A 
ENDBRANCH  17  18
ENDBRANCH  15  17
ENDBRANCH   9  10
ENDBRANCH   8   9
ENDBRANCH   6   8
ENDBRANCH   3   4
ENDBRANCH   2   3
ENDBRANCH   1   2
BRANCH   1  23
ATOM     23  C   UNL A   1      31.703  27.852  25.755  1.00  0.00     0.002 C 
BRANCH  23  24
ATOM     24  C   UNL A   1      33.084  27.239  25.988  1.00  0.00     0.021 C 
BRANCH  24  25
ATOM     25  C   UNL A   1      34.227  28.245  26.043  1.00  0.00     0.116 C 
BRANCH  25  26
ATOM     26  N   UNL A   1      33.774  29.576  26.411  1.00  0.00    -0.352 N 
ATOM     27  C   UNL A   1      34.287  30.438  27.349  1.00  0.00     0.251 C 
ATOM     28  H   UNL A   1      32.988  29.906  25.917  1.00  0.00     0.163 HD
ATOM     29  O   UNL A   1      33.664  31.448  27.656  1.00  0.00    -0.269 OA
BRANCH  27  30
ATOM     30  C   UNL A   1      35.580  30.131  28.002  1.00  0.00     0.039 A 
ATOM     31  C   UNL A   1      35.576  29.622  29.303  1.00  0.00     0.014 A 
ATOM     32  C   UNL A   1      36.791  30.356  27.340  1.00  0.00     0.014 A 
ATOM     33  C   UNL A   1      36.786  29.300  29.923  1.00  0.00     0.010 A 
ATOM     34  C   UNL A   1      37.988  29.956  27.928  1.00  0.00     0.010 A 
ATOM     35  C   UNL A   1      38.001  29.441  29.233  1.00  0.00    -0.014 A 
BRANCH  35  36
ATOM     36  C   UNL A   1      39.297  29.096  29.875  1.00  0.00     0.031 A 
ATOM     37  C   UNL A   1      39.777  29.888  31.064  1.00  0.00     0.074 A 
ATOM     38  C   UNL A   1      40.055  28.101  29.373  1.00  0.00     0.049 A 
ATOM     39  N   UNL A   1      40.905  29.791  31.722  1.00  0.00    -0.248 NA
ATOM     40  C   UNL A   1      38.884  30.947  31.566  1.00  0.00     0.031 C 
ATOM     41  C   UNL A   1      39.720  27.290  28.200  1.00  0.00     0.029 A 
ATOM     42  N   UNL A   1      41.270  27.607  29.778  1.00  0.00    -0.354 N 
ATOM     43  C   UNL A   1      40.854  30.768  32.709  1.00  0.00     0.074 A 
ATOM     44  C   UNL A   1      39.619  31.497  32.520  1.00  0.00     0.031 C 
ATOM     45  C   UNL A   1      40.696  26.391  27.991  1.00  0.00     0.029 A 
ATOM     46  C   UNL A   1      41.744  26.585  28.989  1.00  0.00     0.049 A 
ATOM     47  H   UNL A   1      41.757  27.953  30.561  1.00  0.00     0.167 HD
ATOM     48  C   UNL A   1      41.737  31.015  33.706  1.00  0.00     0.037 A 
ATOM     49  C   UNL A   1      42.897  25.890  29.056  1.00  0.00     0.037 A 
ATOM     50  C   UNL A   1      42.956  30.276  33.902  1.00  0.00     0.049 A 
ATOM     51  C   UNL A   1      43.870  26.195  30.166  1.00  0.00     0.074 A 
ATOM     52  C   UNL A   1      43.913  30.439  34.888  1.00  0.00     0.029 A 
ATOM     53  N   UNL A   1      43.383  29.225  33.103  1.00  0.00    -0.354 N 
ATOM     54  N   UNL A   1      43.786  27.101  31.113  1.00  0.00    -0.248 NA
ATOM     55  C   UNL A   1      45.088  25.374  30.229  1.00  0.00     0.031 C 
ATOM     56  C   UNL A   1      44.935  29.511  34.665  1.00  0.00     0.029 A 
ATOM     57  C   UNL A   1      44.588  28.732  33.574  1.00  0.00     0.049 A 
ATOM     58  H   UNL A   1      42.900  28.882  32.316  1.00  0.00     0.167 HD
ATOM     59  C   UNL A   1      44.915  26.925  31.907  1.00  0.00     0.074 A 
ATOM     60  C   UNL A   1      45.660  25.824  31.335  1.00  0.00     0.031 C 
ATOM     61  C   UNL A   1      45.301  27.613  33.010  1.00  0.00     0.037 A 
BRANCH  48  62
ATOM     62  C   UNL A   1      41.401  32.109  34.684  1.00  0.00     0.058 A 
ATOM     63  C   UNL A   1      41.865  33.422  34.497  1.00  0.00     0.135 A 
ATOM     64  C   UNL A   1      40.562  31.862  35.782  1.00  0.00     0.135 A 
ATOM     65  F   UNL A   1      42.687  33.710  33.475  1.00  0.00    -0.206 F 
ATOM     66  C   UNL A   1      41.523  34.446  35.372  1.00  0.00     0.059 A 
ATOM     67  C   UNL A   1      40.181  32.880  36.653  1.00  0.00     0.059 A 
ATOM     68  F   UNL A   1      40.092  30.626  36.011  1.00  0.00    -0.206 F 
ATOM     69  C   UNL A   1      40.675  34.167  36.444  1.00  0.00     0.060 A 
BRANCH  69  70
ATOM     70  S   UNL A   1      40.214  35.519  37.548  1.00  0.00     0.124 S 
ATOM     71  O   UNL A   1      39.035  34.968  38.209  1.00  0.00    -0.237 OA
ATOM     72  O   UNL A   1      41.403  35.658  38.382  1.00  0.00    -0.237 OA
ATOM     73  O   UNL A   1      39.958  36.630  36.636  1.00  0.00    -0.744 OA
ENDBRANCH  69  70
ENDBRANCH  48  62
BRANCH  49  74
ATOM     74  C   UNL A   1      43.203  24.836  28.050  1.00  0.00     0.058 A 
ATOM     75  C   UNL A   1      42.970  23.478  28.323  1.00  0.00     0.135 A 
ATOM     76  C   UNL A   1      43.769  25.161  26.807  1.00  0.00     0.135 A 
ATOM     77  F   UNL A   1      42.430  23.113  29.496  1.00  0.00    -0.206 F 
ATOM     78  C   UNL A   1      43.332  22.480  27.423  1.00  0.00     0.059 A 
ATOM     79  C   UNL A   1      44.109  24.183  25.878  1.00  0.00     0.059 A 
ATOM     80  F   UNL A   1      43.992  26.444  26.484  1.00  0.00    -0.206 F 
ATOM     81  C   UNL A   1      43.906  22.843  26.204  1.00  0.00     0.060 A 
BRANCH  81  82
ATOM     82  S   UNL A   1      44.377  21.541  25.044  1.00  0.00     0.124 S 
ATOM     83  O   UNL A   1      43.296  20.580  25.227  1.00  0.00    -0.237 OA
ATOM     84  O   UNL A   1      44.389  22.256  23.771  1.00  0.00    -0.237 OA
ATOM     85  O   UNL A   1      45.688  21.119  25.529  1.00  0.00    -0.744 OA
ENDBRANCH  81  82
ENDBRANCH  49  74
BRANCH  61  86
ATOM     86  C   UNL A   1      46.544  27.148  33.720  1.00  0.00     0.058 A 
ATOM     87  C   UNL A   1      46.508  26.183  34.738  1.00  0.00     0.135 A 
ATOM     88  C   UNL A   1      47.800  27.655  33.343  1.00  0.00     0.135 A 
ATOM     89  F   UNL A   1      45.334  25.668  35.139  1.00  0.00    -0.206 F 
ATOM     90  C   UNL A   1      47.667  25.766  35.385  1.00  0.00     0.059 A 
ATOM     91  C   UNL A   1      48.975  27.227  33.953  1.00  0.00     0.059 A 
ATOM     92  F   UNL A   1      47.895  28.569  32.365  1.00  0.00    -0.206 F 
ATOM     93  C   UNL A   1      48.896  26.294  34.986  1.00  0.00     0.060 A 
BRANCH  93  94
ATOM     94  S   UNL A   1      50.393  25.733  35.822  1.00  0.00     0.124 S 
ATOM     95  O   UNL A   1      50.242  26.346  37.138  1.00  0.00    -0.237 OA
ATOM     96  O   UNL A   1      50.249  24.281  35.779  1.00  0.00    -0.237 OA
ATOM     97  O   UNL A   1      51.469  26.274  34.997  1.00  0.00    -0.744 OA
ENDBRANCH  93  94
ENDBRANCH  61  86
ENDBRANCH  35  36
ENDBRANCH  27  30
ENDBRANCH  25  26
ENDBRANCH  24  25
ENDBRANCH  23  24
ENDBRANCH   1  23
TORSDOF 20
ENDMDL
MODEL 3
REMARK VINA RESULT:      -9.9      6.965      9.783
REMARK SMILES O=C(COC1CC[NH+](Cc2nccs2)CC1)NCCCCCCNC(=O)c1ccc(-c2c3nc(c(-c4c(F)cc(S(=O)(=O)[O-])cc4F)c4ccc([nH]4)c(-c4c(F)cc(S(=O)(=O)[O-])cc4F)c4nc(c(-c5c(F)cc(S(=O)(=O)[O-])cc5F)c5ccc2[nH]5)C=C4)C=C3)cc1
REMARK SMILES IDX 20 1 19 2 18 3 17 4 1 5 2 6 3 8 4 9 5 10 6 11 16 12 7 13
REMARK SMILES IDX 15 14 8 15 9 17 10 18 11 19 14 20 12 21 13 22 21 23 22 24
REMARK SMILES IDX 23 25 24 26 25 27 26 29 27 30 28 31 92 32 29 33 91 34 30 35
REMARK SMILES IDX 31 36 32 37 85 38 33 39 90 40 84 41 86 42 34 43 89 44 83 45
REMARK SMILES IDX 82 46 35 48 69 49 48 50 68 51 49 52 52 53 67 54 87 55 50 56
REMARK SMILES IDX 51 57 66 59 88 60 53 61 36 62 37 63 46 64 38 65 39 66 45 67
REMARK SMILES IDX 47 68 40 69 41 70 42 71 43 72 44 73 70 74 71 75 80 76 72 77
REMARK SMILES IDX 73 78 79 79 81 80 74 81 75 82 76 83 77 84 78 85 54 86 55 87
REMARK SMILES IDX 64 88 56 89 57 90 63 91 65 92 58 93 59 94 60 95 61 96 62 97
REMARK H PARENT 17 7 8 16 24 28 86 47 52 58
REMARK Flexibility Score: inf
ROOT
ATOM      1  C   UNL A   1      32.541  29.373  25.733  1.00  0.00     0.002 C 
ENDROOT
BRANCH   1   2
ATOM      2  C   UNL A   1      31.267  30.035  25.193  1.00  0.00     0.021 C 
BRANCH   2   3
ATOM      3  C   UNL A   1      30.707  29.383  23.933  1.00  0.00     0.116 C 
BRANCH   3   4
ATOM      4  N   UNL A   1      31.343  28.122  23.642  1.00  0.00    -0.354 N 
ATOM      5  O   UNL A   1      29.435  26.834  23.677  1.00  0.00    -0.272 OA
ATOM      6  C   UNL A   1      30.644  26.941  23.504  1.00  0.00     0.246 C 
ATOM      7  H   UNL A   1      32.321  28.102  23.539  1.00  0.00     0.163 HD
BRANCH   6   8
ATOM      8  C   UNL A   1      31.553  25.770  23.126  1.00  0.00     0.260 C 
BRANCH   8   9
ATOM      9  O   UNL A   1      31.795  24.869  24.199  1.00  0.00    -0.368 OA
BRANCH   9  10
ATOM     10  C   UNL A   1      31.054  23.644  24.289  1.00  0.00     0.130 C 
ATOM     11  C   UNL A   1      31.045  22.842  25.592  1.00  0.00     0.093 C 
ATOM     12  C   UNL A   1      31.391  22.722  23.121  1.00  0.00     0.093 C 
ATOM     13  C   UNL A   1      32.295  21.984  25.801  1.00  0.00     0.265 C 
ATOM     14  C   UNL A   1      32.685  21.957  23.365  1.00  0.00     0.265 C 
ATOM     15  N   UNL A   1      32.667  21.195  24.620  1.00  0.00    -0.329 N 
ATOM     16  H   UNL A   1      31.923  20.509  24.501  1.00  0.00     0.348 HD
BRANCH  15  17
ATOM     17  C   UNL A   1      33.951  20.476  24.843  1.00  0.00     0.331 C 
BRANCH  17  18
ATOM     18  C   UNL A   1      33.940  18.990  24.533  1.00  0.00     0.147 A 
ATOM     19  N   UNL A   1      34.995  18.199  24.576  1.00  0.00    -0.244 NA
ATOM     20  S   UNL A   1      32.481  18.220  24.021  1.00  0.00    -0.122 S 
ATOM     21  C   UNL A   1      34.664  16.936  24.135  1.00  0.00     0.123 A 
ATOM     22  C   UNL A   1      33.345  16.759  23.784  1.00  0.00     0.087 A 
ENDBRANCH  17  18
ENDBRANCH  15  17
ENDBRANCH   9  10
ENDBRANCH   8   9
ENDBRANCH   6   8
ENDBRANCH   3   4
ENDBRANCH   2   3
ENDBRANCH   1   2
BRANCH   1  23
ATOM     23  C   UNL A   1      33.112  29.996  27.010  1.00  0.00     0.002 C 
BRANCH  23  24
ATOM     24  C   UNL A   1      34.502  29.503  27.408  1.00  0.00     0.021 C 
BRANCH  24  25
ATOM     25  C   UNL A   1      35.449  30.593  27.898  1.00  0.00     0.116 C 
BRANCH  25  26
ATOM     26  N   UNL A   1      35.395  30.762  29.341  1.00  0.00    -0.352 N 
ATOM     27  C   UNL A   1      36.347  30.465  30.284  1.00  0.00     0.251 C 
ATOM     28  H   UNL A   1      34.558  31.145  29.690  1.00  0.00     0.163 HD
ATOM     29  O   UNL A   1      36.060  30.503  31.475  1.00  0.00    -0.269 OA
BRANCH  27  30
ATOM     30  C   UNL A   1      37.712  30.078  29.857  1.00  0.00     0.039 A 
ATOM     31  C   UNL A   1      38.663  29.769  30.833  1.00  0.00     0.014 A 
ATOM     32  C   UNL A   1      38.056  30.033  28.503  1.00  0.00     0.014 A 
ATOM     33  C   UNL A   1      39.946  29.374  30.447  1.00  0.00     0.010 A 
ATOM     34  C   UNL A   1      39.308  29.560  28.120  1.00  0.00     0.010 A 
ATOM     35  C   UNL A   1      40.273  29.243  29.087  1.00  0.00    -0.014 A 
BRANCH  35  36
ATOM     36  C   UNL A   1      41.632  28.817  28.659  1.00  0.00     0.031 A 
ATOM     37  C   UNL A   1      42.739  29.835  28.562  1.00  0.00     0.074 A 
ATOM     38  C   UNL A   1      41.862  27.532  28.325  1.00  0.00     0.049 A 
ATOM     39  N   UNL A   1      43.970  29.680  28.145  1.00  0.00    -0.248 NA
ATOM     40  C   UNL A   1      42.415  31.215  28.962  1.00  0.00     0.031 C 
ATOM     41  C   UNL A   1      40.862  26.461  28.336  1.00  0.00     0.029 A 
ATOM     42  N   UNL A   1      43.008  26.906  27.901  1.00  0.00    -0.354 N 
ATOM     43  C   UNL A   1      44.562  30.935  28.236  1.00  0.00     0.074 A 
ATOM     44  C   UNL A   1      43.537  31.856  28.675  1.00  0.00     0.031 C 
ATOM     45  C   UNL A   1      41.441  25.312  27.953  1.00  0.00     0.029 A 
ATOM     46  C   UNL A   1      42.843  25.567  27.633  1.00  0.00     0.049 A 
ATOM     47  H   UNL A   1      43.869  27.373  27.798  1.00  0.00     0.167 HD
ATOM     48  C   UNL A   1      45.851  31.284  28.008  1.00  0.00     0.037 A 
ATOM     49  C   UNL A   1      43.719  24.652  27.172  1.00  0.00     0.037 A 
ATOM     50  C   UNL A   1      46.872  30.362  27.587  1.00  0.00     0.049 A 
ATOM     51  C   UNL A   1      45.143  25.071  26.911  1.00  0.00     0.074 A 
ATOM     52  C   UNL A   1      48.211  30.613  27.340  1.00  0.00     0.029 A 
ATOM     53  N   UNL A   1      46.673  29.008  27.361  1.00  0.00    -0.354 N 
ATOM     54  N   UNL A   1      45.692  26.257  27.038  1.00  0.00    -0.248 NA
ATOM     55  C   UNL A   1      46.073  24.025  26.462  1.00  0.00     0.031 C 
ATOM     56  C   UNL A   1      48.813  29.418  26.932  1.00  0.00     0.029 A 
ATOM     57  C   UNL A   1      47.863  28.412  26.978  1.00  0.00     0.049 A 
ATOM     58  H   UNL A   1      45.812  28.540  27.458  1.00  0.00     0.167 HD
ATOM     59  C   UNL A   1      47.038  26.087  26.727  1.00  0.00     0.074 A 
ATOM     60  C   UNL A   1      47.221  24.685  26.417  1.00  0.00     0.031 C 
ATOM     61  C   UNL A   1      48.033  27.007  26.702  1.00  0.00     0.037 A 
BRANCH  48  62
ATOM     62  C   UNL A   1      46.239  32.720  28.241  1.00  0.00     0.058 A 
ATOM     63  C   UNL A   1      46.142  33.677  27.218  1.00  0.00     0.135 A 
ATOM     64  C   UNL A   1      46.652  33.158  29.509  1.00  0.00     0.135 A 
ATOM     65  F   UNL A   1      45.771  33.310  25.980  1.00  0.00    -0.206 F 
ATOM     66  C   UNL A   1      46.457  35.013  27.438  1.00  0.00     0.059 A 
ATOM     67  C   UNL A   1      46.942  34.497  29.760  1.00  0.00     0.059 A 
ATOM     68  F   UNL A   1      46.765  32.287  30.524  1.00  0.00    -0.206 F 
ATOM     69  C   UNL A   1      46.850  35.415  28.716  1.00  0.00     0.060 A 
BRANCH  69  70
ATOM     70  S   UNL A   1      47.219  37.161  28.989  1.00  0.00     0.124 S 
ATOM     71  O   UNL A   1      45.907  37.770  28.800  1.00  0.00    -0.237 OA
ATOM     72  O   UNL A   1      47.726  37.160  30.358  1.00  0.00    -0.237 OA
ATOM     73  O   UNL A   1      48.206  37.466  27.958  1.00  0.00    -0.744 OA
ENDBRANCH  69  70
ENDBRANCH  48  62
BRANCH  49  74
ATOM     74  C   UNL A   1      43.285  23.249  26.926  1.00  0.00     0.058 A 
ATOM     75  C   UNL A   1      43.079  22.353  27.988  1.00  0.00     0.135 A 
ATOM     76  C   UNL A   1      43.103  22.763  25.622  1.00  0.00     0.135 A 
ATOM     77  F   UNL A   1      43.239  22.767  29.254  1.00  0.00    -0.206 F 
ATOM     78  C   UNL A   1      42.758  21.017  27.765  1.00  0.00     0.059 A 
ATOM     79  C   UNL A   1      42.749  21.440  25.375  1.00  0.00     0.059 A 
ATOM     80  F   UNL A   1      43.264  23.581  24.570  1.00  0.00    -0.206 F 
ATOM     81  C   UNL A   1      42.600  20.569  26.453  1.00  0.00     0.060 A 
BRANCH  81  82
ATOM     82  S   UNL A   1      42.187  18.834  26.171  1.00  0.00     0.124 S 
ATOM     83  O   UNL A   1      40.791  18.928  25.763  1.00  0.00    -0.237 OA
ATOM     84  O   UNL A   1      43.136  18.459  25.126  1.00  0.00    -0.237 OA
ATOM     85  O   UNL A   1      42.425  18.217  27.473  1.00  0.00    -0.744 OA
ENDBRANCH  81  82
ENDBRANCH  49  74
BRANCH  61  86
ATOM     86  C   UNL A   1      49.425  26.519  26.403  1.00  0.00     0.058 A 
ATOM     87  C   UNL A   1      49.969  26.557  25.110  1.00  0.00     0.135 A 
ATOM     88  C   UNL A   1      50.239  26.037  27.442  1.00  0.00     0.135 A 
ATOM     89  F   UNL A   1      49.233  27.005  24.079  1.00  0.00    -0.206 F 
ATOM     90  C   UNL A   1      51.257  26.099  24.850  1.00  0.00     0.059 A 
ATOM     91  C   UNL A   1      51.542  25.607  27.211  1.00  0.00     0.059 A 
ATOM     92  F   UNL A   1      49.775  25.992  28.701  1.00  0.00    -0.206 F 
ATOM     93  C   UNL A   1      52.036  25.625  25.908  1.00  0.00     0.060 A 
BRANCH  93  94
ATOM     94  S   UNL A   1      53.710  25.049  25.560  1.00  0.00     0.124 S 
ATOM     95  O   UNL A   1      54.043  25.816  24.364  1.00  0.00    -0.237 OA
ATOM     96  O   UNL A   1      54.428  25.424  26.775  1.00  0.00    -0.237 OA
ATOM     97  O   UNL A   1      53.542  23.613  25.358  1.00  0.00    -0.744 OA
ENDBRANCH  93  94
ENDBRANCH  61  86
ENDBRANCH  35  36
ENDBRANCH  27  30
ENDBRANCH  25  26
ENDBRANCH  24  25
ENDBRANCH  23  24
ENDBRANCH   1  23
TORSDOF 20
ENDMDL
