MODEL 1
REMARK VINA RESULT:     -10.7      0.000      0.000
REMARK SMILES CC[C@@](C)(NC(=O)[C@@H](C)NC(=O)c1ccco1)C(=O)NCCCCCCNC(=O)c1ccc(-c2c3nc(c(-c4c(F)cc(S(=O)(=O)[O-])cc4F)c4ccc([nH]4)c(-c4c(F)cc(S(=O)(=O)[O-])cc4F)c4nc(c(-c5c(F)cc(S(=O)(=O)[O-])cc5F)c5ccc2[nH]5)C=C4)C=C3)cc1
REMARK SMILES IDX 23 1 22 2 21 3 20 4 18 5 19 6 3 8 4 9 2 10 1 11 5 12 6 13
REMARK SMILES IDX 7 15 8 16 9 17 10 18 11 19 12 21 13 22 14 23 17 24 15 25
REMARK SMILES IDX 16 26 24 27 25 28 26 29 27 30 28 31 29 33 30 34 31 35 95 36
REMARK SMILES IDX 32 37 94 38 33 39 34 40 35 41 88 42 36 43 93 44 87 45 89 46
REMARK SMILES IDX 37 47 92 48 86 49 85 50 38 52 72 53 51 54 71 55 52 56 55 57
REMARK SMILES IDX 70 58 90 59 53 60 54 61 69 63 91 64 56 65 39 66 40 67 49 68
REMARK SMILES IDX 41 69 42 70 48 71 50 72 43 73 44 74 45 75 46 76 47 77 73 78
REMARK SMILES IDX 74 79 83 80 75 81 76 82 82 83 84 84 77 85 78 86 79 87 80 88
REMARK SMILES IDX 81 89 57 90 58 91 67 92 59 93 60 94 66 95 68 96 61 97 62 98
REMARK SMILES IDX 63 99 64 100 65 101
REMARK H PARENT 20 7 5 14 10 20 27 32 89 51 55 62
REMARK Flexibility Score: inf
ROOT
ATOM      1  C   UNL A   1      38.674  21.527  25.832  1.00  0.00     0.002 C 
ENDROOT
BRANCH   1   2
ATOM      2  C   UNL A   1      38.136  22.957  25.821  1.00  0.00     0.021 C 
BRANCH   2   3
ATOM      3  C   UNL A   1      36.694  23.083  25.340  1.00  0.00     0.116 C 
BRANCH   3   4
ATOM      4  N   UNL A   1      36.040  21.793  25.171  1.00  0.00    -0.354 N 
ATOM      5  C   UNL A   1      34.743  21.447  24.942  1.00  0.00     0.245 C 
ATOM      6  O   UNL A   1      34.461  20.249  25.065  1.00  0.00    -0.272 OA
ATOM      7  H   UNL A   1      36.653  21.025  25.233  1.00  0.00     0.163 HD
BRANCH   5   8
ATOM      8  C   UNL A   1      33.648  22.488  24.614  1.00  0.00     0.116 C 
ATOM      9  C   UNL A   1      32.264  21.792  24.665  1.00  0.00     0.045 C 
BRANCH   8  10
ATOM     10  C   UNL A   1      33.584  23.672  25.621  1.00  0.00     0.035 C 
ATOM     11  C   UNL A   1      32.622  23.535  26.799  1.00  0.00     0.007 C 
ENDBRANCH   8  10
BRANCH   8  12
ATOM     12  N   UNL A   1      33.880  23.037  23.257  1.00  0.00    -0.340 N 
ATOM     13  C   UNL A   1      33.388  24.082  22.543  1.00  0.00     0.243 C 
ATOM     14  H   UNL A   1      34.549  22.521  22.752  1.00  0.00     0.164 HD
ATOM     15  O   UNL A   1      33.470  23.926  21.313  1.00  0.00    -0.273 OA
BRANCH  13  16
ATOM     16  C   UNL A   1      32.649  25.355  23.065  1.00  0.00     0.168 C 
ATOM     17  C   UNL A   1      33.078  26.614  22.321  1.00  0.00     0.041 C 
BRANCH  16  18
ATOM     18  N   UNL A   1      31.199  25.386  23.226  1.00  0.00    -0.338 N 
ATOM     19  C   UNL A   1      30.427  26.200  24.028  1.00  0.00     0.287 C 
ATOM     20  H   UNL A   1      30.700  24.731  22.686  1.00  0.00     0.164 HD
ATOM     21  O   UNL A   1      29.204  26.062  23.961  1.00  0.00    -0.266 OA
BRANCH  19  22
ATOM     22  C   UNL A   1      31.053  27.162  24.910  1.00  0.00     0.191 A 
ATOM     23  C   UNL A   1      31.842  27.032  26.039  1.00  0.00     0.056 A 
ATOM     24  O   UNL A   1      30.945  28.490  24.593  1.00  0.00    -0.459 OA
ATOM     25  C   UNL A   1      32.207  28.343  26.439  1.00  0.00     0.043 A 
ATOM     26  C   UNL A   1      31.628  29.195  25.530  1.00  0.00     0.196 A 
ENDBRANCH  19  22
ENDBRANCH  16  18
ENDBRANCH  13  16
ENDBRANCH   8  12
ENDBRANCH   5   8
ENDBRANCH   3   4
ENDBRANCH   2   3
ENDBRANCH   1   2
BRANCH   1  27
ATOM     27  C   UNL A   1      40.154  21.369  26.166  1.00  0.00     0.002 C 
BRANCH  27  28
ATOM     28  C   UNL A   1      40.524  21.698  27.609  1.00  0.00     0.021 C 
BRANCH  28  29
ATOM     29  C   UNL A   1      41.250  23.025  27.804  1.00  0.00     0.116 C 
BRANCH  29  30
ATOM     30  N   UNL A   1      41.873  23.523  26.584  1.00  0.00    -0.352 N 
ATOM     31  C   UNL A   1      42.032  24.828  26.168  1.00  0.00     0.251 C 
ATOM     32  H   UNL A   1      42.227  22.836  25.975  1.00  0.00     0.163 HD
ATOM     33  O   UNL A   1      42.478  25.095  25.066  1.00  0.00    -0.269 OA
BRANCH  31  34
ATOM     34  C   UNL A   1      41.614  25.903  27.090  1.00  0.00     0.039 A 
ATOM     35  C   UNL A   1      40.561  25.668  27.976  1.00  0.00     0.014 A 
ATOM     36  C   UNL A   1      42.345  27.092  27.144  1.00  0.00     0.014 A 
ATOM     37  C   UNL A   1      40.299  26.597  28.985  1.00  0.00     0.010 A 
ATOM     38  C   UNL A   1      42.135  27.972  28.198  1.00  0.00     0.010 A 
ATOM     39  C   UNL A   1      41.116  27.731  29.134  1.00  0.00    -0.014 A 
BRANCH  39  40
ATOM     40  C   UNL A   1      40.937  28.672  30.269  1.00  0.00     0.031 A 
ATOM     41  C   UNL A   1      41.791  28.527  31.500  1.00  0.00     0.074 A 
ATOM     42  C   UNL A   1      39.951  29.591  30.230  1.00  0.00     0.049 A 
ATOM     43  N   UNL A   1      41.720  29.175  32.633  1.00  0.00    -0.248 NA
ATOM     44  C   UNL A   1      42.834  27.489  31.466  1.00  0.00     0.031 C 
ATOM     45  C   UNL A   1      39.011  29.783  29.121  1.00  0.00     0.029 A 
ATOM     46  N   UNL A   1      39.561  30.527  31.155  1.00  0.00    -0.354 N 
ATOM     47  C   UNL A   1      42.682  28.602  33.456  1.00  0.00     0.074 A 
ATOM     48  C   UNL A   1      43.292  27.525  32.708  1.00  0.00     0.031 C 
ATOM     49  C   UNL A   1      38.171  30.789  29.422  1.00  0.00     0.029 A 
ATOM     50  C   UNL A   1      38.488  31.291  30.756  1.00  0.00     0.049 A 
ATOM     51  H   UNL A   1      40.008  30.642  32.025  1.00  0.00     0.167 HD
ATOM     52  C   UNL A   1      43.040  28.954  34.713  1.00  0.00     0.037 A 
ATOM     53  C   UNL A   1      37.834  32.281  31.394  1.00  0.00     0.037 A 
ATOM     54  C   UNL A   1      42.474  30.068  35.426  1.00  0.00     0.049 A 
ATOM     55  C   UNL A   1      38.289  32.690  32.769  1.00  0.00     0.074 A 
ATOM     56  C   UNL A   1      42.839  30.573  36.660  1.00  0.00     0.029 A 
ATOM     57  N   UNL A   1      41.429  30.854  34.963  1.00  0.00    -0.354 N 
ATOM     58  N   UNL A   1      39.258  32.190  33.499  1.00  0.00    -0.248 NA
ATOM     59  C   UNL A   1      37.566  33.800  33.407  1.00  0.00     0.031 C 
ATOM     60  C   UNL A   1      41.994  31.646  36.961  1.00  0.00     0.029 A 
ATOM     61  C   UNL A   1      41.126  31.831  35.896  1.00  0.00     0.049 A 
ATOM     62  H   UNL A   1      40.971  30.735  34.100  1.00  0.00     0.167 HD
ATOM     63  C   UNL A   1      39.280  32.945  34.667  1.00  0.00     0.074 A 
ATOM     64  C   UNL A   1      38.235  33.938  34.545  1.00  0.00     0.031 C 
ATOM     65  C   UNL A   1      40.093  32.824  35.745  1.00  0.00     0.037 A 
BRANCH  52  66
ATOM     66  C   UNL A   1      44.105  28.141  35.392  1.00  0.00     0.058 A 
ATOM     67  C   UNL A   1      45.467  28.449  35.254  1.00  0.00     0.135 A 
ATOM     68  C   UNL A   1      43.755  27.064  36.222  1.00  0.00     0.135 A 
ATOM     69  F   UNL A   1      45.855  29.457  34.458  1.00  0.00    -0.206 F 
ATOM     70  C   UNL A   1      46.449  27.702  35.896  1.00  0.00     0.059 A 
ATOM     71  C   UNL A   1      44.720  26.320  36.895  1.00  0.00     0.059 A 
ATOM     72  F   UNL A   1      42.467  26.727  36.386  1.00  0.00    -0.206 F 
ATOM     73  C   UNL A   1      46.065  26.639  36.715  1.00  0.00     0.060 A 
BRANCH  73  74
ATOM     74  S   UNL A   1      47.350  25.690  37.556  1.00  0.00     0.124 S 
ATOM     75  O   UNL A   1      46.950  25.832  38.952  1.00  0.00    -0.237 OA
ATOM     76  O   UNL A   1      47.183  24.359  36.982  1.00  0.00    -0.237 OA
ATOM     77  O   UNL A   1      48.581  26.380  37.182  1.00  0.00    -0.744 OA
ENDBRANCH  73  74
ENDBRANCH  52  66
BRANCH  53  78
ATOM     78  C   UNL A   1      36.697  32.978  30.736  1.00  0.00     0.058 A 
ATOM     79  C   UNL A   1      36.920  33.902  29.704  1.00  0.00     0.135 A 
ATOM     80  C   UNL A   1      35.370  32.750  31.132  1.00  0.00     0.135 A 
ATOM     81  F   UNL A   1      38.173  34.157  29.294  1.00  0.00    -0.206 F 
ATOM     82  C   UNL A   1      35.875  34.598  29.107  1.00  0.00     0.059 A 
ATOM     83  C   UNL A   1      34.305  33.417  30.533  1.00  0.00     0.059 A 
ATOM     84  F   UNL A   1      35.100  31.863  32.100  1.00  0.00    -0.206 F 
ATOM     85  C   UNL A   1      34.569  34.351  29.532  1.00  0.00     0.060 A 
BRANCH  85  86
ATOM     86  S   UNL A   1      33.213  35.241  28.737  1.00  0.00     0.124 S 
ATOM     87  O   UNL A   1      33.935  36.247  27.967  1.00  0.00    -0.237 OA
ATOM     88  O   UNL A   1      32.564  34.187  27.962  1.00  0.00    -0.237 OA
ATOM     89  O   UNL A   1      32.437  35.745  29.866  1.00  0.00    -0.744 OA
ENDBRANCH  85  86
ENDBRANCH  53  78
BRANCH  65  90
ATOM     90  C   UNL A   1      39.915  33.814  36.860  1.00  0.00     0.058 A 
ATOM     91  C   UNL A   1      40.561  35.059  36.848  1.00  0.00     0.135 A 
ATOM     92  C   UNL A   1      39.040  33.535  37.922  1.00  0.00     0.135 A 
ATOM     93  F   UNL A   1      41.413  35.368  35.858  1.00  0.00    -0.206 F 
ATOM     94  C   UNL A   1      40.357  35.990  37.860  1.00  0.00     0.059 A 
ATOM     95  C   UNL A   1      38.803  34.461  38.932  1.00  0.00     0.059 A 
ATOM     96  F   UNL A   1      38.390  32.362  37.974  1.00  0.00    -0.206 F 
ATOM     97  C   UNL A   1      39.475  35.683  38.898  1.00  0.00     0.060 A 
BRANCH  97  98
ATOM     98  S   UNL A   1      39.184  36.916  40.184  1.00  0.00     0.124 S 
ATOM     99  O   UNL A   1      40.539  37.169  40.660  1.00  0.00    -0.237 OA
ATOM    100  O   UNL A   1      38.559  38.006  39.440  1.00  0.00    -0.237 OA
ATOM    101  O   UNL A   1      38.306  36.225  41.123  1.00  0.00    -0.744 OA
ENDBRANCH  97  98
ENDBRANCH  65  90
ENDBRANCH  39  40
ENDBRANCH  31  34
ENDBRANCH  29  30
ENDBRANCH  28  29
ENDBRANCH  27  28
ENDBRANCH   1  27
TORSDOF 21
ENDMDL
MODEL 2
REMARK VINA RESULT:     -10.7      1.147      2.195
REMARK SMILES CC[C@@](C)(NC(=O)[C@@H](C)NC(=O)c1ccco1)C(=O)NCCCCCCNC(=O)c1ccc(-c2c3nc(c(-c4c(F)cc(S(=O)(=O)[O-])cc4F)c4ccc([nH]4)c(-c4c(F)cc(S(=O)(=O)[O-])cc4F)c4nc(c(-c5c(F)cc(S(=O)(=O)[O-])cc5F)c5ccc2[nH]5)C=C4)C=C3)cc1
REMARK SMILES IDX 23 1 22 2 21 3 20 4 18 5 19 6 3 8 4 9 2 10 1 11 5 12 6 13
REMARK SMILES IDX 7 15 8 16 9 17 10 18 11 19 12 21 13 22 14 23 17 24 15 25
REMARK SMILES IDX 16 26 24 27 25 28 26 29 27 30 28 31 29 33 30 34 31 35 95 36
REMARK SMILES IDX 32 37 94 38 33 39 34 40 35 41 88 42 36 43 93 44 87 45 89 46
REMARK SMILES IDX 37 47 92 48 86 49 85 50 38 52 72 53 51 54 71 55 52 56 55 57
REMARK SMILES IDX 70 58 90 59 53 60 54 61 69 63 91 64 56 65 39 66 40 67 49 68
REMARK SMILES IDX 41 69 42 70 48 71 50 72 43 73 44 74 45 75 46 76 47 77 73 78
REMARK SMILES IDX 74 79 83 80 75 81 76 82 82 83 84 84 77 85 78 86 79 87 80 88
REMARK SMILES IDX 81 89 57 90 58 91 67 92 59 93 60 94 66 95 68 96 61 97 62 98
REMARK SMILES IDX 63 99 64 100 65 101
REMARK H PARENT 20 7 5 14 10 20 27 32 89 51 55 62
REMARK Flexibility Score: inf
ROOT
ATOM      1  C   UNL A   1      38.575  21.882  25.917  1.00  0.00     0.002 C 
ENDROOT
BRANCH   1   2
ATOM      2  C   UNL A   1      38.278  23.380  25.866  1.00  0.00     0.021 C 
BRANCH   2   3
ATOM      3  C   UNL A   1      36.813  23.739  26.100  1.00  0.00     0.116 C 
BRANCH   3   4
ATOM      4  N   UNL A   1      35.981  22.573  26.362  1.00  0.00    -0.354 N 
ATOM      5  C   UNL A   1      34.642  22.357  26.232  1.00  0.00     0.245 C 
ATOM      6  O   UNL A   1      34.198  21.323  26.745  1.00  0.00    -0.272 OA
ATOM      7  H   UNL A   1      36.481  21.793  26.695  1.00  0.00     0.163 HD
BRANCH   5   8
ATOM      8  C   UNL A   1      33.697  23.368  25.545  1.00  0.00     0.116 C 
ATOM      9  C   UNL A   1      34.214  24.804  25.820  1.00  0.00     0.045 C 
BRANCH   8  10
ATOM     10  C   UNL A   1      33.627  23.214  23.999  1.00  0.00     0.035 C 
ATOM     11  C   UNL A   1      33.950  24.448  23.159  1.00  0.00     0.007 C 
ENDBRANCH   8  10
BRANCH   8  12
ATOM     12  N   UNL A   1      32.329  23.218  26.095  1.00  0.00    -0.340 N 
ATOM     13  C   UNL A   1      31.320  24.069  26.416  1.00  0.00     0.243 C 
ATOM     14  H   UNL A   1      32.096  22.278  26.270  1.00  0.00     0.164 HD
ATOM     15  O   UNL A   1      30.544  23.617  27.275  1.00  0.00    -0.273 OA
BRANCH  13  16
ATOM     16  C   UNL A   1      31.100  25.540  25.941  1.00  0.00     0.168 C 
ATOM     17  C   UNL A   1      29.831  25.690  25.109  1.00  0.00     0.041 C 
BRANCH  16  18
ATOM     18  N   UNL A   1      31.179  26.664  26.868  1.00  0.00    -0.338 N 
ATOM     19  C   UNL A   1      31.713  27.920  26.673  1.00  0.00     0.287 C 
ATOM     20  H   UNL A   1      30.797  26.502  27.760  1.00  0.00     0.164 HD
ATOM     21  O   UNL A   1      31.625  28.722  27.605  1.00  0.00    -0.266 OA
BRANCH  19  22
ATOM     22  C   UNL A   1      32.354  28.254  25.419  1.00  0.00     0.191 A 
ATOM     23  C   UNL A   1      33.659  28.153  24.971  1.00  0.00     0.056 A 
ATOM     24  O   UNL A   1      31.566  28.707  24.394  1.00  0.00    -0.459 OA
ATOM     25  C   UNL A   1      33.665  28.588  23.621  1.00  0.00     0.043 A 
ATOM     26  C   UNL A   1      32.367  28.923  23.321  1.00  0.00     0.196 A 
ENDBRANCH  19  22
ENDBRANCH  16  18
ENDBRANCH  13  16
ENDBRANCH   8  12
ENDBRANCH   5   8
ENDBRANCH   3   4
ENDBRANCH   2   3
ENDBRANCH   1   2
BRANCH   1  27
ATOM     27  C   UNL A   1      40.021  21.493  26.206  1.00  0.00     0.002 C 
BRANCH  27  28
ATOM     28  C   UNL A   1      40.475  21.735  27.642  1.00  0.00     0.021 C 
BRANCH  28  29
ATOM     29  C   UNL A   1      41.480  22.868  27.821  1.00  0.00     0.116 C 
BRANCH  29  30
ATOM     30  N   UNL A   1      42.000  23.378  26.558  1.00  0.00    -0.352 N 
ATOM     31  C   UNL A   1      42.079  24.685  26.123  1.00  0.00     0.251 C 
ATOM     32  H   UNL A   1      42.340  22.700  25.932  1.00  0.00     0.163 HD
ATOM     33  O   UNL A   1      42.439  24.958  24.992  1.00  0.00    -0.269 OA
BRANCH  31  34
ATOM     34  C   UNL A   1      41.681  25.751  27.064  1.00  0.00     0.039 A 
ATOM     35  C   UNL A   1      40.608  25.528  27.930  1.00  0.00     0.014 A 
ATOM     36  C   UNL A   1      42.447  26.915  27.156  1.00  0.00     0.014 A 
ATOM     37  C   UNL A   1      40.361  26.442  28.957  1.00  0.00     0.010 A 
ATOM     38  C   UNL A   1      42.248  27.777  28.226  1.00  0.00     0.010 A 
ATOM     39  C   UNL A   1      41.210  27.547  29.143  1.00  0.00    -0.014 A 
BRANCH  39  40
ATOM     40  C   UNL A   1      41.043  28.467  30.297  1.00  0.00     0.031 A 
ATOM     41  C   UNL A   1      41.903  28.293  31.520  1.00  0.00     0.074 A 
ATOM     42  C   UNL A   1      40.063  29.394  30.281  1.00  0.00     0.049 A 
ATOM     43  N   UNL A   1      41.843  28.920  32.666  1.00  0.00    -0.248 NA
ATOM     44  C   UNL A   1      42.938  27.248  31.461  1.00  0.00     0.031 C 
ATOM     45  C   UNL A   1      39.118  29.613  29.181  1.00  0.00     0.029 A 
ATOM     46  N   UNL A   1      39.685  30.314  31.226  1.00  0.00    -0.354 N 
ATOM     47  C   UNL A   1      42.805  28.325  33.472  1.00  0.00     0.074 A 
ATOM     48  C   UNL A   1      43.404  27.258  32.700  1.00  0.00     0.031 C 
ATOM     49  C   UNL A   1      38.287  30.618  29.506  1.00  0.00     0.029 A 
ATOM     50  C   UNL A   1      38.615  31.093  30.847  1.00  0.00     0.049 A 
ATOM     51  H   UNL A   1      40.138  30.410  32.095  1.00  0.00     0.167 HD
ATOM     52  C   UNL A   1      43.172  28.651  34.733  1.00  0.00     0.037 A 
ATOM     53  C   UNL A   1      37.972  32.075  31.507  1.00  0.00     0.037 A 
ATOM     54  C   UNL A   1      42.618  29.754  35.470  1.00  0.00     0.049 A 
ATOM     55  C   UNL A   1      38.436  32.455  32.888  1.00  0.00     0.074 A 
ATOM     56  C   UNL A   1      42.993  30.233  36.712  1.00  0.00     0.029 A 
ATOM     57  N   UNL A   1      41.576  30.556  35.028  1.00  0.00    -0.354 N 
ATOM     58  N   UNL A   1      39.406  31.935  33.602  1.00  0.00    -0.248 NA
ATOM     59  C   UNL A   1      37.725  33.557  33.551  1.00  0.00     0.031 C 
ATOM     60  C   UNL A   1      42.157  31.306  37.038  1.00  0.00     0.029 A 
ATOM     61  C   UNL A   1      41.285  31.517  35.981  1.00  0.00     0.049 A 
ATOM     62  H   UNL A   1      41.112  30.457  34.166  1.00  0.00     0.167 HD
ATOM     63  C   UNL A   1      39.440  32.666  34.785  1.00  0.00     0.074 A 
ATOM     64  C   UNL A   1      38.401  33.669  34.687  1.00  0.00     0.031 C 
ATOM     65  C   UNL A   1      40.258  32.520  35.855  1.00  0.00     0.037 A 
BRANCH  52  66
ATOM     66  C   UNL A   1      44.236  27.817  35.390  1.00  0.00     0.058 A 
ATOM     67  C   UNL A   1      43.917  26.692  36.165  1.00  0.00     0.135 A 
ATOM     68  C   UNL A   1      45.593  28.128  35.210  1.00  0.00     0.135 A 
ATOM     69  F   UNL A   1      42.634  26.363  36.383  1.00  0.00    -0.206 F 
ATOM     70  C   UNL A   1      44.905  25.915  36.759  1.00  0.00     0.059 A 
ATOM     71  C   UNL A   1      46.600  27.349  35.774  1.00  0.00     0.059 A 
ATOM     72  F   UNL A   1      45.952  29.195  34.481  1.00  0.00    -0.206 F 
ATOM     73  C   UNL A   1      46.245  26.252  36.558  1.00  0.00     0.060 A 
BRANCH  73  74
ATOM     74  S   UNL A   1      47.517  25.224  37.322  1.00  0.00     0.124 S 
ATOM     75  O   UNL A   1      46.739  24.484  38.310  1.00  0.00    -0.237 OA
ATOM     76  O   UNL A   1      48.010  24.444  36.192  1.00  0.00    -0.237 OA
ATOM     77  O   UNL A   1      48.458  26.198  37.866  1.00  0.00    -0.744 OA
ENDBRANCH  73  74
ENDBRANCH  52  66
BRANCH  53  78
ATOM     78  C   UNL A   1      36.836  32.792  30.869  1.00  0.00     0.058 A 
ATOM     79  C   UNL A   1      35.509  32.417  31.133  1.00  0.00     0.135 A 
ATOM     80  C   UNL A   1      37.048  33.851  29.972  1.00  0.00     0.135 A 
ATOM     81  F   UNL A   1      35.255  31.407  31.980  1.00  0.00    -0.206 F 
ATOM     82  C   UNL A   1      34.435  33.045  30.512  1.00  0.00     0.059 A 
ATOM     83  C   UNL A   1      35.988  34.509  29.355  1.00  0.00     0.059 A 
ATOM     84  F   UNL A   1      38.296  34.260  29.700  1.00  0.00    -0.206 F 
ATOM     85  C   UNL A   1      34.686  34.088  29.619  1.00  0.00     0.060 A 
BRANCH  85  86
ATOM     86  S   UNL A   1      33.285  34.915  28.833  1.00  0.00     0.124 S 
ATOM     87  O   UNL A   1      33.959  35.932  28.033  1.00  0.00    -0.237 OA
ATOM     88  O   UNL A   1      32.661  33.827  28.088  1.00  0.00    -0.237 OA
ATOM     89  O   UNL A   1      32.512  35.412  29.967  1.00  0.00    -0.744 OA
ENDBRANCH  85  86
ENDBRANCH  53  78
BRANCH  65  90
ATOM     90  C   UNL A   1      40.093  33.490  36.990  1.00  0.00     0.058 A 
ATOM     91  C   UNL A   1      39.157  33.273  38.012  1.00  0.00     0.135 A 
ATOM     92  C   UNL A   1      40.925  34.617  37.085  1.00  0.00     0.135 A 
ATOM     93  F   UNL A   1      38.334  32.214  37.961  1.00  0.00    -0.206 F 
ATOM     94  C   UNL A   1      39.040  34.151  39.084  1.00  0.00     0.059 A 
ATOM     95  C   UNL A   1      40.841  35.495  38.160  1.00  0.00     0.059 A 
ATOM     96  F   UNL A   1      41.843  34.863  36.138  1.00  0.00    -0.206 F 
ATOM     97  C   UNL A   1      39.888  35.258  39.151  1.00  0.00     0.060 A 
BRANCH  97  98
ATOM     98  S   UNL A   1      39.756  36.367  40.569  1.00  0.00     0.124 S 
ATOM     99  O   UNL A   1      39.644  35.420  41.673  1.00  0.00    -0.237 OA
ATOM    100  O   UNL A   1      41.008  37.116  40.500  1.00  0.00    -0.237 OA
ATOM    101  O   UNL A   1      38.554  37.144  40.282  1.00  0.00    -0.744 OA
ENDBRANCH  97  98
ENDBRANCH  65  90
ENDBRANCH  39  40
ENDBRANCH  31  34
ENDBRANCH  29  30
ENDBRANCH  28  29
ENDBRANCH  27  28
ENDBRANCH   1  27
TORSDOF 21
ENDMDL
MODEL 3
REMARK VINA RESULT:     -10.7      4.825      6.409
REMARK SMILES CC[C@@](C)(NC(=O)[C@@H](C)NC(=O)c1ccco1)C(=O)NCCCCCCNC(=O)c1ccc(-c2c3nc(c(-c4c(F)cc(S(=O)(=O)[O-])cc4F)c4ccc([nH]4)c(-c4c(F)cc(S(=O)(=O)[O-])cc4F)c4nc(c(-c5c(F)cc(S(=O)(=O)[O-])cc5F)c5ccc2[nH]5)C=C4)C=C3)cc1
REMARK SMILES IDX 23 1 22 2 21 3 20 4 18 5 19 6 3 8 4 9 2 10 1 11 5 12 6 13
REMARK SMILES IDX 7 15 8 16 9 17 10 18 11 19 12 21 13 22 14 23 17 24 15 25
REMARK SMILES IDX 16 26 24 27 25 28 26 29 27 30 28 31 29 33 30 34 31 35 95 36
REMARK SMILES IDX 32 37 94 38 33 39 34 40 35 41 88 42 36 43 93 44 87 45 89 46
REMARK SMILES IDX 37 47 92 48 86 49 85 50 38 52 72 53 51 54 71 55 52 56 55 57
REMARK SMILES IDX 70 58 90 59 53 60 54 61 69 63 91 64 56 65 39 66 40 67 49 68
REMARK SMILES IDX 41 69 42 70 48 71 50 72 43 73 44 74 45 75 46 76 47 77 73 78
REMARK SMILES IDX 74 79 83 80 75 81 76 82 82 83 84 84 77 85 78 86 79 87 80 88
REMARK SMILES IDX 81 89 57 90 58 91 67 92 59 93 60 94 66 95 68 96 61 97 62 98
REMARK SMILES IDX 63 99 64 100 65 101
REMARK H PARENT 20 7 5 14 10 20 27 32 89 51 55 62
REMARK Flexibility Score: inf
ROOT
ATOM      1  C   UNL A   1      33.788  21.956  23.881  1.00  0.00     0.002 C 
ENDROOT
BRANCH   1   2
ATOM      2  C   UNL A   1      33.791  22.963  22.732  1.00  0.00     0.021 C 
BRANCH   2   3
ATOM      3  C   UNL A   1      33.031  24.254  23.023  1.00  0.00     0.116 C 
BRANCH   3   4
ATOM      4  N   UNL A   1      33.663  25.058  24.060  1.00  0.00    -0.354 N 
ATOM      5  C   UNL A   1      33.177  25.637  25.193  1.00  0.00     0.245 C 
ATOM      6  O   UNL A   1      33.919  26.448  25.760  1.00  0.00    -0.272 OA
ATOM      7  H   UNL A   1      34.625  25.213  23.914  1.00  0.00     0.163 HD
BRANCH   5   8
ATOM      8  C   UNL A   1      31.751  25.364  25.722  1.00  0.00     0.116 C 
ATOM      9  C   UNL A   1      30.735  25.621  24.580  1.00  0.00     0.045 C 
BRANCH   8  10
ATOM     10  C   UNL A   1      31.524  23.899  26.193  1.00  0.00     0.035 C 
ATOM     11  C   UNL A   1      32.607  23.272  27.069  1.00  0.00     0.007 C 
ENDBRANCH   8  10
BRANCH   8  12
ATOM     12  N   UNL A   1      31.464  26.272  26.858  1.00  0.00    -0.340 N 
ATOM     13  C   UNL A   1      31.462  27.618  27.040  1.00  0.00     0.243 C 
ATOM     14  H   UNL A   1      31.215  25.784  27.676  1.00  0.00     0.164 HD
ATOM     15  O   UNL A   1      31.637  27.960  28.222  1.00  0.00    -0.273 OA
BRANCH  13  16
ATOM     16  C   UNL A   1      31.392  28.745  25.961  1.00  0.00     0.168 C 
ATOM     17  C   UNL A   1      31.737  30.114  26.538  1.00  0.00     0.041 C 
BRANCH  16  18
ATOM     18  N   UNL A   1      32.055  28.610  24.669  1.00  0.00    -0.338 N 
ATOM     19  C   UNL A   1      31.546  28.805  23.402  1.00  0.00     0.287 C 
ATOM     20  H   UNL A   1      33.001  28.340  24.706  1.00  0.00     0.164 HD
ATOM     21  O   UNL A   1      32.321  28.667  22.454  1.00  0.00    -0.266 OA
BRANCH  19  22
ATOM     22  C   UNL A   1      30.151  29.148  23.220  1.00  0.00     0.191 A 
ATOM     23  C   UNL A   1      29.021  28.394  22.961  1.00  0.00     0.056 A 
ATOM     24  O   UNL A   1      29.783  30.457  23.390  1.00  0.00    -0.459 OA
ATOM     25  C   UNL A   1      27.923  29.291  22.947  1.00  0.00     0.043 A 
ATOM     26  C   UNL A   1      28.443  30.536  23.205  1.00  0.00     0.196 A 
ENDBRANCH  19  22
ENDBRANCH  16  18
ENDBRANCH  13  16
ENDBRANCH   8  12
ENDBRANCH   5   8
ENDBRANCH   3   4
ENDBRANCH   2   3
ENDBRANCH   1   2
BRANCH   1  27
ATOM     27  C   UNL A   1      35.124  21.730  24.580  1.00  0.00     0.002 C 
BRANCH  27  28
ATOM     28  C   UNL A   1      36.200  22.759  24.252  1.00  0.00     0.021 C 
BRANCH  28  29
ATOM     29  C   UNL A   1      36.973  23.292  25.455  1.00  0.00     0.116 C 
BRANCH  29  30
ATOM     30  N   UNL A   1      37.961  22.350  25.965  1.00  0.00    -0.352 N 
ATOM     31  C   UNL A   1      39.142  22.613  26.626  1.00  0.00     0.251 C 
ATOM     32  H   UNL A   1      37.758  21.398  25.819  1.00  0.00     0.163 HD
ATOM     33  O   UNL A   1      39.929  21.724  26.901  1.00  0.00    -0.269 OA
BRANCH  31  34
ATOM     34  C   UNL A   1      39.446  24.017  26.966  1.00  0.00     0.039 A 
ATOM     35  C   UNL A   1      39.290  24.447  28.285  1.00  0.00     0.014 A 
ATOM     36  C   UNL A   1      39.990  24.863  25.996  1.00  0.00     0.014 A 
ATOM     37  C   UNL A   1      39.770  25.705  28.653  1.00  0.00     0.010 A 
ATOM     38  C   UNL A   1      40.539  26.078  26.384  1.00  0.00     0.010 A 
ATOM     39  C   UNL A   1      40.443  26.509  27.717  1.00  0.00    -0.014 A 
BRANCH  39  40
ATOM     40  C   UNL A   1      41.069  27.798  28.109  1.00  0.00     0.031 A 
ATOM     41  C   UNL A   1      42.559  27.969  27.992  1.00  0.00     0.074 A 
ATOM     42  C   UNL A   1      40.313  28.773  28.654  1.00  0.00     0.049 A 
ATOM     43  N   UNL A   1      43.307  28.970  28.377  1.00  0.00    -0.248 NA
ATOM     44  C   UNL A   1      43.312  26.850  27.401  1.00  0.00     0.031 C 
ATOM     45  C   UNL A   1      38.867  28.700  28.886  1.00  0.00     0.029 A 
ATOM     46  N   UNL A   1      40.658  30.014  29.129  1.00  0.00    -0.354 N 
ATOM     47  C   UNL A   1      44.616  28.588  28.108  1.00  0.00     0.074 A 
ATOM     48  C   UNL A   1      44.564  27.247  27.568  1.00  0.00     0.031 C 
ATOM     49  C   UNL A   1      38.448  29.852  29.436  1.00  0.00     0.029 A 
ATOM     50  C   UNL A   1      39.596  30.733  29.628  1.00  0.00     0.049 A 
ATOM     51  H   UNL A   1      41.581  30.358  29.115  1.00  0.00     0.167 HD
ATOM     52  C   UNL A   1      45.756  29.299  28.275  1.00  0.00     0.037 A 
ATOM     53  C   UNL A   1      39.554  31.961  30.180  1.00  0.00     0.037 A 
ATOM     54  C   UNL A   1      45.794  30.656  28.750  1.00  0.00     0.049 A 
ATOM     55  C   UNL A   1      40.830  32.752  30.303  1.00  0.00     0.074 A 
ATOM     56  C   UNL A   1      46.885  31.499  28.856  1.00  0.00     0.029 A 
ATOM     57  N   UNL A   1      44.689  31.370  29.190  1.00  0.00    -0.354 N 
ATOM     58  N   UNL A   1      42.049  32.406  29.964  1.00  0.00    -0.248 NA
ATOM     59  C   UNL A   1      40.725  34.101  30.877  1.00  0.00     0.031 C 
ATOM     60  C   UNL A   1      46.447  32.714  29.391  1.00  0.00     0.029 A 
ATOM     61  C   UNL A   1      45.076  32.639  29.584  1.00  0.00     0.049 A 
ATOM     62  H   UNL A   1      43.768  31.026  29.219  1.00  0.00     0.167 HD
ATOM     63  C   UNL A   1      42.850  33.505  30.256  1.00  0.00     0.074 A 
ATOM     64  C   UNL A   1      41.978  34.529  30.790  1.00  0.00     0.031 C 
ATOM     65  C   UNL A   1      44.188  33.652  30.096  1.00  0.00     0.037 A 
BRANCH  52  66
ATOM     66  C   UNL A   1      47.055  28.630  27.923  1.00  0.00     0.058 A 
ATOM     67  C   UNL A   1      47.804  27.927  28.878  1.00  0.00     0.135 A 
ATOM     68  C   UNL A   1      47.535  28.662  26.604  1.00  0.00     0.135 A 
ATOM     69  F   UNL A   1      47.398  27.882  30.156  1.00  0.00    -0.206 F 
ATOM     70  C   UNL A   1      48.998  27.298  28.544  1.00  0.00     0.059 A 
ATOM     71  C   UNL A   1      48.715  28.017  26.243  1.00  0.00     0.059 A 
ATOM     72  F   UNL A   1      46.858  29.324  25.653  1.00  0.00    -0.206 F 
ATOM     73  C   UNL A   1      49.446  27.349  27.223  1.00  0.00     0.060 A 
BRANCH  73  74
ATOM     74  S   UNL A   1      50.989  26.513  26.802  1.00  0.00     0.124 S 
ATOM     75  O   UNL A   1      50.921  25.330  27.654  1.00  0.00    -0.237 OA
ATOM     76  O   UNL A   1      50.835  26.272  25.371  1.00  0.00    -0.237 OA
ATOM     77  O   UNL A   1      52.013  27.488  27.163  1.00  0.00    -0.744 OA
ENDBRANCH  73  74
ENDBRANCH  52  66
BRANCH  53  78
ATOM     78  C   UNL A   1      38.261  32.539  30.635  1.00  0.00     0.058 A 
ATOM     79  C   UNL A   1      37.812  32.348  31.951  1.00  0.00     0.135 A 
ATOM     80  C   UNL A   1      37.441  33.275  29.767  1.00  0.00     0.135 A 
ATOM     81  F   UNL A   1      38.560  31.646  32.818  1.00  0.00    -0.206 F 
ATOM     82  C   UNL A   1      36.586  32.840  32.384  1.00  0.00     0.059 A 
ATOM     83  C   UNL A   1      36.220  33.797  30.183  1.00  0.00     0.059 A 
ATOM     84  F   UNL A   1      37.832  33.502  28.504  1.00  0.00    -0.206 F 
ATOM     85  C   UNL A   1      35.793  33.561  31.489  1.00  0.00     0.060 A 
BRANCH  85  86
ATOM     86  S   UNL A   1      34.212  34.218  32.063  1.00  0.00     0.124 S 
ATOM     87  O   UNL A   1      33.503  34.414  30.804  1.00  0.00    -0.237 OA
ATOM     88  O   UNL A   1      33.718  33.139  32.913  1.00  0.00    -0.237 OA
ATOM     89  O   UNL A   1      34.594  35.436  32.770  1.00  0.00    -0.744 OA
ENDBRANCH  85  86
ENDBRANCH  53  78
BRANCH  65  90
ATOM     90  C   UNL A   1      44.787  34.979  30.463  1.00  0.00     0.058 A 
ATOM     91  C   UNL A   1      44.938  36.004  29.519  1.00  0.00     0.135 A 
ATOM     92  C   UNL A   1      45.157  35.245  31.791  1.00  0.00     0.135 A 
ATOM     93  F   UNL A   1      44.605  35.794  28.235  1.00  0.00    -0.206 F 
ATOM     94  C   UNL A   1      45.451  37.246  29.874  1.00  0.00     0.059 A 
ATOM     95  C   UNL A   1      45.651  36.488  32.175  1.00  0.00     0.059 A 
ATOM     96  F   UNL A   1      45.023  34.300  32.735  1.00  0.00    -0.206 F 
ATOM     97  C   UNL A   1      45.803  37.479  31.205  1.00  0.00     0.060 A 
BRANCH  97  98
ATOM     98  S   UNL A   1      46.428  39.110  31.665  1.00  0.00     0.124 S 
ATOM     99  O   UNL A   1      45.249  39.714  32.276  1.00  0.00    -0.237 OA
ATOM    100  O   UNL A   1      47.519  38.783  32.578  1.00  0.00    -0.237 OA
ATOM    101  O   UNL A   1      46.840  39.687  30.388  1.00  0.00    -0.744 OA
ENDBRANCH  97  98
ENDBRANCH  65  90
ENDBRANCH  39  40
ENDBRANCH  31  34
ENDBRANCH  29  30
ENDBRANCH  28  29
ENDBRANCH  27  28
ENDBRANCH   1  27
TORSDOF 21
ENDMDL
