MODEL 1
REMARK VINA RESULT:     -11.0      0.000      0.000
REMARK SMILES O=C(NCCCCCCNC(=O)c1ccc(CNC(=O)c2cccnc2)o1)c1ccc(-c2c3nc(c(-c4c(F)cc(S(=O)(=O)[O-])cc4F)c4ccc([nH]4)c(-c4c(F)cc(S(=O)(=O)[O-])cc4F)c4nc(c(-c5c(F)cc(S(=O)(=O)[O-])cc5F)c5ccc2[nH]5)C=C4)C=C3)cc1
REMARK SMILES IDX 6 1 5 2 4 3 3 4 1 5 2 6 28 8 29 9 93 10 30 11 92 12 31 13
REMARK SMILES IDX 32 14 33 15 86 16 34 17 91 18 85 19 87 20 35 21 90 22 84 23
REMARK SMILES IDX 83 24 36 26 70 27 49 28 69 29 50 30 53 31 68 32 88 33 51 34
REMARK SMILES IDX 52 35 67 37 89 38 54 39 37 40 38 41 47 42 39 43 40 44 46 45
REMARK SMILES IDX 48 46 41 47 42 48 43 49 44 50 45 51 71 52 72 53 81 54 73 55
REMARK SMILES IDX 74 56 80 57 82 58 75 59 76 60 77 61 78 62 79 63 55 64 56 65
REMARK SMILES IDX 65 66 57 67 58 68 64 69 66 70 59 71 60 72 61 73 62 74 63 75
REMARK SMILES IDX 7 76 8 77 9 78 10 79 11 80 12 82 13 83 14 84 27 85 15 86
REMARK SMILES IDX 16 87 17 88 18 89 19 90 20 92 21 93 22 94 26 95 23 96 25 97
REMARK SMILES IDX 24 98
REMARK H PARENT 3 7 87 25 53 36 10 81 18 91
REMARK Flexibility Score: inf
ROOT
ATOM      1  C   UNL A   1      41.559  21.876  26.545  1.00  0.00     0.002 C 
ENDROOT
BRANCH   1   2
ATOM      2  C   UNL A   1      42.796  22.109  27.411  1.00  0.00     0.021 C 
BRANCH   2   3
ATOM      3  C   UNL A   1      43.454  23.473  27.257  1.00  0.00     0.116 C 
BRANCH   3   4
ATOM      4  N   UNL A   1      42.996  24.198  26.083  1.00  0.00    -0.352 N 
ATOM      5  O   UNL A   1      41.901  25.812  24.946  1.00  0.00    -0.269 OA
ATOM      6  C   UNL A   1      42.332  25.403  26.020  1.00  0.00     0.251 C 
ATOM      7  H   UNL A   1      43.184  23.771  25.217  1.00  0.00     0.163 HD
BRANCH   6   8
ATOM      8  C   UNL A   1      42.114  26.187  27.258  1.00  0.00     0.039 A 
ATOM      9  C   UNL A   1      41.107  25.832  28.157  1.00  0.00     0.014 A 
ATOM     10  C   UNL A   1      42.923  27.298  27.519  1.00  0.00     0.014 A 
ATOM     11  C   UNL A   1      40.814  26.665  29.230  1.00  0.00     0.010 A 
ATOM     12  C   UNL A   1      42.682  28.087  28.651  1.00  0.00     0.010 A 
ATOM     13  C   UNL A   1      41.605  27.796  29.499  1.00  0.00    -0.014 A 
BRANCH  13  14
ATOM     14  C   UNL A   1      41.310  28.597  30.716  1.00  0.00     0.031 A 
ATOM     15  C   UNL A   1      42.172  28.511  31.946  1.00  0.00     0.074 A 
ATOM     16  C   UNL A   1      40.281  29.467  30.671  1.00  0.00     0.049 A 
ATOM     17  N   UNL A   1      42.098  29.212  33.050  1.00  0.00    -0.248 NA
ATOM     18  C   UNL A   1      43.251  27.511  31.945  1.00  0.00     0.031 C 
ATOM     19  C   UNL A   1      39.355  29.613  29.543  1.00  0.00     0.029 A 
ATOM     20  N   UNL A   1      39.859  30.412  31.569  1.00  0.00    -0.354 N 
ATOM     21  C   UNL A   1      43.108  28.736  33.878  1.00  0.00     0.074 A 
ATOM     22  C   UNL A   1      43.768  27.666  33.159  1.00  0.00     0.031 C 
ATOM     23  C   UNL A   1      38.515  30.627  29.792  1.00  0.00     0.029 A 
ATOM     24  C   UNL A   1      38.806  31.169  31.114  1.00  0.00     0.049 A 
ATOM     25  H   UNL A   1      40.272  30.537  32.455  1.00  0.00     0.167 HD
ATOM     26  C   UNL A   1      43.458  29.160  35.116  1.00  0.00     0.037 A 
ATOM     27  C   UNL A   1      38.143  32.186  31.693  1.00  0.00     0.037 A 
ATOM     28  C   UNL A   1      42.802  30.232  35.824  1.00  0.00     0.049 A 
ATOM     29  C   UNL A   1      38.569  32.652  33.054  1.00  0.00     0.074 A 
ATOM     30  C   UNL A   1      43.086  30.737  37.081  1.00  0.00     0.029 A 
ATOM     31  N   UNL A   1      41.732  30.968  35.334  1.00  0.00    -0.354 N 
ATOM     32  N   UNL A   1      39.539  32.198  33.811  1.00  0.00    -0.248 NA
ATOM     33  C   UNL A   1      37.816  33.767  33.639  1.00  0.00     0.031 C 
ATOM     34  C   UNL A   1      42.173  31.760  37.363  1.00  0.00     0.029 A 
ATOM     35  C   UNL A   1      41.342  31.918  36.265  1.00  0.00     0.049 A 
ATOM     36  H   UNL A   1      41.312  30.835  34.454  1.00  0.00     0.167 HD
ATOM     37  C   UNL A   1      39.507  32.967  34.967  1.00  0.00     0.074 A 
ATOM     38  C   UNL A   1      38.449  33.941  34.791  1.00  0.00     0.031 C 
ATOM     39  C   UNL A   1      40.276  32.869  36.079  1.00  0.00     0.037 A 
BRANCH  26  40
ATOM     40  C   UNL A   1      44.610  28.469  35.794  1.00  0.00     0.058 A 
ATOM     41  C   UNL A   1      44.411  27.356  36.624  1.00  0.00     0.135 A 
ATOM     42  C   UNL A   1      45.932  28.885  35.563  1.00  0.00     0.135 A 
ATOM     43  F   UNL A   1      43.167  26.925  36.890  1.00  0.00    -0.206 F 
ATOM     44  C   UNL A   1      45.478  26.686  37.214  1.00  0.00     0.059 A 
ATOM     45  C   UNL A   1      47.017  28.218  36.127  1.00  0.00     0.059 A 
ATOM     46  F   UNL A   1      46.180  29.945  34.778  1.00  0.00    -0.206 F 
ATOM     47  C   UNL A   1      46.779  27.124  36.958  1.00  0.00     0.060 A 
BRANCH  47  48
ATOM     48  S   UNL A   1      48.155  26.234  37.717  1.00  0.00     0.124 S 
ATOM     49  O   UNL A   1      48.203  25.025  36.899  1.00  0.00    -0.237 OA
ATOM     50  O   UNL A   1      49.267  27.163  37.535  1.00  0.00    -0.237 OA
ATOM     51  O   UNL A   1      47.720  26.044  39.096  1.00  0.00    -0.744 OA
ENDBRANCH  47  48
ENDBRANCH  26  40
BRANCH  27  52
ATOM     52  C   UNL A   1      37.004  32.821  30.983  1.00  0.00     0.058 A 
ATOM     53  C   UNL A   1      37.209  33.826  30.029  1.00  0.00     0.135 A 
ATOM     54  C   UNL A   1      35.684  32.408  31.228  1.00  0.00     0.135 A 
ATOM     55  F   UNL A   1      38.452  34.254  29.761  1.00  0.00    -0.206 F 
ATOM     56  C   UNL A   1      36.146  34.412  29.350  1.00  0.00     0.059 A 
ATOM     57  C   UNL A   1      34.608  32.959  30.544  1.00  0.00     0.059 A 
ATOM     58  F   UNL A   1      35.439  31.434  32.118  1.00  0.00    -0.206 F 
ATOM     59  C   UNL A   1      34.848  33.970  29.615  1.00  0.00     0.060 A 
BRANCH  59  60
ATOM     60  S   UNL A   1      33.474  34.693  28.693  1.00  0.00     0.124 S 
ATOM     61  O   UNL A   1      33.093  33.587  27.823  1.00  0.00    -0.237 OA
ATOM     62  O   UNL A   1      32.528  35.028  29.754  1.00  0.00    -0.237 OA
ATOM     63  O   UNL A   1      34.087  35.840  28.029  1.00  0.00    -0.744 OA
ENDBRANCH  59  60
ENDBRANCH  27  52
BRANCH  39  64
ATOM     64  C   UNL A   1      39.988  33.842  37.185  1.00  0.00     0.058 A 
ATOM     65  C   UNL A   1      39.113  33.519  38.233  1.00  0.00     0.135 A 
ATOM     66  C   UNL A   1      40.590  35.110  37.196  1.00  0.00     0.135 A 
ATOM     67  F   UNL A   1      38.508  32.321  38.262  1.00  0.00    -0.206 F 
ATOM     68  C   UNL A   1      38.814  34.434  39.236  1.00  0.00     0.059 A 
ATOM     69  C   UNL A   1      40.324  36.032  38.202  1.00  0.00     0.059 A 
ATOM     70  F   UNL A   1      41.442  35.464  36.220  1.00  0.00    -0.206 F 
ATOM     71  C   UNL A   1      39.419  35.692  39.208  1.00  0.00     0.060 A 
BRANCH  71  72
ATOM     72  S   UNL A   1      39.021  36.876  40.510  1.00  0.00     0.124 S 
ATOM     73  O   UNL A   1      38.055  36.124  41.304  1.00  0.00    -0.237 OA
ATOM     74  O   UNL A   1      40.319  37.104  41.139  1.00  0.00    -0.237 OA
ATOM     75  O   UNL A   1      38.481  38.017  39.775  1.00  0.00    -0.744 OA
ENDBRANCH  71  72
ENDBRANCH  39  64
ENDBRANCH  13  14
ENDBRANCH   6   8
ENDBRANCH   3   4
ENDBRANCH   2   3
ENDBRANCH   1   2
BRANCH   1  76
ATOM     76  C   UNL A   1      40.211  22.110  27.234  1.00  0.00     0.002 C 
BRANCH  76  77
ATOM     77  C   UNL A   1      39.273  23.112  26.553  1.00  0.00     0.021 C 
BRANCH  77  78
ATOM     78  C   UNL A   1      37.983  22.522  25.982  1.00  0.00     0.116 C 
BRANCH  78  79
ATOM     79  N   UNL A   1      37.782  22.898  24.595  1.00  0.00    -0.349 N 
ATOM     80  C   UNL A   1      36.602  22.997  23.896  1.00  0.00     0.286 C 
ATOM     81  H   UNL A   1      38.598  23.110  24.087  1.00  0.00     0.163 HD
ATOM     82  O   UNL A   1      36.668  23.156  22.676  1.00  0.00    -0.266 OA
BRANCH  80  83
ATOM     83  C   UNL A   1      35.361  22.911  24.626  1.00  0.00     0.191 A 
ATOM     84  C   UNL A   1      34.725  23.785  25.490  1.00  0.00     0.056 A 
ATOM     85  O   UNL A   1      34.616  21.771  24.506  1.00  0.00    -0.454 OA
ATOM     86  C   UNL A   1      33.549  23.135  25.939  1.00  0.00     0.048 A 
ATOM     87  C   UNL A   1      33.534  21.900  25.325  1.00  0.00     0.124 A 
BRANCH  87  88
ATOM     88  C   UNL A   1      32.646  20.719  25.426  1.00  0.00     0.191 C 
BRANCH  88  89
ATOM     89  N   UNL A   1      32.238  20.298  24.102  1.00  0.00    -0.345 N 
ATOM     90  C   UNL A   1      32.445  19.093  23.482  1.00  0.00     0.253 C 
ATOM     91  H   UNL A   1      31.746  20.968  23.575  1.00  0.00     0.164 HD
ATOM     92  O   UNL A   1      32.148  18.945  22.299  1.00  0.00    -0.269 OA
BRANCH  90  93
ATOM     93  C   UNL A   1      33.039  17.964  24.219  1.00  0.00     0.058 A 
ATOM     94  C   UNL A   1      32.289  17.090  25.005  1.00  0.00     0.017 A 
ATOM     95  C   UNL A   1      34.402  17.733  24.094  1.00  0.00     0.124 A 
ATOM     96  C   UNL A   1      32.938  16.062  25.684  1.00  0.00     0.021 A 
ATOM     97  N   UNL A   1      35.057  16.735  24.738  1.00  0.00    -0.264 NA
ATOM     98  C   UNL A   1      34.310  15.930  25.526  1.00  0.00     0.111 A 
ENDBRANCH  90  93
ENDBRANCH  88  89
ENDBRANCH  87  88
ENDBRANCH  80  83
ENDBRANCH  78  79
ENDBRANCH  77  78
ENDBRANCH  76  77
ENDBRANCH   1  76
TORSDOF 19
ENDMDL
MODEL 2
REMARK VINA RESULT:     -11.0      5.905      8.777
REMARK SMILES O=C(NCCCCCCNC(=O)c1ccc(CNC(=O)c2cccnc2)o1)c1ccc(-c2c3nc(c(-c4c(F)cc(S(=O)(=O)[O-])cc4F)c4ccc([nH]4)c(-c4c(F)cc(S(=O)(=O)[O-])cc4F)c4nc(c(-c5c(F)cc(S(=O)(=O)[O-])cc5F)c5ccc2[nH]5)C=C4)C=C3)cc1
REMARK SMILES IDX 6 1 5 2 4 3 3 4 1 5 2 6 28 8 29 9 93 10 30 11 92 12 31 13
REMARK SMILES IDX 32 14 33 15 86 16 34 17 91 18 85 19 87 20 35 21 90 22 84 23
REMARK SMILES IDX 83 24 36 26 70 27 49 28 69 29 50 30 53 31 68 32 88 33 51 34
REMARK SMILES IDX 52 35 67 37 89 38 54 39 37 40 38 41 47 42 39 43 40 44 46 45
REMARK SMILES IDX 48 46 41 47 42 48 43 49 44 50 45 51 71 52 72 53 81 54 73 55
REMARK SMILES IDX 74 56 80 57 82 58 75 59 76 60 77 61 78 62 79 63 55 64 56 65
REMARK SMILES IDX 65 66 57 67 58 68 64 69 66 70 59 71 60 72 61 73 62 74 63 75
REMARK SMILES IDX 7 76 8 77 9 78 10 79 11 80 12 82 13 83 14 84 27 85 15 86
REMARK SMILES IDX 16 87 17 88 18 89 19 90 20 92 21 93 22 94 26 95 23 96 25 97
REMARK SMILES IDX 24 98
REMARK H PARENT 3 7 87 25 53 36 10 81 18 91
REMARK Flexibility Score: inf
ROOT
ATOM      1  C   UNL A   1      37.456  21.466  24.279  1.00  0.00     0.002 C 
ENDROOT
BRANCH   1   2
ATOM      2  C   UNL A   1      37.891  20.269  25.123  1.00  0.00     0.021 C 
BRANCH   2   3
ATOM      3  C   UNL A   1      39.046  20.531  26.080  1.00  0.00     0.116 C 
BRANCH   3   4
ATOM      4  N   UNL A   1      40.115  19.552  25.967  1.00  0.00    -0.352 N 
ATOM      5  O   UNL A   1      42.246  18.825  25.811  1.00  0.00    -0.269 OA
ATOM      6  C   UNL A   1      41.475  19.746  26.063  1.00  0.00     0.251 C 
ATOM      7  H   UNL A   1      39.828  18.626  25.798  1.00  0.00     0.163 HD
BRANCH   6   8
ATOM      8  C   UNL A   1      42.001  21.078  26.442  1.00  0.00     0.039 A 
ATOM      9  C   UNL A   1      42.199  22.065  25.476  1.00  0.00     0.014 A 
ATOM     10  C   UNL A   1      42.307  21.340  27.781  1.00  0.00     0.014 A 
ATOM     11  C   UNL A   1      42.839  23.250  25.821  1.00  0.00     0.010 A 
ATOM     12  C   UNL A   1      42.870  22.571  28.141  1.00  0.00     0.010 A 
ATOM     13  C   UNL A   1      43.170  23.525  27.159  1.00  0.00    -0.014 A 
BRANCH  13  14
ATOM     14  C   UNL A   1      43.761  24.848  27.488  1.00  0.00     0.031 A 
ATOM     15  C   UNL A   1      45.204  25.164  27.200  1.00  0.00     0.074 A 
ATOM     16  C   UNL A   1      42.949  25.799  27.995  1.00  0.00     0.049 A 
ATOM     17  N   UNL A   1      45.840  26.299  27.346  1.00  0.00    -0.248 NA
ATOM     18  C   UNL A   1      46.044  24.070  26.689  1.00  0.00     0.031 C 
ATOM     19  C   UNL A   1      41.540  25.598  28.347  1.00  0.00     0.029 A 
ATOM     20  N   UNL A   1      43.172  27.123  28.268  1.00  0.00    -0.354 N 
ATOM     21  C   UNL A   1      47.152  26.059  26.956  1.00  0.00     0.074 A 
ATOM     22  C   UNL A   1      47.230  24.660  26.591  1.00  0.00     0.031 C 
ATOM     23  C   UNL A   1      41.011  26.767  28.733  1.00  0.00     0.029 A 
ATOM     24  C   UNL A   1      42.051  27.788  28.705  1.00  0.00     0.049 A 
ATOM     25  H   UNL A   1      44.051  27.556  28.161  1.00  0.00     0.167 HD
ATOM     26  C   UNL A   1      48.191  26.928  26.898  1.00  0.00     0.037 A 
ATOM     27  C   UNL A   1      41.875  29.077  29.048  1.00  0.00     0.037 A 
ATOM     28  C   UNL A   1      48.105  28.322  27.256  1.00  0.00     0.049 A 
ATOM     29  C   UNL A   1      43.036  30.022  28.949  1.00  0.00     0.074 A 
ATOM     30  C   UNL A   1      49.101  29.284  27.228  1.00  0.00     0.029 A 
ATOM     31  N   UNL A   1      46.955  28.957  27.703  1.00  0.00    -0.354 N 
ATOM     32  N   UNL A   1      44.265  29.775  28.561  1.00  0.00    -0.248 NA
ATOM     33  C   UNL A   1      42.790  31.417  29.331  1.00  0.00     0.031 C 
ATOM     34  C   UNL A   1      48.561  30.492  27.682  1.00  0.00     0.029 A 
ATOM     35  C   UNL A   1      47.218  30.294  27.958  1.00  0.00     0.049 A 
ATOM     36  H   UNL A   1      46.080  28.522  27.822  1.00  0.00     0.167 HD
ATOM     37  C   UNL A   1      44.941  30.984  28.661  1.00  0.00     0.074 A 
ATOM     38  C   UNL A   1      43.975  31.968  29.106  1.00  0.00     0.031 C 
ATOM     39  C   UNL A   1      46.247  31.254  28.417  1.00  0.00     0.037 A 
BRANCH  26  40
ATOM     40  C   UNL A   1      49.519  26.402  26.426  1.00  0.00     0.058 A 
ATOM     41  C   UNL A   1      49.953  26.589  25.105  1.00  0.00     0.135 A 
ATOM     42  C   UNL A   1      50.394  25.758  27.318  1.00  0.00     0.135 A 
ATOM     43  F   UNL A   1      49.151  27.185  24.208  1.00  0.00    -0.206 F 
ATOM     44  C   UNL A   1      51.201  26.145  24.679  1.00  0.00     0.059 A 
ATOM     45  C   UNL A   1      51.655  25.324  26.918  1.00  0.00     0.059 A 
ATOM     46  F   UNL A   1      50.029  25.553  28.593  1.00  0.00    -0.206 F 
ATOM     47  C   UNL A   1      52.046  25.513  25.593  1.00  0.00     0.060 A 
BRANCH  47  48
ATOM     48  S   UNL A   1      53.670  24.959  25.029  1.00  0.00     0.124 S 
ATOM     49  O   UNL A   1      53.743  25.575  23.708  1.00  0.00    -0.237 OA
ATOM     50  O   UNL A   1      54.561  25.522  26.039  1.00  0.00    -0.237 OA
ATOM     51  O   UNL A   1      53.555  23.504  25.039  1.00  0.00    -0.744 OA
ENDBRANCH  47  48
ENDBRANCH  26  40
BRANCH  27  52
ATOM     52  C   UNL A   1      40.545  29.537  29.522  1.00  0.00     0.058 A 
ATOM     53  C   UNL A   1      40.304  29.796  30.878  1.00  0.00     0.135 A 
ATOM     54  C   UNL A   1      39.495  29.754  28.615  1.00  0.00     0.135 A 
ATOM     55  F   UNL A   1      41.277  29.603  31.781  1.00  0.00    -0.206 F 
ATOM     56  C   UNL A   1      39.065  30.242  31.323  1.00  0.00     0.059 A 
ATOM     57  C   UNL A   1      38.257  30.224  29.033  1.00  0.00     0.059 A 
ATOM     58  F   UNL A   1      39.685  29.539  27.304  1.00  0.00    -0.206 F 
ATOM     59  C   UNL A   1      38.046  30.454  30.391  1.00  0.00     0.060 A 
BRANCH  59  60
ATOM     60  S   UNL A   1      36.455  31.085  30.964  1.00  0.00     0.124 S 
ATOM     61  O   UNL A   1      36.008  30.004  31.834  1.00  0.00    -0.237 OA
ATOM     62  O   UNL A   1      36.833  32.328  31.630  1.00  0.00    -0.237 OA
ATOM     63  O   UNL A   1      35.700  31.254  29.725  1.00  0.00    -0.744 OA
ENDBRANCH  59  60
ENDBRANCH  27  52
BRANCH  39  64
ATOM     64  C   UNL A   1      46.694  32.671  28.634  1.00  0.00     0.058 A 
ATOM     65  C   UNL A   1      46.638  33.620  27.602  1.00  0.00     0.135 A 
ATOM     66  C   UNL A   1      47.184  33.083  29.882  1.00  0.00     0.135 A 
ATOM     67  F   UNL A   1      46.183  33.271  26.388  1.00  0.00    -0.206 F 
ATOM     68  C   UNL A   1      47.089  34.922  27.789  1.00  0.00     0.059 A 
ATOM     69  C   UNL A   1      47.618  34.387  30.099  1.00  0.00     0.059 A 
ATOM     70  F   UNL A   1      47.248  32.215  30.905  1.00  0.00    -0.206 F 
ATOM     71  C   UNL A   1      47.585  35.294  29.039  1.00  0.00     0.060 A 
BRANCH  71  72
ATOM     72  S   UNL A   1      48.174  36.984  29.273  1.00  0.00     0.124 S 
ATOM     73  O   UNL A   1      49.529  36.755  29.764  1.00  0.00    -0.237 OA
ATOM     74  O   UNL A   1      48.073  37.544  27.928  1.00  0.00    -0.237 OA
ATOM     75  O   UNL A   1      47.237  37.537  30.246  1.00  0.00    -0.744 OA
ENDBRANCH  71  72
ENDBRANCH  39  64
ENDBRANCH  13  14
ENDBRANCH   6   8
ENDBRANCH   3   4
ENDBRANCH   2   3
ENDBRANCH   1   2
BRANCH   1  76
ATOM     76  C   UNL A   1      35.965  21.811  24.332  1.00  0.00     0.002 C 
BRANCH  76  77
ATOM     77  C   UNL A   1      35.486  22.529  25.599  1.00  0.00     0.021 C 
BRANCH  77  78
ATOM     78  C   UNL A   1      34.747  21.654  26.611  1.00  0.00     0.116 C 
BRANCH  78  79
ATOM     79  N   UNL A   1      34.004  20.588  25.966  1.00  0.00    -0.349 N 
ATOM     80  C   UNL A   1      32.711  20.604  25.500  1.00  0.00     0.286 C 
ATOM     81  H   UNL A   1      34.490  19.740  25.847  1.00  0.00     0.163 HD
ATOM     82  O   UNL A   1      32.211  19.534  25.148  1.00  0.00    -0.266 OA
BRANCH  80  83
ATOM     83  C   UNL A   1      32.015  21.867  25.447  1.00  0.00     0.191 A 
ATOM     84  C   UNL A   1      31.448  22.661  26.428  1.00  0.00     0.056 A 
ATOM     85  O   UNL A   1      31.826  22.452  24.225  1.00  0.00    -0.454 OA
ATOM     86  C   UNL A   1      30.862  23.770  25.769  1.00  0.00     0.048 A 
ATOM     87  C   UNL A   1      31.103  23.590  24.424  1.00  0.00     0.124 A 
BRANCH  87  88
ATOM     88  C   UNL A   1      30.693  24.326  23.205  1.00  0.00     0.191 C 
BRANCH  88  89
ATOM     89  N   UNL A   1      31.845  24.543  22.354  1.00  0.00    -0.345 N 
ATOM     90  C   UNL A   1      32.861  25.451  22.499  1.00  0.00     0.253 C 
ATOM     91  H   UNL A   1      31.905  23.961  21.563  1.00  0.00     0.164 HD
ATOM     92  O   UNL A   1      33.696  25.596  21.610  1.00  0.00    -0.269 OA
BRANCH  90  93
ATOM     93  C   UNL A   1      32.960  26.277  23.715  1.00  0.00     0.058 A 
ATOM     94  C   UNL A   1      33.816  25.974  24.773  1.00  0.00     0.017 A 
ATOM     95  C   UNL A   1      32.196  27.433  23.796  1.00  0.00     0.124 A 
ATOM     96  C   UNL A   1      33.827  26.800  25.894  1.00  0.00     0.021 A 
ATOM     97  N   UNL A   1      32.194  28.258  24.873  1.00  0.00    -0.264 NA
ATOM     98  C   UNL A   1      33.002  27.916  25.900  1.00  0.00     0.111 A 
ENDBRANCH  90  93
ENDBRANCH  88  89
ENDBRANCH  87  88
ENDBRANCH  80  83
ENDBRANCH  78  79
ENDBRANCH  77  78
ENDBRANCH  76  77
ENDBRANCH   1  76
TORSDOF 19
ENDMDL
MODEL 3
REMARK VINA RESULT:     -10.9      2.061      3.744
REMARK SMILES O=C(NCCCCCCNC(=O)c1ccc(CNC(=O)c2cccnc2)o1)c1ccc(-c2c3nc(c(-c4c(F)cc(S(=O)(=O)[O-])cc4F)c4ccc([nH]4)c(-c4c(F)cc(S(=O)(=O)[O-])cc4F)c4nc(c(-c5c(F)cc(S(=O)(=O)[O-])cc5F)c5ccc2[nH]5)C=C4)C=C3)cc1
REMARK SMILES IDX 6 1 5 2 4 3 3 4 1 5 2 6 28 8 29 9 93 10 30 11 92 12 31 13
REMARK SMILES IDX 32 14 33 15 86 16 34 17 91 18 85 19 87 20 35 21 90 22 84 23
REMARK SMILES IDX 83 24 36 26 70 27 49 28 69 29 50 30 53 31 68 32 88 33 51 34
REMARK SMILES IDX 52 35 67 37 89 38 54 39 37 40 38 41 47 42 39 43 40 44 46 45
REMARK SMILES IDX 48 46 41 47 42 48 43 49 44 50 45 51 71 52 72 53 81 54 73 55
REMARK SMILES IDX 74 56 80 57 82 58 75 59 76 60 77 61 78 62 79 63 55 64 56 65
REMARK SMILES IDX 65 66 57 67 58 68 64 69 66 70 59 71 60 72 61 73 62 74 63 75
REMARK SMILES IDX 7 76 8 77 9 78 10 79 11 80 12 82 13 83 14 84 27 85 15 86
REMARK SMILES IDX 16 87 17 88 18 89 19 90 20 92 21 93 22 94 26 95 23 96 25 97
REMARK SMILES IDX 24 98
REMARK H PARENT 3 7 87 25 53 36 10 81 18 91
REMARK Flexibility Score: inf
ROOT
ATOM      1  C   UNL A   1      38.774  21.637  25.646  1.00  0.00     0.002 C 
ENDROOT
BRANCH   1   2
ATOM      2  C   UNL A   1      39.690  21.935  26.832  1.00  0.00     0.021 C 
BRANCH   2   3
ATOM      3  C   UNL A   1      39.918  23.412  27.126  1.00  0.00     0.116 C 
BRANCH   3   4
ATOM      4  N   UNL A   1      40.707  24.082  26.105  1.00  0.00    -0.352 N 
ATOM      5  O   UNL A   1      41.682  25.828  25.059  1.00  0.00    -0.269 OA
ATOM      6  C   UNL A   1      41.132  25.391  26.065  1.00  0.00     0.251 C 
ATOM      7  H   UNL A   1      40.973  23.525  25.338  1.00  0.00     0.163 HD
BRANCH   6   8
ATOM      8  C   UNL A   1      40.893  26.275  27.230  1.00  0.00     0.039 A 
ATOM      9  C   UNL A   1      41.681  27.409  27.436  1.00  0.00     0.014 A 
ATOM     10  C   UNL A   1      39.871  25.962  28.132  1.00  0.00     0.014 A 
ATOM     11  C   UNL A   1      41.548  28.137  28.612  1.00  0.00     0.010 A 
ATOM     12  C   UNL A   1      39.680  26.751  29.273  1.00  0.00     0.010 A 
ATOM     13  C   UNL A   1      40.538  27.827  29.540  1.00  0.00    -0.014 A 
BRANCH  13  14
ATOM     14  C   UNL A   1      40.375  28.699  30.732  1.00  0.00     0.031 A 
ATOM     15  C   UNL A   1      41.287  28.589  31.923  1.00  0.00     0.074 A 
ATOM     16  C   UNL A   1      39.423  29.654  30.696  1.00  0.00     0.049 A 
ATOM     17  N   UNL A   1      41.328  29.337  32.997  1.00  0.00    -0.248 NA
ATOM     18  C   UNL A   1      42.275  27.499  31.916  1.00  0.00     0.031 C 
ATOM     19  C   UNL A   1      38.457  29.835  29.608  1.00  0.00     0.029 A 
ATOM     20  N   UNL A   1      39.129  30.668  31.570  1.00  0.00    -0.354 N 
ATOM     21  C   UNL A   1      42.335  28.808  33.797  1.00  0.00     0.074 A 
ATOM     22  C   UNL A   1      42.864  27.656  33.096  1.00  0.00     0.031 C 
ATOM     23  C   UNL A   1      37.720  30.927  29.849  1.00  0.00     0.029 A 
ATOM     24  C   UNL A   1      38.122  31.494  31.131  1.00  0.00     0.049 A 
ATOM     25  H   UNL A   1      39.595  30.792  32.429  1.00  0.00     0.167 HD
ATOM     26  C   UNL A   1      42.782  29.250  34.998  1.00  0.00     0.037 A 
ATOM     27  C   UNL A   1      37.578  32.588  31.695  1.00  0.00     0.037 A 
ATOM     28  C   UNL A   1      42.256  30.403  35.687  1.00  0.00     0.049 A 
ATOM     29  C   UNL A   1      38.111  33.070  33.012  1.00  0.00     0.074 A 
ATOM     30  C   UNL A   1      42.644  30.932  36.906  1.00  0.00     0.029 A 
ATOM     31  N   UNL A   1      41.229  31.209  35.215  1.00  0.00    -0.354 N 
ATOM     32  N   UNL A   1      39.075  32.563  33.743  1.00  0.00    -0.248 NA
ATOM     33  C   UNL A   1      37.485  34.269  33.582  1.00  0.00     0.031 C 
ATOM     34  C   UNL A   1      41.837  32.040  37.184  1.00  0.00     0.029 A 
ATOM     35  C   UNL A   1      40.969  32.226  36.120  1.00  0.00     0.049 A 
ATOM     36  H   UNL A   1      40.755  31.078  34.362  1.00  0.00     0.167 HD
ATOM     37  C   UNL A   1      39.166  33.378  34.863  1.00  0.00     0.074 A 
ATOM     38  C   UNL A   1      38.188  34.433  34.694  1.00  0.00     0.031 C 
ATOM     39  C   UNL A   1      39.979  33.258  35.942  1.00  0.00     0.037 A 
BRANCH  26  40
ATOM     40  C   UNL A   1      43.903  28.489  35.652  1.00  0.00     0.058 A 
ATOM     41  C   UNL A   1      43.651  27.437  36.545  1.00  0.00     0.135 A 
ATOM     42  C   UNL A   1      45.242  28.773  35.335  1.00  0.00     0.135 A 
ATOM     43  F   UNL A   1      42.390  27.133  36.893  1.00  0.00    -0.206 F 
ATOM     44  C   UNL A   1      44.686  26.701  37.113  1.00  0.00     0.059 A 
ATOM     45  C   UNL A   1      46.293  28.036  35.876  1.00  0.00     0.059 A 
ATOM     46  F   UNL A   1      45.540  29.769  34.486  1.00  0.00    -0.206 F 
ATOM     47  C   UNL A   1      46.005  27.007  36.772  1.00  0.00     0.060 A 
BRANCH  47  48
ATOM     48  S   UNL A   1      47.336  26.031  37.505  1.00  0.00     0.124 S 
ATOM     49  O   UNL A   1      47.532  26.719  38.778  1.00  0.00    -0.237 OA
ATOM     50  O   UNL A   1      46.738  24.702  37.590  1.00  0.00    -0.237 OA
ATOM     51  O   UNL A   1      48.425  26.165  36.543  1.00  0.00    -0.744 OA
ENDBRANCH  47  48
ENDBRANCH  26  40
BRANCH  27  52
ATOM     52  C   UNL A   1      36.463  33.290  31.011  1.00  0.00     0.058 A 
ATOM     53  C   UNL A   1      35.152  33.229  31.502  1.00  0.00     0.135 A 
ATOM     54  C   UNL A   1      36.699  34.065  29.863  1.00  0.00     0.135 A 
ATOM     55  F   UNL A   1      34.879  32.501  32.596  1.00  0.00    -0.206 F 
ATOM     56  C   UNL A   1      34.108  33.898  30.873  1.00  0.00     0.059 A 
ATOM     57  C   UNL A   1      35.677  34.763  29.233  1.00  0.00     0.059 A 
ATOM     58  F   UNL A   1      37.941  34.171  29.368  1.00  0.00    -0.206 F 
ATOM     59  C   UNL A   1      34.382  34.665  29.738  1.00  0.00     0.060 A 
BRANCH  59  60
ATOM     60  S   UNL A   1      33.035  35.577  28.955  1.00  0.00     0.124 S 
ATOM     61  O   UNL A   1      32.218  35.937  30.107  1.00  0.00    -0.237 OA
ATOM     62  O   UNL A   1      33.741  36.676  28.303  1.00  0.00    -0.237 OA
ATOM     63  O   UNL A   1      32.453  34.593  28.046  1.00  0.00    -0.744 OA
ENDBRANCH  59  60
ENDBRANCH  27  52
BRANCH  39  64
ATOM     64  C   UNL A   1      39.832  34.297  37.015  1.00  0.00     0.058 A 
ATOM     65  C   UNL A   1      39.037  34.068  38.149  1.00  0.00     0.135 A 
ATOM     66  C   UNL A   1      40.488  35.533  36.910  1.00  0.00     0.135 A 
ATOM     67  F   UNL A   1      38.383  32.904  38.290  1.00  0.00    -0.206 F 
ATOM     68  C   UNL A   1      38.866  35.043  39.124  1.00  0.00     0.059 A 
ATOM     69  C   UNL A   1      40.351  36.514  37.885  1.00  0.00     0.059 A 
ATOM     70  F   UNL A   1      41.268  35.797  35.849  1.00  0.00    -0.206 F 
ATOM     71  C   UNL A   1      39.522  36.267  38.980  1.00  0.00     0.060 A 
BRANCH  71  72
ATOM     72  S   UNL A   1      39.291  37.532  40.247  1.00  0.00     0.124 S 
ATOM     73  O   UNL A   1      40.636  38.087  40.353  1.00  0.00    -0.237 OA
ATOM     74  O   UNL A   1      38.290  38.406  39.643  1.00  0.00    -0.237 OA
ATOM     75  O   UNL A   1      38.830  36.770  41.404  1.00  0.00    -0.744 OA
ENDBRANCH  71  72
ENDBRANCH  39  64
ENDBRANCH  13  14
ENDBRANCH   6   8
ENDBRANCH   3   4
ENDBRANCH   2   3
ENDBRANCH   1   2
BRANCH   1  76
ATOM     76  C   UNL A   1      37.418  22.347  25.658  1.00  0.00     0.002 C 
BRANCH  76  77
ATOM     77  C   UNL A   1      36.229  21.533  25.133  1.00  0.00     0.021 C 
BRANCH  77  78
ATOM     78  C   UNL A   1      35.037  21.424  26.084  1.00  0.00     0.116 C 
BRANCH  78  79
ATOM     79  N   UNL A   1      34.244  20.237  25.825  1.00  0.00    -0.349 N 
ATOM     80  C   UNL A   1      32.937  20.153  25.407  1.00  0.00     0.286 C 
ATOM     81  H   UNL A   1      34.702  19.377  25.968  1.00  0.00     0.163 HD
ATOM     82  O   UNL A   1      32.397  19.045  25.423  1.00  0.00    -0.266 OA
BRANCH  80  83
ATOM     83  C   UNL A   1      32.274  21.359  24.975  1.00  0.00     0.191 A 
ATOM     84  C   UNL A   1      32.152  21.963  23.736  1.00  0.00     0.056 A 
ATOM     85  O   UNL A   1      31.632  22.118  25.913  1.00  0.00    -0.454 OA
ATOM     86  C   UNL A   1      31.422  23.161  23.934  1.00  0.00     0.048 A 
ATOM     87  C   UNL A   1      31.141  23.222  25.282  1.00  0.00     0.124 A 
BRANCH  87  88
ATOM     88  C   UNL A   1      30.496  24.237  26.147  1.00  0.00     0.191 C 
BRANCH  88  89
ATOM     89  N   UNL A   1      31.495  25.153  26.657  1.00  0.00    -0.345 N 
ATOM     90  C   UNL A   1      32.032  26.260  26.055  1.00  0.00     0.253 C 
ATOM     91  H   UNL A   1      31.836  24.951  27.558  1.00  0.00     0.164 HD
ATOM     92  O   UNL A   1      32.973  26.854  26.575  1.00  0.00    -0.269 OA
BRANCH  90  93
ATOM     93  C   UNL A   1      31.501  26.746  24.770  1.00  0.00     0.058 A 
ATOM     94  C   UNL A   1      30.206  27.242  24.621  1.00  0.00     0.017 A 
ATOM     95  C   UNL A   1      32.339  26.750  23.664  1.00  0.00     0.124 A 
ATOM     96  C   UNL A   1      29.780  27.659  23.362  1.00  0.00     0.021 A 
ATOM     97  N   UNL A   1      31.951  27.159  22.429  1.00  0.00    -0.264 NA
ATOM     98  C   UNL A   1      30.678  27.594  22.307  1.00  0.00     0.111 A 
ENDBRANCH  90  93
ENDBRANCH  88  89
ENDBRANCH  87  88
ENDBRANCH  80  83
ENDBRANCH  78  79
ENDBRANCH  77  78
ENDBRANCH  76  77
ENDBRANCH   1  76
TORSDOF 19
ENDMDL
