MODEL 1
REMARK VINA RESULT:     -13.1      0.000      0.000
REMARK SMILES COc1ccc(-c2cnc(N)c(C(=O)NCCCCCCNC(=O)c3ccc(-c4c5nc(c(-c6c(F)cc(S(=O)(=O)[O-])cc6F)c6ccc([nH]6)c(-c6c(F)cc(S(=O)(=O)[O-])cc6F)c6nc(c(-c7c(F)cc(S(=O)(=O)[O-])cc7F)c7ccc4[nH]7)C=C6)C=C5)cc3)c2)c(C)c1
REMARK SMILES IDX 19 1 18 2 17 3 16 4 15 5 13 6 14 7 12 9 7 10 8 11 91 12 9 13
REMARK SMILES IDX 10 14 6 15 3 16 4 17 94 18 5 19 92 20 93 21 2 22 1 23 11 24
REMARK SMILES IDX 20 27 21 28 22 29 23 30 24 32 25 33 26 34 90 35 27 36 89 37
REMARK SMILES IDX 28 38 29 39 30 40 83 41 31 42 88 43 82 44 84 45 32 46 87 47
REMARK SMILES IDX 81 48 80 49 33 51 67 52 46 53 66 54 47 55 50 56 65 57 85 58
REMARK SMILES IDX 48 59 49 60 64 62 86 63 51 64 34 65 35 66 44 67 36 68 37 69
REMARK SMILES IDX 43 70 45 71 38 72 39 73 40 74 41 75 42 76 68 77 69 78 78 79
REMARK SMILES IDX 70 80 71 81 77 82 79 83 72 84 73 85 74 86 75 87 76 88 52 89
REMARK SMILES IDX 53 90 62 91 54 92 55 93 61 94 63 95 56 96 57 97 58 98 59 99
REMARK SMILES IDX 60 100
REMARK H PARENT 15 8 11 25 11 26 22 31 84 50 50 61
REMARK Flexibility Score: inf
ROOT
ATOM      1  C   UNL A   1      33.891  27.138  26.238  1.00  0.00     0.002 C 
ENDROOT
BRANCH   1   2
ATOM      2  C   UNL A   1      34.028  26.171  25.053  1.00  0.00     0.002 C 
BRANCH   2   3
ATOM      3  C   UNL A   1      34.971  24.965  25.151  1.00  0.00     0.021 C 
BRANCH   3   4
ATOM      4  C   UNL A   1      34.473  23.697  25.846  1.00  0.00     0.116 C 
BRANCH   4   5
ATOM      5  N   UNL A   1      33.749  22.769  24.999  1.00  0.00    -0.352 N 
ATOM      6  C   UNL A   1      32.431  22.780  24.605  1.00  0.00     0.255 C 
ATOM      7  O   UNL A   1      32.051  21.912  23.815  1.00  0.00    -0.269 OA
ATOM      8  H   UNL A   1      34.281  22.018  24.653  1.00  0.00     0.163 HD
BRANCH   6   9
ATOM      9  C   UNL A   1      31.419  23.737  25.128  1.00  0.00     0.082 A 
ATOM     10  C   UNL A   1      30.210  25.825  24.711  1.00  0.00     0.001 A 
ATOM     11  C   UNL A   1      29.602  25.608  25.942  1.00  0.00     0.122 A 
ATOM     12  C   UNL A   1      31.121  24.843  24.303  1.00  0.00     0.028 A 
ATOM     13  N   UNL A   1      29.900  24.590  26.784  1.00  0.00    -0.238 NA
ATOM     14  C   UNL A   1      30.842  23.704  26.397  1.00  0.00     0.136 A 
BRANCH  10  15
ATOM     15  C   UNL A   1      29.961  27.063  23.950  1.00  0.00    -0.014 A 
ATOM     16  C   UNL A   1      29.681  29.469  22.468  1.00  0.00     0.119 A 
ATOM     17  C   UNL A   1      30.939  29.050  22.877  1.00  0.00     0.047 A 
ATOM     18  C   UNL A   1      28.566  28.706  22.816  1.00  0.00     0.050 A 
ATOM     19  C   UNL A   1      31.074  27.862  23.602  1.00  0.00     0.013 A 
ATOM     20  C   UNL A   1      28.683  27.509  23.556  1.00  0.00    -0.040 A 
ATOM     21  C   UNL A   1      27.417  26.749  23.846  1.00  0.00     0.045 C 
BRANCH  16  22
ATOM     22  O   UNL A   1      29.417  30.607  21.756  1.00  0.00    -0.497 OA
ATOM     23  C   UNL A   1      28.077  30.755  21.300  1.00  0.00     0.278 C 
ENDBRANCH  16  22
ENDBRANCH  10  15
BRANCH  14  24
ATOM     24  N   UNL A   1      31.170  22.809  27.391  1.00  0.00    -0.383 N 
ATOM     25  H   UNL A   1      31.383  21.876  27.163  1.00  0.00     0.158 HD
ATOM     26  H   UNL A   1      31.191  23.103  28.331  1.00  0.00     0.158 HD
ENDBRANCH  14  24
ENDBRANCH   6   9
ENDBRANCH   4   5
ENDBRANCH   3   4
ENDBRANCH   2   3
ENDBRANCH   1   2
BRANCH   1  27
ATOM     27  C   UNL A   1      34.164  28.625  26.015  1.00  0.00     0.021 C 
BRANCH  27  28
ATOM     28  C   UNL A   1      34.134  29.504  27.259  1.00  0.00     0.116 C 
BRANCH  28  29
ATOM     29  N   UNL A   1      34.983  30.680  27.191  1.00  0.00    -0.352 N 
ATOM     30  C   UNL A   1      36.103  30.891  27.992  1.00  0.00     0.251 C 
ATOM     31  H   UNL A   1      34.750  31.377  26.536  1.00  0.00     0.163 HD
ATOM     32  O   UNL A   1      36.409  31.971  28.448  1.00  0.00    -0.269 OA
BRANCH  30  33
ATOM     33  C   UNL A   1      37.001  29.719  28.144  1.00  0.00     0.039 A 
ATOM     34  C   UNL A   1      37.070  29.091  29.392  1.00  0.00     0.014 A 
ATOM     35  C   UNL A   1      37.920  29.423  27.143  1.00  0.00     0.014 A 
ATOM     36  C   UNL A   1      38.167  28.281  29.694  1.00  0.00     0.010 A 
ATOM     37  C   UNL A   1      39.049  28.702  27.475  1.00  0.00     0.010 A 
ATOM     38  C   UNL A   1      39.193  28.156  28.758  1.00  0.00    -0.014 A 
BRANCH  38  39
ATOM     39  C   UNL A   1      40.502  27.572  29.038  1.00  0.00     0.031 A 
ATOM     40  C   UNL A   1      40.837  26.195  28.598  1.00  0.00     0.074 A 
ATOM     41  C   UNL A   1      41.484  28.358  29.533  1.00  0.00     0.049 A 
ATOM     42  N   UNL A   1      41.831  25.503  29.050  1.00  0.00    -0.248 NA
ATOM     43  C   UNL A   1      40.046  25.472  27.609  1.00  0.00     0.031 C 
ATOM     44  C   UNL A   1      42.922  28.114  29.460  1.00  0.00     0.029 A 
ATOM     45  N   UNL A   1      41.375  29.477  30.346  1.00  0.00    -0.354 N 
ATOM     46  C   UNL A   1      41.996  24.412  28.223  1.00  0.00     0.074 A 
ATOM     47  C   UNL A   1      40.820  24.406  27.382  1.00  0.00     0.031 C 
ATOM     48  C   UNL A   1      43.546  28.899  30.352  1.00  0.00     0.029 A 
ATOM     49  C   UNL A   1      42.522  29.552  31.149  1.00  0.00     0.049 A 
ATOM     50  H   UNL A   1      40.622  30.110  30.357  1.00  0.00     0.167 HD
ATOM     51  C   UNL A   1      43.174  23.720  28.237  1.00  0.00     0.037 A 
ATOM     52  C   UNL A   1      42.442  29.468  32.511  1.00  0.00     0.037 A 
ATOM     53  C   UNL A   1      44.096  24.261  29.236  1.00  0.00     0.049 A 
ATOM     54  C   UNL A   1      43.146  28.265  33.102  1.00  0.00     0.074 A 
ATOM     55  C   UNL A   1      45.169  25.132  29.137  1.00  0.00     0.029 A 
ATOM     56  N   UNL A   1      43.806  24.151  30.592  1.00  0.00    -0.354 N 
ATOM     57  N   UNL A   1      43.550  27.239  32.406  1.00  0.00    -0.248 NA
ATOM     58  C   UNL A   1      43.431  28.110  34.527  1.00  0.00     0.031 C 
ATOM     59  C   UNL A   1      45.496  25.583  30.438  1.00  0.00     0.029 A 
ATOM     60  C   UNL A   1      44.625  24.984  31.331  1.00  0.00     0.049 A 
ATOM     61  H   UNL A   1      43.113  23.563  30.971  1.00  0.00     0.167 HD
ATOM     62  C   UNL A   1      44.076  26.289  33.242  1.00  0.00     0.074 A 
ATOM     63  C   UNL A   1      44.013  26.899  34.556  1.00  0.00     0.031 C 
ATOM     64  C   UNL A   1      44.500  25.075  32.778  1.00  0.00     0.037 A 
BRANCH  51  65
ATOM     65  C   UNL A   1      43.605  22.774  27.128  1.00  0.00     0.058 A 
ATOM     66  C   UNL A   1      42.932  21.549  26.912  1.00  0.00     0.135 A 
ATOM     67  C   UNL A   1      44.712  22.982  26.282  1.00  0.00     0.135 A 
ATOM     68  F   UNL A   1      41.787  21.254  27.539  1.00  0.00    -0.206 F 
ATOM     69  C   UNL A   1      43.403  20.560  26.047  1.00  0.00     0.059 A 
ATOM     70  C   UNL A   1      45.237  21.988  25.447  1.00  0.00     0.059 A 
ATOM     71  F   UNL A   1      45.300  24.183  26.196  1.00  0.00    -0.206 F 
ATOM     72  C   UNL A   1      44.583  20.767  25.352  1.00  0.00     0.060 A 
BRANCH  72  73
ATOM     73  S   UNL A   1      45.235  19.432  24.330  1.00  0.00     0.124 S 
ATOM     74  O   UNL A   1      46.668  19.713  24.336  1.00  0.00    -0.237 OA
ATOM     75  O   UNL A   1      44.816  18.249  25.071  1.00  0.00    -0.237 OA
ATOM     76  O   UNL A   1      44.573  19.635  23.044  1.00  0.00    -0.744 OA
ENDBRANCH  72  73
ENDBRANCH  51  65
BRANCH  52  77
ATOM     77  C   UNL A   1      41.209  30.096  33.060  1.00  0.00     0.058 A 
ATOM     78  C   UNL A   1      41.186  31.500  33.146  1.00  0.00     0.135 A 
ATOM     79  C   UNL A   1      39.979  29.423  33.025  1.00  0.00     0.135 A 
ATOM     80  F   UNL A   1      42.338  32.187  33.209  1.00  0.00    -0.206 F 
ATOM     81  C   UNL A   1      40.004  32.218  33.005  1.00  0.00     0.059 A 
ATOM     82  C   UNL A   1      38.779  30.124  32.892  1.00  0.00     0.059 A 
ATOM     83  F   UNL A   1      39.941  28.084  32.955  1.00  0.00    -0.206 F 
ATOM     84  C   UNL A   1      38.818  31.517  32.797  1.00  0.00     0.060 A 
BRANCH  84  85
ATOM     85  S   UNL A   1      37.380  32.449  32.215  1.00  0.00     0.124 S 
ATOM     86  O   UNL A   1      36.982  33.178  33.413  1.00  0.00    -0.237 OA
ATOM     87  O   UNL A   1      37.965  33.260  31.146  1.00  0.00    -0.237 OA
ATOM     88  O   UNL A   1      36.462  31.405  31.775  1.00  0.00    -0.744 OA
ENDBRANCH  84  85
ENDBRANCH  52  77
BRANCH  64  89
ATOM     89  C   UNL A   1      44.925  23.900  33.626  1.00  0.00     0.058 A 
ATOM     90  C   UNL A   1      44.044  22.918  34.109  1.00  0.00     0.135 A 
ATOM     91  C   UNL A   1      46.300  23.660  33.874  1.00  0.00     0.135 A 
ATOM     92  F   UNL A   1      42.731  22.968  33.843  1.00  0.00    -0.206 F 
ATOM     93  C   UNL A   1      44.482  21.816  34.849  1.00  0.00     0.059 A 
ATOM     94  C   UNL A   1      46.762  22.541  34.564  1.00  0.00     0.059 A 
ATOM     95  F   UNL A   1      47.246  24.507  33.443  1.00  0.00    -0.206 F 
ATOM     96  C   UNL A   1      45.844  21.637  35.074  1.00  0.00     0.060 A 
BRANCH  96  97
ATOM     97  S   UNL A   1      46.428  20.192  35.980  1.00  0.00     0.124 S 
ATOM     98  O   UNL A   1      47.860  20.456  36.058  1.00  0.00    -0.237 OA
ATOM     99  O   UNL A   1      45.701  20.280  37.243  1.00  0.00    -0.237 OA
ATOM    100  O   UNL A   1      46.033  19.081  35.118  1.00  0.00    -0.744 OA
ENDBRANCH  96  97
ENDBRANCH  64  89
ENDBRANCH  38  39
ENDBRANCH  30  33
ENDBRANCH  28  29
ENDBRANCH  27  28
ENDBRANCH   1  27
TORSDOF 19
ENDMDL
MODEL 2
REMARK VINA RESULT:     -13.1      4.720     10.971
REMARK SMILES COc1ccc(-c2cnc(N)c(C(=O)NCCCCCCNC(=O)c3ccc(-c4c5nc(c(-c6c(F)cc(S(=O)(=O)[O-])cc6F)c6ccc([nH]6)c(-c6c(F)cc(S(=O)(=O)[O-])cc6F)c6nc(c(-c7c(F)cc(S(=O)(=O)[O-])cc7F)c7ccc4[nH]7)C=C6)C=C5)cc3)c2)c(C)c1
REMARK SMILES IDX 19 1 18 2 17 3 16 4 15 5 13 6 14 7 12 9 7 10 8 11 91 12 9 13
REMARK SMILES IDX 10 14 6 15 3 16 4 17 94 18 5 19 92 20 93 21 2 22 1 23 11 24
REMARK SMILES IDX 20 27 21 28 22 29 23 30 24 32 25 33 26 34 90 35 27 36 89 37
REMARK SMILES IDX 28 38 29 39 30 40 83 41 31 42 88 43 82 44 84 45 32 46 87 47
REMARK SMILES IDX 81 48 80 49 33 51 67 52 46 53 66 54 47 55 50 56 65 57 85 58
REMARK SMILES IDX 48 59 49 60 64 62 86 63 51 64 34 65 35 66 44 67 36 68 37 69
REMARK SMILES IDX 43 70 45 71 38 72 39 73 40 74 41 75 42 76 68 77 69 78 78 79
REMARK SMILES IDX 70 80 71 81 77 82 79 83 72 84 73 85 74 86 75 87 76 88 52 89
REMARK SMILES IDX 53 90 62 91 54 92 55 93 61 94 63 95 56 96 57 97 58 98 59 99
REMARK SMILES IDX 60 100
REMARK H PARENT 15 8 11 25 11 26 22 31 84 50 50 61
REMARK Flexibility Score: inf
ROOT
ATOM      1  C   UNL A   1      35.674  23.498  25.770  1.00  0.00     0.002 C 
ENDROOT
BRANCH   1   2
ATOM      2  C   UNL A   1      35.625  22.196  24.956  1.00  0.00     0.002 C 
BRANCH   2   3
ATOM      3  C   UNL A   1      35.031  20.925  25.576  1.00  0.00     0.021 C 
BRANCH   3   4
ATOM      4  C   UNL A   1      33.809  20.287  24.916  1.00  0.00     0.116 C 
BRANCH   4   5
ATOM      5  N   UNL A   1      32.530  20.650  25.496  1.00  0.00    -0.352 N 
ATOM      6  C   UNL A   1      31.727  21.739  25.246  1.00  0.00     0.255 C 
ATOM      7  O   UNL A   1      30.636  21.802  25.819  1.00  0.00    -0.269 OA
ATOM      8  H   UNL A   1      32.185  20.023  26.170  1.00  0.00     0.163 HD
BRANCH   6   9
ATOM      9  C   UNL A   1      32.125  22.879  24.378  1.00  0.00     0.082 A 
ATOM     10  C   UNL A   1      32.549  25.288  24.276  1.00  0.00     0.001 A 
ATOM     11  C   UNL A   1      32.820  25.088  22.927  1.00  0.00     0.122 A 
ATOM     12  C   UNL A   1      32.217  24.139  25.005  1.00  0.00     0.028 A 
ATOM     13  N   UNL A   1      32.689  23.906  22.279  1.00  0.00    -0.238 NA
ATOM     14  C   UNL A   1      32.289  22.833  22.993  1.00  0.00     0.136 A 
BRANCH  10  15
ATOM     15  C   UNL A   1      32.532  26.644  24.854  1.00  0.00    -0.014 A 
ATOM     16  C   UNL A   1      32.693  29.232  26.012  1.00  0.00     0.119 A 
ATOM     17  C   UNL A   1      33.768  28.360  26.113  1.00  0.00     0.047 A 
ATOM     18  C   UNL A   1      31.535  28.808  25.359  1.00  0.00     0.050 A 
ATOM     19  C   UNL A   1      33.687  27.089  25.536  1.00  0.00     0.013 A 
ATOM     20  C   UNL A   1      31.434  27.524  24.780  1.00  0.00    -0.040 A 
ATOM     21  C   UNL A   1      30.150  27.186  24.071  1.00  0.00     0.045 C 
BRANCH  16  22
ATOM     22  O   UNL A   1      32.647  30.497  26.530  1.00  0.00    -0.497 OA
ATOM     23  C   UNL A   1      33.699  30.839  27.425  1.00  0.00     0.278 C 
ENDBRANCH  16  22
ENDBRANCH  10  15
BRANCH  14  24
ATOM     24  N   UNL A   1      32.045  21.731  22.204  1.00  0.00    -0.383 N 
ATOM     25  H   UNL A   1      32.347  21.719  21.268  1.00  0.00     0.158 HD
ATOM     26  H   UNL A   1      31.566  20.954  22.578  1.00  0.00     0.158 HD
ENDBRANCH  14  24
ENDBRANCH   6   9
ENDBRANCH   4   5
ENDBRANCH   3   4
ENDBRANCH   2   3
ENDBRANCH   1   2
BRANCH   1  27
ATOM     27  C   UNL A   1      37.033  24.051  26.201  1.00  0.00     0.021 C 
BRANCH  27  28
ATOM     28  C   UNL A   1      38.246  23.215  25.816  1.00  0.00     0.116 C 
BRANCH  28  29
ATOM     29  N   UNL A   1      39.095  22.830  26.929  1.00  0.00    -0.352 N 
ATOM     30  C   UNL A   1      40.082  23.641  27.486  1.00  0.00     0.251 C 
ATOM     31  H   UNL A   1      38.966  21.934  27.317  1.00  0.00     0.163 HD
ATOM     32  O   UNL A   1      41.153  23.227  27.872  1.00  0.00    -0.269 OA
BRANCH  30  33
ATOM     33  C   UNL A   1      39.685  25.053  27.713  1.00  0.00     0.039 A 
ATOM     34  C   UNL A   1      40.210  26.036  26.867  1.00  0.00     0.014 A 
ATOM     35  C   UNL A   1      39.015  25.400  28.881  1.00  0.00     0.014 A 
ATOM     36  C   UNL A   1      40.205  27.370  27.277  1.00  0.00     0.010 A 
ATOM     37  C   UNL A   1      39.097  26.703  29.328  1.00  0.00     0.010 A 
ATOM     38  C   UNL A   1      39.718  27.686  28.546  1.00  0.00    -0.014 A 
BRANCH  38  39
ATOM     39  C   UNL A   1      39.897  28.977  29.204  1.00  0.00     0.031 A 
ATOM     40  C   UNL A   1      38.850  30.026  29.131  1.00  0.00     0.074 A 
ATOM     41  C   UNL A   1      40.941  29.151  30.044  1.00  0.00     0.049 A 
ATOM     42  N   UNL A   1      39.040  31.272  29.417  1.00  0.00    -0.248 NA
ATOM     43  C   UNL A   1      37.485  29.745  28.701  1.00  0.00     0.031 C 
ATOM     44  C   UNL A   1      41.053  30.146  31.108  1.00  0.00     0.029 A 
ATOM     45  N   UNL A   1      42.193  28.554  30.012  1.00  0.00    -0.354 N 
ATOM     46  C   UNL A   1      37.805  31.876  29.511  1.00  0.00     0.074 A 
ATOM     47  C   UNL A   1      36.876  30.897  28.994  1.00  0.00     0.031 C 
ATOM     48  C   UNL A   1      42.339  30.250  31.478  1.00  0.00     0.029 A 
ATOM     49  C   UNL A   1      43.124  29.452  30.553  1.00  0.00     0.049 A 
ATOM     50  H   UNL A   1      42.394  27.654  29.669  1.00  0.00     0.167 HD
ATOM     51  C   UNL A   1      37.682  33.077  30.152  1.00  0.00     0.037 A 
ATOM     52  C   UNL A   1      44.155  29.945  29.802  1.00  0.00     0.037 A 
ATOM     53  C   UNL A   1      38.982  33.572  30.607  1.00  0.00     0.049 A 
ATOM     54  C   UNL A   1      44.112  31.443  29.591  1.00  0.00     0.074 A 
ATOM     55  C   UNL A   1      39.615  33.529  31.839  1.00  0.00     0.029 A 
ATOM     56  N   UNL A   1      39.948  33.957  29.684  1.00  0.00    -0.354 N 
ATOM     57  N   UNL A   1      43.068  32.185  29.836  1.00  0.00    -0.248 NA
ATOM     58  C   UNL A   1      45.231  32.222  29.067  1.00  0.00     0.031 C 
ATOM     59  C   UNL A   1      40.980  33.847  31.648  1.00  0.00     0.029 A 
ATOM     60  C   UNL A   1      41.180  34.087  30.300  1.00  0.00     0.049 A 
ATOM     61  H   UNL A   1      39.779  34.114  28.727  1.00  0.00     0.167 HD
ATOM     62  C   UNL A   1      43.324  33.481  29.467  1.00  0.00     0.074 A 
ATOM     63  C   UNL A   1      44.706  33.459  29.028  1.00  0.00     0.031 C 
ATOM     64  C   UNL A   1      42.367  34.454  29.541  1.00  0.00     0.037 A 
BRANCH  51  65
ATOM     65  C   UNL A   1      36.357  33.633  30.647  1.00  0.00     0.058 A 
ATOM     66  C   UNL A   1      35.395  34.139  29.743  1.00  0.00     0.135 A 
ATOM     67  C   UNL A   1      35.996  33.755  32.003  1.00  0.00     0.135 A 
ATOM     68  F   UNL A   1      35.522  33.984  28.419  1.00  0.00    -0.206 F 
ATOM     69  C   UNL A   1      34.256  34.837  30.148  1.00  0.00     0.059 A 
ATOM     70  C   UNL A   1      34.890  34.496  32.439  1.00  0.00     0.059 A 
ATOM     71  F   UNL A   1      36.679  33.114  32.961  1.00  0.00    -0.206 F 
ATOM     72  C   UNL A   1      34.033  35.053  31.499  1.00  0.00     0.060 A 
BRANCH  72  73
ATOM     73  S   UNL A   1      32.620  36.055  31.997  1.00  0.00     0.124 S 
ATOM     74  O   UNL A   1      32.266  36.728  30.750  1.00  0.00    -0.237 OA
ATOM     75  O   UNL A   1      31.680  35.045  32.465  1.00  0.00    -0.237 OA
ATOM     76  O   UNL A   1      33.170  36.927  33.032  1.00  0.00    -0.744 OA
ENDBRANCH  72  73
ENDBRANCH  51  65
BRANCH  52  77
ATOM     77  C   UNL A   1      44.683  28.955  28.822  1.00  0.00     0.058 A 
ATOM     78  C   UNL A   1      44.210  29.044  27.500  1.00  0.00     0.135 A 
ATOM     79  C   UNL A   1      45.911  28.312  29.035  1.00  0.00     0.135 A 
ATOM     80  F   UNL A   1      43.027  29.628  27.248  1.00  0.00    -0.206 F 
ATOM     81  C   UNL A   1      45.007  28.690  26.417  1.00  0.00     0.059 A 
ATOM     82  C   UNL A   1      46.723  27.940  27.963  1.00  0.00     0.059 A 
ATOM     83  F   UNL A   1      46.404  28.188  30.276  1.00  0.00    -0.206 F 
ATOM     84  C   UNL A   1      46.293  28.215  26.663  1.00  0.00     0.060 A 
BRANCH  84  85
ATOM     85  S   UNL A   1      47.446  28.147  25.269  1.00  0.00     0.124 S 
ATOM     86  O   UNL A   1      48.605  28.860  25.796  1.00  0.00    -0.237 OA
ATOM     87  O   UNL A   1      47.617  26.704  25.095  1.00  0.00    -0.237 OA
ATOM     88  O   UNL A   1      46.720  28.824  24.202  1.00  0.00    -0.744 OA
ENDBRANCH  84  85
ENDBRANCH  52  77
BRANCH  64  89
ATOM     89  C   UNL A   1      42.486  35.859  29.001  1.00  0.00     0.058 A 
ATOM     90  C   UNL A   1      43.258  36.869  29.600  1.00  0.00     0.135 A 
ATOM     91  C   UNL A   1      41.905  36.195  27.753  1.00  0.00     0.135 A 
ATOM     92  F   UNL A   1      43.952  36.642  30.724  1.00  0.00    -0.206 F 
ATOM     93  C   UNL A   1      43.386  38.145  29.043  1.00  0.00     0.059 A 
ATOM     94  C   UNL A   1      42.064  37.443  27.154  1.00  0.00     0.059 A 
ATOM     95  F   UNL A   1      41.167  35.312  27.065  1.00  0.00    -0.206 F 
ATOM     96  C   UNL A   1      42.783  38.424  27.820  1.00  0.00     0.060 A 
BRANCH  96  97
ATOM     97  S   UNL A   1      42.984  40.047  27.063  1.00  0.00     0.124 S 
ATOM     98  O   UNL A   1      43.160  40.897  28.236  1.00  0.00    -0.237 OA
ATOM     99  O   UNL A   1      44.168  39.876  26.226  1.00  0.00    -0.237 OA
ATOM    100  O   UNL A   1      41.733  40.227  26.332  1.00  0.00    -0.744 OA
ENDBRANCH  96  97
ENDBRANCH  64  89
ENDBRANCH  38  39
ENDBRANCH  30  33
ENDBRANCH  28  29
ENDBRANCH  27  28
ENDBRANCH   1  27
TORSDOF 19
ENDMDL
MODEL 3
REMARK VINA RESULT:     -12.9      1.533      3.850
REMARK SMILES COc1ccc(-c2cnc(N)c(C(=O)NCCCCCCNC(=O)c3ccc(-c4c5nc(c(-c6c(F)cc(S(=O)(=O)[O-])cc6F)c6ccc([nH]6)c(-c6c(F)cc(S(=O)(=O)[O-])cc6F)c6nc(c(-c7c(F)cc(S(=O)(=O)[O-])cc7F)c7ccc4[nH]7)C=C6)C=C5)cc3)c2)c(C)c1
REMARK SMILES IDX 19 1 18 2 17 3 16 4 15 5 13 6 14 7 12 9 7 10 8 11 91 12 9 13
REMARK SMILES IDX 10 14 6 15 3 16 4 17 94 18 5 19 92 20 93 21 2 22 1 23 11 24
REMARK SMILES IDX 20 27 21 28 22 29 23 30 24 32 25 33 26 34 90 35 27 36 89 37
REMARK SMILES IDX 28 38 29 39 30 40 83 41 31 42 88 43 82 44 84 45 32 46 87 47
REMARK SMILES IDX 81 48 80 49 33 51 67 52 46 53 66 54 47 55 50 56 65 57 85 58
REMARK SMILES IDX 48 59 49 60 64 62 86 63 51 64 34 65 35 66 44 67 36 68 37 69
REMARK SMILES IDX 43 70 45 71 38 72 39 73 40 74 41 75 42 76 68 77 69 78 78 79
REMARK SMILES IDX 70 80 71 81 77 82 79 83 72 84 73 85 74 86 75 87 76 88 52 89
REMARK SMILES IDX 53 90 62 91 54 92 55 93 61 94 63 95 56 96 57 97 58 98 59 99
REMARK SMILES IDX 60 100
REMARK H PARENT 15 8 11 25 11 26 22 31 84 50 50 61
REMARK Flexibility Score: inf
ROOT
ATOM      1  C   UNL A   1      32.467  29.979  25.392  1.00  0.00     0.002 C 
ENDROOT
BRANCH   1   2
ATOM      2  C   UNL A   1      31.097  29.573  24.828  1.00  0.00     0.002 C 
BRANCH   2   3
ATOM      3  C   UNL A   1      31.009  28.562  23.677  1.00  0.00     0.021 C 
BRANCH   3   4
ATOM      4  C   UNL A   1      30.393  27.190  23.950  1.00  0.00     0.116 C 
BRANCH   4   5
ATOM      5  N   UNL A   1      30.648  26.648  25.271  1.00  0.00    -0.352 N 
ATOM      6  C   UNL A   1      31.601  25.745  25.684  1.00  0.00     0.255 C 
ATOM      7  O   UNL A   1      31.670  25.480  26.887  1.00  0.00    -0.269 OA
ATOM      8  H   UNL A   1      30.049  26.974  25.979  1.00  0.00     0.163 HD
BRANCH   6   9
ATOM      9  C   UNL A   1      32.508  25.017  24.757  1.00  0.00     0.082 A 
ATOM     10  C   UNL A   1      33.171  22.828  23.884  1.00  0.00     0.001 A 
ATOM     11  C   UNL A   1      34.107  23.519  23.124  1.00  0.00     0.122 A 
ATOM     12  C   UNL A   1      32.347  23.617  24.697  1.00  0.00     0.028 A 
ATOM     13  N   UNL A   1      34.327  24.853  23.194  1.00  0.00    -0.238 NA
ATOM     14  C   UNL A   1      33.571  25.576  24.047  1.00  0.00     0.136 A 
BRANCH  10  15
ATOM     15  C   UNL A   1      33.132  21.354  23.884  1.00  0.00    -0.014 A 
ATOM     16  C   UNL A   1      32.935  18.526  23.723  1.00  0.00     0.119 A 
ATOM     17  C   UNL A   1      32.145  19.322  22.906  1.00  0.00     0.047 A 
ATOM     18  C   UNL A   1      33.801  19.135  24.633  1.00  0.00     0.050 A 
ATOM     19  C   UNL A   1      32.249  20.715  22.984  1.00  0.00     0.013 A 
ATOM     20  C   UNL A   1      33.910  20.539  24.731  1.00  0.00    -0.040 A 
ATOM     21  C   UNL A   1      34.900  21.087  25.723  1.00  0.00     0.045 C 
BRANCH  16  22
ATOM     22  O   UNL A   1      32.929  17.158  23.743  1.00  0.00    -0.497 OA
ATOM     23  C   UNL A   1      34.184  16.535  23.991  1.00  0.00     0.278 C 
ENDBRANCH  16  22
ENDBRANCH  10  15
BRANCH  14  24
ATOM     24  N   UNL A   1      33.985  26.886  24.146  1.00  0.00    -0.383 N 
ATOM     25  H   UNL A   1      34.946  27.099  24.156  1.00  0.00     0.158 HD
ATOM     26  H   UNL A   1      33.319  27.610  24.206  1.00  0.00     0.158 HD
ENDBRANCH  14  24
ENDBRANCH   6   9
ENDBRANCH   4   5
ENDBRANCH   3   4
ENDBRANCH   2   3
ENDBRANCH   1   2
BRANCH   1  27
ATOM     27  C   UNL A   1      32.713  29.860  26.895  1.00  0.00     0.021 C 
BRANCH  27  28
ATOM     28  C   UNL A   1      34.157  29.627  27.319  1.00  0.00     0.116 C 
BRANCH  28  29
ATOM     29  N   UNL A   1      35.012  30.796  27.228  1.00  0.00    -0.352 N 
ATOM     30  C   UNL A   1      36.155  30.999  28.000  1.00  0.00     0.251 C 
ATOM     31  H   UNL A   1      34.768  31.494  26.578  1.00  0.00     0.163 HD
ATOM     32  O   UNL A   1      36.481  32.077  28.447  1.00  0.00    -0.269 OA
BRANCH  30  33
ATOM     33  C   UNL A   1      37.047  29.820  28.130  1.00  0.00     0.039 A 
ATOM     34  C   UNL A   1      37.095  29.155  29.360  1.00  0.00     0.014 A 
ATOM     35  C   UNL A   1      37.981  29.551  27.136  1.00  0.00     0.014 A 
ATOM     36  C   UNL A   1      38.184  28.333  29.655  1.00  0.00     0.010 A 
ATOM     37  C   UNL A   1      39.103  28.817  27.463  1.00  0.00     0.010 A 
ATOM     38  C   UNL A   1      39.225  28.232  28.731  1.00  0.00    -0.014 A 
BRANCH  38  39
ATOM     39  C   UNL A   1      40.527  27.636  29.013  1.00  0.00     0.031 A 
ATOM     40  C   UNL A   1      40.849  26.255  28.576  1.00  0.00     0.074 A 
ATOM     41  C   UNL A   1      41.516  28.412  29.510  1.00  0.00     0.049 A 
ATOM     42  N   UNL A   1      41.836  25.554  29.030  1.00  0.00    -0.248 NA
ATOM     43  C   UNL A   1      40.053  25.538  27.587  1.00  0.00     0.031 C 
ATOM     44  C   UNL A   1      42.952  28.155  29.439  1.00  0.00     0.029 A 
ATOM     45  N   UNL A   1      41.417  29.534  30.321  1.00  0.00    -0.354 N 
ATOM     46  C   UNL A   1      41.991  24.461  28.205  1.00  0.00     0.074 A 
ATOM     47  C   UNL A   1      40.817  24.465  27.363  1.00  0.00     0.031 C 
ATOM     48  C   UNL A   1      43.582  28.935  30.331  1.00  0.00     0.029 A 
ATOM     49  C   UNL A   1      42.564  29.599  31.125  1.00  0.00     0.049 A 
ATOM     50  H   UNL A   1      40.671  30.175  30.330  1.00  0.00     0.167 HD
ATOM     51  C   UNL A   1      43.163  23.757  28.221  1.00  0.00     0.037 A 
ATOM     52  C   UNL A   1      42.481  29.517  32.488  1.00  0.00     0.037 A 
ATOM     53  C   UNL A   1      44.089  24.290  29.221  1.00  0.00     0.049 A 
ATOM     54  C   UNL A   1      43.172  28.308  33.081  1.00  0.00     0.074 A 
ATOM     55  C   UNL A   1      45.171  25.150  29.123  1.00  0.00     0.029 A 
ATOM     56  N   UNL A   1      43.795  24.184  30.577  1.00  0.00    -0.354 N 
ATOM     57  N   UNL A   1      43.567  27.277  32.387  1.00  0.00    -0.248 NA
ATOM     58  C   UNL A   1      43.453  28.152  34.506  1.00  0.00     0.031 C 
ATOM     59  C   UNL A   1      45.500  25.600  30.424  1.00  0.00     0.029 A 
ATOM     60  C   UNL A   1      44.622  25.010  31.316  1.00  0.00     0.049 A 
ATOM     61  H   UNL A   1      43.096  23.603  30.956  1.00  0.00     0.167 HD
ATOM     62  C   UNL A   1      44.082  26.323  33.225  1.00  0.00     0.074 A 
ATOM     63  C   UNL A   1      44.024  26.935  34.538  1.00  0.00     0.031 C 
ATOM     64  C   UNL A   1      44.495  25.104  32.763  1.00  0.00     0.037 A 
BRANCH  51  65
ATOM     65  C   UNL A   1      43.586  22.805  27.114  1.00  0.00     0.058 A 
ATOM     66  C   UNL A   1      42.891  21.596  26.887  1.00  0.00     0.135 A 
ATOM     67  C   UNL A   1      44.706  22.993  26.282  1.00  0.00     0.135 A 
ATOM     68  F   UNL A   1      41.732  21.323  27.500  1.00  0.00    -0.206 F 
ATOM     69  C   UNL A   1      43.349  20.599  26.024  1.00  0.00     0.059 A 
ATOM     70  C   UNL A   1      45.220  21.990  25.449  1.00  0.00     0.059 A 
ATOM     71  F   UNL A   1      45.321  24.181  26.206  1.00  0.00    -0.206 F 
ATOM     72  C   UNL A   1      44.542  20.784  25.342  1.00  0.00     0.060 A 
BRANCH  72  73
ATOM     73  S   UNL A   1      45.177  19.439  24.324  1.00  0.00     0.124 S 
ATOM     74  O   UNL A   1      44.853  18.264  25.129  1.00  0.00    -0.237 OA
ATOM     75  O   UNL A   1      44.410  19.599  23.095  1.00  0.00    -0.237 OA
ATOM     76  O   UNL A   1      46.602  19.738  24.217  1.00  0.00    -0.744 OA
ENDBRANCH  72  73
ENDBRANCH  51  65
BRANCH  52  77
ATOM     77  C   UNL A   1      41.253  30.157  33.034  1.00  0.00     0.058 A 
ATOM     78  C   UNL A   1      41.226  31.563  33.078  1.00  0.00     0.135 A 
ATOM     79  C   UNL A   1      40.025  29.480  33.036  1.00  0.00     0.135 A 
ATOM     80  F   UNL A   1      42.376  32.256  33.103  1.00  0.00    -0.206 F 
ATOM     81  C   UNL A   1      40.040  32.273  32.930  1.00  0.00     0.059 A 
ATOM     82  C   UNL A   1      38.821  30.173  32.898  1.00  0.00     0.059 A 
ATOM     83  F   UNL A   1      39.991  28.139  33.008  1.00  0.00    -0.206 F 
ATOM     84  C   UNL A   1      38.854  31.562  32.760  1.00  0.00     0.060 A 
BRANCH  84  85
ATOM     85  S   UNL A   1      37.405  32.471  32.170  1.00  0.00     0.124 S 
ATOM     86  O   UNL A   1      36.929  33.115  33.389  1.00  0.00    -0.237 OA
ATOM     87  O   UNL A   1      38.000  33.365  31.175  1.00  0.00    -0.237 OA
ATOM     88  O   UNL A   1      36.547  31.421  31.633  1.00  0.00    -0.744 OA
ENDBRANCH  84  85
ENDBRANCH  52  77
BRANCH  64  89
ATOM     89  C   UNL A   1      44.908  23.926  33.613  1.00  0.00     0.058 A 
ATOM     90  C   UNL A   1      44.026  22.924  34.051  1.00  0.00     0.135 A 
ATOM     91  C   UNL A   1      46.276  23.707  33.911  1.00  0.00     0.135 A 
ATOM     92  F   UNL A   1      42.723  22.956  33.734  1.00  0.00    -0.206 F 
ATOM     93  C   UNL A   1      44.454  21.821  34.794  1.00  0.00     0.059 A 
ATOM     94  C   UNL A   1      46.731  22.587  34.605  1.00  0.00     0.059 A 
ATOM     95  F   UNL A   1      47.223  24.574  33.527  1.00  0.00    -0.206 F 
ATOM     96  C   UNL A   1      45.808  21.661  35.068  1.00  0.00     0.060 A 
BRANCH  96  97
ATOM     97  S   UNL A   1      46.382  20.215  35.980  1.00  0.00     0.124 S 
ATOM     98  O   UNL A   1      45.860  19.128  35.160  1.00  0.00    -0.237 OA
ATOM     99  O   UNL A   1      47.834  20.373  35.967  1.00  0.00    -0.237 OA
ATOM    100  O   UNL A   1      45.755  20.381  37.288  1.00  0.00    -0.744 OA
ENDBRANCH  96  97
ENDBRANCH  64  89
ENDBRANCH  38  39
ENDBRANCH  30  33
ENDBRANCH  28  29
ENDBRANCH  27  28
ENDBRANCH   1  27
TORSDOF 19
ENDMDL
