MODEL 1
REMARK VINA RESULT:      -9.9      0.000      0.000
REMARK SMILES Cc1ccccc1C(=O)Nc1cc(NC(=O)c2ccccc2C)cc(C(=O)NCCCCCCNC(=O)c2ccc(-c3c4nc(c(-c5c(F)cc(S(=O)(=O)[O-])cc5F)c5ccc([nH]5)c(-c5c(F)cc(S(=O)(=O)[O-])cc5F)c5nc(c(-c6c(F)cc(S(=O)(=O)[O-])cc6F)c6ccc3[nH]6)C=C5)C=C4)cc2)c1
REMARK SMILES IDX 32 1 31 2 30 3 29 4 28 5 26 6 27 7 25 9 11 10 12 11 104 12
REMARK SMILES IDX 13 13 24 14 10 15 8 16 9 17 7 19 1 20 2 21 3 22 4 23 6 24
REMARK SMILES IDX 5 25 14 26 15 27 16 29 17 30 18 31 22 32 19 33 21 34 23 35
REMARK SMILES IDX 20 36 33 37 34 38 35 39 36 40 37 42 38 43 39 44 103 45 40 46
REMARK SMILES IDX 102 47 41 48 42 49 43 50 96 51 44 52 101 53 95 54 97 55
REMARK SMILES IDX 45 56 100 57 94 58 93 59 46 61 80 62 59 63 79 64 60 65 63 66
REMARK SMILES IDX 78 67 98 68 61 69 62 70 77 72 99 73 64 74 47 75 48 76 57 77
REMARK SMILES IDX 49 78 50 79 56 80 58 81 51 82 52 83 53 84 54 85 55 86 81 87
REMARK SMILES IDX 82 88 91 89 83 90 84 91 90 92 92 93 85 94 86 95 87 96 88 97
REMARK SMILES IDX 89 98 65 99 66 100 75 101 67 102 68 103 74 104 76 105 69 106
REMARK SMILES IDX 70 107 71 108 72 109 73 110
REMARK H PARENT 28 8 10 18 14 28 35 41 97 60 63 71
REMARK Flexibility Score: inf
ROOT
ATOM      1  C   UNL A   1      37.407  33.252  29.061  1.00  0.00     0.002 C 
ENDROOT
BRANCH   1   2
ATOM      2  C   UNL A   1      35.935  33.036  28.475  1.00  0.00     0.002 C 
BRANCH   2   3
ATOM      3  C   UNL A   1      34.569  33.181  29.180  1.00  0.00     0.021 C 
BRANCH   3   4
ATOM      4  C   UNL A   1      34.419  34.384  30.044  1.00  0.00     0.116 C 
BRANCH   4   5
ATOM      5  N   UNL A   1      33.765  34.022  31.280  1.00  0.00    -0.352 N 
ATOM      6  C   UNL A   1      34.217  33.352  32.373  1.00  0.00     0.251 C 
ATOM      7  O   UNL A   1      33.391  33.007  33.219  1.00  0.00    -0.269 OA
ATOM      8  H   UNL A   1      32.826  34.309  31.341  1.00  0.00     0.163 HD
BRANCH   6   9
ATOM      9  C   UNL A   1      35.659  33.061  32.596  1.00  0.00     0.043 A 
ATOM     10  C   UNL A   1      37.304  31.340  32.904  1.00  0.00     0.044 A 
ATOM     11  C   UNL A   1      38.273  32.290  33.228  1.00  0.00     0.052 A 
ATOM     12  C   UNL A   1      36.059  31.735  32.424  1.00  0.00     0.040 A 
ATOM     13  C   UNL A   1      37.918  33.629  33.305  1.00  0.00     0.044 A 
ATOM     14  C   UNL A   1      36.581  33.970  33.124  1.00  0.00     0.040 A 
BRANCH  10  15
ATOM     15  N   UNL A   1      37.437  29.988  33.237  1.00  0.00    -0.322 N 
ATOM     16  C   UNL A   1      37.614  28.904  32.398  1.00  0.00     0.255 C 
ATOM     17  O   UNL A   1      37.667  27.777  32.897  1.00  0.00    -0.269 OA
ATOM     18  H   UNL A   1      37.399  29.781  34.199  1.00  0.00     0.170 HD
BRANCH  16  19
ATOM     19  C   UNL A   1      37.769  29.030  30.914  1.00  0.00     0.043 A 
ATOM     20  C   UNL A   1      40.214  28.193  30.685  1.00  0.00     0.045 C 
ATOM     21  C   UNL A   1      38.943  28.802  30.161  1.00  0.00    -0.038 A 
ATOM     22  C   UNL A   1      38.934  29.098  28.782  1.00  0.00     0.004 A 
ATOM     23  C   UNL A   1      37.761  29.472  28.132  1.00  0.00     0.000 A 
ATOM     24  C   UNL A   1      36.585  29.360  30.231  1.00  0.00     0.014 A 
ATOM     25  C   UNL A   1      36.576  29.559  28.850  1.00  0.00     0.001 A 
ENDBRANCH  16  19
ENDBRANCH  10  15
BRANCH  13  26
ATOM     26  N   UNL A   1      38.792  34.672  33.650  1.00  0.00    -0.322 N 
ATOM     27  C   UNL A   1      39.260  35.095  34.869  1.00  0.00     0.255 C 
ATOM     28  H   UNL A   1      39.128  35.190  32.883  1.00  0.00     0.170 HD
ATOM     29  O   UNL A   1      39.828  36.182  34.958  1.00  0.00    -0.269 OA
BRANCH  27  30
ATOM     30  C   UNL A   1      39.113  34.260  36.084  1.00  0.00     0.043 A 
ATOM     31  C   UNL A   1      37.834  34.266  36.663  1.00  0.00     0.014 A 
ATOM     32  C   UNL A   1      40.154  33.507  36.663  1.00  0.00    -0.038 A 
ATOM     33  C   UNL A   1      37.558  33.466  37.768  1.00  0.00     0.001 A 
ATOM     34  C   UNL A   1      39.843  32.676  37.753  1.00  0.00     0.004 A 
ATOM     35  C   UNL A   1      41.580  33.521  36.182  1.00  0.00     0.045 C 
ATOM     36  C   UNL A   1      38.556  32.654  38.297  1.00  0.00     0.000 A 
ENDBRANCH  27  30
ENDBRANCH  13  26
ENDBRANCH   6   9
ENDBRANCH   4   5
ENDBRANCH   3   4
ENDBRANCH   2   3
ENDBRANCH   1   2
BRANCH   1  37
ATOM     37  C   UNL A   1      38.223  34.560  29.662  1.00  0.00     0.021 C 
BRANCH  37  38
ATOM     38  C   UNL A   1      39.812  34.730  29.455  1.00  0.00     0.116 C 
BRANCH  38  39
ATOM     39  N   UNL A   1      40.957  34.193  30.413  1.00  0.00    -0.352 N 
ATOM     40  C   UNL A   1      42.129  33.319  30.196  1.00  0.00     0.251 C 
ATOM     41  H   UNL A   1      40.868  34.505  31.342  1.00  0.00     0.163 HD
ATOM     42  O   UNL A   1      43.200  33.942  30.074  1.00  0.00    -0.269 OA
BRANCH  40  43
ATOM     43  C   UNL A   1      42.311  31.703  30.160  1.00  0.00     0.039 A 
ATOM     44  C   UNL A   1      42.264  30.947  31.367  1.00  0.00     0.014 A 
ATOM     45  C   UNL A   1      42.697  30.909  29.086  1.00  0.00     0.014 A 
ATOM     46  C   UNL A   1      43.169  29.822  31.573  1.00  0.00     0.010 A 
ATOM     47  C   UNL A   1      43.619  29.822  29.280  1.00  0.00     0.010 A 
ATOM     48  C   UNL A   1      44.043  29.420  30.551  1.00  0.00    -0.014 A 
BRANCH  48  49
ATOM     49  C   UNL A   1      45.412  28.782  30.755  1.00  0.00     0.031 A 
ATOM     50  C   UNL A   1      46.628  29.591  30.877  1.00  0.00     0.074 A 
ATOM     51  C   UNL A   1      45.733  27.465  30.953  1.00  0.00     0.049 A 
ATOM     52  N   UNL A   1      47.694  29.425  30.159  1.00  0.00    -0.248 NA
ATOM     53  C   UNL A   1      46.763  30.543  31.967  1.00  0.00     0.031 C 
ATOM     54  C   UNL A   1      47.003  26.782  31.276  1.00  0.00     0.029 A 
ATOM     55  N   UNL A   1      44.901  26.366  30.938  1.00  0.00    -0.354 N 
ATOM     56  C   UNL A   1      48.715  30.008  30.879  1.00  0.00     0.074 A 
ATOM     57  C   UNL A   1      48.065  30.835  31.883  1.00  0.00     0.031 C 
ATOM     58  C   UNL A   1      46.888  25.456  31.033  1.00  0.00     0.029 A 
ATOM     59  C   UNL A   1      45.563  25.218  30.504  1.00  0.00     0.049 A 
ATOM     60  H   UNL A   1      43.954  26.390  31.202  1.00  0.00     0.167 HD
ATOM     61  C   UNL A   1      50.003  29.549  30.829  1.00  0.00     0.037 A 
ATOM     62  C   UNL A   1      45.173  24.602  29.341  1.00  0.00     0.037 A 
ATOM     63  C   UNL A   1      50.101  28.217  30.216  1.00  0.00     0.049 A 
ATOM     64  C   UNL A   1      46.205  24.782  28.264  1.00  0.00     0.074 A 
ATOM     65  C   UNL A   1      50.391  26.959  30.731  1.00  0.00     0.029 A 
ATOM     66  N   UNL A   1      49.607  27.980  28.944  1.00  0.00    -0.354 N 
ATOM     67  N   UNL A   1      47.404  25.223  28.491  1.00  0.00    -0.248 NA
ATOM     68  C   UNL A   1      45.939  24.598  26.840  1.00  0.00     0.031 C 
ATOM     69  C   UNL A   1      50.125  25.981  29.737  1.00  0.00     0.029 A 
ATOM     70  C   UNL A   1      49.671  26.636  28.610  1.00  0.00     0.049 A 
ATOM     71  H   UNL A   1      49.254  28.680  28.350  1.00  0.00     0.167 HD
ATOM     72  C   UNL A   1      48.006  25.545  27.308  1.00  0.00     0.074 A 
ATOM     73  C   UNL A   1      47.064  25.096  26.297  1.00  0.00     0.031 C 
ATOM     74  C   UNL A   1      49.206  26.200  27.297  1.00  0.00     0.037 A 
BRANCH  61  75
ATOM     75  C   UNL A   1      51.124  30.181  31.643  1.00  0.00     0.058 A 
ATOM     76  C   UNL A   1      51.847  31.304  31.191  1.00  0.00     0.135 A 
ATOM     77  C   UNL A   1      51.489  29.733  32.934  1.00  0.00     0.135 A 
ATOM     78  F   UNL A   1      51.533  31.942  30.058  1.00  0.00    -0.206 F 
ATOM     79  C   UNL A   1      52.920  31.853  31.896  1.00  0.00     0.059 A 
ATOM     80  C   UNL A   1      52.590  30.233  33.638  1.00  0.00     0.059 A 
ATOM     81  F   UNL A   1      50.757  28.809  33.579  1.00  0.00    -0.206 F 
ATOM     82  C   UNL A   1      53.305  31.295  33.106  1.00  0.00     0.060 A 
BRANCH  82  83
ATOM     83  S   UNL A   1      54.705  32.016  33.981  1.00  0.00     0.124 S 
ATOM     84  O   UNL A   1      55.662  32.242  32.902  1.00  0.00    -0.237 OA
ATOM     85  O   UNL A   1      54.113  33.213  34.566  1.00  0.00    -0.237 OA
ATOM     86  O   UNL A   1      55.082  30.976  34.935  1.00  0.00    -0.744 OA
ENDBRANCH  82  83
ENDBRANCH  61  75
BRANCH  62  87
ATOM     87  C   UNL A   1      43.676  24.601  29.049  1.00  0.00     0.058 A 
ATOM     88  C   UNL A   1      43.324  25.130  27.814  1.00  0.00     0.135 A 
ATOM     89  C   UNL A   1      43.054  23.387  29.286  1.00  0.00     0.135 A 
ATOM     90  F   UNL A   1      43.245  26.453  27.627  1.00  0.00    -0.206 F 
ATOM     91  C   UNL A   1      43.051  24.282  26.748  1.00  0.00     0.059 A 
ATOM     92  C   UNL A   1      42.847  22.542  28.192  1.00  0.00     0.059 A 
ATOM     93  F   UNL A   1      43.003  22.873  30.525  1.00  0.00    -0.206 F 
ATOM     94  C   UNL A   1      43.152  22.923  26.914  1.00  0.00     0.060 A 
BRANCH  94  95
ATOM     95  S   UNL A   1      43.824  21.763  25.504  1.00  0.00     0.124 S 
ATOM     96  O   UNL A   1      43.577  22.546  24.335  1.00  0.00    -0.237 OA
ATOM     97  O   UNL A   1      45.250  21.597  25.784  1.00  0.00    -0.237 OA
ATOM     98  O   UNL A   1      43.049  20.557  25.442  1.00  0.00    -0.744 OA
ENDBRANCH  94  95
ENDBRANCH  62  87
BRANCH  74  99
ATOM     99  C   UNL A   1      50.040  26.511  26.078  1.00  0.00     0.058 A 
ATOM    100  C   UNL A   1      49.672  27.448  25.099  1.00  0.00     0.135 A 
ATOM    101  C   UNL A   1      51.205  25.760  25.776  1.00  0.00     0.135 A 
ATOM    102  F   UNL A   1      48.502  28.100  25.158  1.00  0.00    -0.206 F 
ATOM    103  C   UNL A   1      50.462  27.709  23.977  1.00  0.00     0.059 A 
ATOM    104  C   UNL A   1      51.982  25.971  24.645  1.00  0.00     0.059 A 
ATOM    105  F   UNL A   1      51.642  24.765  26.557  1.00  0.00    -0.206 F 
ATOM    106  C   UNL A   1      51.621  26.971  23.764  1.00  0.00     0.060 A 
BRANCH 106 107
ATOM    107  S   UNL A   1      52.613  27.287  22.300  1.00  0.00     0.124 S 
ATOM    108  O   UNL A   1      51.657  27.052  21.224  1.00  0.00    -0.237 OA
ATOM    109  O   UNL A   1      53.005  28.678  22.508  1.00  0.00    -0.237 OA
ATOM    110  O   UNL A   1      53.694  26.311  22.398  1.00  0.00    -0.744 OA
ENDBRANCH 106 107
ENDBRANCH  74  99
ENDBRANCH  48  49
ENDBRANCH  40  43
ENDBRANCH  38  39
ENDBRANCH  37  38
ENDBRANCH   1  37
TORSDOF 20
ENDMDL
MODEL 2
REMARK VINA RESULT:      -9.9      5.445     10.602
REMARK SMILES Cc1ccccc1C(=O)Nc1cc(NC(=O)c2ccccc2C)cc(C(=O)NCCCCCCNC(=O)c2ccc(-c3c4nc(c(-c5c(F)cc(S(=O)(=O)[O-])cc5F)c5ccc([nH]5)c(-c5c(F)cc(S(=O)(=O)[O-])cc5F)c5nc(c(-c6c(F)cc(S(=O)(=O)[O-])cc6F)c6ccc3[nH]6)C=C5)C=C4)cc2)c1
REMARK SMILES IDX 32 1 31 2 30 3 29 4 28 5 26 6 27 7 25 9 11 10 12 11 104 12
REMARK SMILES IDX 13 13 24 14 10 15 8 16 9 17 7 19 1 20 2 21 3 22 4 23 6 24
REMARK SMILES IDX 5 25 14 26 15 27 16 29 17 30 18 31 22 32 19 33 21 34 23 35
REMARK SMILES IDX 20 36 33 37 34 38 35 39 36 40 37 42 38 43 39 44 103 45 40 46
REMARK SMILES IDX 102 47 41 48 42 49 43 50 96 51 44 52 101 53 95 54 97 55
REMARK SMILES IDX 45 56 100 57 94 58 93 59 46 61 80 62 59 63 79 64 60 65 63 66
REMARK SMILES IDX 78 67 98 68 61 69 62 70 77 72 99 73 64 74 47 75 48 76 57 77
REMARK SMILES IDX 49 78 50 79 56 80 58 81 51 82 52 83 53 84 54 85 55 86 81 87
REMARK SMILES IDX 82 88 91 89 83 90 84 91 90 92 92 93 85 94 86 95 87 96 88 97
REMARK SMILES IDX 89 98 65 99 66 100 75 101 67 102 68 103 74 104 76 105 69 106
REMARK SMILES IDX 70 107 71 108 72 109 73 110
REMARK H PARENT 28 8 10 18 14 28 35 41 97 60 63 71
REMARK Flexibility Score: inf
ROOT
ATOM      1  C   UNL A   1      45.497  34.615  34.188  1.00  0.00     0.002 C 
ENDROOT
BRANCH   1   2
ATOM      2  C   UNL A   1      44.477  34.000  33.120  1.00  0.00     0.002 C 
BRANCH   2   3
ATOM      3  C   UNL A   1      44.732  32.962  32.007  1.00  0.00     0.021 C 
BRANCH   3   4
ATOM      4  C   UNL A   1      44.269  33.354  30.647  1.00  0.00     0.116 C 
BRANCH   4   5
ATOM      5  N   UNL A   1      42.825  33.385  30.612  1.00  0.00    -0.352 N 
ATOM      6  C   UNL A   1      41.960  34.166  29.912  1.00  0.00     0.251 C 
ATOM      7  O   UNL A   1      40.766  34.113  30.212  1.00  0.00    -0.269 OA
ATOM      8  H   UNL A   1      42.391  32.724  31.198  1.00  0.00     0.163 HD
BRANCH   6   9
ATOM      9  C   UNL A   1      42.395  35.039  28.789  1.00  0.00     0.043 A 
ATOM     10  C   UNL A   1      42.462  37.283  27.940  1.00  0.00     0.044 A 
ATOM     11  C   UNL A   1      42.929  36.830  26.707  1.00  0.00     0.052 A 
ATOM     12  C   UNL A   1      42.365  36.414  29.023  1.00  0.00     0.040 A 
ATOM     13  C   UNL A   1      43.064  35.466  26.486  1.00  0.00     0.044 A 
ATOM     14  C   UNL A   1      42.659  34.592  27.490  1.00  0.00     0.040 A 
BRANCH  10  15
ATOM     15  N   UNL A   1      41.876  38.543  28.104  1.00  0.00    -0.322 N 
ATOM     16  C   UNL A   1      42.370  39.647  28.773  1.00  0.00     0.255 C 
ATOM     17  O   UNL A   1      41.667  40.659  28.836  1.00  0.00    -0.269 OA
ATOM     18  H   UNL A   1      40.991  38.658  27.687  1.00  0.00     0.170 HD
BRANCH  16  19
ATOM     19  C   UNL A   1      43.727  39.686  29.405  1.00  0.00     0.043 A 
ATOM     20  C   UNL A   1      45.160  40.066  27.277  1.00  0.00     0.045 C 
ATOM     21  C   UNL A   1      44.970  39.781  28.741  1.00  0.00    -0.038 A 
ATOM     22  C   UNL A   1      46.155  39.672  29.498  1.00  0.00     0.004 A 
ATOM     23  C   UNL A   1      46.121  39.613  30.889  1.00  0.00     0.000 A 
ATOM     24  C   UNL A   1      43.714  39.676  30.812  1.00  0.00     0.014 A 
ATOM     25  C   UNL A   1      44.900  39.660  31.547  1.00  0.00     0.001 A 
ENDBRANCH  16  19
ENDBRANCH  10  15
BRANCH  13  26
ATOM     26  N   UNL A   1      43.493  34.886  25.283  1.00  0.00    -0.322 N 
ATOM     27  C   UNL A   1      44.712  34.380  24.906  1.00  0.00     0.255 C 
ATOM     28  H   UNL A   1      42.798  34.832  24.588  1.00  0.00     0.170 HD
ATOM     29  O   UNL A   1      44.931  34.140  23.719  1.00  0.00    -0.269 OA
BRANCH  27  30
ATOM     30  C   UNL A   1      45.771  34.097  25.902  1.00  0.00     0.043 A 
ATOM     31  C   UNL A   1      46.775  35.073  26.002  1.00  0.00     0.014 A 
ATOM     32  C   UNL A   1      45.819  32.940  26.705  1.00  0.00    -0.038 A 
ATOM     33  C   UNL A   1      47.785  34.948  26.952  1.00  0.00     0.001 A 
ATOM     34  C   UNL A   1      46.824  32.855  27.684  1.00  0.00     0.004 A 
ATOM     35  C   UNL A   1      44.855  31.790  26.595  1.00  0.00     0.045 C 
ATOM     36  C   UNL A   1      47.795  33.852  27.808  1.00  0.00     0.000 A 
ENDBRANCH  27  30
ENDBRANCH  13  26
ENDBRANCH   6   9
ENDBRANCH   4   5
ENDBRANCH   3   4
ENDBRANCH   2   3
ENDBRANCH   1   2
BRANCH   1  37
ATOM     37  C   UNL A   1      46.668  35.783  34.116  1.00  0.00     0.021 C 
BRANCH  37  38
ATOM     38  C   UNL A   1      46.294  37.351  34.125  1.00  0.00     0.116 C 
BRANCH  38  39
ATOM     39  N   UNL A   1      45.032  38.023  34.814  1.00  0.00    -0.352 N 
ATOM     40  C   UNL A   1      43.907  37.483  35.605  1.00  0.00     0.251 C 
ATOM     41  H   UNL A   1      44.990  38.997  34.688  1.00  0.00     0.163 HD
ATOM     42  O   UNL A   1      44.043  37.633  36.834  1.00  0.00    -0.269 OA
BRANCH  40  43
ATOM     43  C   UNL A   1      42.490  36.800  35.189  1.00  0.00     0.039 A 
ATOM     44  C   UNL A   1      41.565  36.394  36.194  1.00  0.00     0.014 A 
ATOM     45  C   UNL A   1      42.085  36.369  33.931  1.00  0.00     0.014 A 
ATOM     46  C   UNL A   1      40.811  35.154  36.049  1.00  0.00     0.010 A 
ATOM     47  C   UNL A   1      41.374  35.128  33.782  1.00  0.00     0.010 A 
ATOM     48  C   UNL A   1      40.927  34.386  34.880  1.00  0.00    -0.014 A 
BRANCH  48  49
ATOM     49  C   UNL A   1      40.784  32.871  34.796  1.00  0.00     0.031 A 
ATOM     50  C   UNL A   1      41.944  31.981  34.893  1.00  0.00     0.074 A 
ATOM     51  C   UNL A   1      39.646  32.111  34.729  1.00  0.00     0.049 A 
ATOM     52  N   UNL A   1      42.240  31.065  34.026  1.00  0.00    -0.248 NA
ATOM     53  C   UNL A   1      42.755  31.969  36.100  1.00  0.00     0.031 C 
ATOM     54  C   UNL A   1      39.413  30.652  34.767  1.00  0.00     0.029 A 
ATOM     55  N   UNL A   1      38.337  32.531  34.640  1.00  0.00    -0.354 N 
ATOM     56  C   UNL A   1      43.056  30.176  34.695  1.00  0.00     0.074 A 
ATOM     57  C   UNL A   1      43.487  30.869  35.897  1.00  0.00     0.031 C 
ATOM     58  C   UNL A   1      38.166  30.374  34.325  1.00  0.00     0.029 A 
ATOM     59  C   UNL A   1      37.545  31.621  33.939  1.00  0.00     0.049 A 
ATOM     60  H   UNL A   1      38.001  33.372  35.025  1.00  0.00     0.167 HD
ATOM     61  C   UNL A   1      43.079  28.840  34.403  1.00  0.00     0.037 A 
ATOM     62  C   UNL A   1      36.968  31.992  32.750  1.00  0.00     0.037 A 
ATOM     63  C   UNL A   1      41.941  28.426  33.569  1.00  0.00     0.049 A 
ATOM     64  C   UNL A   1      37.613  31.283  31.594  1.00  0.00     0.074 A 
ATOM     65  C   UNL A   1      40.812  27.658  33.826  1.00  0.00     0.029 A 
ATOM     66  N   UNL A   1      41.693  29.035  32.350  1.00  0.00    -0.354 N 
ATOM     67  N   UNL A   1      38.413  30.271  31.734  1.00  0.00    -0.248 NA
ATOM     68  C   UNL A   1      37.510  31.724  30.205  1.00  0.00     0.031 C 
ATOM     69  C   UNL A   1      39.921  27.766  32.726  1.00  0.00     0.029 A 
ATOM     70  C   UNL A   1      40.500  28.601  31.792  1.00  0.00     0.049 A 
ATOM     71  H   UNL A   1      42.290  29.696  31.931  1.00  0.00     0.167 HD
ATOM     72  C   UNL A   1      39.056  30.026  30.553  1.00  0.00     0.074 A 
ATOM     73  C   UNL A   1      38.425  30.936  29.612  1.00  0.00     0.031 C 
ATOM     74  C   UNL A   1      40.082  29.125  30.496  1.00  0.00     0.037 A 
BRANCH  61  75
ATOM     75  C   UNL A   1      43.964  27.858  35.159  1.00  0.00     0.058 A 
ATOM     76  C   UNL A   1      45.317  27.645  34.824  1.00  0.00     0.135 A 
ATOM     77  C   UNL A   1      43.521  27.128  36.286  1.00  0.00     0.135 A 
ATOM     78  F   UNL A   1      45.935  28.361  33.877  1.00  0.00    -0.206 F 
ATOM     79  C   UNL A   1      46.121  26.701  35.464  1.00  0.00     0.059 A 
ATOM     80  C   UNL A   1      44.290  26.142  36.914  1.00  0.00     0.059 A 
ATOM     81  F   UNL A   1      42.325  27.377  36.846  1.00  0.00    -0.206 F 
ATOM     82  C   UNL A   1      45.593  25.932  36.491  1.00  0.00     0.060 A 
BRANCH  82  83
ATOM     83  S   UNL A   1      46.652  24.709  37.285  1.00  0.00     0.124 S 
ATOM     84  O   UNL A   1      47.223  24.005  36.141  1.00  0.00    -0.237 OA
ATOM     85  O   UNL A   1      47.575  25.551  38.037  1.00  0.00    -0.237 OA
ATOM     86  O   UNL A   1      45.720  23.926  38.093  1.00  0.00    -0.744 OA
ENDBRANCH  82  83
ENDBRANCH  61  75
BRANCH  62  87
ATOM     87  C   UNL A   1      36.481  33.435  32.658  1.00  0.00     0.058 A 
ATOM     88  C   UNL A   1      37.058  34.179  31.636  1.00  0.00     0.135 A 
ATOM     89  C   UNL A   1      35.104  33.570  32.681  1.00  0.00     0.135 A 
ATOM     90  F   UNL A   1      38.276  34.716  31.777  1.00  0.00    -0.206 F 
ATOM     91  C   UNL A   1      36.370  34.370  30.445  1.00  0.00     0.059 A 
ATOM     92  C   UNL A   1      34.447  33.707  31.454  1.00  0.00     0.059 A 
ATOM     93  F   UNL A   1      34.396  33.203  33.760  1.00  0.00    -0.206 F 
ATOM     94  C   UNL A   1      35.131  33.805  30.273  1.00  0.00     0.060 A 
BRANCH  94  95
ATOM     95  S   UNL A   1      34.557  33.090  28.557  1.00  0.00     0.124 S 
ATOM     96  O   UNL A   1      34.354  31.710  28.864  1.00  0.00    -0.237 OA
ATOM     97  O   UNL A   1      33.312  33.790  28.241  1.00  0.00    -0.237 OA
ATOM     98  O   UNL A   1      35.611  33.213  27.591  1.00  0.00    -0.744 OA
ENDBRANCH  94  95
ENDBRANCH  62  87
BRANCH  74  99
ATOM     99  C   UNL A   1      40.797  28.668  29.248  1.00  0.00     0.058 A 
ATOM    100  C   UNL A   1      41.810  29.406  28.614  1.00  0.00     0.135 A 
ATOM    101  C   UNL A   1      40.386  27.502  28.553  1.00  0.00     0.135 A 
ATOM    102  F   UNL A   1      42.173  30.619  29.055  1.00  0.00    -0.206 F 
ATOM    103  C   UNL A   1      42.449  28.960  27.455  1.00  0.00     0.059 A 
ATOM    104  C   UNL A   1      40.976  27.061  27.377  1.00  0.00     0.059 A 
ATOM    105  F   UNL A   1      39.371  26.735  28.971  1.00  0.00    -0.206 F 
ATOM    106  C   UNL A   1      42.031  27.780  26.849  1.00  0.00     0.060 A 
BRANCH 106 107
ATOM    107  S   UNL A   1      42.833  27.230  25.339  1.00  0.00     0.124 S 
ATOM    108  O   UNL A   1      42.171  25.955  25.085  1.00  0.00    -0.237 OA
ATOM    109  O   UNL A   1      42.497  28.313  24.419  1.00  0.00    -0.237 OA
ATOM    110  O   UNL A   1      44.242  27.138  25.709  1.00  0.00    -0.744 OA
ENDBRANCH 106 107
ENDBRANCH  74  99
ENDBRANCH  48  49
ENDBRANCH  40  43
ENDBRANCH  38  39
ENDBRANCH  37  38
ENDBRANCH   1  37
TORSDOF 20
ENDMDL
MODEL 3
REMARK VINA RESULT:      -9.9      4.208      8.854
REMARK SMILES Cc1ccccc1C(=O)Nc1cc(NC(=O)c2ccccc2C)cc(C(=O)NCCCCCCNC(=O)c2ccc(-c3c4nc(c(-c5c(F)cc(S(=O)(=O)[O-])cc5F)c5ccc([nH]5)c(-c5c(F)cc(S(=O)(=O)[O-])cc5F)c5nc(c(-c6c(F)cc(S(=O)(=O)[O-])cc6F)c6ccc3[nH]6)C=C5)C=C4)cc2)c1
REMARK SMILES IDX 32 1 31 2 30 3 29 4 28 5 26 6 27 7 25 9 11 10 12 11 104 12
REMARK SMILES IDX 13 13 24 14 10 15 8 16 9 17 7 19 1 20 2 21 3 22 4 23 6 24
REMARK SMILES IDX 5 25 14 26 15 27 16 29 17 30 18 31 22 32 19 33 21 34 23 35
REMARK SMILES IDX 20 36 33 37 34 38 35 39 36 40 37 42 38 43 39 44 103 45 40 46
REMARK SMILES IDX 102 47 41 48 42 49 43 50 96 51 44 52 101 53 95 54 97 55
REMARK SMILES IDX 45 56 100 57 94 58 93 59 46 61 80 62 59 63 79 64 60 65 63 66
REMARK SMILES IDX 78 67 98 68 61 69 62 70 77 72 99 73 64 74 47 75 48 76 57 77
REMARK SMILES IDX 49 78 50 79 56 80 58 81 51 82 52 83 53 84 54 85 55 86 81 87
REMARK SMILES IDX 82 88 91 89 83 90 84 91 90 92 92 93 85 94 86 95 87 96 88 97
REMARK SMILES IDX 89 98 65 99 66 100 75 101 67 102 68 103 74 104 76 105 69 106
REMARK SMILES IDX 70 107 71 108 72 109 73 110
REMARK H PARENT 28 8 10 18 14 28 35 41 97 60 63 71
REMARK Flexibility Score: inf
ROOT
ATOM      1  C   UNL A   1      35.701  33.812  34.027  1.00  0.00     0.002 C 
ENDROOT
BRANCH   1   2
ATOM      2  C   UNL A   1      34.584  33.360  32.975  1.00  0.00     0.002 C 
BRANCH   2   3
ATOM      3  C   UNL A   1      34.745  32.613  31.634  1.00  0.00     0.021 C 
BRANCH   3   4
ATOM      4  C   UNL A   1      35.452  33.367  30.562  1.00  0.00     0.116 C 
BRANCH   4   5
ATOM      5  N   UNL A   1      34.502  33.812  29.568  1.00  0.00    -0.352 N 
ATOM      6  C   UNL A   1      34.145  33.284  28.367  1.00  0.00     0.251 C 
ATOM      7  O   UNL A   1      33.442  33.970  27.624  1.00  0.00    -0.269 OA
ATOM      8  H   UNL A   1      34.030  34.643  29.801  1.00  0.00     0.163 HD
BRANCH   6   9
ATOM      9  C   UNL A   1      34.537  31.913  27.944  1.00  0.00     0.043 A 
ATOM     10  C   UNL A   1      33.773  29.672  27.547  1.00  0.00     0.044 A 
ATOM     11  C   UNL A   1      35.084  29.226  27.389  1.00  0.00     0.052 A 
ATOM     12  C   UNL A   1      33.495  31.033  27.649  1.00  0.00     0.040 A 
ATOM     13  C   UNL A   1      36.136  30.113  27.579  1.00  0.00     0.044 A 
ATOM     14  C   UNL A   1      35.840  31.408  27.992  1.00  0.00     0.040 A 
BRANCH  10  15
ATOM     15  N   UNL A   1      32.712  28.803  27.824  1.00  0.00    -0.322 N 
ATOM     16  C   UNL A   1      31.942  28.070  26.941  1.00  0.00     0.255 C 
ATOM     17  O   UNL A   1      31.017  27.389  27.392  1.00  0.00    -0.269 OA
ATOM     18  H   UNL A   1      32.484  28.700  28.776  1.00  0.00     0.170 HD
BRANCH  16  19
ATOM     19  C   UNL A   1      32.187  28.041  25.463  1.00  0.00     0.043 A 
ATOM     20  C   UNL A   1      34.014  26.201  25.387  1.00  0.00     0.045 C 
ATOM     21  C   UNL A   1      33.163  27.282  24.780  1.00  0.00    -0.038 A 
ATOM     22  C   UNL A   1      33.334  27.483  23.395  1.00  0.00     0.004 A 
ATOM     23  C   UNL A   1      32.471  28.304  22.673  1.00  0.00     0.000 A 
ATOM     24  C   UNL A   1      31.296  28.827  24.710  1.00  0.00     0.014 A 
ATOM     25  C   UNL A   1      31.424  28.941  23.325  1.00  0.00     0.001 A 
ENDBRANCH  16  19
ENDBRANCH  10  15
BRANCH  13  26
ATOM     26  N   UNL A   1      37.495  29.779  27.479  1.00  0.00    -0.322 N 
ATOM     27  C   UNL A   1      38.514  29.851  28.397  1.00  0.00     0.255 C 
ATOM     28  H   UNL A   1      37.765  29.432  26.599  1.00  0.00     0.170 HD
ATOM     29  O   UNL A   1      39.680  29.733  28.021  1.00  0.00    -0.269 OA
BRANCH  27  30
ATOM     30  C   UNL A   1      38.242  30.050  29.839  1.00  0.00     0.043 A 
ATOM     31  C   UNL A   1      37.707  28.937  30.507  1.00  0.00     0.014 A 
ATOM     32  C   UNL A   1      38.473  31.255  30.533  1.00  0.00    -0.038 A 
ATOM     33  C   UNL A   1      37.474  28.985  31.878  1.00  0.00     0.001 A 
ATOM     34  C   UNL A   1      38.269  31.267  31.923  1.00  0.00     0.004 A 
ATOM     35  C   UNL A   1      38.939  32.531  29.885  1.00  0.00     0.045 C 
ATOM     36  C   UNL A   1      37.778  30.142  32.589  1.00  0.00     0.000 A 
ENDBRANCH  27  30
ENDBRANCH  13  26
ENDBRANCH   6   9
ENDBRANCH   4   5
ENDBRANCH   3   4
ENDBRANCH   2   3
ENDBRANCH   1   2
BRANCH   1  37
ATOM     37  C   UNL A   1      36.704  32.994  35.058  1.00  0.00     0.021 C 
BRANCH  37  38
ATOM     38  C   UNL A   1      38.282  33.315  35.127  1.00  0.00     0.116 C 
BRANCH  38  39
ATOM     39  N   UNL A   1      39.471  32.279  34.943  1.00  0.00    -0.352 N 
ATOM     40  C   UNL A   1      40.942  32.416  34.956  1.00  0.00     0.251 C 
ATOM     41  H   UNL A   1      39.165  31.356  34.788  1.00  0.00     0.163 HD
ATOM     42  O   UNL A   1      41.466  32.077  36.033  1.00  0.00    -0.269 OA
BRANCH  40  43
ATOM     43  C   UNL A   1      42.021  32.850  33.818  1.00  0.00     0.039 A 
ATOM     44  C   UNL A   1      41.612  33.631  32.699  1.00  0.00     0.014 A 
ATOM     45  C   UNL A   1      43.332  32.410  33.670  1.00  0.00     0.014 A 
ATOM     46  C   UNL A   1      42.150  33.362  31.371  1.00  0.00     0.010 A 
ATOM     47  C   UNL A   1      43.853  32.109  32.364  1.00  0.00     0.010 A 
ATOM     48  C   UNL A   1      43.140  32.384  31.193  1.00  0.00    -0.014 A 
BRANCH  48  49
ATOM     49  C   UNL A   1      43.337  31.540  29.939  1.00  0.00     0.031 A 
ATOM     50  C   UNL A   1      43.232  30.079  29.969  1.00  0.00     0.074 A 
ATOM     51  C   UNL A   1      43.525  31.944  28.643  1.00  0.00     0.049 A 
ATOM     52  N   UNL A   1      44.141  29.269  29.526  1.00  0.00    -0.248 NA
ATOM     53  C   UNL A   1      41.983  29.446  30.358  1.00  0.00     0.031 C 
ATOM     54  C   UNL A   1      43.602  31.206  27.366  1.00  0.00     0.029 A 
ATOM     55  N   UNL A   1      43.664  33.226  28.155  1.00  0.00    -0.354 N 
ATOM     56  C   UNL A   1      43.487  28.078  29.289  1.00  0.00     0.074 A 
ATOM     57  C   UNL A   1      42.216  28.184  29.985  1.00  0.00     0.031 C 
ATOM     58  C   UNL A   1      44.138  31.998  26.408  1.00  0.00     0.029 A 
ATOM     59  C   UNL A   1      44.473  33.265  27.019  1.00  0.00     0.049 A 
ATOM     60  H   UNL A   1      43.243  34.018  28.559  1.00  0.00     0.167 HD
ATOM     61  C   UNL A   1      43.869  27.217  28.296  1.00  0.00     0.037 A 
ATOM     62  C   UNL A   1      45.666  33.942  27.053  1.00  0.00     0.037 A 
ATOM     63  C   UNL A   1      44.796  27.837  27.339  1.00  0.00     0.049 A 
ATOM     64  C   UNL A   1      46.828  32.991  27.016  1.00  0.00     0.074 A 
ATOM     65  C   UNL A   1      44.662  28.231  26.014  1.00  0.00     0.029 A 
ATOM     66  N   UNL A   1      45.983  28.409  27.767  1.00  0.00    -0.354 N 
ATOM     67  N   UNL A   1      46.710  31.732  26.722  1.00  0.00    -0.248 NA
ATOM     68  C   UNL A   1      48.186  33.344  27.420  1.00  0.00     0.031 C 
ATOM     69  C   UNL A   1      45.804  28.987  25.639  1.00  0.00     0.029 A 
ATOM     70  C   UNL A   1      46.642  29.059  26.734  1.00  0.00     0.049 A 
ATOM     71  H   UNL A   1      46.319  28.361  28.691  1.00  0.00     0.167 HD
ATOM     72  C   UNL A   1      47.864  31.075  27.044  1.00  0.00     0.074 A 
ATOM     73  C   UNL A   1      48.776  32.136  27.439  1.00  0.00     0.031 C 
ATOM     74  C   UNL A   1      47.921  29.711  26.996  1.00  0.00     0.037 A 
BRANCH  61  75
ATOM     75  C   UNL A   1      43.130  25.914  28.023  1.00  0.00     0.058 A 
ATOM     76  C   UNL A   1      43.541  24.681  28.571  1.00  0.00     0.135 A 
ATOM     77  C   UNL A   1      41.949  25.842  27.249  1.00  0.00     0.135 A 
ATOM     78  F   UNL A   1      44.553  24.594  29.442  1.00  0.00    -0.206 F 
ATOM     79  C   UNL A   1      42.915  23.469  28.276  1.00  0.00     0.059 A 
ATOM     80  C   UNL A   1      41.331  24.637  26.899  1.00  0.00     0.059 A 
ATOM     81  F   UNL A   1      41.325  26.958  26.834  1.00  0.00    -0.206 F 
ATOM     82  C   UNL A   1      41.826  23.450  27.416  1.00  0.00     0.060 A 
BRANCH  82  83
ATOM     83  S   UNL A   1      41.051  21.867  27.041  1.00  0.00     0.124 S 
ATOM     84  O   UNL A   1      40.774  21.336  28.371  1.00  0.00    -0.237 OA
ATOM     85  O   UNL A   1      39.886  22.277  26.265  1.00  0.00    -0.237 OA
ATOM     86  O   UNL A   1      42.081  21.154  26.290  1.00  0.00    -0.744 OA
ENDBRANCH  82  83
ENDBRANCH  61  75
BRANCH  62  87
ATOM     87  C   UNL A   1      45.687  35.229  27.872  1.00  0.00     0.058 A 
ATOM     88  C   UNL A   1      46.840  35.421  28.624  1.00  0.00     0.135 A 
ATOM     89  C   UNL A   1      45.345  36.363  27.155  1.00  0.00     0.135 A 
ATOM     90  F   UNL A   1      47.009  34.802  29.799  1.00  0.00    -0.206 F 
ATOM     91  C   UNL A   1      47.841  36.263  28.155  1.00  0.00     0.059 A 
ATOM     92  C   UNL A   1      46.385  37.152  26.657  1.00  0.00     0.059 A 
ATOM     93  F   UNL A   1      44.117  36.497  26.629  1.00  0.00    -0.206 F 
ATOM     94  C   UNL A   1      47.697  36.885  26.941  1.00  0.00     0.060 A 
BRANCH  94  95
ATOM     95  S   UNL A   1      49.205  37.161  25.743  1.00  0.00     0.124 S 
ATOM     96  O   UNL A   1      48.634  37.999  24.736  1.00  0.00    -0.237 OA
ATOM     97  O   UNL A   1      50.218  37.848  26.544  1.00  0.00    -0.237 OA
ATOM     98  O   UNL A   1      49.606  35.915  25.155  1.00  0.00    -0.744 OA
ENDBRANCH  94  95
ENDBRANCH  62  87
BRANCH  74  99
ATOM     99  C   UNL A   1      49.152  28.863  27.206  1.00  0.00     0.058 A 
ATOM    100  C   UNL A   1      49.666  27.981  26.241  1.00  0.00     0.135 A 
ATOM    101  C   UNL A   1      49.799  28.809  28.467  1.00  0.00     0.135 A 
ATOM    102  F   UNL A   1      49.046  27.788  25.068  1.00  0.00    -0.206 F 
ATOM    103  C   UNL A   1      50.804  27.204  26.467  1.00  0.00     0.059 A 
ATOM    104  C   UNL A   1      50.905  28.013  28.729  1.00  0.00     0.059 A 
ATOM    105  F   UNL A   1      49.378  29.517  29.522  1.00  0.00    -0.206 F 
ATOM    106  C   UNL A   1      51.422  27.234  27.712  1.00  0.00     0.060 A 
BRANCH 106 107
ATOM    107  S   UNL A   1      52.865  26.205  28.008  1.00  0.00     0.124 S 
ATOM    108  O   UNL A   1      53.958  27.163  27.880  1.00  0.00    -0.237 OA
ATOM    109  O   UNL A   1      52.604  25.717  29.359  1.00  0.00    -0.237 OA
ATOM    110  O   UNL A   1      52.793  25.198  26.953  1.00  0.00    -0.744 OA
ENDBRANCH 106 107
ENDBRANCH  74  99
ENDBRANCH  48  49
ENDBRANCH  40  43
ENDBRANCH  38  39
ENDBRANCH  37  38
ENDBRANCH   1  37
TORSDOF 20
ENDMDL
