MODEL 1
REMARK VINA RESULT:     -11.1      0.000      0.000
REMARK SMILES COc1ccc(CSc2ncccc2C(=O)NCCCCCCNC(=O)c2ccc(-c3c4nc(c(-c5c(F)cc(S(=O)(=O)[O-])cc5F)c5ccc([nH]5)c(-c5c(F)cc(S(=O)(=O)[O-])cc5F)c5nc(c(-c6c(F)cc(S(=O)(=O)[O-])cc6F)c6ccc3[nH]6)C=C5)C=C4)cc2)cc1
REMARK SMILES IDX 20 1 19 2 18 3 17 4 15 5 16 6 14 8 9 9 10 10 11 11 13 12
REMARK SMILES IDX 12 13 8 14 7 15 6 16 3 17 4 18 94 19 5 20 93 21 2 22 1 23
REMARK SMILES IDX 21 24 22 25 23 26 24 27 25 28 26 30 27 31 28 32 92 33 29 34
REMARK SMILES IDX 91 35 30 36 31 37 32 38 85 39 33 40 90 41 84 42 86 43 34 44
REMARK SMILES IDX 89 45 83 46 82 47 35 49 69 50 48 51 68 52 49 53 52 54 67 55
REMARK SMILES IDX 87 56 50 57 51 58 66 60 88 61 53 62 36 63 37 64 46 65 38 66
REMARK SMILES IDX 39 67 45 68 47 69 40 70 41 71 42 72 43 73 44 74 70 75 71 76
REMARK SMILES IDX 80 77 72 78 73 79 79 80 81 81 74 82 75 83 76 84 77 85 78 86
REMARK SMILES IDX 54 87 55 88 64 89 56 90 57 91 63 92 65 93 58 94 59 95 60 96
REMARK SMILES IDX 61 97 62 98
REMARK H PARENT 17 7 24 29 86 48 52 59
REMARK Flexibility Score: inf
ROOT
ATOM      1  C   UNL A   1      37.233  22.231  24.644  1.00  0.00     0.002 C 
ENDROOT
BRANCH   1   2
ATOM      2  C   UNL A   1      36.679  22.714  23.293  1.00  0.00     0.021 C 
BRANCH   2   3
ATOM      3  C   UNL A   1      35.198  23.105  23.367  1.00  0.00     0.116 C 
BRANCH   3   4
ATOM      4  N   UNL A   1      35.110  24.379  24.060  1.00  0.00    -0.352 N 
ATOM      5  C   UNL A   1      34.239  24.826  25.026  1.00  0.00     0.254 C 
ATOM      6  O   UNL A   1      33.951  26.021  25.018  1.00  0.00    -0.269 OA
ATOM      7  H   UNL A   1      35.791  25.038  23.791  1.00  0.00     0.163 HD
BRANCH   5   8
ATOM      8  C   UNL A   1      33.736  23.942  26.096  1.00  0.00     0.072 A 
ATOM      9  C   UNL A   1      32.364  23.793  26.351  1.00  0.00     0.109 A 
ATOM     10  N   UNL A   1      31.917  22.970  27.347  1.00  0.00    -0.249 NA
ATOM     11  C   UNL A   1      32.813  22.272  28.075  1.00  0.00     0.112 A 
ATOM     12  C   UNL A   1      34.630  23.148  26.832  1.00  0.00     0.018 A 
ATOM     13  C   UNL A   1      34.169  22.319  27.850  1.00  0.00     0.021 A 
BRANCH   9  14
ATOM     14  S   UNL A   1      30.971  24.400  25.411  1.00  0.00    -0.101 SA
BRANCH  14  15
ATOM     15  C   UNL A   1      30.711  26.117  25.933  1.00  0.00     0.112 C 
BRANCH  15  16
ATOM     16  C   UNL A   1      30.518  27.132  24.839  1.00  0.00    -0.037 A 
ATOM     17  C   UNL A   1      30.305  28.973  22.720  1.00  0.00     0.118 A 
ATOM     18  C   UNL A   1      29.473  27.853  22.771  1.00  0.00     0.047 A 
ATOM     19  C   UNL A   1      31.230  29.185  23.738  1.00  0.00     0.047 A 
ATOM     20  C   UNL A   1      29.582  26.934  23.817  1.00  0.00     0.008 A 
ATOM     21  C   UNL A   1      31.342  28.264  24.783  1.00  0.00     0.008 A 
BRANCH  17  22
ATOM     22  O   UNL A   1      30.109  29.795  21.643  1.00  0.00    -0.497 OA
ATOM     23  C   UNL A   1      29.042  30.730  21.765  1.00  0.00     0.278 C 
ENDBRANCH  17  22
ENDBRANCH  15  16
ENDBRANCH  14  15
ENDBRANCH   9  14
ENDBRANCH   5   8
ENDBRANCH   3   4
ENDBRANCH   2   3
ENDBRANCH   1   2
BRANCH   1  24
ATOM     24  C   UNL A   1      36.906  20.771  24.978  1.00  0.00     0.002 C 
BRANCH  24  25
ATOM     25  C   UNL A   1      38.120  19.842  24.993  1.00  0.00     0.021 C 
BRANCH  25  26
ATOM     26  C   UNL A   1      39.300  20.389  25.786  1.00  0.00     0.116 C 
BRANCH  26  27
ATOM     27  N   UNL A   1      40.306  19.363  26.019  1.00  0.00    -0.352 N 
ATOM     28  C   UNL A   1      41.646  19.530  26.263  1.00  0.00     0.251 C 
ATOM     29  H   UNL A   1      39.984  18.432  26.001  1.00  0.00     0.163 HD
ATOM     30  O   UNL A   1      42.414  18.573  26.203  1.00  0.00    -0.269 OA
BRANCH  28  31
ATOM     31  C   UNL A   1      42.148  20.880  26.583  1.00  0.00     0.039 A 
ATOM     32  C   UNL A   1      42.356  21.239  27.917  1.00  0.00     0.014 A 
ATOM     33  C   UNL A   1      42.439  21.777  25.551  1.00  0.00     0.014 A 
ATOM     34  C   UNL A   1      42.905  22.488  28.213  1.00  0.00     0.010 A 
ATOM     35  C   UNL A   1      43.057  22.986  25.845  1.00  0.00     0.010 A 
ATOM     36  C   UNL A   1      43.283  23.360  27.179  1.00  0.00    -0.014 A 
BRANCH  36  37
ATOM     37  C   UNL A   1      43.885  24.688  27.456  1.00  0.00     0.031 A 
ATOM     38  C   UNL A   1      42.998  25.827  27.879  1.00  0.00     0.074 A 
ATOM     39  C   UNL A   1      45.201  24.891  27.249  1.00  0.00     0.049 A 
ATOM     40  N   UNL A   1      43.292  27.091  28.037  1.00  0.00    -0.248 NA
ATOM     41  C   UNL A   1      41.581  25.506  28.122  1.00  0.00     0.031 C 
ATOM     42  C   UNL A   1      46.156  23.872  26.808  1.00  0.00     0.029 A 
ATOM     43  N   UNL A   1      45.960  26.028  27.364  1.00  0.00    -0.354 N 
ATOM     44  C   UNL A   1      42.097  27.716  28.375  1.00  0.00     0.074 A 
ATOM     45  C   UNL A   1      41.064  26.704  28.343  1.00  0.00     0.031 C 
ATOM     46  C   UNL A   1      47.375  24.428  26.702  1.00  0.00     0.029 A 
ATOM     47  C   UNL A   1      47.281  25.849  27.023  1.00  0.00     0.049 A 
ATOM     48  H   UNL A   1      45.593  26.892  27.662  1.00  0.00     0.167 HD
ATOM     49  C   UNL A   1      41.885  29.013  28.704  1.00  0.00     0.037 A 
ATOM     50  C   UNL A   1      48.294  26.734  26.960  1.00  0.00     0.037 A 
ATOM     51  C   UNL A   1      42.925  30.005  28.760  1.00  0.00     0.049 A 
ATOM     52  C   UNL A   1      48.033  28.173  27.321  1.00  0.00     0.074 A 
ATOM     53  C   UNL A   1      42.826  31.335  29.131  1.00  0.00     0.029 A 
ATOM     54  N   UNL A   1      44.255  29.778  28.438  1.00  0.00    -0.354 N 
ATOM     55  N   UNL A   1      46.907  28.740  27.685  1.00  0.00    -0.248 NA
ATOM     56  C   UNL A   1      49.179  29.092  27.270  1.00  0.00     0.031 C 
ATOM     57  C   UNL A   1      44.087  31.922  28.986  1.00  0.00     0.029 A 
ATOM     58  C   UNL A   1      44.985  30.946  28.583  1.00  0.00     0.049 A 
ATOM     59  H   UNL A   1      44.627  28.913  28.147  1.00  0.00     0.167 HD
ATOM     60  C   UNL A   1      47.217  30.071  27.942  1.00  0.00     0.074 A 
ATOM     61  C   UNL A   1      48.636  30.223  27.695  1.00  0.00     0.031 C 
ATOM     62  C   UNL A   1      46.402  31.074  28.352  1.00  0.00     0.037 A 
BRANCH  49  63
ATOM     63  C   UNL A   1      40.475  29.429  29.027  1.00  0.00     0.058 A 
ATOM     64  C   UNL A   1      40.059  29.670  30.347  1.00  0.00     0.135 A 
ATOM     65  C   UNL A   1      39.534  29.617  28.001  1.00  0.00     0.135 A 
ATOM     66  F   UNL A   1      40.910  29.489  31.369  1.00  0.00    -0.206 F 
ATOM     67  C   UNL A   1      38.753  30.048  30.640  1.00  0.00     0.059 A 
ATOM     68  C   UNL A   1      38.232  30.028  28.270  1.00  0.00     0.059 A 
ATOM     69  F   UNL A   1      39.876  29.401  26.721  1.00  0.00    -0.206 F 
ATOM     70  C   UNL A   1      37.847  30.225  29.594  1.00  0.00     0.060 A 
BRANCH  70  71
ATOM     71  S   UNL A   1      36.157  30.718  29.994  1.00  0.00     0.124 S 
ATOM     72  O   UNL A   1      36.294  32.167  30.097  1.00  0.00    -0.237 OA
ATOM     73  O   UNL A   1      35.409  30.232  28.838  1.00  0.00    -0.237 OA
ATOM     74  O   UNL A   1      35.886  30.023  31.248  1.00  0.00    -0.744 OA
ENDBRANCH  70  71
ENDBRANCH  49  63
BRANCH  50  75
ATOM     75  C   UNL A   1      49.654  26.282  26.557  1.00  0.00     0.058 A 
ATOM     76  C   UNL A   1      50.561  25.788  27.506  1.00  0.00     0.135 A 
ATOM     77  C   UNL A   1      50.070  26.323  25.217  1.00  0.00     0.135 A 
ATOM     78  F   UNL A   1      50.212  25.733  28.800  1.00  0.00    -0.206 F 
ATOM     79  C   UNL A   1      51.838  25.368  27.146  1.00  0.00     0.059 A 
ATOM     80  C   UNL A   1      51.332  25.883  24.828  1.00  0.00     0.059 A 
ATOM     81  F   UNL A   1      49.235  26.771  24.265  1.00  0.00    -0.206 F 
ATOM     82  C   UNL A   1      52.212  25.417  25.802  1.00  0.00     0.060 A 
BRANCH  82  83
ATOM     83  S   UNL A   1      53.856  24.825  25.341  1.00  0.00     0.124 S 
ATOM     84  O   UNL A   1      54.621  25.115  26.547  1.00  0.00    -0.237 OA
ATOM     85  O   UNL A   1      53.606  23.414  25.065  1.00  0.00    -0.237 OA
ATOM     86  O   UNL A   1      54.186  25.636  24.173  1.00  0.00    -0.744 OA
ENDBRANCH  82  83
ENDBRANCH  50  75
BRANCH  62  87
ATOM     87  C   UNL A   1      47.026  32.417  28.618  1.00  0.00     0.058 A 
ATOM     88  C   UNL A   1      47.575  32.748  29.866  1.00  0.00     0.135 A 
ATOM     89  C   UNL A   1      47.142  33.357  27.579  1.00  0.00     0.135 A 
ATOM     90  F   UNL A   1      47.485  31.888  30.894  1.00  0.00    -0.206 F 
ATOM     91  C   UNL A   1      48.200  33.972  30.082  1.00  0.00     0.059 A 
ATOM     92  C   UNL A   1      47.790  34.573  27.764  1.00  0.00     0.059 A 
ATOM     93  F   UNL A   1      46.644  33.085  26.363  1.00  0.00    -0.206 F 
ATOM     94  C   UNL A   1      48.309  34.875  29.022  1.00  0.00     0.060 A 
BRANCH  94  95
ATOM     95  S   UNL A   1      49.168  36.439  29.303  1.00  0.00     0.124 S 
ATOM     96  O   UNL A   1      48.528  37.306  28.320  1.00  0.00    -0.237 OA
ATOM     97  O   UNL A   1      48.852  36.721  30.699  1.00  0.00    -0.237 OA
ATOM     98  O   UNL A   1      50.566  36.112  29.037  1.00  0.00    -0.744 OA
ENDBRANCH  94  95
ENDBRANCH  62  87
ENDBRANCH  36  37
ENDBRANCH  28  31
ENDBRANCH  26  27
ENDBRANCH  25  26
ENDBRANCH  24  25
ENDBRANCH   1  24
TORSDOF 20
ENDMDL
MODEL 2
REMARK VINA RESULT:     -10.8      2.048      8.962
REMARK SMILES COc1ccc(CSc2ncccc2C(=O)NCCCCCCNC(=O)c2ccc(-c3c4nc(c(-c5c(F)cc(S(=O)(=O)[O-])cc5F)c5ccc([nH]5)c(-c5c(F)cc(S(=O)(=O)[O-])cc5F)c5nc(c(-c6c(F)cc(S(=O)(=O)[O-])cc6F)c6ccc3[nH]6)C=C5)C=C4)cc2)cc1
REMARK SMILES IDX 20 1 19 2 18 3 17 4 15 5 16 6 14 8 9 9 10 10 11 11 13 12
REMARK SMILES IDX 12 13 8 14 7 15 6 16 3 17 4 18 94 19 5 20 93 21 2 22 1 23
REMARK SMILES IDX 21 24 22 25 23 26 24 27 25 28 26 30 27 31 28 32 92 33 29 34
REMARK SMILES IDX 91 35 30 36 31 37 32 38 85 39 33 40 90 41 84 42 86 43 34 44
REMARK SMILES IDX 89 45 83 46 82 47 35 49 69 50 48 51 68 52 49 53 52 54 67 55
REMARK SMILES IDX 87 56 50 57 51 58 66 60 88 61 53 62 36 63 37 64 46 65 38 66
REMARK SMILES IDX 39 67 45 68 47 69 40 70 41 71 42 72 43 73 44 74 70 75 71 76
REMARK SMILES IDX 80 77 72 78 73 79 79 80 81 81 74 82 75 83 76 84 77 85 78 86
REMARK SMILES IDX 54 87 55 88 64 89 56 90 57 91 63 92 65 93 58 94 59 95 60 96
REMARK SMILES IDX 61 97 62 98
REMARK H PARENT 17 7 24 29 86 48 52 59
REMARK Flexibility Score: inf
ROOT
ATOM      1  C   UNL A   1      36.869  21.293  25.554  1.00  0.00     0.002 C 
ENDROOT
BRANCH   1   2
ATOM      2  C   UNL A   1      37.284  22.762  25.366  1.00  0.00     0.021 C 
BRANCH   2   3
ATOM      3  C   UNL A   1      36.202  23.746  25.827  1.00  0.00     0.116 C 
BRANCH   3   4
ATOM      4  N   UNL A   1      35.205  22.993  26.571  1.00  0.00    -0.352 N 
ATOM      5  C   UNL A   1      33.930  23.322  26.963  1.00  0.00     0.254 C 
ATOM      6  O   UNL A   1      33.528  22.856  28.027  1.00  0.00    -0.269 OA
ATOM      7  H   UNL A   1      35.495  22.091  26.841  1.00  0.00     0.163 HD
BRANCH   5   8
ATOM      8  C   UNL A   1      33.029  24.122  26.109  1.00  0.00     0.072 A 
ATOM      9  C   UNL A   1      32.026  23.528  25.329  1.00  0.00     0.109 A 
ATOM     10  N   UNL A   1      31.202  24.286  24.544  1.00  0.00    -0.249 NA
ATOM     11  C   UNL A   1      31.343  25.628  24.546  1.00  0.00     0.112 A 
ATOM     12  C   UNL A   1      33.098  25.524  26.134  1.00  0.00     0.018 A 
ATOM     13  C   UNL A   1      32.262  26.289  25.327  1.00  0.00     0.021 A 
BRANCH   9  14
ATOM     14  S   UNL A   1      31.468  21.831  25.311  1.00  0.00    -0.101 SA
BRANCH  14  15
ATOM     15  C   UNL A   1      32.337  21.022  23.939  1.00  0.00     0.112 C 
BRANCH  15  16
ATOM     16  C   UNL A   1      32.670  19.565  24.118  1.00  0.00    -0.037 A 
ATOM     17  C   UNL A   1      33.132  16.817  24.520  1.00  0.00     0.118 A 
ATOM     18  C   UNL A   1      32.909  17.317  23.237  1.00  0.00     0.047 A 
ATOM     19  C   UNL A   1      33.144  17.693  25.603  1.00  0.00     0.047 A 
ATOM     20  C   UNL A   1      32.671  18.679  23.035  1.00  0.00     0.008 A 
ATOM     21  C   UNL A   1      32.902  19.054  25.403  1.00  0.00     0.008 A 
BRANCH  17  22
ATOM     22  O   UNL A   1      33.344  15.467  24.591  1.00  0.00    -0.497 OA
ATOM     23  C   UNL A   1      32.538  14.763  25.530  1.00  0.00     0.278 C 
ENDBRANCH  17  22
ENDBRANCH  15  16
ENDBRANCH  14  15
ENDBRANCH   9  14
ENDBRANCH   5   8
ENDBRANCH   3   4
ENDBRANCH   2   3
ENDBRANCH   1   2
BRANCH   1  24
ATOM     24  C   UNL A   1      37.590  20.306  24.628  1.00  0.00     0.002 C 
BRANCH  24  25
ATOM     25  C   UNL A   1      38.540  19.348  25.346  1.00  0.00     0.021 C 
BRANCH  25  26
ATOM     26  C   UNL A   1      39.669  20.048  26.091  1.00  0.00     0.116 C 
BRANCH  26  27
ATOM     27  N   UNL A   1      40.827  19.179  26.241  1.00  0.00    -0.352 N 
ATOM     28  C   UNL A   1      42.150  19.536  26.318  1.00  0.00     0.251 C 
ATOM     29  H   UNL A   1      40.637  18.215  26.296  1.00  0.00     0.163 HD
ATOM     30  O   UNL A   1      43.032  18.688  26.202  1.00  0.00    -0.269 OA
BRANCH  28  31
ATOM     31  C   UNL A   1      42.494  20.956  26.525  1.00  0.00     0.039 A 
ATOM     32  C   UNL A   1      42.669  21.439  27.824  1.00  0.00     0.014 A 
ATOM     33  C   UNL A   1      42.669  21.798  25.422  1.00  0.00     0.014 A 
ATOM     34  C   UNL A   1      43.071  22.762  28.014  1.00  0.00     0.010 A 
ATOM     35  C   UNL A   1      43.144  23.089  25.613  1.00  0.00     0.010 A 
ATOM     36  C   UNL A   1      43.336  23.589  26.910  1.00  0.00    -0.014 A 
BRANCH  36  37
ATOM     37  C   UNL A   1      43.781  24.996  27.075  1.00  0.00     0.031 A 
ATOM     38  C   UNL A   1      45.228  25.342  26.854  1.00  0.00     0.074 A 
ATOM     39  C   UNL A   1      42.913  25.935  27.499  1.00  0.00     0.049 A 
ATOM     40  N   UNL A   1      45.853  26.470  27.074  1.00  0.00    -0.248 NA
ATOM     41  C   UNL A   1      46.096  24.264  26.351  1.00  0.00     0.031 C 
ATOM     42  C   UNL A   1      41.493  25.712  27.778  1.00  0.00     0.029 A 
ATOM     43  N   UNL A   1      43.102  27.263  27.788  1.00  0.00    -0.354 N 
ATOM     44  C   UNL A   1      47.186  26.230  26.758  1.00  0.00     0.074 A 
ATOM     45  C   UNL A   1      47.290  24.836  26.387  1.00  0.00     0.031 C 
ATOM     46  C   UNL A   1      40.938  26.866  28.186  1.00  0.00     0.029 A 
ATOM     47  C   UNL A   1      41.969  27.897  28.241  1.00  0.00     0.049 A 
ATOM     48  H   UNL A   1      43.969  27.718  27.682  1.00  0.00     0.167 HD
ATOM     49  C   UNL A   1      48.223  27.100  26.757  1.00  0.00     0.037 A 
ATOM     50  C   UNL A   1      41.788  29.163  28.667  1.00  0.00     0.037 A 
ATOM     51  C   UNL A   1      48.102  28.492  27.101  1.00  0.00     0.049 A 
ATOM     52  C   UNL A   1      42.959  30.110  28.666  1.00  0.00     0.074 A 
ATOM     53  C   UNL A   1      49.081  29.470  27.083  1.00  0.00     0.029 A 
ATOM     54  N   UNL A   1      46.932  29.104  27.524  1.00  0.00    -0.354 N 
ATOM     55  N   UNL A   1      44.204  29.882  28.320  1.00  0.00    -0.248 NA
ATOM     56  C   UNL A   1      42.702  31.488  29.107  1.00  0.00     0.031 C 
ATOM     57  C   UNL A   1      48.512  30.663  27.543  1.00  0.00     0.029 A 
ATOM     58  C   UNL A   1      47.166  30.443  27.789  1.00  0.00     0.049 A 
ATOM     59  H   UNL A   1      46.061  28.653  27.623  1.00  0.00     0.167 HD
ATOM     60  C   UNL A   1      44.869  31.095  28.465  1.00  0.00     0.074 A 
ATOM     61  C   UNL A   1      43.887  32.054  28.927  1.00  0.00     0.031 C 
ATOM     62  C   UNL A   1      46.171  31.389  28.230  1.00  0.00     0.037 A 
BRANCH  49  63
ATOM     63  C   UNL A   1      49.578  26.569  26.372  1.00  0.00     0.058 A 
ATOM     64  C   UNL A   1      50.387  25.874  27.285  1.00  0.00     0.135 A 
ATOM     65  C   UNL A   1      50.063  26.733  25.064  1.00  0.00     0.135 A 
ATOM     66  F   UNL A   1      49.983  25.702  28.554  1.00  0.00    -0.206 F 
ATOM     67  C   UNL A   1      51.642  25.392  26.926  1.00  0.00     0.059 A 
ATOM     68  C   UNL A   1      51.300  26.229  24.674  1.00  0.00     0.059 A 
ATOM     69  F   UNL A   1      49.333  27.391  24.149  1.00  0.00    -0.206 F 
ATOM     70  C   UNL A   1      52.089  25.574  25.618  1.00  0.00     0.060 A 
BRANCH  70  71
ATOM     71  S   UNL A   1      53.718  24.939  25.169  1.00  0.00     0.124 S 
ATOM     72  O   UNL A   1      54.535  25.426  26.275  1.00  0.00    -0.237 OA
ATOM     73  O   UNL A   1      53.491  23.497  25.134  1.00  0.00    -0.237 OA
ATOM     74  O   UNL A   1      53.981  25.560  23.874  1.00  0.00    -0.744 OA
ENDBRANCH  70  71
ENDBRANCH  49  63
BRANCH  50  75
ATOM     75  C   UNL A   1      40.441  29.613  29.112  1.00  0.00     0.058 A 
ATOM     76  C   UNL A   1      39.406  29.818  28.188  1.00  0.00     0.135 A 
ATOM     77  C   UNL A   1      40.157  29.836  30.469  1.00  0.00     0.135 A 
ATOM     78  F   UNL A   1      39.630  29.623  26.879  1.00  0.00    -0.206 F 
ATOM     79  C   UNL A   1      38.145  30.245  28.587  1.00  0.00     0.059 A 
ATOM     80  C   UNL A   1      38.895  30.237  30.896  1.00  0.00     0.059 A 
ATOM     81  F   UNL A   1      41.107  29.638  31.398  1.00  0.00    -0.206 F 
ATOM     82  C   UNL A   1      37.898  30.449  29.946  1.00  0.00     0.060 A 
BRANCH  82  83
ATOM     83  S   UNL A   1      36.242  30.959  30.457  1.00  0.00     0.124 S 
ATOM     84  O   UNL A   1      35.903  29.925  31.428  1.00  0.00    -0.237 OA
ATOM     85  O   UNL A   1      36.486  32.291  30.999  1.00  0.00    -0.237 OA
ATOM     86  O   UNL A   1      35.483  30.927  29.210  1.00  0.00    -0.744 OA
ENDBRANCH  82  83
ENDBRANCH  50  75
BRANCH  62  87
ATOM     87  C   UNL A   1      46.609  32.817  28.411  1.00  0.00     0.058 A 
ATOM     88  C   UNL A   1      47.152  33.282  29.618  1.00  0.00     0.135 A 
ATOM     89  C   UNL A   1      46.550  33.712  27.329  1.00  0.00     0.135 A 
ATOM     90  F   UNL A   1      47.225  32.468  30.683  1.00  0.00    -0.206 F 
ATOM     91  C   UNL A   1      47.605  34.590  29.753  1.00  0.00     0.059 A 
ATOM     92  C   UNL A   1      47.025  35.015  27.432  1.00  0.00     0.059 A 
ATOM     93  F   UNL A   1      46.049  33.316  26.149  1.00  0.00    -0.206 F 
ATOM     94  C   UNL A   1      47.544  35.447  28.652  1.00  0.00     0.060 A 
BRANCH  94  95
ATOM     95  S   UNL A   1      48.182  37.127  28.828  1.00  0.00     0.124 S 
ATOM     96  O   UNL A   1      47.408  37.843  27.820  1.00  0.00    -0.237 OA
ATOM     97  O   UNL A   1      47.860  37.439  30.216  1.00  0.00    -0.237 OA
ATOM     98  O   UNL A   1      49.606  36.982  28.539  1.00  0.00    -0.744 OA
ENDBRANCH  94  95
ENDBRANCH  62  87
ENDBRANCH  36  37
ENDBRANCH  28  31
ENDBRANCH  26  27
ENDBRANCH  25  26
ENDBRANCH  24  25
ENDBRANCH   1  24
TORSDOF 20
ENDMDL
MODEL 3
REMARK VINA RESULT:     -10.6      4.380      9.777
REMARK SMILES COc1ccc(CSc2ncccc2C(=O)NCCCCCCNC(=O)c2ccc(-c3c4nc(c(-c5c(F)cc(S(=O)(=O)[O-])cc5F)c5ccc([nH]5)c(-c5c(F)cc(S(=O)(=O)[O-])cc5F)c5nc(c(-c6c(F)cc(S(=O)(=O)[O-])cc6F)c6ccc3[nH]6)C=C5)C=C4)cc2)cc1
REMARK SMILES IDX 20 1 19 2 18 3 17 4 15 5 16 6 14 8 9 9 10 10 11 11 13 12
REMARK SMILES IDX 12 13 8 14 7 15 6 16 3 17 4 18 94 19 5 20 93 21 2 22 1 23
REMARK SMILES IDX 21 24 22 25 23 26 24 27 25 28 26 30 27 31 28 32 92 33 29 34
REMARK SMILES IDX 91 35 30 36 31 37 32 38 85 39 33 40 90 41 84 42 86 43 34 44
REMARK SMILES IDX 89 45 83 46 82 47 35 49 69 50 48 51 68 52 49 53 52 54 67 55
REMARK SMILES IDX 87 56 50 57 51 58 66 60 88 61 53 62 36 63 37 64 46 65 38 66
REMARK SMILES IDX 39 67 45 68 47 69 40 70 41 71 42 72 43 73 44 74 70 75 71 76
REMARK SMILES IDX 80 77 72 78 73 79 79 80 81 81 74 82 75 83 76 84 77 85 78 86
REMARK SMILES IDX 54 87 55 88 64 89 56 90 57 91 63 92 65 93 58 94 59 95 60 96
REMARK SMILES IDX 61 97 62 98
REMARK H PARENT 17 7 24 29 86 48 52 59
REMARK Flexibility Score: inf
ROOT
ATOM      1  C   UNL A   1      34.318  24.913  23.640  1.00  0.00     0.002 C 
ENDROOT
BRANCH   1   2
ATOM      2  C   UNL A   1      33.209  25.223  22.620  1.00  0.00     0.021 C 
BRANCH   2   3
ATOM      3  C   UNL A   1      32.851  26.712  22.570  1.00  0.00     0.116 C 
BRANCH   3   4
ATOM      4  N   UNL A   1      31.407  26.826  22.704  1.00  0.00    -0.352 N 
ATOM      5  C   UNL A   1      30.625  27.233  23.758  1.00  0.00     0.254 C 
ATOM      6  O   UNL A   1      29.526  26.699  23.886  1.00  0.00    -0.269 OA
ATOM      7  H   UNL A   1      30.902  26.564  21.900  1.00  0.00     0.163 HD
BRANCH   5   8
ATOM      8  C   UNL A   1      31.030  28.335  24.655  1.00  0.00     0.072 A 
ATOM      9  C   UNL A   1      31.834  28.115  25.783  1.00  0.00     0.109 A 
ATOM     10  N   UNL A   1      32.199  29.148  26.602  1.00  0.00    -0.249 NA
ATOM     11  C   UNL A   1      31.799  30.400  26.298  1.00  0.00     0.112 A 
ATOM     12  C   UNL A   1      30.692  29.660  24.338  1.00  0.00     0.018 A 
ATOM     13  C   UNL A   1      31.059  30.706  25.180  1.00  0.00     0.021 A 
BRANCH   9  14
ATOM     14  S   UNL A   1      32.687  26.628  26.287  1.00  0.00    -0.101 SA
BRANCH  14  15
ATOM     15  C   UNL A   1      31.446  25.305  26.297  1.00  0.00     0.112 C 
BRANCH  15  16
ATOM     16  C   UNL A   1      31.958  23.900  26.129  1.00  0.00    -0.037 A 
ATOM     17  C   UNL A   1      32.855  21.235  25.977  1.00  0.00     0.118 A 
ATOM     18  C   UNL A   1      31.731  21.646  25.258  1.00  0.00     0.047 A 
ATOM     19  C   UNL A   1      33.544  22.161  26.756  1.00  0.00     0.047 A 
ATOM     20  C   UNL A   1      31.279  22.965  25.339  1.00  0.00     0.008 A 
ATOM     21  C   UNL A   1      33.090  23.479  26.841  1.00  0.00     0.008 A 
BRANCH  17  22
ATOM     22  O   UNL A   1      33.195  19.919  25.824  1.00  0.00    -0.497 OA
ATOM     23  C   UNL A   1      33.850  19.587  24.604  1.00  0.00     0.278 C 
ENDBRANCH  17  22
ENDBRANCH  15  16
ENDBRANCH  14  15
ENDBRANCH   9  14
ENDBRANCH   5   8
ENDBRANCH   3   4
ENDBRANCH   2   3
ENDBRANCH   1   2
BRANCH   1  24
ATOM     24  C   UNL A   1      34.940  23.519  23.497  1.00  0.00     0.002 C 
BRANCH  24  25
ATOM     25  C   UNL A   1      36.468  23.504  23.534  1.00  0.00     0.021 C 
BRANCH  25  26
ATOM     26  C   UNL A   1      37.049  23.708  24.927  1.00  0.00     0.116 C 
BRANCH  26  27
ATOM     27  N   UNL A   1      37.962  22.632  25.286  1.00  0.00    -0.352 N 
ATOM     28  C   UNL A   1      39.136  22.717  25.990  1.00  0.00     0.251 C 
ATOM     29  H   UNL A   1      37.704  21.731  24.986  1.00  0.00     0.163 HD
ATOM     30  O   UNL A   1      39.920  21.772  26.011  1.00  0.00    -0.269 OA
BRANCH  28  31
ATOM     31  C   UNL A   1      39.447  23.969  26.709  1.00  0.00     0.039 A 
ATOM     32  C   UNL A   1      38.928  24.174  27.989  1.00  0.00     0.014 A 
ATOM     33  C   UNL A   1      40.279  24.923  26.116  1.00  0.00     0.014 A 
ATOM     34  C   UNL A   1      39.287  25.323  28.697  1.00  0.00     0.010 A 
ATOM     35  C   UNL A   1      40.695  26.024  26.853  1.00  0.00     0.010 A 
ATOM     36  C   UNL A   1      40.192  26.243  28.145  1.00  0.00    -0.014 A 
BRANCH  36  37
ATOM     37  C   UNL A   1      40.609  27.466  28.876  1.00  0.00     0.031 A 
ATOM     38  C   UNL A   1      41.932  27.481  29.593  1.00  0.00     0.074 A 
ATOM     39  C   UNL A   1      39.774  28.519  28.965  1.00  0.00     0.049 A 
ATOM     40  N   UNL A   1      42.426  28.386  30.398  1.00  0.00    -0.248 NA
ATOM     41  C   UNL A   1      42.798  26.305  29.408  1.00  0.00     0.031 C 
ATOM     42  C   UNL A   1      38.452  28.607  28.339  1.00  0.00     0.029 A 
ATOM     43  N   UNL A   1      39.904  29.711  29.632  1.00  0.00    -0.354 N 
ATOM     44  C   UNL A   1      43.647  27.878  30.830  1.00  0.00     0.074 A 
ATOM     45  C   UNL A   1      43.791  26.564  30.244  1.00  0.00     0.031 C 
ATOM     46  C   UNL A   1      37.901  29.794  28.643  1.00  0.00     0.029 A 
ATOM     47  C   UNL A   1      38.806  30.531  29.519  1.00  0.00     0.049 A 
ATOM     48  H   UNL A   1      40.708  29.955  30.145  1.00  0.00     0.167 HD
ATOM     49  C   UNL A   1      44.572  28.466  31.625  1.00  0.00     0.037 A 
ATOM     50  C   UNL A   1      38.553  31.733  30.074  1.00  0.00     0.037 A 
ATOM     51  C   UNL A   1      44.430  29.786  32.180  1.00  0.00     0.049 A 
ATOM     52  C   UNL A   1      39.593  32.363  30.962  1.00  0.00     0.074 A 
ATOM     53  C   UNL A   1      45.331  30.494  32.956  1.00  0.00     0.029 A 
ATOM     54  N   UNL A   1      43.317  30.597  32.017  1.00  0.00    -0.354 N 
ATOM     55  N   UNL A   1      40.763  31.892  31.324  1.00  0.00    -0.248 NA
ATOM     56  C   UNL A   1      39.283  33.689  31.515  1.00  0.00     0.031 C 
ATOM     57  C   UNL A   1      44.742  31.714  33.302  1.00  0.00     0.029 A 
ATOM     58  C   UNL A   1      43.499  31.792  32.692  1.00  0.00     0.049 A 
ATOM     59  H   UNL A   1      42.515  30.359  31.497  1.00  0.00     0.167 HD
ATOM     60  C   UNL A   1      41.344  32.878  32.113  1.00  0.00     0.074 A 
ATOM     61  C   UNL A   1      40.397  33.973  32.174  1.00  0.00     0.031 C 
ATOM     62  C   UNL A   1      42.554  32.880  32.726  1.00  0.00     0.037 A 
BRANCH  49  63
ATOM     63  C   UNL A   1      45.818  27.683  31.941  1.00  0.00     0.058 A 
ATOM     64  C   UNL A   1      45.871  26.777  33.013  1.00  0.00     0.135 A 
ATOM     65  C   UNL A   1      46.968  27.820  31.145  1.00  0.00     0.135 A 
ATOM     66  F   UNL A   1      44.809  26.618  33.818  1.00  0.00    -0.206 F 
ATOM     67  C   UNL A   1      47.027  26.061  33.305  1.00  0.00     0.059 A 
ATOM     68  C   UNL A   1      48.124  27.088  31.398  1.00  0.00     0.059 A 
ATOM     69  F   UNL A   1      46.975  28.672  30.108  1.00  0.00    -0.206 F 
ATOM     70  C   UNL A   1      48.149  26.223  32.491  1.00  0.00     0.060 A 
BRANCH  70  71
ATOM     71  S   UNL A   1      49.640  25.285  32.883  1.00  0.00     0.124 S 
ATOM     72  O   UNL A   1      49.113  24.266  33.784  1.00  0.00    -0.237 OA
ATOM     73  O   UNL A   1      50.064  24.811  31.568  1.00  0.00    -0.237 OA
ATOM     74  O   UNL A   1      50.515  26.276  33.500  1.00  0.00    -0.744 OA
ENDBRANCH  70  71
ENDBRANCH  49  63
BRANCH  50  75
ATOM     75  C   UNL A   1      37.268  32.428  29.790  1.00  0.00     0.058 A 
ATOM     76  C   UNL A   1      37.214  33.508  28.896  1.00  0.00     0.135 A 
ATOM     77  C   UNL A   1      36.068  32.022  30.395  1.00  0.00     0.135 A 
ATOM     78  F   UNL A   1      38.335  33.938  28.297  1.00  0.00    -0.206 F 
ATOM     79  C   UNL A   1      36.023  34.173  28.626  1.00  0.00     0.059 A 
ATOM     80  C   UNL A   1      34.859  32.653  30.118  1.00  0.00     0.059 A 
ATOM     81  F   UNL A   1      36.060  30.982  31.245  1.00  0.00    -0.206 F 
ATOM     82  C   UNL A   1      34.848  33.734  29.240  1.00  0.00     0.060 A 
BRANCH  82  83
ATOM     83  S   UNL A   1      33.299  34.576  28.845  1.00  0.00     0.124 S 
ATOM     84  O   UNL A   1      32.670  34.664  30.157  1.00  0.00    -0.237 OA
ATOM     85  O   UNL A   1      33.772  35.833  28.275  1.00  0.00    -0.237 OA
ATOM     86  O   UNL A   1      32.659  33.668  27.898  1.00  0.00    -0.744 OA
ENDBRANCH  82  83
ENDBRANCH  50  75
BRANCH  62  87
ATOM     87  C   UNL A   1      42.957  34.124  33.471  1.00  0.00     0.058 A 
ATOM     88  C   UNL A   1      42.794  34.245  34.859  1.00  0.00     0.135 A 
ATOM     89  C   UNL A   1      43.587  35.179  32.789  1.00  0.00     0.135 A 
ATOM     90  F   UNL A   1      42.192  33.269  35.557  1.00  0.00    -0.206 F 
ATOM     91  C   UNL A   1      43.224  35.378  35.543  1.00  0.00     0.059 A 
ATOM     92  C   UNL A   1      44.052  36.306  33.457  1.00  0.00     0.059 A 
ATOM     93  F   UNL A   1      43.777  35.108  31.462  1.00  0.00    -0.206 F 
ATOM     94  C   UNL A   1      43.858  36.400  34.834  1.00  0.00     0.060 A 
BRANCH  94  95
ATOM     95  S   UNL A   1      44.456  37.841  35.743  1.00  0.00     0.124 S 
ATOM     96  O   UNL A   1      44.212  38.914  34.786  1.00  0.00    -0.237 OA
ATOM     97  O   UNL A   1      43.602  37.839  36.926  1.00  0.00    -0.237 OA
ATOM     98  O   UNL A   1      45.861  37.528  35.991  1.00  0.00    -0.744 OA
ENDBRANCH  94  95
ENDBRANCH  62  87
ENDBRANCH  36  37
ENDBRANCH  28  31
ENDBRANCH  26  27
ENDBRANCH  25  26
ENDBRANCH  24  25
ENDBRANCH   1  24
TORSDOF 20
ENDMDL
