MODEL 1
REMARK VINA RESULT:     -11.0      0.000      0.000
REMARK SMILES CC(C)CCc1cc2c(cc1Cl)C=C(C(=O)NCCCCCCNC(=O)c1ccc(-c3c4nc(c(-c5c(F)cc(S(=O)(=O)[O-])cc5F)c5ccc([nH]5)c(-c5c(F)cc(S(=O)(=O)[O-])cc5F)c5nc(c(-c6c(F)cc(S(=O)(=O)[O-])cc6F)c6ccc3[nH]6)C=C5)C=C4)cc1)[C@@H](C(F)(F)F)O2
REMARK SMILES IDX 20 1 19 2 18 3 17 4 15 5 16 6 14 8 6 9 7 10 11 11 8 12 10 13
REMARK SMILES IDX 12 14 9 15 98 16 13 17 93 18 5 19 4 20 2 21 1 22 3 23 94 24
REMARK SMILES IDX 95 25 96 26 97 27 21 28 22 29 23 30 24 31 25 32 26 34 27 35
REMARK SMILES IDX 28 36 92 37 29 38 91 39 30 40 31 41 32 42 85 43 33 44 90 45
REMARK SMILES IDX 84 46 86 47 34 48 89 49 83 50 82 51 35 53 69 54 48 55 68 56
REMARK SMILES IDX 49 57 52 58 67 59 87 60 50 61 51 62 66 64 88 65 53 66 36 67
REMARK SMILES IDX 37 68 46 69 38 70 39 71 45 72 47 73 40 74 41 75 42 76 43 77
REMARK SMILES IDX 44 78 70 79 71 80 80 81 72 82 73 83 79 84 81 85 74 86 75 87
REMARK SMILES IDX 76 88 77 89 78 90 54 91 55 92 64 93 56 94 57 95 63 96 65 97
REMARK SMILES IDX 58 98 59 99 60 100 61 101 62 102
REMARK H PARENT 17 7 24 33 86 52 52 63
REMARK Flexibility Score: inf
ROOT
ATOM      1  C   UNL A   1      34.950  29.951  28.061  1.00  0.00     0.002 C 
ENDROOT
BRANCH   1   2
ATOM      2  C   UNL A   1      34.684  29.298  26.702  1.00  0.00     0.021 C 
BRANCH   2   3
ATOM      3  C   UNL A   1      33.309  29.590  26.116  1.00  0.00     0.116 C 
BRANCH   3   4
ATOM      4  N   UNL A   1      33.316  29.597  24.668  1.00  0.00    -0.352 N 
ATOM      5  C   UNL A   1      33.030  28.699  23.698  1.00  0.00     0.251 C 
ATOM      6  O   UNL A   1      33.130  29.114  22.539  1.00  0.00    -0.270 OA
ATOM      7  H   UNL A   1      33.598  30.467  24.300  1.00  0.00     0.163 HD
BRANCH   5   8
ATOM      8  C   UNL A   1      32.648  27.277  23.945  1.00  0.00     0.067 C 
ATOM      9  C   UNL A   1      33.007  22.258  24.547  1.00  0.00    -0.026 A 
ATOM     10  C   UNL A   1      31.962  23.197  24.644  1.00  0.00     0.052 A 
ATOM     11  C   UNL A   1      34.279  22.745  24.204  1.00  0.00     0.045 A 
ATOM     12  C   UNL A   1      32.179  24.552  24.391  1.00  0.00     0.128 A 
ATOM     13  C   UNL A   1      34.464  24.085  23.848  1.00  0.00     0.032 A 
ATOM     14  Cl  UNL A   1      35.728  21.819  24.346  1.00  0.00    -0.084 Cl
ATOM     15  C   UNL A   1      33.417  24.995  23.954  1.00  0.00     0.019 A 
ATOM     16  O   UNL A   1      31.129  25.377  24.631  1.00  0.00    -0.475 OA
ATOM     17  C   UNL A   1      33.637  26.404  23.692  1.00  0.00     0.025 C 
ATOM     18  C   UNL A   1      31.295  26.809  24.423  1.00  0.00     0.314 C 
BRANCH   9  19
ATOM     19  C   UNL A   1      32.687  20.819  24.897  1.00  0.00     0.037 C 
BRANCH  19  20
ATOM     20  C   UNL A   1      32.656  19.815  23.726  1.00  0.00     0.008 C 
BRANCH  20  21
ATOM     21  C   UNL A   1      32.407  18.340  24.093  1.00  0.00    -0.017 C 
ATOM     22  C   UNL A   1      33.254  17.373  23.261  1.00  0.00     0.007 C 
ATOM     23  C   UNL A   1      32.681  18.087  25.578  1.00  0.00     0.007 C 
ENDBRANCH  20  21
ENDBRANCH  19  20
ENDBRANCH   9  19
BRANCH  18  24
ATOM     24  C   UNL A   1      30.130  27.241  23.519  1.00  0.00     0.429 C 
ATOM     25  F   UNL A   1      29.785  28.525  23.784  1.00  0.00    -0.167 F 
ATOM     26  F   UNL A   1      30.424  27.188  22.201  1.00  0.00    -0.167 F 
ATOM     27  F   UNL A   1      29.031  26.474  23.711  1.00  0.00    -0.167 F 
ENDBRANCH  18  24
ENDBRANCH   5   8
ENDBRANCH   3   4
ENDBRANCH   2   3
ENDBRANCH   1   2
BRANCH   1  28
ATOM     28  C   UNL A   1      35.145  31.472  28.040  1.00  0.00     0.002 C 
BRANCH  28  29
ATOM     29  C   UNL A   1      33.864  32.307  28.093  1.00  0.00     0.021 C 
BRANCH  29  30
ATOM     30  C   UNL A   1      34.042  33.778  27.747  1.00  0.00     0.116 C 
BRANCH  30  31
ATOM     31  N   UNL A   1      33.178  34.644  28.534  1.00  0.00    -0.352 N 
ATOM     32  C   UNL A   1      33.218  34.897  29.884  1.00  0.00     0.251 C 
ATOM     33  H   UNL A   1      32.471  35.109  28.033  1.00  0.00     0.163 HD
ATOM     34  O   UNL A   1      32.315  35.531  30.422  1.00  0.00    -0.269 OA
BRANCH  32  35
ATOM     35  C   UNL A   1      34.344  34.370  30.682  1.00  0.00     0.039 A 
ATOM     36  C   UNL A   1      35.645  34.817  30.446  1.00  0.00     0.014 A 
ATOM     37  C   UNL A   1      34.099  33.384  31.641  1.00  0.00     0.014 A 
ATOM     38  C   UNL A   1      36.715  34.164  31.046  1.00  0.00     0.010 A 
ATOM     39  C   UNL A   1      35.172  32.789  32.309  1.00  0.00     0.010 A 
ATOM     40  C   UNL A   1      36.491  33.140  31.981  1.00  0.00    -0.014 A 
BRANCH  40  41
ATOM     41  C   UNL A   1      37.655  32.447  32.596  1.00  0.00     0.031 A 
ATOM     42  C   UNL A   1      38.348  31.322  31.873  1.00  0.00     0.074 A 
ATOM     43  C   UNL A   1      38.121  32.877  33.784  1.00  0.00     0.049 A 
ATOM     44  N   UNL A   1      39.379  30.612  32.254  1.00  0.00    -0.248 NA
ATOM     45  C   UNL A   1      37.815  30.942  30.555  1.00  0.00     0.031 C 
ATOM     46  C   UNL A   1      37.543  33.970  34.570  1.00  0.00     0.029 A 
ATOM     47  N   UNL A   1      39.200  32.471  34.528  1.00  0.00    -0.354 N 
ATOM     48  C   UNL A   1      39.609  29.694  31.236  1.00  0.00     0.074 A 
ATOM     49  C   UNL A   1      38.589  29.914  30.232  1.00  0.00     0.031 C 
ATOM     50  C   UNL A   1      38.303  34.183  35.654  1.00  0.00     0.029 A 
ATOM     51  C   UNL A   1      39.381  33.202  35.678  1.00  0.00     0.049 A 
ATOM     52  H   UNL A   1      39.788  31.727  34.263  1.00  0.00     0.167 HD
ATOM     53  C   UNL A   1      40.589  28.764  31.139  1.00  0.00     0.037 A 
ATOM     54  C   UNL A   1      40.304  33.088  36.652  1.00  0.00     0.037 A 
ATOM     55  C   UNL A   1      41.614  28.563  32.131  1.00  0.00     0.049 A 
ATOM     56  C   UNL A   1      41.348  32.014  36.546  1.00  0.00     0.074 A 
ATOM     57  C   UNL A   1      42.659  27.657  32.118  1.00  0.00     0.029 A 
ATOM     58  N   UNL A   1      41.724  29.282  33.313  1.00  0.00    -0.354 N 
ATOM     59  N   UNL A   1      41.546  31.153  35.577  1.00  0.00    -0.248 NA
ATOM     60  C   UNL A   1      42.285  31.886  37.669  1.00  0.00     0.031 C 
ATOM     61  C   UNL A   1      43.377  27.799  33.310  1.00  0.00     0.029 A 
ATOM     62  C   UNL A   1      42.807  28.825  34.047  1.00  0.00     0.049 A 
ATOM     63  H   UNL A   1      41.122  30.010  33.590  1.00  0.00     0.167 HD
ATOM     64  C   UNL A   1      42.634  30.383  35.971  1.00  0.00     0.074 A 
ATOM     65  C   UNL A   1      43.065  30.897  37.256  1.00  0.00     0.031 C 
ATOM     66  C   UNL A   1      43.219  29.342  35.329  1.00  0.00     0.037 A 
BRANCH  53  67
ATOM     67  C   UNL A   1      40.601  27.880  29.920  1.00  0.00     0.058 A 
ATOM     68  C   UNL A   1      41.565  28.031  28.910  1.00  0.00     0.135 A 
ATOM     69  C   UNL A   1      39.671  26.836  29.786  1.00  0.00     0.135 A 
ATOM     70  F   UNL A   1      42.468  29.022  28.980  1.00  0.00    -0.206 F 
ATOM     71  C   UNL A   1      41.592  27.192  27.800  1.00  0.00     0.059 A 
ATOM     72  C   UNL A   1      39.695  25.970  28.696  1.00  0.00     0.059 A 
ATOM     73  F   UNL A   1      38.728  26.646  30.722  1.00  0.00    -0.206 F 
ATOM     74  C   UNL A   1      40.654  26.164  27.702  1.00  0.00     0.060 A 
BRANCH  74  75
ATOM     75  S   UNL A   1      40.711  25.082  26.257  1.00  0.00     0.124 S 
ATOM     76  O   UNL A   1      39.322  24.643  26.168  1.00  0.00    -0.237 OA
ATOM     77  O   UNL A   1      41.156  25.992  25.206  1.00  0.00    -0.237 OA
ATOM     78  O   UNL A   1      41.671  24.051  26.639  1.00  0.00    -0.744 OA
ENDBRANCH  74  75
ENDBRANCH  53  67
BRANCH  54  79
ATOM     79  C   UNL A   1      40.269  34.021  37.809  1.00  0.00     0.058 A 
ATOM     80  C   UNL A   1      39.477  33.743  38.933  1.00  0.00     0.135 A 
ATOM     81  C   UNL A   1      41.060  35.180  37.834  1.00  0.00     0.135 A 
ATOM     82  F   UNL A   1      38.699  32.650  38.952  1.00  0.00    -0.206 F 
ATOM     83  C   UNL A   1      39.472  34.581  40.043  1.00  0.00     0.059 A 
ATOM     84  C   UNL A   1      41.092  36.020  38.942  1.00  0.00     0.059 A 
ATOM     85  F   UNL A   1      41.845  35.482  36.788  1.00  0.00    -0.206 F 
ATOM     86  C   UNL A   1      40.290  35.713  40.040  1.00  0.00     0.060 A 
BRANCH  86  87
ATOM     87  S   UNL A   1      40.330  36.753  41.516  1.00  0.00     0.124 S 
ATOM     88  O   UNL A   1      41.412  37.676  41.196  1.00  0.00    -0.237 OA
ATOM     89  O   UNL A   1      38.985  37.322  41.523  1.00  0.00    -0.237 OA
ATOM     90  O   UNL A   1      40.606  35.804  42.590  1.00  0.00    -0.744 OA
ENDBRANCH  86  87
ENDBRANCH  54  79
BRANCH  66  91
ATOM     91  C   UNL A   1      44.392  28.688  36.000  1.00  0.00     0.058 A 
ATOM     92  C   UNL A   1      44.226  27.576  36.841  1.00  0.00     0.135 A 
ATOM     93  C   UNL A   1      45.700  29.134  35.749  1.00  0.00     0.135 A 
ATOM     94  F   UNL A   1      42.996  27.118  37.118  1.00  0.00    -0.206 F 
ATOM     95  C   UNL A   1      45.316  26.936  37.420  1.00  0.00     0.059 A 
ATOM     96  C   UNL A   1      46.806  28.493  36.298  1.00  0.00     0.059 A 
ATOM     97  F   UNL A   1      45.912  30.188  34.946  1.00  0.00    -0.206 F 
ATOM     98  C   UNL A   1      46.603  27.399  37.138  1.00  0.00     0.060 A 
BRANCH  98  99
ATOM     99  S   UNL A   1      48.010  26.529  37.862  1.00  0.00     0.124 S 
ATOM    100  O   UNL A   1      47.447  26.055  39.121  1.00  0.00    -0.237 OA
ATOM    101  O   UNL A   1      48.285  25.500  36.863  1.00  0.00    -0.237 OA
ATOM    102  O   UNL A   1      49.029  27.567  37.980  1.00  0.00    -0.744 OA
ENDBRANCH  98  99
ENDBRANCH  66  91
ENDBRANCH  40  41
ENDBRANCH  32  35
ENDBRANCH  30  31
ENDBRANCH  29  30
ENDBRANCH  28  29
ENDBRANCH   1  28
TORSDOF 20
ENDMDL
MODEL 2
REMARK VINA RESULT:     -10.9      4.573      5.931
REMARK SMILES CC(C)CCc1cc2c(cc1Cl)C=C(C(=O)NCCCCCCNC(=O)c1ccc(-c3c4nc(c(-c5c(F)cc(S(=O)(=O)[O-])cc5F)c5ccc([nH]5)c(-c5c(F)cc(S(=O)(=O)[O-])cc5F)c5nc(c(-c6c(F)cc(S(=O)(=O)[O-])cc6F)c6ccc3[nH]6)C=C5)C=C4)cc1)[C@@H](C(F)(F)F)O2
REMARK SMILES IDX 20 1 19 2 18 3 17 4 15 5 16 6 14 8 6 9 7 10 11 11 8 12 10 13
REMARK SMILES IDX 12 14 9 15 98 16 13 17 93 18 5 19 4 20 2 21 1 22 3 23 94 24
REMARK SMILES IDX 95 25 96 26 97 27 21 28 22 29 23 30 24 31 25 32 26 34 27 35
REMARK SMILES IDX 28 36 92 37 29 38 91 39 30 40 31 41 32 42 85 43 33 44 90 45
REMARK SMILES IDX 84 46 86 47 34 48 89 49 83 50 82 51 35 53 69 54 48 55 68 56
REMARK SMILES IDX 49 57 52 58 67 59 87 60 50 61 51 62 66 64 88 65 53 66 36 67
REMARK SMILES IDX 37 68 46 69 38 70 39 71 45 72 47 73 40 74 41 75 42 76 43 77
REMARK SMILES IDX 44 78 70 79 71 80 80 81 72 82 73 83 79 84 81 85 74 86 75 87
REMARK SMILES IDX 76 88 77 89 78 90 54 91 55 92 64 93 56 94 57 95 63 96 65 97
REMARK SMILES IDX 58 98 59 99 60 100 61 101 62 102
REMARK H PARENT 17 7 24 33 86 52 52 63
REMARK Flexibility Score: inf
ROOT
ATOM      1  C   UNL A   1      34.200  28.883  23.459  1.00  0.00     0.002 C 
ENDROOT
BRANCH   1   2
ATOM      2  C   UNL A   1      33.436  28.377  22.234  1.00  0.00     0.021 C 
BRANCH   2   3
ATOM      3  C   UNL A   1      33.041  26.907  22.295  1.00  0.00     0.116 C 
BRANCH   3   4
ATOM      4  N   UNL A   1      31.636  26.725  22.600  1.00  0.00    -0.352 N 
ATOM      5  C   UNL A   1      30.905  25.794  23.253  1.00  0.00     0.251 C 
ATOM      6  O   UNL A   1      29.693  26.024  23.329  1.00  0.00    -0.270 OA
ATOM      7  H   UNL A   1      31.080  27.456  22.245  1.00  0.00     0.163 HD
BRANCH   5   8
ATOM      8  C   UNL A   1      31.458  24.535  23.834  1.00  0.00     0.067 C 
ATOM      9  C   UNL A   1      32.945  19.709  24.263  1.00  0.00    -0.026 A 
ATOM     10  C   UNL A   1      32.987  20.838  25.102  1.00  0.00     0.052 A 
ATOM     11  C   UNL A   1      32.369  19.873  22.992  1.00  0.00     0.045 A 
ATOM     12  C   UNL A   1      32.460  22.065  24.695  1.00  0.00     0.128 A 
ATOM     13  C   UNL A   1      31.748  21.074  22.634  1.00  0.00     0.032 A 
ATOM     14  Cl  UNL A   1      32.510  18.715  21.722  1.00  0.00    -0.084 Cl
ATOM     15  C   UNL A   1      31.805  22.178  23.480  1.00  0.00     0.019 A 
ATOM     16  O   UNL A   1      32.663  23.109  25.537  1.00  0.00    -0.475 OA
ATOM     17  C   UNL A   1      31.259  23.454  23.061  1.00  0.00     0.025 C 
ATOM     18  C   UNL A   1      32.171  24.426  25.159  1.00  0.00     0.314 C 
BRANCH   9  19
ATOM     19  C   UNL A   1      33.594  18.437  24.771  1.00  0.00     0.037 C 
BRANCH  19  20
ATOM     20  C   UNL A   1      32.658  17.236  25.016  1.00  0.00     0.008 C 
BRANCH  20  21
ATOM     21  C   UNL A   1      33.267  15.838  24.800  1.00  0.00    -0.017 C 
ATOM     22  C   UNL A   1      34.772  15.798  25.082  1.00  0.00     0.007 C 
ATOM     23  C   UNL A   1      32.571  14.791  25.675  1.00  0.00     0.007 C 
ENDBRANCH  20  21
ENDBRANCH  19  20
ENDBRANCH   9  19
BRANCH  18  24
ATOM     24  C   UNL A   1      31.347  24.927  26.355  1.00  0.00     0.429 C 
ATOM     25  F   UNL A   1      30.073  24.468  26.269  1.00  0.00    -0.167 F 
ATOM     26  F   UNL A   1      31.823  24.510  27.548  1.00  0.00    -0.167 F 
ATOM     27  F   UNL A   1      31.292  26.278  26.401  1.00  0.00    -0.167 F 
ENDBRANCH  18  24
ENDBRANCH   5   8
ENDBRANCH   3   4
ENDBRANCH   2   3
ENDBRANCH   1   2
BRANCH   1  28
ATOM     28  C   UNL A   1      33.435  28.828  24.787  1.00  0.00     0.002 C 
BRANCH  28  29
ATOM     29  C   UNL A   1      34.063  27.961  25.880  1.00  0.00     0.021 C 
BRANCH  29  30
ATOM     30  C   UNL A   1      33.582  28.259  27.293  1.00  0.00     0.116 C 
BRANCH  30  31
ATOM     31  N   UNL A   1      33.468  29.685  27.553  1.00  0.00    -0.352 N 
ATOM     32  C   UNL A   1      34.404  30.537  28.087  1.00  0.00     0.251 C 
ATOM     33  H   UNL A   1      32.605  30.094  27.315  1.00  0.00     0.163 HD
ATOM     34  O   UNL A   1      34.094  31.686  28.391  1.00  0.00    -0.269 OA
BRANCH  32  35
ATOM     35  C   UNL A   1      35.776  30.043  28.321  1.00  0.00     0.039 A 
ATOM     36  C   UNL A   1      36.156  29.588  29.586  1.00  0.00     0.014 A 
ATOM     37  C   UNL A   1      36.704  30.082  27.277  1.00  0.00     0.014 A 
ATOM     38  C   UNL A   1      37.496  29.331  29.850  1.00  0.00     0.010 A 
ATOM     39  C   UNL A   1      38.036  29.738  27.524  1.00  0.00     0.010 A 
ATOM     40  C   UNL A   1      38.452  29.406  28.823  1.00  0.00    -0.014 A 
BRANCH  40  41
ATOM     41  C   UNL A   1      39.881  29.143  29.137  1.00  0.00     0.031 A 
ATOM     42  C   UNL A   1      40.513  27.820  28.788  1.00  0.00     0.074 A 
ATOM     43  C   UNL A   1      40.624  30.123  29.684  1.00  0.00     0.049 A 
ATOM     44  N   UNL A   1      41.744  27.420  28.979  1.00  0.00    -0.248 NA
ATOM     45  C   UNL A   1      39.653  26.815  28.143  1.00  0.00     0.031 C 
ATOM     46  C   UNL A   1      40.127  31.452  30.050  1.00  0.00     0.029 A 
ATOM     47  N   UNL A   1      41.957  30.170  30.004  1.00  0.00    -0.354 N 
ATOM     48  C   UNL A   1      41.804  26.118  28.496  1.00  0.00     0.074 A 
ATOM     49  C   UNL A   1      40.475  25.781  28.031  1.00  0.00     0.031 C 
ATOM     50  C   UNL A   1      41.149  32.199  30.490  1.00  0.00     0.029 A 
ATOM     51  C   UNL A   1      42.360  31.386  30.504  1.00  0.00     0.049 A 
ATOM     52  H   UNL A   1      42.567  29.406  29.888  1.00  0.00     0.167 HD
ATOM     53  C   UNL A   1      42.871  25.286  28.433  1.00  0.00     0.037 A 
ATOM     54  C   UNL A   1      43.565  31.799  30.939  1.00  0.00     0.037 A 
ATOM     55  C   UNL A   1      44.196  25.636  28.879  1.00  0.00     0.049 A 
ATOM     56  C   UNL A   1      44.721  30.840  30.907  1.00  0.00     0.074 A 
ATOM     57  C   UNL A   1      45.346  24.868  28.843  1.00  0.00     0.029 A 
ATOM     58  N   UNL A   1      44.547  26.856  29.439  1.00  0.00    -0.354 N 
ATOM     59  N   UNL A   1      44.756  29.611  30.450  1.00  0.00    -0.248 NA
ATOM     60  C   UNL A   1      45.994  31.316  31.459  1.00  0.00     0.031 C 
ATOM     61  C   UNL A   1      46.384  25.607  29.419  1.00  0.00     0.029 A 
ATOM     62  C   UNL A   1      45.892  26.854  29.773  1.00  0.00     0.049 A 
ATOM     63  H   UNL A   1      43.932  27.612  29.578  1.00  0.00     0.167 HD
ATOM     64  C   UNL A   1      46.057  29.167  30.656  1.00  0.00     0.074 A 
ATOM     65  C   UNL A   1      46.783  30.269  31.256  1.00  0.00     0.031 C 
ATOM     66  C   UNL A   1      46.599  27.957  30.377  1.00  0.00     0.037 A 
BRANCH  53  67
ATOM     67  C   UNL A   1      42.655  23.908  27.867  1.00  0.00     0.058 A 
ATOM     68  C   UNL A   1      42.466  22.792  28.698  1.00  0.00     0.135 A 
ATOM     69  C   UNL A   1      42.583  23.709  26.479  1.00  0.00     0.135 A 
ATOM     70  F   UNL A   1      42.541  22.923  30.033  1.00  0.00    -0.206 F 
ATOM     71  C   UNL A   1      42.235  21.525  28.173  1.00  0.00     0.059 A 
ATOM     72  C   UNL A   1      42.329  22.454  25.932  1.00  0.00     0.059 A 
ATOM     73  F   UNL A   1      42.755  24.740  25.638  1.00  0.00    -0.206 F 
ATOM     74  C   UNL A   1      42.167  21.366  26.788  1.00  0.00     0.060 A 
BRANCH  74  75
ATOM     75  S   UNL A   1      41.860  19.713  26.126  1.00  0.00     0.124 S 
ATOM     76  O   UNL A   1      42.775  19.681  24.990  1.00  0.00    -0.237 OA
ATOM     77  O   UNL A   1      42.219  18.856  27.253  1.00  0.00    -0.237 OA
ATOM     78  O   UNL A   1      40.441  19.739  25.788  1.00  0.00    -0.744 OA
ENDBRANCH  74  75
ENDBRANCH  53  67
BRANCH  54  79
ATOM     79  C   UNL A   1      43.728  33.188  31.443  1.00  0.00     0.058 A 
ATOM     80  C   UNL A   1      44.004  34.245  30.563  1.00  0.00     0.135 A 
ATOM     81  C   UNL A   1      43.563  33.493  32.803  1.00  0.00     0.135 A 
ATOM     82  F   UNL A   1      44.177  34.001  29.255  1.00  0.00    -0.206 F 
ATOM     83  C   UNL A   1      44.110  35.556  31.014  1.00  0.00     0.059 A 
ATOM     84  C   UNL A   1      43.639  34.799  33.274  1.00  0.00     0.059 A 
ATOM     85  F   UNL A   1      43.284  32.517  33.682  1.00  0.00    -0.206 F 
ATOM     86  C   UNL A   1      43.917  35.823  32.371  1.00  0.00     0.060 A 
BRANCH  86  87
ATOM     87  S   UNL A   1      43.985  37.539  32.932  1.00  0.00     0.124 S 
ATOM     88  O   UNL A   1      42.889  37.578  33.893  1.00  0.00    -0.237 OA
ATOM     89  O   UNL A   1      45.330  37.622  33.492  1.00  0.00    -0.237 OA
ATOM     90  O   UNL A   1      43.777  38.302  31.706  1.00  0.00    -0.744 OA
ENDBRANCH  86  87
ENDBRANCH  54  79
BRANCH  66  91
ATOM     91  C   UNL A   1      48.048  27.755  30.713  1.00  0.00     0.058 A 
ATOM     92  C   UNL A   1      48.449  27.309  31.983  1.00  0.00     0.135 A 
ATOM     93  C   UNL A   1      49.041  27.944  29.739  1.00  0.00     0.135 A 
ATOM     94  F   UNL A   1      47.538  27.122  32.950  1.00  0.00    -0.206 F 
ATOM     95  C   UNL A   1      49.786  27.071  32.279  1.00  0.00     0.059 A 
ATOM     96  C   UNL A   1      50.383  27.688  30.006  1.00  0.00     0.059 A 
ATOM     97  F   UNL A   1      48.709  28.361  28.507  1.00  0.00    -0.206 F 
ATOM     98  C   UNL A   1      50.745  27.257  31.282  1.00  0.00     0.060 A 
BRANCH  98  99
ATOM     99  S   UNL A   1      52.472  26.899  31.669  1.00  0.00     0.124 S 
ATOM    100  O   UNL A   1      52.446  26.867  33.127  1.00  0.00    -0.237 OA
ATOM    101  O   UNL A   1      52.678  25.613  31.010  1.00  0.00    -0.237 OA
ATOM    102  O   UNL A   1      53.193  28.022  31.078  1.00  0.00    -0.744 OA
ENDBRANCH  98  99
ENDBRANCH  66  91
ENDBRANCH  40  41
ENDBRANCH  32  35
ENDBRANCH  30  31
ENDBRANCH  29  30
ENDBRANCH  28  29
ENDBRANCH   1  28
TORSDOF 20
ENDMDL
MODEL 3
REMARK VINA RESULT:     -10.9      0.507      8.036
REMARK SMILES CC(C)CCc1cc2c(cc1Cl)C=C(C(=O)NCCCCCCNC(=O)c1ccc(-c3c4nc(c(-c5c(F)cc(S(=O)(=O)[O-])cc5F)c5ccc([nH]5)c(-c5c(F)cc(S(=O)(=O)[O-])cc5F)c5nc(c(-c6c(F)cc(S(=O)(=O)[O-])cc6F)c6ccc3[nH]6)C=C5)C=C4)cc1)[C@@H](C(F)(F)F)O2
REMARK SMILES IDX 20 1 19 2 18 3 17 4 15 5 16 6 14 8 6 9 7 10 11 11 8 12 10 13
REMARK SMILES IDX 12 14 9 15 98 16 13 17 93 18 5 19 4 20 2 21 1 22 3 23 94 24
REMARK SMILES IDX 95 25 96 26 97 27 21 28 22 29 23 30 24 31 25 32 26 34 27 35
REMARK SMILES IDX 28 36 92 37 29 38 91 39 30 40 31 41 32 42 85 43 33 44 90 45
REMARK SMILES IDX 84 46 86 47 34 48 89 49 83 50 82 51 35 53 69 54 48 55 68 56
REMARK SMILES IDX 49 57 52 58 67 59 87 60 50 61 51 62 66 64 88 65 53 66 36 67
REMARK SMILES IDX 37 68 46 69 38 70 39 71 45 72 47 73 40 74 41 75 42 76 43 77
REMARK SMILES IDX 44 78 70 79 71 80 80 81 72 82 73 83 79 84 81 85 74 86 75 87
REMARK SMILES IDX 76 88 77 89 78 90 54 91 55 92 64 93 56 94 57 95 63 96 65 97
REMARK SMILES IDX 58 98 59 99 60 100 61 101 62 102
REMARK H PARENT 17 7 24 33 86 52 52 63
REMARK Flexibility Score: inf
ROOT
ATOM      1  C   UNL A   1      34.859  29.876  28.044  1.00  0.00     0.002 C 
ENDROOT
BRANCH   1   2
ATOM      2  C   UNL A   1      34.657  29.377  26.612  1.00  0.00     0.021 C 
BRANCH   2   3
ATOM      3  C   UNL A   1      33.253  29.586  26.058  1.00  0.00     0.116 C 
BRANCH   3   4
ATOM      4  N   UNL A   1      33.228  29.605  24.610  1.00  0.00    -0.352 N 
ATOM      5  C   UNL A   1      32.983  28.696  23.639  1.00  0.00     0.251 C 
ATOM      6  O   UNL A   1      33.030  29.126  22.482  1.00  0.00    -0.270 OA
ATOM      7  H   UNL A   1      33.442  30.494  24.244  1.00  0.00     0.163 HD
BRANCH   5   8
ATOM      8  C   UNL A   1      32.706  27.249  23.882  1.00  0.00     0.067 C 
ATOM      9  C   UNL A   1      33.434  22.270  24.485  1.00  0.00    -0.026 A 
ATOM     10  C   UNL A   1      32.321  23.128  24.572  1.00  0.00     0.052 A 
ATOM     11  C   UNL A   1      34.670  22.851  24.157  1.00  0.00     0.045 A 
ATOM     12  C   UNL A   1      32.438  24.496  24.321  1.00  0.00     0.128 A 
ATOM     13  C   UNL A   1      34.758  24.202  23.803  1.00  0.00     0.032 A 
ATOM     14  Cl  UNL A   1      36.182  22.037  24.313  1.00  0.00    -0.084 Cl
ATOM     15  C   UNL A   1      33.644  25.031  23.898  1.00  0.00     0.019 A 
ATOM     16  O   UNL A   1      31.327  25.240  24.551  1.00  0.00    -0.475 OA
ATOM     17  C   UNL A   1      33.761  26.453  23.639  1.00  0.00     0.025 C 
ATOM     18  C   UNL A   1      31.388  26.680  24.345  1.00  0.00     0.314 C 
BRANCH   9  19
ATOM     19  C   UNL A   1      33.219  20.810  24.832  1.00  0.00     0.037 C 
BRANCH  19  20
ATOM     20  C   UNL A   1      32.326  19.999  23.872  1.00  0.00     0.008 C 
BRANCH  20  21
ATOM     21  C   UNL A   1      32.625  18.492  23.765  1.00  0.00    -0.017 C 
ATOM     22  C   UNL A   1      32.483  17.961  22.336  1.00  0.00     0.007 C 
ATOM     23  C   UNL A   1      34.033  18.171  24.275  1.00  0.00     0.007 C 
ENDBRANCH  20  21
ENDBRANCH  19  20
ENDBRANCH   9  19
BRANCH  18  24
ATOM     24  C   UNL A   1      30.203  27.024  23.429  1.00  0.00     0.429 C 
ATOM     25  F   UNL A   1      29.217  26.105  23.576  1.00  0.00    -0.167 F 
ATOM     26  F   UNL A   1      29.648  28.226  23.697  1.00  0.00    -0.167 F 
ATOM     27  F   UNL A   1      30.560  27.036  22.124  1.00  0.00    -0.167 F 
ENDBRANCH  18  24
ENDBRANCH   5   8
ENDBRANCH   3   4
ENDBRANCH   2   3
ENDBRANCH   1   2
BRANCH   1  28
ATOM     28  C   UNL A   1      34.979  31.397  28.205  1.00  0.00     0.002 C 
BRANCH  28  29
ATOM     29  C   UNL A   1      33.667  32.180  28.121  1.00  0.00     0.021 C 
BRANCH  29  30
ATOM     30  C   UNL A   1      33.771  33.534  27.434  1.00  0.00     0.116 C 
BRANCH  30  31
ATOM     31  N   UNL A   1      33.033  34.572  28.136  1.00  0.00    -0.352 N 
ATOM     32  C   UNL A   1      33.210  35.034  29.417  1.00  0.00     0.251 C 
ATOM     33  H   UNL A   1      32.309  35.000  27.624  1.00  0.00     0.163 HD
ATOM     34  O   UNL A   1      32.397  35.807  29.915  1.00  0.00    -0.269 OA
BRANCH  32  35
ATOM     35  C   UNL A   1      34.373  34.564  30.197  1.00  0.00     0.039 A 
ATOM     36  C   UNL A   1      35.671  34.829  29.756  1.00  0.00     0.014 A 
ATOM     37  C   UNL A   1      34.161  33.809  31.353  1.00  0.00     0.014 A 
ATOM     38  C   UNL A   1      36.748  34.203  30.372  1.00  0.00     0.010 A 
ATOM     39  C   UNL A   1      35.253  33.252  32.024  1.00  0.00     0.010 A 
ATOM     40  C   UNL A   1      36.551  33.405  31.511  1.00  0.00    -0.014 A 
BRANCH  40  41
ATOM     41  C   UNL A   1      37.719  32.733  32.142  1.00  0.00     0.031 A 
ATOM     42  C   UNL A   1      38.230  33.183  33.486  1.00  0.00     0.074 A 
ATOM     43  C   UNL A   1      38.280  31.676  31.524  1.00  0.00     0.049 A 
ATOM     44  N   UNL A   1      39.228  32.709  34.187  1.00  0.00    -0.248 NA
ATOM     45  C   UNL A   1      37.533  34.310  34.126  1.00  0.00     0.031 C 
ATOM     46  C   UNL A   1      37.860  31.139  30.228  1.00  0.00     0.029 A 
ATOM     47  N   UNL A   1      39.302  30.847  31.910  1.00  0.00    -0.354 N 
ATOM     48  C   UNL A   1      39.291  33.486  35.338  1.00  0.00     0.074 A 
ATOM     49  C   UNL A   1      38.250  34.485  35.228  1.00  0.00     0.031 C 
ATOM     50  C   UNL A   1      38.578  30.041  29.952  1.00  0.00     0.029 A 
ATOM     51  C   UNL A   1      39.554  29.833  31.016  1.00  0.00     0.049 A 
ATOM     52  H   UNL A   1      39.807  30.967  32.746  1.00  0.00     0.167 HD
ATOM     53  C   UNL A   1      40.129  33.367  36.395  1.00  0.00     0.037 A 
ATOM     54  C   UNL A   1      40.477  28.853  31.040  1.00  0.00     0.037 A 
ATOM     55  C   UNL A   1      41.151  32.357  36.508  1.00  0.00     0.049 A 
ATOM     56  C   UNL A   1      41.429  28.776  32.199  1.00  0.00     0.074 A 
ATOM     57  C   UNL A   1      42.041  32.145  37.545  1.00  0.00     0.029 A 
ATOM     58  N   UNL A   1      41.416  31.389  35.550  1.00  0.00    -0.354 N 
ATOM     59  N   UNL A   1      41.476  29.523  33.276  1.00  0.00    -0.248 NA
ATOM     60  C   UNL A   1      42.462  27.734  32.141  1.00  0.00     0.031 C 
ATOM     61  C   UNL A   1      42.872  31.075  37.198  1.00  0.00     0.029 A 
ATOM     62  C   UNL A   1      42.470  30.590  35.963  1.00  0.00     0.049 A 
ATOM     63  H   UNL A   1      40.927  31.284  34.702  1.00  0.00     0.167 HD
ATOM     64  C   UNL A   1      42.539  29.038  34.028  1.00  0.00     0.074 A 
ATOM     65  C   UNL A   1      43.093  27.919  33.293  1.00  0.00     0.031 C 
ATOM     66  C   UNL A   1      43.015  29.483  35.216  1.00  0.00     0.037 A 
BRANCH  53  67
ATOM     67  C   UNL A   1      39.989  34.360  37.519  1.00  0.00     0.058 A 
ATOM     68  C   UNL A   1      39.052  34.178  38.548  1.00  0.00     0.135 A 
ATOM     69  C   UNL A   1      40.835  35.478  37.594  1.00  0.00     0.135 A 
ATOM     70  F   UNL A   1      38.207  33.135  38.518  1.00  0.00    -0.206 F 
ATOM     71  C   UNL A   1      38.946  35.081  39.602  1.00  0.00     0.059 A 
ATOM     72  C   UNL A   1      40.762  36.381  38.651  1.00  0.00     0.059 A 
ATOM     73  F   UNL A   1      41.749  35.700  36.636  1.00  0.00    -0.206 F 
ATOM     74  C   UNL A   1      39.806  36.179  39.645  1.00  0.00     0.060 A 
BRANCH  74  75
ATOM     75  S   UNL A   1      39.656  37.336  41.024  1.00  0.00     0.124 S 
ATOM     76  O   UNL A   1      40.953  38.004  40.985  1.00  0.00    -0.237 OA
ATOM     77  O   UNL A   1      38.512  38.150  40.624  1.00  0.00    -0.237 OA
ATOM     78  O   UNL A   1      39.433  36.467  42.176  1.00  0.00    -0.744 OA
ENDBRANCH  74  75
ENDBRANCH  53  67
BRANCH  54  79
ATOM     79  C   UNL A   1      40.537  27.874  29.924  1.00  0.00     0.058 A 
ATOM     80  C   UNL A   1      39.589  26.845  29.817  1.00  0.00     0.135 A 
ATOM     81  C   UNL A   1      41.512  27.974  28.918  1.00  0.00     0.135 A 
ATOM     82  F   UNL A   1      38.643  26.705  30.758  1.00  0.00    -0.206 F 
ATOM     83  C   UNL A   1      39.604  25.952  28.751  1.00  0.00     0.059 A 
ATOM     84  C   UNL A   1      41.532  27.109  27.830  1.00  0.00     0.059 A 
ATOM     85  F   UNL A   1      42.432  28.950  28.970  1.00  0.00    -0.206 F 
ATOM     86  C   UNL A   1      40.575  26.098  27.758  1.00  0.00     0.060 A 
BRANCH  86  87
ATOM     87  S   UNL A   1      40.538  24.977  26.343  1.00  0.00     0.124 S 
ATOM     88  O   UNL A   1      41.073  25.824  25.283  1.00  0.00    -0.237 OA
ATOM     89  O   UNL A   1      41.405  23.892  26.792  1.00  0.00    -0.237 OA
ATOM     90  O   UNL A   1      39.125  24.632  26.223  1.00  0.00    -0.744 OA
ENDBRANCH  86  87
ENDBRANCH  54  79
BRANCH  66  91
ATOM     91  C   UNL A   1      44.193  28.759  35.803  1.00  0.00     0.058 A 
ATOM     92  C   UNL A   1      45.509  29.173  35.541  1.00  0.00     0.135 A 
ATOM     93  C   UNL A   1      44.005  27.686  36.688  1.00  0.00     0.135 A 
ATOM     94  F   UNL A   1      45.741  30.188  34.695  1.00  0.00    -0.206 F 
ATOM     95  C   UNL A   1      46.598  28.537  36.125  1.00  0.00     0.059 A 
ATOM     96  C   UNL A   1      45.079  27.051  37.303  1.00  0.00     0.059 A 
ATOM     97  F   UNL A   1      42.766  27.258  36.977  1.00  0.00    -0.206 F 
ATOM     98  C   UNL A   1      46.373  27.481  37.010  1.00  0.00     0.060 A 
BRANCH  98  99
ATOM     99  S   UNL A   1      47.797  26.696  37.796  1.00  0.00     0.124 S 
ATOM    100  O   UNL A   1      48.902  27.474  37.249  1.00  0.00    -0.237 OA
ATOM    101  O   UNL A   1      47.519  26.899  39.215  1.00  0.00    -0.237 OA
ATOM    102  O   UNL A   1      47.717  25.311  37.341  1.00  0.00    -0.744 OA
ENDBRANCH  98  99
ENDBRANCH  66  91
ENDBRANCH  40  41
ENDBRANCH  32  35
ENDBRANCH  30  31
ENDBRANCH  29  30
ENDBRANCH  28  29
ENDBRANCH   1  28
TORSDOF 20
ENDMDL
