MODEL 1
REMARK VINA RESULT:     -11.7      0.000      0.000
REMARK SMILES COc1cccc(N2C(=O)C[C@@H](SC[C@@H](NC(C)=O)C(=O)NCCCCCCNC(=O)c3ccc(-c4c5nc(c(-c6c(F)cc(S(=O)(=O)[O-])cc6F)c6ccc([nH]6)c(-c6c(F)cc(S(=O)(=O)[O-])cc6F)c6nc(c(-c7c(F)cc(S(=O)(=O)[O-])cc7F)c7ccc4[nH]7)C=C6)C=C5)cc3)C2=O)c1
REMARK SMILES IDX 24 1 23 2 22 3 20 4 21 5 15 7 14 8 13 9 12 10 8 11 9 12
REMARK SMILES IDX 98 13 10 14 11 15 99 16 7 17 3 18 4 19 100 20 5 21 6 22 2 23
REMARK SMILES IDX 1 24 16 25 17 26 18 28 19 29 25 30 26 31 27 32 28 33 29 34
REMARK SMILES IDX 30 35 31 37 32 38 33 39 97 40 34 41 96 42 35 43 36 44 37 45
REMARK SMILES IDX 90 46 38 47 95 48 89 49 91 50 39 51 94 52 88 53 87 54 40 56
REMARK SMILES IDX 74 57 53 58 73 59 54 60 57 61 72 62 92 63 55 64 56 65 71 67
REMARK SMILES IDX 93 68 58 69 41 70 42 71 51 72 43 73 44 74 50 75 52 76 45 77
REMARK SMILES IDX 46 78 47 79 48 80 49 81 75 82 76 83 85 84 77 85 78 86 84 87
REMARK SMILES IDX 86 88 79 89 80 90 81 91 82 92 83 93 59 94 60 95 69 96 61 97
REMARK SMILES IDX 62 98 68 99 70 100 63 101 64 102 65 103 66 104 67 105
REMARK H PARENT 22 6 16 27 29 36 91 55 57 66
REMARK Flexibility Score: inf
ROOT
ATOM      1  C   UNL A   1      33.156  29.712  27.073  1.00  0.00     0.021 C 
ENDROOT
BRANCH   1   2
ATOM      2  C   UNL A   1      32.535  29.971  25.706  1.00  0.00     0.116 C 
BRANCH   2   3
ATOM      3  N   UNL A   1      33.500  29.698  24.659  1.00  0.00    -0.354 N 
ATOM      4  C   UNL A   1      33.342  29.039  23.473  1.00  0.00     0.243 C 
ATOM      5  O   UNL A   1      34.361  28.669  22.884  1.00  0.00    -0.273 OA
ATOM      6  H   UNL A   1      34.407  30.038  24.829  1.00  0.00     0.163 HD
BRANCH   4   7
ATOM      7  C   UNL A   1      31.938  28.606  22.997  1.00  0.00     0.181 C 
BRANCH   7   8
ATOM      8  C   UNL A   1      31.801  27.111  23.364  1.00  0.00     0.105 C 
BRANCH   8   9
ATOM      9  S   UNL A   1      31.857  26.610  25.127  1.00  0.00    -0.145 SA
BRANCH   9  10
ATOM     10  C   UNL A   1      32.989  25.188  25.191  1.00  0.00     0.146 C 
ATOM     11  N   UNL A   1      33.076  23.040  24.260  1.00  0.00    -0.249 N 
ATOM     12  C   UNL A   1      34.046  23.782  23.615  1.00  0.00     0.235 C 
ATOM     13  C   UNL A   1      32.383  23.808  25.180  1.00  0.00     0.247 C 
ATOM     14  O   UNL A   1      34.841  23.438  22.750  1.00  0.00    -0.274 OA
ATOM     15  C   UNL A   1      33.922  25.216  24.009  1.00  0.00     0.125 C 
ATOM     16  O   UNL A   1      31.451  23.471  25.890  1.00  0.00    -0.273 OA
BRANCH  11  17
ATOM     17  C   UNL A   1      32.770  21.677  23.930  1.00  0.00     0.055 A 
ATOM     18  C   UNL A   1      33.026  19.286  24.378  1.00  0.00     0.120 A 
ATOM     19  C   UNL A   1      32.499  18.977  23.132  1.00  0.00     0.046 A 
ATOM     20  C   UNL A   1      33.170  20.621  24.766  1.00  0.00     0.073 A 
ATOM     21  C   UNL A   1      32.042  19.999  22.308  1.00  0.00     0.006 A 
ATOM     22  C   UNL A   1      32.157  21.335  22.711  1.00  0.00     0.027 A 
BRANCH  18  23
ATOM     23  O   UNL A   1      33.463  18.232  25.134  1.00  0.00    -0.497 OA
ATOM     24  C   UNL A   1      32.512  17.174  25.246  1.00  0.00     0.278 C 
ENDBRANCH  18  23
ENDBRANCH  11  17
ENDBRANCH   9  10
ENDBRANCH   8   9
ENDBRANCH   7   8
BRANCH   7  25
ATOM     25  N   UNL A   1      30.920  29.501  23.567  1.00  0.00    -0.344 N 
ATOM     26  C   UNL A   1      29.852  29.931  22.801  1.00  0.00     0.217 C 
ATOM     27  H   UNL A   1      31.000  29.797  24.502  1.00  0.00     0.164 HD
ATOM     28  C   UNL A   1      28.903  30.848  23.522  1.00  0.00     0.114 C 
ATOM     29  O   UNL A   1      29.703  29.634  21.621  1.00  0.00    -0.275 OA
ENDBRANCH   7  25
ENDBRANCH   4   7
ENDBRANCH   2   3
ENDBRANCH   1   2
BRANCH   1  30
ATOM     30  C   UNL A   1      34.514  30.396  27.246  1.00  0.00     0.002 C 
BRANCH  30  31
ATOM     31  C   UNL A   1      34.460  31.695  28.059  1.00  0.00     0.002 C 
BRANCH  31  32
ATOM     32  C   UNL A   1      35.678  32.606  27.885  1.00  0.00     0.021 C 
BRANCH  32  33
ATOM     33  C   UNL A   1      36.544  32.731  29.134  1.00  0.00     0.116 C 
BRANCH  33  34
ATOM     34  N   UNL A   1      36.072  31.867  30.201  1.00  0.00    -0.352 N 
ATOM     35  C   UNL A   1      36.570  30.665  30.632  1.00  0.00     0.251 C 
ATOM     36  H   UNL A   1      35.278  32.190  30.685  1.00  0.00     0.163 HD
ATOM     37  O   UNL A   1      35.907  29.966  31.391  1.00  0.00    -0.269 OA
BRANCH  35  38
ATOM     38  C   UNL A   1      37.900  30.214  30.171  1.00  0.00     0.039 A 
ATOM     39  C   UNL A   1      38.091  29.973  28.810  1.00  0.00     0.014 A 
ATOM     40  C   UNL A   1      38.945  30.011  31.078  1.00  0.00     0.014 A 
ATOM     41  C   UNL A   1      39.343  29.563  28.354  1.00  0.00     0.010 A 
ATOM     42  C   UNL A   1      40.214  29.678  30.611  1.00  0.00     0.010 A 
ATOM     43  C   UNL A   1      40.422  29.437  29.247  1.00  0.00    -0.014 A 
BRANCH  43  44
ATOM     44  C   UNL A   1      41.768  29.047  28.756  1.00  0.00     0.031 A 
ATOM     45  C   UNL A   1      42.867  30.070  28.657  1.00  0.00     0.074 A 
ATOM     46  C   UNL A   1      41.986  27.774  28.372  1.00  0.00     0.049 A 
ATOM     47  N   UNL A   1      44.102  29.915  28.254  1.00  0.00    -0.248 NA
ATOM     48  C   UNL A   1      42.530  31.453  29.035  1.00  0.00     0.031 C 
ATOM     49  C   UNL A   1      40.981  26.708  28.370  1.00  0.00     0.029 A 
ATOM     50  N   UNL A   1      43.122  27.158  27.910  1.00  0.00    -0.354 N 
ATOM     51  C   UNL A   1      44.686  31.174  28.325  1.00  0.00     0.074 A 
ATOM     52  C   UNL A   1      43.654  32.094  28.751  1.00  0.00     0.031 C 
ATOM     53  C   UNL A   1      41.554  25.564  27.962  1.00  0.00     0.029 A 
ATOM     54  C   UNL A   1      42.954  25.821  27.638  1.00  0.00     0.049 A 
ATOM     55  H   UNL A   1      43.977  27.630  27.785  1.00  0.00     0.167 HD
ATOM     56  C   UNL A   1      45.971  31.527  28.085  1.00  0.00     0.037 A 
ATOM     57  C   UNL A   1      43.828  24.906  27.178  1.00  0.00     0.037 A 
ATOM     58  C   UNL A   1      46.997  30.599  27.679  1.00  0.00     0.049 A 
ATOM     59  C   UNL A   1      45.250  25.321  26.919  1.00  0.00     0.074 A 
ATOM     60  C   UNL A   1      48.342  30.843  27.464  1.00  0.00     0.029 A 
ATOM     61  N   UNL A   1      46.791  29.251  27.424  1.00  0.00    -0.354 N 
ATOM     62  N   UNL A   1      45.803  26.503  27.062  1.00  0.00    -0.248 NA
ATOM     63  C   UNL A   1      46.171  24.279  26.447  1.00  0.00     0.031 C 
ATOM     64  C   UNL A   1      48.938  29.655  27.026  1.00  0.00     0.029 A 
ATOM     65  C   UNL A   1      47.978  28.656  27.027  1.00  0.00     0.049 A 
ATOM     66  H   UNL A   1      45.928  28.785  27.510  1.00  0.00     0.167 HD
ATOM     67  C   UNL A   1      47.142  26.339  26.724  1.00  0.00     0.074 A 
ATOM     68  C   UNL A   1      47.317  24.941  26.387  1.00  0.00     0.031 C 
ATOM     69  C   UNL A   1      48.136  27.262  26.695  1.00  0.00     0.037 A 
BRANCH  56  70
ATOM     70  C   UNL A   1      46.345  32.975  28.256  1.00  0.00     0.058 A 
ATOM     71  C   UNL A   1      46.812  33.479  29.481  1.00  0.00     0.135 A 
ATOM     72  C   UNL A   1      46.276  33.863  27.170  1.00  0.00     0.135 A 
ATOM     73  F   UNL A   1      46.885  32.680  30.558  1.00  0.00    -0.206 F 
ATOM     74  C   UNL A   1      47.170  34.816  29.631  1.00  0.00     0.059 A 
ATOM     75  C   UNL A   1      46.659  35.198  27.289  1.00  0.00     0.059 A 
ATOM     76  F   UNL A   1      45.836  33.439  25.975  1.00  0.00    -0.206 F 
ATOM     77  C   UNL A   1      47.092  35.667  28.527  1.00  0.00     0.060 A 
BRANCH  77  78
ATOM     78  S   UNL A   1      47.572  37.394  28.737  1.00  0.00     0.124 S 
ATOM     79  O   UNL A   1      48.575  37.546  27.688  1.00  0.00    -0.237 OA
ATOM     80  O   UNL A   1      46.312  38.097  28.516  1.00  0.00    -0.237 OA
ATOM     81  O   UNL A   1      48.082  37.442  30.103  1.00  0.00    -0.744 OA
ENDBRANCH  77  78
ENDBRANCH  56  70
BRANCH  57  82
ATOM     82  C   UNL A   1      43.386  23.502  26.956  1.00  0.00     0.058 A 
ATOM     83  C   UNL A   1      43.115  23.023  25.667  1.00  0.00     0.135 A 
ATOM     84  C   UNL A   1      43.239  22.608  28.029  1.00  0.00     0.135 A 
ATOM     85  F   UNL A   1      43.237  23.838  24.608  1.00  0.00    -0.206 F 
ATOM     86  C   UNL A   1      42.691  21.715  25.448  1.00  0.00     0.059 A 
ATOM     87  C   UNL A   1      42.845  21.289  27.833  1.00  0.00     0.059 A 
ATOM     88  F   UNL A   1      43.505  23.010  29.282  1.00  0.00    -0.206 F 
ATOM     89  C   UNL A   1      42.562  20.854  26.539  1.00  0.00     0.060 A 
BRANCH  89  90
ATOM     90  S   UNL A   1      42.053  19.148  26.243  1.00  0.00     0.124 S 
ATOM     91  O   UNL A   1      40.663  19.322  25.839  1.00  0.00    -0.237 OA
ATOM     92  O   UNL A   1      42.978  18.733  25.192  1.00  0.00    -0.237 OA
ATOM     93  O   UNL A   1      42.260  18.506  27.537  1.00  0.00    -0.744 OA
ENDBRANCH  89  90
ENDBRANCH  57  82
BRANCH  69  94
ATOM     94  C   UNL A   1      49.512  26.781  26.317  1.00  0.00     0.058 A 
ATOM     95  C   UNL A   1      50.377  26.198  27.257  1.00  0.00     0.135 A 
ATOM     96  C   UNL A   1      49.956  26.876  24.989  1.00  0.00     0.135 A 
ATOM     97  F   UNL A   1      50.004  26.087  28.542  1.00  0.00    -0.206 F 
ATOM     98  C   UNL A   1      51.648  25.761  26.901  1.00  0.00     0.059 A 
ATOM     99  C   UNL A   1      51.211  26.413  24.603  1.00  0.00     0.059 A 
ATOM    100  F   UNL A   1      49.165  27.412  24.046  1.00  0.00    -0.206 F 
ATOM    101  C   UNL A   1      52.056  25.873  25.570  1.00  0.00     0.060 A 
BRANCH 101 102
ATOM    102  S   UNL A   1      53.703  25.288  25.119  1.00  0.00     0.124 S 
ATOM    103  O   UNL A   1      53.847  25.828  23.771  1.00  0.00    -0.237 OA
ATOM    104  O   UNL A   1      54.543  25.902  26.142  1.00  0.00    -0.237 OA
ATOM    105  O   UNL A   1      53.583  23.835  25.204  1.00  0.00    -0.744 OA
ENDBRANCH 101 102
ENDBRANCH  69  94
ENDBRANCH  43  44
ENDBRANCH  35  38
ENDBRANCH  33  34
ENDBRANCH  32  33
ENDBRANCH  31  32
ENDBRANCH  30  31
ENDBRANCH   1  30
TORSDOF 22
ENDMDL
MODEL 2
REMARK VINA RESULT:     -11.5      1.136      2.370
REMARK SMILES COc1cccc(N2C(=O)C[C@@H](SC[C@@H](NC(C)=O)C(=O)NCCCCCCNC(=O)c3ccc(-c4c5nc(c(-c6c(F)cc(S(=O)(=O)[O-])cc6F)c6ccc([nH]6)c(-c6c(F)cc(S(=O)(=O)[O-])cc6F)c6nc(c(-c7c(F)cc(S(=O)(=O)[O-])cc7F)c7ccc4[nH]7)C=C6)C=C5)cc3)C2=O)c1
REMARK SMILES IDX 24 1 23 2 22 3 20 4 21 5 15 7 14 8 13 9 12 10 8 11 9 12
REMARK SMILES IDX 98 13 10 14 11 15 99 16 7 17 3 18 4 19 100 20 5 21 6 22 2 23
REMARK SMILES IDX 1 24 16 25 17 26 18 28 19 29 25 30 26 31 27 32 28 33 29 34
REMARK SMILES IDX 30 35 31 37 32 38 33 39 97 40 34 41 96 42 35 43 36 44 37 45
REMARK SMILES IDX 90 46 38 47 95 48 89 49 91 50 39 51 94 52 88 53 87 54 40 56
REMARK SMILES IDX 74 57 53 58 73 59 54 60 57 61 72 62 92 63 55 64 56 65 71 67
REMARK SMILES IDX 93 68 58 69 41 70 42 71 51 72 43 73 44 74 50 75 52 76 45 77
REMARK SMILES IDX 46 78 47 79 48 80 49 81 75 82 76 83 85 84 77 85 78 86 84 87
REMARK SMILES IDX 86 88 79 89 80 90 81 91 82 92 83 93 59 94 60 95 69 96 61 97
REMARK SMILES IDX 62 98 68 99 70 100 63 101 64 102 65 103 66 104 67 105
REMARK H PARENT 22 6 16 27 29 36 91 55 57 66
REMARK Flexibility Score: inf
ROOT
ATOM      1  C   UNL A   1      32.815  28.897  26.522  1.00  0.00     0.021 C 
ENDROOT
BRANCH   1   2
ATOM      2  C   UNL A   1      32.356  29.616  25.260  1.00  0.00     0.116 C 
BRANCH   2   3
ATOM      3  N   UNL A   1      33.297  29.383  24.181  1.00  0.00    -0.354 N 
ATOM      4  C   UNL A   1      33.079  28.932  22.911  1.00  0.00     0.243 C 
ATOM      5  O   UNL A   1      34.054  28.529  22.271  1.00  0.00    -0.273 OA
ATOM      6  H   UNL A   1      34.236  29.579  24.398  1.00  0.00     0.163 HD
BRANCH   4   7
ATOM      7  C   UNL A   1      31.639  28.753  22.379  1.00  0.00     0.181 C 
BRANCH   7   8
ATOM      8  C   UNL A   1      31.354  27.234  22.414  1.00  0.00     0.105 C 
BRANCH   8   9
ATOM      9  S   UNL A   1      31.109  26.404  24.030  1.00  0.00    -0.145 SA
BRANCH   9  10
ATOM     10  C   UNL A   1      31.686  24.696  23.789  1.00  0.00     0.146 C 
ATOM     11  N   UNL A   1      33.368  23.328  24.677  1.00  0.00    -0.249 N 
ATOM     12  C   UNL A   1      32.173  22.852  25.183  1.00  0.00     0.235 C 
ATOM     13  C   UNL A   1      33.168  24.438  23.875  1.00  0.00     0.247 C 
ATOM     14  O   UNL A   1      31.965  21.897  25.919  1.00  0.00    -0.274 OA
ATOM     15  C   UNL A   1      31.070  23.792  24.824  1.00  0.00     0.125 C 
ATOM     16  O   UNL A   1      34.009  25.112  23.304  1.00  0.00    -0.273 OA
BRANCH  11  17
ATOM     17  C   UNL A   1      34.649  22.791  25.036  1.00  0.00     0.055 A 
ATOM     18  C   UNL A   1      36.937  23.136  25.834  1.00  0.00     0.120 A 
ATOM     19  C   UNL A   1      37.292  21.859  25.422  1.00  0.00     0.046 A 
ATOM     20  C   UNL A   1      35.633  23.599  25.631  1.00  0.00     0.073 A 
ATOM     21  C   UNL A   1      36.326  21.018  24.882  1.00  0.00     0.006 A 
ATOM     22  C   UNL A   1      35.012  21.471  24.710  1.00  0.00     0.027 A 
BRANCH  18  23
ATOM     23  O   UNL A   1      37.939  23.912  26.349  1.00  0.00    -0.497 OA
ATOM     24  C   UNL A   1      39.150  23.197  26.590  1.00  0.00     0.278 C 
ENDBRANCH  18  23
ENDBRANCH  11  17
ENDBRANCH   9  10
ENDBRANCH   8   9
ENDBRANCH   7   8
BRANCH   7  25
ATOM     25  N   UNL A   1      30.714  29.596  23.149  1.00  0.00    -0.344 N 
ATOM     26  C   UNL A   1      29.564  30.096  22.566  1.00  0.00     0.217 C 
ATOM     27  H   UNL A   1      30.915  29.808  24.089  1.00  0.00     0.164 HD
ATOM     28  C   UNL A   1      28.727  30.947  23.479  1.00  0.00     0.114 C 
ATOM     29  O   UNL A   1      29.264  29.905  21.393  1.00  0.00    -0.275 OA
ENDBRANCH   7  25
ENDBRANCH   4   7
ENDBRANCH   2   3
ENDBRANCH   1   2
BRANCH   1  30
ATOM     30  C   UNL A   1      33.879  29.679  27.295  1.00  0.00     0.002 C 
BRANCH  30  31
ATOM     31  C   UNL A   1      33.637  31.192  27.332  1.00  0.00     0.002 C 
BRANCH  31  32
ATOM     32  C   UNL A   1      34.521  31.955  28.323  1.00  0.00     0.021 C 
BRANCH  32  33
ATOM     33  C   UNL A   1      35.769  31.193  28.757  1.00  0.00     0.116 C 
BRANCH  33  34
ATOM     34  N   UNL A   1      35.717  30.837  30.164  1.00  0.00    -0.352 N 
ATOM     35  C   UNL A   1      36.613  30.123  30.914  1.00  0.00     0.251 C 
ATOM     36  H   UNL A   1      34.920  31.154  30.649  1.00  0.00     0.163 HD
ATOM     37  O   UNL A   1      36.294  29.722  32.029  1.00  0.00    -0.269 OA
BRANCH  35  38
ATOM     38  C   UNL A   1      37.957  29.831  30.372  1.00  0.00     0.039 A 
ATOM     39  C   UNL A   1      38.981  29.501  31.260  1.00  0.00     0.014 A 
ATOM     40  C   UNL A   1      38.209  29.903  28.999  1.00  0.00     0.014 A 
ATOM     41  C   UNL A   1      40.251  29.207  30.766  1.00  0.00     0.010 A 
ATOM     42  C   UNL A   1      39.456  29.532  28.502  1.00  0.00     0.010 A 
ATOM     43  C   UNL A   1      40.493  29.194  29.381  1.00  0.00    -0.014 A 
BRANCH  43  44
ATOM     44  C   UNL A   1      41.832  28.834  28.851  1.00  0.00     0.031 A 
ATOM     45  C   UNL A   1      42.912  29.875  28.738  1.00  0.00     0.074 A 
ATOM     46  C   UNL A   1      42.061  27.570  28.444  1.00  0.00     0.049 A 
ATOM     47  N   UNL A   1      44.139  29.746  28.302  1.00  0.00    -0.248 NA
ATOM     48  C   UNL A   1      42.563  31.248  29.144  1.00  0.00     0.031 C 
ATOM     49  C   UNL A   1      41.073  26.487  28.453  1.00  0.00     0.029 A 
ATOM     50  N   UNL A   1      43.194  26.979  27.945  1.00  0.00    -0.354 N 
ATOM     51  C   UNL A   1      44.704  31.014  28.376  1.00  0.00     0.074 A 
ATOM     52  C   UNL A   1      43.668  31.911  28.840  1.00  0.00     0.031 C 
ATOM     53  C   UNL A   1      41.653  25.358  28.015  1.00  0.00     0.029 A 
ATOM     54  C   UNL A   1      43.040  25.643  27.659  1.00  0.00     0.049 A 
ATOM     55  H   UNL A   1      44.038  27.466  27.805  1.00  0.00     0.167 HD
ATOM     56  C   UNL A   1      45.977  31.391  28.108  1.00  0.00     0.037 A 
ATOM     57  C   UNL A   1      43.917  24.748  27.164  1.00  0.00     0.037 A 
ATOM     58  C   UNL A   1      47.006  30.485  27.663  1.00  0.00     0.049 A 
ATOM     59  C   UNL A   1      45.325  25.190  26.875  1.00  0.00     0.074 A 
ATOM     60  C   UNL A   1      48.341  30.755  27.418  1.00  0.00     0.029 A 
ATOM     61  N   UNL A   1      46.815  29.138  27.395  1.00  0.00    -0.354 N 
ATOM     62  N   UNL A   1      45.862  26.379  27.020  1.00  0.00    -0.248 NA
ATOM     63  C   UNL A   1      46.250  24.169  26.366  1.00  0.00     0.031 C 
ATOM     64  C   UNL A   1      48.944  29.583  26.948  1.00  0.00     0.029 A 
ATOM     65  C   UNL A   1      48.001  28.568  26.959  1.00  0.00     0.049 A 
ATOM     66  H   UNL A   1      45.962  28.657  27.497  1.00  0.00     0.167 HD
ATOM     67  C   UNL A   1      47.195  26.241  26.646  1.00  0.00     0.074 A 
ATOM     68  C   UNL A   1      47.384  24.851  26.285  1.00  0.00     0.031 C 
ATOM     69  C   UNL A   1      48.173  27.181  26.605  1.00  0.00     0.037 A 
BRANCH  56  70
ATOM     70  C   UNL A   1      46.332  32.843  28.289  1.00  0.00     0.058 A 
ATOM     71  C   UNL A   1      46.819  33.338  29.510  1.00  0.00     0.135 A 
ATOM     72  C   UNL A   1      46.223  33.744  27.217  1.00  0.00     0.135 A 
ATOM     73  F   UNL A   1      46.930  32.526  30.574  1.00  0.00    -0.206 F 
ATOM     74  C   UNL A   1      47.159  34.678  29.670  1.00  0.00     0.059 A 
ATOM     75  C   UNL A   1      46.587  35.082  27.345  1.00  0.00     0.059 A 
ATOM     76  F   UNL A   1      45.762  33.327  26.028  1.00  0.00    -0.206 F 
ATOM     77  C   UNL A   1      47.041  35.542  28.579  1.00  0.00     0.060 A 
BRANCH  77  78
ATOM     78  S   UNL A   1      47.499  37.274  28.801  1.00  0.00     0.124 S 
ATOM     79  O   UNL A   1      47.308  37.443  30.239  1.00  0.00    -0.237 OA
ATOM     80  O   UNL A   1      48.883  37.292  28.340  1.00  0.00    -0.237 OA
ATOM     81  O   UNL A   1      46.549  37.989  27.955  1.00  0.00    -0.744 OA
ENDBRANCH  77  78
ENDBRANCH  56  70
BRANCH  57  82
ATOM     82  C   UNL A   1      43.492  23.341  26.934  1.00  0.00     0.058 A 
ATOM     83  C   UNL A   1      43.292  22.459  28.005  1.00  0.00     0.135 A 
ATOM     84  C   UNL A   1      43.266  22.853  25.636  1.00  0.00     0.135 A 
ATOM     85  F   UNL A   1      43.498  22.875  29.264  1.00  0.00    -0.206 F 
ATOM     86  C   UNL A   1      42.904  21.138  27.801  1.00  0.00     0.059 A 
ATOM     87  C   UNL A   1      42.851  21.545  25.408  1.00  0.00     0.059 A 
ATOM     88  F   UNL A   1      43.425  23.661  24.576  1.00  0.00    -0.206 F 
ATOM     89  C   UNL A   1      42.683  20.691  26.497  1.00  0.00     0.060 A 
BRANCH  89  90
ATOM     90  S   UNL A   1      42.140  18.989  26.244  1.00  0.00     0.124 S 
ATOM     91  O   UNL A   1      42.300  18.428  27.580  1.00  0.00    -0.237 OA
ATOM     92  O   UNL A   1      40.766  19.172  25.787  1.00  0.00    -0.237 OA
ATOM     93  O   UNL A   1      43.067  18.487  25.233  1.00  0.00    -0.744 OA
ENDBRANCH  89  90
ENDBRANCH  57  82
BRANCH  69  94
ATOM     94  C   UNL A   1      49.546  26.728  26.186  1.00  0.00     0.058 A 
ATOM     95  C   UNL A   1      50.008  26.883  24.869  1.00  0.00     0.135 A 
ATOM     96  C   UNL A   1      50.423  26.160  27.124  1.00  0.00     0.135 A 
ATOM     97  F   UNL A   1      49.210  27.416  23.931  1.00  0.00    -0.206 F 
ATOM     98  C   UNL A   1      51.277  26.457  24.489  1.00  0.00     0.059 A 
ATOM     99  C   UNL A   1      51.708  25.758  26.775  1.00  0.00     0.059 A 
ATOM    100  F   UNL A   1      50.038  26.000  28.401  1.00  0.00    -0.206 F 
ATOM    101  C   UNL A   1      52.120  25.895  25.450  1.00  0.00     0.060 A 
BRANCH 101 102
ATOM    102  S   UNL A   1      53.768  25.360  24.946  1.00  0.00     0.124 S 
ATOM    103  O   UNL A   1      53.571  23.924  24.774  1.00  0.00    -0.237 OA
ATOM    104  O   UNL A   1      53.983  26.122  23.720  1.00  0.00    -0.237 OA
ATOM    105  O   UNL A   1      54.611  25.747  26.074  1.00  0.00    -0.744 OA
ENDBRANCH 101 102
ENDBRANCH  69  94
ENDBRANCH  43  44
ENDBRANCH  35  38
ENDBRANCH  33  34
ENDBRANCH  32  33
ENDBRANCH  31  32
ENDBRANCH  30  31
ENDBRANCH   1  30
TORSDOF 22
ENDMDL
MODEL 3
REMARK VINA RESULT:     -11.4      6.225     11.436
REMARK SMILES COc1cccc(N2C(=O)C[C@@H](SC[C@@H](NC(C)=O)C(=O)NCCCCCCNC(=O)c3ccc(-c4c5nc(c(-c6c(F)cc(S(=O)(=O)[O-])cc6F)c6ccc([nH]6)c(-c6c(F)cc(S(=O)(=O)[O-])cc6F)c6nc(c(-c7c(F)cc(S(=O)(=O)[O-])cc7F)c7ccc4[nH]7)C=C6)C=C5)cc3)C2=O)c1
REMARK SMILES IDX 24 1 23 2 22 3 20 4 21 5 15 7 14 8 13 9 12 10 8 11 9 12
REMARK SMILES IDX 98 13 10 14 11 15 99 16 7 17 3 18 4 19 100 20 5 21 6 22 2 23
REMARK SMILES IDX 1 24 16 25 17 26 18 28 19 29 25 30 26 31 27 32 28 33 29 34
REMARK SMILES IDX 30 35 31 37 32 38 33 39 97 40 34 41 96 42 35 43 36 44 37 45
REMARK SMILES IDX 90 46 38 47 95 48 89 49 91 50 39 51 94 52 88 53 87 54 40 56
REMARK SMILES IDX 74 57 53 58 73 59 54 60 57 61 72 62 92 63 55 64 56 65 71 67
REMARK SMILES IDX 93 68 58 69 41 70 42 71 51 72 43 73 44 74 50 75 52 76 45 77
REMARK SMILES IDX 46 78 47 79 48 80 49 81 75 82 76 83 85 84 77 85 78 86 84 87
REMARK SMILES IDX 86 88 79 89 80 90 81 91 82 92 83 93 59 94 60 95 69 96 61 97
REMARK SMILES IDX 62 98 68 99 70 100 63 101 64 102 65 103 66 104 67 105
REMARK H PARENT 22 6 16 27 29 36 91 55 57 66
REMARK Flexibility Score: inf
ROOT
ATOM      1  C   UNL A   1      34.739  24.228  25.457  1.00  0.00     0.021 C 
ENDROOT
BRANCH   1   2
ATOM      2  C   UNL A   1      34.319  25.690  25.556  1.00  0.00     0.116 C 
BRANCH   2   3
ATOM      3  N   UNL A   1      33.134  25.814  26.381  1.00  0.00    -0.354 N 
ATOM      4  C   UNL A   1      32.000  26.549  26.180  1.00  0.00     0.243 C 
ATOM      5  O   UNL A   1      31.258  26.735  27.149  1.00  0.00    -0.273 OA
ATOM      6  H   UNL A   1      33.148  25.290  27.213  1.00  0.00     0.163 HD
BRANCH   4   7
ATOM      7  C   UNL A   1      31.766  27.279  24.838  1.00  0.00     0.181 C 
BRANCH   7   8
ATOM      8  C   UNL A   1      30.810  26.382  24.020  1.00  0.00     0.105 C 
BRANCH   8   9
ATOM      9  S   UNL A   1      31.501  25.264  22.743  1.00  0.00    -0.145 SA
BRANCH   9  10
ATOM     10  C   UNL A   1      31.108  23.581  23.308  1.00  0.00     0.146 C 
ATOM     11  N   UNL A   1      32.305  21.732  24.106  1.00  0.00    -0.249 N 
ATOM     12  C   UNL A   1      31.628  22.254  25.191  1.00  0.00     0.235 C 
ATOM     13  C   UNL A   1      32.079  22.481  22.964  1.00  0.00     0.247 C 
ATOM     14  O   UNL A   1      31.592  21.859  26.349  1.00  0.00    -0.274 OA
ATOM     15  C   UNL A   1      30.999  23.553  24.810  1.00  0.00     0.125 C 
ATOM     16  O   UNL A   1      32.547  22.312  21.851  1.00  0.00    -0.273 OA
BRANCH  11  17
ATOM     17  C   UNL A   1      33.206  20.618  24.195  1.00  0.00     0.055 A 
ATOM     18  C   UNL A   1      33.578  18.200  24.243  1.00  0.00     0.120 A 
ATOM     19  C   UNL A   1      34.869  18.390  24.715  1.00  0.00     0.046 A 
ATOM     20  C   UNL A   1      32.753  19.302  23.998  1.00  0.00     0.073 A 
ATOM     21  C   UNL A   1      35.362  19.681  24.864  1.00  0.00     0.006 A 
ATOM     22  C   UNL A   1      34.546  20.785  24.588  1.00  0.00     0.027 A 
BRANCH  18  23
ATOM     23  O   UNL A   1      33.155  16.904  24.126  1.00  0.00    -0.497 OA
ATOM     24  C   UNL A   1      32.437  16.431  25.266  1.00  0.00     0.278 C 
ENDBRANCH  18  23
ENDBRANCH  11  17
ENDBRANCH   9  10
ENDBRANCH   8   9
ENDBRANCH   7   8
BRANCH   7  25
ATOM     25  N   UNL A   1      31.299  28.650  25.092  1.00  0.00    -0.344 N 
ATOM     26  C   UNL A   1      32.142  29.589  25.657  1.00  0.00     0.217 C 
ATOM     27  H   UNL A   1      30.376  28.901  24.858  1.00  0.00     0.164 HD
ATOM     28  C   UNL A   1      31.515  30.940  25.861  1.00  0.00     0.114 C 
ATOM     29  O   UNL A   1      33.291  29.342  26.006  1.00  0.00    -0.275 OA
ENDBRANCH   7  25
ENDBRANCH   4   7
ENDBRANCH   2   3
ENDBRANCH   1   2
BRANCH   1  30
ATOM     30  C   UNL A   1      36.204  24.059  25.051  1.00  0.00     0.002 C 
BRANCH  30  31
ATOM     31  C   UNL A   1      37.185  24.077  26.229  1.00  0.00     0.002 C 
BRANCH  31  32
ATOM     32  C   UNL A   1      38.387  23.142  26.071  1.00  0.00     0.021 C 
BRANCH  32  33
ATOM     33  C   UNL A   1      39.573  23.498  26.961  1.00  0.00     0.116 C 
BRANCH  33  34
ATOM     34  N   UNL A   1      40.730  23.896  26.177  1.00  0.00    -0.352 N 
ATOM     35  C   UNL A   1      41.437  25.069  26.206  1.00  0.00     0.251 C 
ATOM     36  H   UNL A   1      41.051  23.226  25.531  1.00  0.00     0.163 HD
ATOM     37  O   UNL A   1      42.240  25.320  25.312  1.00  0.00    -0.269 OA
BRANCH  35  38
ATOM     38  C   UNL A   1      41.220  26.030  27.307  1.00  0.00     0.039 A 
ATOM     39  C   UNL A   1      40.194  25.785  28.219  1.00  0.00     0.014 A 
ATOM     40  C   UNL A   1      42.012  27.177  27.427  1.00  0.00     0.014 A 
ATOM     41  C   UNL A   1      39.984  26.672  29.274  1.00  0.00     0.010 A 
ATOM     42  C   UNL A   1      41.854  28.018  28.525  1.00  0.00     0.010 A 
ATOM     43  C   UNL A   1      40.829  27.782  29.451  1.00  0.00    -0.014 A 
BRANCH  43  44
ATOM     44  C   UNL A   1      40.639  28.700  30.602  1.00  0.00     0.031 A 
ATOM     45  C   UNL A   1      41.487  28.559  31.837  1.00  0.00     0.074 A 
ATOM     46  C   UNL A   1      39.678  29.643  30.541  1.00  0.00     0.049 A 
ATOM     47  N   UNL A   1      41.466  29.268  32.936  1.00  0.00    -0.248 NA
ATOM     48  C   UNL A   1      42.471  27.463  31.851  1.00  0.00     0.031 C 
ATOM     49  C   UNL A   1      38.757  29.840  29.418  1.00  0.00     0.029 A 
ATOM     50  N   UNL A   1      39.316  30.616  31.439  1.00  0.00    -0.354 N 
ATOM     51  C   UNL A   1      42.424  28.704  33.771  1.00  0.00     0.074 A 
ATOM     52  C   UNL A   1      42.966  27.557  33.076  1.00  0.00     0.031 C 
ATOM     53  C   UNL A   1      37.960  30.888  29.681  1.00  0.00     0.029 A 
ATOM     54  C   UNL A   1      38.286  31.415  31.003  1.00  0.00     0.049 A 
ATOM     55  H   UNL A   1      39.752  30.729  32.314  1.00  0.00     0.167 HD
ATOM     56  C   UNL A   1      42.834  29.121  34.992  1.00  0.00     0.037 A 
ATOM     57  C   UNL A   1      37.673  32.455  31.600  1.00  0.00     0.037 A 
ATOM     58  C   UNL A   1      42.300  30.276  35.668  1.00  0.00     0.049 A 
ATOM     59  C   UNL A   1      38.147  32.900  32.956  1.00  0.00     0.074 A 
ATOM     60  C   UNL A   1      42.685  30.817  36.883  1.00  0.00     0.029 A 
ATOM     61  N   UNL A   1      41.265  31.068  35.190  1.00  0.00    -0.354 N 
ATOM     62  N   UNL A   1      39.105  32.398  33.700  1.00  0.00    -0.248 NA
ATOM     63  C   UNL A   1      37.465  34.057  33.551  1.00  0.00     0.031 C 
ATOM     64  C   UNL A   1      41.847  31.901  37.164  1.00  0.00     0.029 A 
ATOM     65  C   UNL A   1      40.980  32.075  36.098  1.00  0.00     0.049 A 
ATOM     66  H   UNL A   1      40.801  30.932  34.333  1.00  0.00     0.167 HD
ATOM     67  C   UNL A   1      39.159  33.196  34.838  1.00  0.00     0.074 A 
ATOM     68  C   UNL A   1      38.149  34.222  34.674  1.00  0.00     0.031 C 
ATOM     69  C   UNL A   1      39.971  33.089  35.920  1.00  0.00     0.037 A 
BRANCH  56  70
ATOM     70  C   UNL A   1      43.913  28.327  35.679  1.00  0.00     0.058 A 
ATOM     71  C   UNL A   1      43.611  27.291  36.578  1.00  0.00     0.135 A 
ATOM     72  C   UNL A   1      45.268  28.576  35.403  1.00  0.00     0.135 A 
ATOM     73  F   UNL A   1      42.335  27.018  36.892  1.00  0.00    -0.206 F 
ATOM     74  C   UNL A   1      44.612  26.550  37.200  1.00  0.00     0.059 A 
ATOM     75  C   UNL A   1      46.285  27.826  35.989  1.00  0.00     0.059 A 
ATOM     76  F   UNL A   1      45.616  29.554  34.553  1.00  0.00    -0.206 F 
ATOM     77  C   UNL A   1      45.947  26.824  36.897  1.00  0.00     0.060 A 
BRANCH  77  78
ATOM     78  S   UNL A   1      47.231  25.845  37.703  1.00  0.00     0.124 S 
ATOM     79  O   UNL A   1      46.569  24.550  37.835  1.00  0.00    -0.237 OA
ATOM     80  O   UNL A   1      48.321  25.903  36.735  1.00  0.00    -0.237 OA
ATOM     81  O   UNL A   1      47.468  26.557  38.954  1.00  0.00    -0.744 OA
ENDBRANCH  77  78
ENDBRANCH  56  70
BRANCH  57  82
ATOM     82  C   UNL A   1      36.561  33.159  30.907  1.00  0.00     0.058 A 
ATOM     83  C   UNL A   1      36.805  34.004  29.816  1.00  0.00     0.135 A 
ATOM     84  C   UNL A   1      35.227  32.990  31.316  1.00  0.00     0.135 A 
ATOM     85  F   UNL A   1      38.062  34.202  29.389  1.00  0.00    -0.206 F 
ATOM     86  C   UNL A   1      35.773  34.676  29.166  1.00  0.00     0.059 A 
ATOM     87  C   UNL A   1      34.176  33.627  30.665  1.00  0.00     0.059 A 
ATOM     88  F   UNL A   1      34.936  32.176  32.342  1.00  0.00    -0.206 F 
ATOM     89  C   UNL A   1      34.460  34.478  29.598  1.00  0.00     0.060 A 
BRANCH  89  90
ATOM     90  S   UNL A   1      33.124  35.319  28.723  1.00  0.00     0.124 S 
ATOM     91  O   UNL A   1      33.856  36.332  27.972  1.00  0.00    -0.237 OA
ATOM     92  O   UNL A   1      32.543  34.235  27.938  1.00  0.00    -0.237 OA
ATOM     93  O   UNL A   1      32.280  35.822  29.803  1.00  0.00    -0.744 OA
ENDBRANCH  89  90
ENDBRANCH  57  82
BRANCH  69  94
ATOM     94  C   UNL A   1      39.823  34.130  36.997  1.00  0.00     0.058 A 
ATOM     95  C   UNL A   1      39.024  33.914  38.131  1.00  0.00     0.135 A 
ATOM     96  C   UNL A   1      40.517  35.347  36.908  1.00  0.00     0.135 A 
ATOM     97  F   UNL A   1      38.335  32.770  38.265  1.00  0.00    -0.206 F 
ATOM     98  C   UNL A   1      38.888  34.883  39.120  1.00  0.00     0.059 A 
ATOM     99  C   UNL A   1      40.424  36.317  37.902  1.00  0.00     0.059 A 
ATOM    100  F   UNL A   1      41.306  35.601  35.852  1.00  0.00    -0.206 F 
ATOM    101  C   UNL A   1      39.593  36.082  38.996  1.00  0.00     0.060 A 
BRANCH 101 102
ATOM    102  S   UNL A   1      39.419  37.325  40.293  1.00  0.00     0.124 S 
ATOM    103  O   UNL A   1      38.708  36.576  41.324  1.00  0.00    -0.237 OA
ATOM    104  O   UNL A   1      40.808  37.657  40.596  1.00  0.00    -0.237 OA
ATOM    105  O   UNL A   1      38.654  38.387  39.647  1.00  0.00    -0.744 OA
ENDBRANCH 101 102
ENDBRANCH  69  94
ENDBRANCH  43  44
ENDBRANCH  35  38
ENDBRANCH  33  34
ENDBRANCH  32  33
ENDBRANCH  31  32
ENDBRANCH  30  31
ENDBRANCH   1  30
TORSDOF 22
ENDMDL
