MODEL 1
REMARK VINA RESULT:     -12.9      0.000      0.000
REMARK SMILES CC(C)(C)c1cc(Nc2ccccc2C(=O)NCCCCCCNC(=O)c2ccc(-c3c4nc(c(-c5c(F)cc(S(=O)(=O)[O-])cc5F)c5ccc([nH]5)c(-c5c(F)cc(S(=O)(=O)[O-])cc5F)c5nc(c(-c6c(F)cc(S(=O)(=O)[O-])cc6F)c6ccc3[nH]6)C=C5)C=C4)cc2)cc2c1OCC2(C)C
REMARK SMILES IDX 20 1 19 2 18 3 17 4 15 5 16 6 14 8 9 9 10 10 11 11 13 12
REMARK SMILES IDX 12 13 8 14 7 16 5 17 6 18 95 19 94 20 96 21 93 22 98 23
REMARK SMILES IDX 97 24 99 25 100 26 2 27 1 28 3 29 4 30 21 31 22 32 23 33
REMARK SMILES IDX 24 34 25 35 26 37 27 38 28 39 92 40 29 41 91 42 30 43 31 44
REMARK SMILES IDX 32 45 85 46 33 47 90 48 84 49 86 50 34 51 89 52 83 53 82 54
REMARK SMILES IDX 35 56 69 57 48 58 68 59 49 60 52 61 67 62 87 63 50 64 51 65
REMARK SMILES IDX 66 67 88 68 53 69 36 70 37 71 46 72 38 73 39 74 45 75 47 76
REMARK SMILES IDX 40 77 41 78 42 79 43 80 44 81 70 82 71 83 80 84 72 85 73 86
REMARK SMILES IDX 79 87 81 88 74 89 75 90 76 91 77 92 78 93 54 94 55 95 64 96
REMARK SMILES IDX 56 97 57 98 63 99 65 100 58 101 59 102 60 103 61 104 62 105
REMARK H PARENT 17 7 8 15 24 36 86 55 52 66
REMARK Flexibility Score: inf
ROOT
ATOM      1  C   UNL A   1      32.961  30.335  26.672  1.00  0.00     0.002 C 
ENDROOT
BRANCH   1   2
ATOM      2  C   UNL A   1      31.895  29.332  27.116  1.00  0.00     0.021 C 
BRANCH   2   3
ATOM      3  C   UNL A   1      32.147  27.832  26.986  1.00  0.00     0.116 C 
BRANCH   3   4
ATOM      4  N   UNL A   1      31.014  26.949  27.063  1.00  0.00    -0.352 N 
ATOM      5  C   UNL A   1      30.544  26.015  26.166  1.00  0.00     0.253 C 
ATOM      6  O   UNL A   1      29.581  25.342  26.557  1.00  0.00    -0.269 OA
ATOM      7  H   UNL A   1      30.489  27.024  27.892  1.00  0.00     0.163 HD
BRANCH   5   8
ATOM      8  C   UNL A   1      31.029  25.773  24.755  1.00  0.00     0.063 A 
ATOM      9  C   UNL A   1      31.216  24.565  24.051  1.00  0.00     0.051 A 
ATOM     10  C   UNL A   1      31.571  24.619  22.676  1.00  0.00     0.027 A 
ATOM     11  C   UNL A   1      31.824  25.816  22.016  1.00  0.00     0.002 A 
ATOM     12  C   UNL A   1      31.279  26.979  24.048  1.00  0.00     0.016 A 
ATOM     13  C   UNL A   1      31.689  27.004  22.710  1.00  0.00     0.001 A 
BRANCH   9  14
ATOM     14  N   UNL A   1      31.146  23.271  24.605  1.00  0.00    -0.355 N 
ATOM     15  H   UNL A   1      30.260  22.953  24.895  1.00  0.00     0.167 HD
BRANCH  14  16
ATOM     16  C   UNL A   1      32.241  22.387  24.782  1.00  0.00     0.039 A 
ATOM     17  C   UNL A   1      34.688  22.074  24.947  1.00  0.00     0.002 A 
ATOM     18  C   UNL A   1      33.541  22.902  24.976  1.00  0.00     0.034 A 
ATOM     19  C   UNL A   1      34.463  20.707  24.793  1.00  0.00     0.127 A 
ATOM     20  C   UNL A   1      33.202  20.179  24.629  1.00  0.00     0.006 A 
ATOM     21  O   UNL A   1      35.450  19.760  24.742  1.00  0.00    -0.492 OA
ATOM     22  C   UNL A   1      32.093  21.003  24.607  1.00  0.00     0.034 A 
ATOM     23  C   UNL A   1      33.266  18.697  24.501  1.00  0.00     0.028 C 
ATOM     24  C   UNL A   1      34.794  18.501  24.496  1.00  0.00     0.240 C 
ATOM     25  C   UNL A   1      32.618  18.047  25.725  1.00  0.00     0.020 C 
ATOM     26  C   UNL A   1      32.638  18.179  23.204  1.00  0.00     0.020 C 
BRANCH  17  27
ATOM     27  C   UNL A   1      36.116  22.627  24.910  1.00  0.00    -0.009 C 
ATOM     28  C   UNL A   1      37.122  21.719  25.645  1.00  0.00     0.016 C 
ATOM     29  C   UNL A   1      36.254  24.020  25.560  1.00  0.00     0.016 C 
ATOM     30  C   UNL A   1      36.498  22.714  23.416  1.00  0.00     0.016 C 
ENDBRANCH  17  27
ENDBRANCH  14  16
ENDBRANCH   9  14
ENDBRANCH   5   8
ENDBRANCH   3   4
ENDBRANCH   2   3
ENDBRANCH   1   2
BRANCH   1  31
ATOM     31  C   UNL A   1      34.176  30.595  27.571  1.00  0.00     0.002 C 
BRANCH  31  32
ATOM     32  C   UNL A   1      34.575  32.045  27.871  1.00  0.00     0.021 C 
BRANCH  32  33
ATOM     33  C   UNL A   1      35.604  32.316  28.978  1.00  0.00     0.116 C 
BRANCH  33  34
ATOM     34  N   UNL A   1      35.443  31.515  30.181  1.00  0.00    -0.352 N 
ATOM     35  C   UNL A   1      36.329  30.653  30.805  1.00  0.00     0.251 C 
ATOM     36  H   UNL A   1      34.567  31.599  30.621  1.00  0.00     0.163 HD
ATOM     37  O   UNL A   1      35.967  30.048  31.812  1.00  0.00    -0.269 OA
BRANCH  35  38
ATOM     38  C   UNL A   1      37.700  30.408  30.275  1.00  0.00     0.039 A 
ATOM     39  C   UNL A   1      37.925  30.090  28.940  1.00  0.00     0.014 A 
ATOM     40  C   UNL A   1      38.806  30.568  31.113  1.00  0.00     0.014 A 
ATOM     41  C   UNL A   1      39.218  29.739  28.499  1.00  0.00     0.010 A 
ATOM     42  C   UNL A   1      40.109  30.299  30.644  1.00  0.00     0.010 A 
ATOM     43  C   UNL A   1      40.339  29.807  29.346  1.00  0.00    -0.014 A 
BRANCH  43  44
ATOM     44  C   UNL A   1      41.713  29.331  28.917  1.00  0.00     0.031 A 
ATOM     45  C   UNL A   1      42.906  30.280  28.926  1.00  0.00     0.074 A 
ATOM     46  C   UNL A   1      41.948  28.054  28.533  1.00  0.00     0.049 A 
ATOM     47  N   UNL A   1      44.116  30.108  28.443  1.00  0.00    -0.248 NA
ATOM     48  C   UNL A   1      42.709  31.596  29.555  1.00  0.00     0.031 C 
ATOM     49  C   UNL A   1      40.958  26.977  28.499  1.00  0.00     0.029 A 
ATOM     50  N   UNL A   1      43.107  27.439  28.100  1.00  0.00    -0.354 N 
ATOM     51  C   UNL A   1      44.802  31.302  28.666  1.00  0.00     0.074 A 
ATOM     52  C   UNL A   1      43.864  32.200  29.307  1.00  0.00     0.031 C 
ATOM     53  C   UNL A   1      41.556  25.834  28.125  1.00  0.00     0.029 A 
ATOM     54  C   UNL A   1      42.952  26.104  27.793  1.00  0.00     0.049 A 
ATOM     55  H   UNL A   1      43.966  27.912  28.018  1.00  0.00     0.167 HD
ATOM     56  C   UNL A   1      46.090  31.628  28.384  1.00  0.00     0.037 A 
ATOM     57  C   UNL A   1      43.805  25.196  27.270  1.00  0.00     0.037 A 
ATOM     58  C   UNL A   1      47.063  30.734  27.802  1.00  0.00     0.049 A 
ATOM     59  C   UNL A   1      45.208  25.596  26.895  1.00  0.00     0.074 A 
ATOM     60  C   UNL A   1      48.391  30.993  27.496  1.00  0.00     0.029 A 
ATOM     61  N   UNL A   1      46.831  29.413  27.457  1.00  0.00    -0.354 N 
ATOM     62  N   UNL A   1      45.810  26.749  27.058  1.00  0.00    -0.248 NA
ATOM     63  C   UNL A   1      46.044  24.572  26.246  1.00  0.00     0.031 C 
ATOM     64  C   UNL A   1      48.948  29.845  26.926  1.00  0.00     0.029 A 
ATOM     65  C   UNL A   1      47.986  28.851  26.927  1.00  0.00     0.049 A 
ATOM     66  H   UNL A   1      45.975  28.941  27.570  1.00  0.00     0.167 HD
ATOM     67  C   UNL A   1      47.097  26.581  26.553  1.00  0.00     0.074 A 
ATOM     68  C   UNL A   1      47.196  25.213  26.095  1.00  0.00     0.031 C 
ATOM     69  C   UNL A   1      48.102  27.488  26.476  1.00  0.00     0.037 A 
BRANCH  56  70
ATOM     70  C   UNL A   1      46.556  33.029  28.699  1.00  0.00     0.058 A 
ATOM     71  C   UNL A   1      47.172  33.350  29.917  1.00  0.00     0.135 A 
ATOM     72  C   UNL A   1      46.467  34.043  27.727  1.00  0.00     0.135 A 
ATOM     73  F   UNL A   1      47.276  32.427  30.886  1.00  0.00    -0.206 F 
ATOM     74  C   UNL A   1      47.668  34.626  30.170  1.00  0.00     0.059 A 
ATOM     75  C   UNL A   1      46.983  35.318  27.946  1.00  0.00     0.059 A 
ATOM     76  F   UNL A   1      45.896  33.791  26.539  1.00  0.00    -0.206 F 
ATOM     77  C   UNL A   1      47.573  35.602  29.176  1.00  0.00     0.060 A 
BRANCH  77  78
ATOM     78  S   UNL A   1      48.240  37.246  29.520  1.00  0.00     0.124 S 
ATOM     79  O   UNL A   1      48.827  37.596  28.231  1.00  0.00    -0.237 OA
ATOM     80  O   UNL A   1      47.046  37.992  29.896  1.00  0.00    -0.237 OA
ATOM     81  O   UNL A   1      49.195  37.007  30.599  1.00  0.00    -0.744 OA
ENDBRANCH  77  78
ENDBRANCH  56  70
BRANCH  57  82
ATOM     82  C   UNL A   1      43.348  23.794  27.035  1.00  0.00     0.058 A 
ATOM     83  C   UNL A   1      43.190  22.898  28.103  1.00  0.00     0.135 A 
ATOM     84  C   UNL A   1      43.068  23.322  25.742  1.00  0.00     0.135 A 
ATOM     85  F   UNL A   1      43.471  23.290  29.355  1.00  0.00    -0.206 F 
ATOM     86  C   UNL A   1      42.771  21.586  27.900  1.00  0.00     0.059 A 
ATOM     87  C   UNL A   1      42.616  22.026  25.517  1.00  0.00     0.059 A 
ATOM     88  F   UNL A   1      43.205  24.136  24.684  1.00  0.00    -0.206 F 
ATOM     89  C   UNL A   1      42.477  21.162  26.604  1.00  0.00     0.060 A 
BRANCH  89  90
ATOM     90  S   UNL A   1      41.869  19.479  26.361  1.00  0.00     0.124 S 
ATOM     91  O   UNL A   1      40.425  19.684  26.363  1.00  0.00    -0.237 OA
ATOM     92  O   UNL A   1      42.462  19.123  25.077  1.00  0.00    -0.237 OA
ATOM     93  O   UNL A   1      42.405  18.758  27.512  1.00  0.00    -0.744 OA
ENDBRANCH  89  90
ENDBRANCH  57  82
BRANCH  69  94
ATOM     94  C   UNL A   1      49.423  27.036  25.908  1.00  0.00     0.058 A 
ATOM     95  C   UNL A   1      49.737  27.187  24.548  1.00  0.00     0.135 A 
ATOM     96  C   UNL A   1      50.413  26.491  26.745  1.00  0.00     0.135 A 
ATOM     97  F   UNL A   1      48.829  27.697  23.699  1.00  0.00    -0.206 F 
ATOM     98  C   UNL A   1      50.970  26.794  24.034  1.00  0.00     0.059 A 
ATOM     99  C   UNL A   1      51.663  26.117  26.259  1.00  0.00     0.059 A 
ATOM    100  F   UNL A   1      50.175  26.331  28.057  1.00  0.00    -0.206 F 
ATOM    101  C   UNL A   1      51.929  26.262  24.898  1.00  0.00     0.060 A 
BRANCH 101 102
ATOM    102  S   UNL A   1      53.532  25.781  24.219  1.00  0.00     0.124 S 
ATOM    103  O   UNL A   1      54.415  26.782  24.810  1.00  0.00    -0.237 OA
ATOM    104  O   UNL A   1      53.689  24.421  24.726  1.00  0.00    -0.237 OA
ATOM    105  O   UNL A   1      53.339  25.889  22.777  1.00  0.00    -0.744 OA
ENDBRANCH 101 102
ENDBRANCH  69  94
ENDBRANCH  43  44
ENDBRANCH  35  38
ENDBRANCH  33  34
ENDBRANCH  32  33
ENDBRANCH  31  32
ENDBRANCH   1  31
TORSDOF 19
ENDMDL
MODEL 2
REMARK VINA RESULT:     -12.8      0.648      8.083
REMARK SMILES CC(C)(C)c1cc(Nc2ccccc2C(=O)NCCCCCCNC(=O)c2ccc(-c3c4nc(c(-c5c(F)cc(S(=O)(=O)[O-])cc5F)c5ccc([nH]5)c(-c5c(F)cc(S(=O)(=O)[O-])cc5F)c5nc(c(-c6c(F)cc(S(=O)(=O)[O-])cc6F)c6ccc3[nH]6)C=C5)C=C4)cc2)cc2c1OCC2(C)C
REMARK SMILES IDX 20 1 19 2 18 3 17 4 15 5 16 6 14 8 9 9 10 10 11 11 13 12
REMARK SMILES IDX 12 13 8 14 7 16 5 17 6 18 95 19 94 20 96 21 93 22 98 23
REMARK SMILES IDX 97 24 99 25 100 26 2 27 1 28 3 29 4 30 21 31 22 32 23 33
REMARK SMILES IDX 24 34 25 35 26 37 27 38 28 39 92 40 29 41 91 42 30 43 31 44
REMARK SMILES IDX 32 45 85 46 33 47 90 48 84 49 86 50 34 51 89 52 83 53 82 54
REMARK SMILES IDX 35 56 69 57 48 58 68 59 49 60 52 61 67 62 87 63 50 64 51 65
REMARK SMILES IDX 66 67 88 68 53 69 36 70 37 71 46 72 38 73 39 74 45 75 47 76
REMARK SMILES IDX 40 77 41 78 42 79 43 80 44 81 70 82 71 83 80 84 72 85 73 86
REMARK SMILES IDX 79 87 81 88 74 89 75 90 76 91 77 92 78 93 54 94 55 95 64 96
REMARK SMILES IDX 56 97 57 98 63 99 65 100 58 101 59 102 60 103 61 104 62 105
REMARK H PARENT 17 7 8 15 24 36 86 55 52 66
REMARK Flexibility Score: inf
ROOT
ATOM      1  C   UNL A   1      32.928  30.378  27.115  1.00  0.00     0.002 C 
ENDROOT
BRANCH   1   2
ATOM      2  C   UNL A   1      31.879  29.276  27.267  1.00  0.00     0.021 C 
BRANCH   2   3
ATOM      3  C   UNL A   1      32.233  27.826  26.945  1.00  0.00     0.116 C 
BRANCH   3   4
ATOM      4  N   UNL A   1      31.187  26.842  27.028  1.00  0.00    -0.352 N 
ATOM      5  C   UNL A   1      30.732  25.938  26.092  1.00  0.00     0.253 C 
ATOM      6  O   UNL A   1      29.861  25.155  26.493  1.00  0.00    -0.269 OA
ATOM      7  H   UNL A   1      30.721  26.808  27.894  1.00  0.00     0.163 HD
BRANCH   5   8
ATOM      8  C   UNL A   1      31.129  25.846  24.637  1.00  0.00     0.063 A 
ATOM      9  C   UNL A   1      31.330  24.715  23.818  1.00  0.00     0.051 A 
ATOM     10  C   UNL A   1      31.585  24.907  22.433  1.00  0.00     0.027 A 
ATOM     11  C   UNL A   1      31.727  26.168  21.867  1.00  0.00     0.002 A 
ATOM     12  C   UNL A   1      31.265  27.121  24.025  1.00  0.00     0.016 A 
ATOM     13  C   UNL A   1      31.579  27.283  22.670  1.00  0.00     0.001 A 
BRANCH   9  14
ATOM     14  N   UNL A   1      31.367  23.377  24.258  1.00  0.00    -0.355 N 
ATOM     15  H   UNL A   1      30.526  22.991  24.594  1.00  0.00     0.167 HD
BRANCH  14  16
ATOM     16  C   UNL A   1      32.511  22.539  24.260  1.00  0.00     0.039 A 
ATOM     17  C   UNL A   1      33.446  20.253  24.359  1.00  0.00     0.002 A 
ATOM     18  C   UNL A   1      32.363  21.140  24.152  1.00  0.00     0.034 A 
ATOM     19  C   UNL A   1      34.689  20.836  24.600  1.00  0.00     0.127 A 
ATOM     20  C   UNL A   1      34.863  22.199  24.682  1.00  0.00     0.006 A 
ATOM     21  O   UNL A   1      35.844  20.135  24.822  1.00  0.00    -0.492 OA
ATOM     22  C   UNL A   1      33.788  23.054  24.530  1.00  0.00     0.034 A 
ATOM     23  C   UNL A   1      36.291  22.532  24.935  1.00  0.00     0.028 C 
ATOM     24  C   UNL A   1      36.864  21.112  25.104  1.00  0.00     0.240 C 
ATOM     25  C   UNL A   1      36.880  23.235  23.710  1.00  0.00     0.020 C 
ATOM     26  C   UNL A   1      36.499  23.366  26.202  1.00  0.00     0.020 C 
BRANCH  17  27
ATOM     27  C   UNL A   1      33.270  18.736  24.490  1.00  0.00    -0.009 C 
ATOM     28  C   UNL A   1      32.688  18.324  25.857  1.00  0.00     0.016 C 
ATOM     29  C   UNL A   1      34.588  17.948  24.339  1.00  0.00     0.016 C 
ATOM     30  C   UNL A   1      32.290  18.326  23.368  1.00  0.00     0.016 C 
ENDBRANCH  17  27
ENDBRANCH  14  16
ENDBRANCH   9  14
ENDBRANCH   5   8
ENDBRANCH   3   4
ENDBRANCH   2   3
ENDBRANCH   1   2
BRANCH   1  31
ATOM     31  C   UNL A   1      34.337  30.166  27.683  1.00  0.00     0.002 C 
BRANCH  31  32
ATOM     32  C   UNL A   1      35.314  31.347  27.691  1.00  0.00     0.021 C 
BRANCH  32  33
ATOM     33  C   UNL A   1      35.789  31.906  29.041  1.00  0.00     0.116 C 
BRANCH  33  34
ATOM     34  N   UNL A   1      35.692  30.983  30.160  1.00  0.00    -0.352 N 
ATOM     35  C   UNL A   1      36.630  30.105  30.679  1.00  0.00     0.251 C 
ATOM     36  H   UNL A   1      34.823  30.982  30.623  1.00  0.00     0.163 HD
ATOM     37  O   UNL A   1      36.319  29.388  31.626  1.00  0.00    -0.269 OA
BRANCH  35  38
ATOM     38  C   UNL A   1      37.997  29.979  30.102  1.00  0.00     0.039 A 
ATOM     39  C   UNL A   1      38.207  29.837  28.734  1.00  0.00     0.014 A 
ATOM     40  C   UNL A   1      39.114  30.076  30.935  1.00  0.00     0.014 A 
ATOM     41  C   UNL A   1      39.502  29.591  28.233  1.00  0.00     0.010 A 
ATOM     42  C   UNL A   1      40.416  29.915  30.417  1.00  0.00     0.010 A 
ATOM     43  C   UNL A   1      40.638  29.595  29.065  1.00  0.00    -0.014 A 
BRANCH  43  44
ATOM     44  C   UNL A   1      42.018  29.227  28.559  1.00  0.00     0.031 A 
ATOM     45  C   UNL A   1      42.323  27.810  28.088  1.00  0.00     0.074 A 
ATOM     46  C   UNL A   1      43.024  30.129  28.481  1.00  0.00     0.049 A 
ATOM     47  N   UNL A   1      43.476  27.260  27.778  1.00  0.00    -0.248 NA
ATOM     48  C   UNL A   1      41.184  26.888  27.955  1.00  0.00     0.031 C 
ATOM     49  C   UNL A   1      42.930  31.546  28.835  1.00  0.00     0.029 A 
ATOM     50  N   UNL A   1      44.335  29.988  28.069  1.00  0.00    -0.354 N 
ATOM     51  C   UNL A   1      43.206  25.929  27.462  1.00  0.00     0.074 A 
ATOM     52  C   UNL A   1      41.781  25.746  27.642  1.00  0.00     0.031 C 
ATOM     53  C   UNL A   1      44.101  32.149  28.576  1.00  0.00     0.029 A 
ATOM     54  C   UNL A   1      45.071  31.152  28.130  1.00  0.00     0.049 A 
ATOM     55  H   UNL A   1      44.710  29.133  27.758  1.00  0.00     0.167 HD
ATOM     56  C   UNL A   1      44.049  24.948  27.047  1.00  0.00     0.037 A 
ATOM     57  C   UNL A   1      46.379  31.404  27.900  1.00  0.00     0.037 A 
ATOM     58  C   UNL A   1      45.462  25.118  26.801  1.00  0.00     0.049 A 
ATOM     59  C   UNL A   1      47.312  30.287  27.512  1.00  0.00     0.074 A 
ATOM     60  C   UNL A   1      46.377  24.169  26.370  1.00  0.00     0.029 A 
ATOM     61  N   UNL A   1      46.162  26.304  26.940  1.00  0.00    -0.354 N 
ATOM     62  N   UNL A   1      47.042  29.026  27.283  1.00  0.00    -0.248 NA
ATOM     63  C   UNL A   1      48.738  30.628  27.369  1.00  0.00     0.031 C 
ATOM     64  C   UNL A   1      47.637  24.769  26.292  1.00  0.00     0.029 A 
ATOM     65  C   UNL A   1      47.499  26.107  26.618  1.00  0.00     0.049 A 
ATOM     66  H   UNL A   1      45.771  27.161  27.224  1.00  0.00     0.167 HD
ATOM     67  C   UNL A   1      48.256  28.431  26.949  1.00  0.00     0.074 A 
ATOM     68  C   UNL A   1      49.261  29.470  26.987  1.00  0.00     0.031 C 
ATOM     69  C   UNL A   1      48.509  27.134  26.642  1.00  0.00     0.037 A 
BRANCH  56  70
ATOM     70  C   UNL A   1      43.479  23.568  26.822  1.00  0.00     0.058 A 
ATOM     71  C   UNL A   1      43.270  23.054  25.533  1.00  0.00     0.135 A 
ATOM     72  C   UNL A   1      43.230  22.714  27.912  1.00  0.00     0.135 A 
ATOM     73  F   UNL A   1      43.481  23.825  24.455  1.00  0.00    -0.206 F 
ATOM     74  C   UNL A   1      42.817  21.753  25.332  1.00  0.00     0.059 A 
ATOM     75  C   UNL A   1      42.806  21.399  27.734  1.00  0.00     0.059 A 
ATOM     76  F   UNL A   1      43.423  23.148  29.167  1.00  0.00    -0.206 F 
ATOM     77  C   UNL A   1      42.592  20.931  26.439  1.00  0.00     0.060 A 
BRANCH  77  78
ATOM     78  S   UNL A   1      42.022  19.241  26.153  1.00  0.00     0.124 S 
ATOM     79  O   UNL A   1      40.593  19.447  25.948  1.00  0.00    -0.237 OA
ATOM     80  O   UNL A   1      42.784  18.854  24.971  1.00  0.00    -0.237 OA
ATOM     81  O   UNL A   1      42.384  18.545  27.386  1.00  0.00    -0.744 OA
ENDBRANCH  77  78
ENDBRANCH  56  70
BRANCH  57  82
ATOM     82  C   UNL A   1      46.909  32.791  28.056  1.00  0.00     0.058 A 
ATOM     83  C   UNL A   1      46.780  33.733  27.025  1.00  0.00     0.135 A 
ATOM     84  C   UNL A   1      47.557  33.198  29.233  1.00  0.00     0.135 A 
ATOM     85  F   UNL A   1      46.193  33.387  25.868  1.00  0.00    -0.206 F 
ATOM     86  C   UNL A   1      47.275  35.028  27.153  1.00  0.00     0.059 A 
ATOM     87  C   UNL A   1      48.030  34.496  29.398  1.00  0.00     0.059 A 
ATOM     88  F   UNL A   1      47.710  32.337  30.251  1.00  0.00    -0.206 F 
ATOM     89  C   UNL A   1      47.890  35.403  28.348  1.00  0.00     0.060 A 
BRANCH  89  90
ATOM     90  S   UNL A   1      48.465  37.105  28.527  1.00  0.00     0.124 S 
ATOM     91  O   UNL A   1      47.338  37.856  27.986  1.00  0.00    -0.237 OA
ATOM     92  O   UNL A   1      48.670  37.207  29.967  1.00  0.00    -0.237 OA
ATOM     93  O   UNL A   1      49.685  37.134  27.725  1.00  0.00    -0.744 OA
ENDBRANCH  89  90
ENDBRANCH  57  82
BRANCH  69  94
ATOM     94  C   UNL A   1      49.921  26.752  26.282  1.00  0.00     0.058 A 
ATOM     95  C   UNL A   1      50.381  26.777  24.955  1.00  0.00     0.135 A 
ATOM     96  C   UNL A   1      50.846  26.407  27.283  1.00  0.00     0.135 A 
ATOM     97  F   UNL A   1      49.542  27.095  23.956  1.00  0.00    -0.206 F 
ATOM     98  C   UNL A   1      51.696  26.451  24.632  1.00  0.00     0.059 A 
ATOM     99  C   UNL A   1      52.173  26.105  26.986  1.00  0.00     0.059 A 
ATOM    100  F   UNL A   1      50.468  26.375  28.571  1.00  0.00    -0.206 F 
ATOM    101  C   UNL A   1      52.586  26.118  25.654  1.00  0.00     0.060 A 
BRANCH 101 102
ATOM    102  S   UNL A   1      54.294  25.723  25.219  1.00  0.00     0.124 S 
ATOM    103  O   UNL A   1      55.022  26.260  26.364  1.00  0.00    -0.237 OA
ATOM    104  O   UNL A   1      54.260  24.267  25.117  1.00  0.00    -0.237 OA
ATOM    105  O   UNL A   1      54.497  26.430  23.958  1.00  0.00    -0.744 OA
ENDBRANCH 101 102
ENDBRANCH  69  94
ENDBRANCH  43  44
ENDBRANCH  35  38
ENDBRANCH  33  34
ENDBRANCH  32  33
ENDBRANCH  31  32
ENDBRANCH   1  31
TORSDOF 19
ENDMDL
MODEL 3
REMARK VINA RESULT:     -12.8      0.554      7.916
REMARK SMILES CC(C)(C)c1cc(Nc2ccccc2C(=O)NCCCCCCNC(=O)c2ccc(-c3c4nc(c(-c5c(F)cc(S(=O)(=O)[O-])cc5F)c5ccc([nH]5)c(-c5c(F)cc(S(=O)(=O)[O-])cc5F)c5nc(c(-c6c(F)cc(S(=O)(=O)[O-])cc6F)c6ccc3[nH]6)C=C5)C=C4)cc2)cc2c1OCC2(C)C
REMARK SMILES IDX 20 1 19 2 18 3 17 4 15 5 16 6 14 8 9 9 10 10 11 11 13 12
REMARK SMILES IDX 12 13 8 14 7 16 5 17 6 18 95 19 94 20 96 21 93 22 98 23
REMARK SMILES IDX 97 24 99 25 100 26 2 27 1 28 3 29 4 30 21 31 22 32 23 33
REMARK SMILES IDX 24 34 25 35 26 37 27 38 28 39 92 40 29 41 91 42 30 43 31 44
REMARK SMILES IDX 32 45 85 46 33 47 90 48 84 49 86 50 34 51 89 52 83 53 82 54
REMARK SMILES IDX 35 56 69 57 48 58 68 59 49 60 52 61 67 62 87 63 50 64 51 65
REMARK SMILES IDX 66 67 88 68 53 69 36 70 37 71 46 72 38 73 39 74 45 75 47 76
REMARK SMILES IDX 40 77 41 78 42 79 43 80 44 81 70 82 71 83 80 84 72 85 73 86
REMARK SMILES IDX 79 87 81 88 74 89 75 90 76 91 77 92 78 93 54 94 55 95 64 96
REMARK SMILES IDX 56 97 57 98 63 99 65 100 58 101 59 102 60 103 61 104 62 105
REMARK H PARENT 17 7 8 15 24 36 86 55 52 66
REMARK Flexibility Score: inf
ROOT
ATOM      1  C   UNL A   1      32.926  30.554  26.593  1.00  0.00     0.002 C 
ENDROOT
BRANCH   1   2
ATOM      2  C   UNL A   1      31.821  29.513  26.777  1.00  0.00     0.021 C 
BRANCH   2   3
ATOM      3  C   UNL A   1      32.169  28.030  26.872  1.00  0.00     0.116 C 
BRANCH   3   4
ATOM      4  N   UNL A   1      31.088  27.090  27.012  1.00  0.00    -0.352 N 
ATOM      5  C   UNL A   1      30.678  26.068  26.185  1.00  0.00     0.253 C 
ATOM      6  O   UNL A   1      29.752  25.372  26.623  1.00  0.00    -0.269 OA
ATOM      7  H   UNL A   1      30.555  27.195  27.833  1.00  0.00     0.163 HD
BRANCH   5   8
ATOM      8  C   UNL A   1      31.182  25.753  24.796  1.00  0.00     0.063 A 
ATOM      9  C   UNL A   1      31.388  24.510  24.162  1.00  0.00     0.051 A 
ATOM     10  C   UNL A   1      31.761  24.492  22.791  1.00  0.00     0.027 A 
ATOM     11  C   UNL A   1      32.013  25.652  22.069  1.00  0.00     0.002 A 
ATOM     12  C   UNL A   1      31.433  26.921  24.027  1.00  0.00     0.016 A 
ATOM     13  C   UNL A   1      31.861  26.875  22.694  1.00  0.00     0.001 A 
BRANCH   9  14
ATOM     14  N   UNL A   1      31.320  23.248  24.785  1.00  0.00    -0.355 N 
ATOM     15  H   UNL A   1      30.456  22.986  25.178  1.00  0.00     0.167 HD
BRANCH  14  16
ATOM     16  C   UNL A   1      32.389  22.322  24.896  1.00  0.00     0.039 A 
ATOM     17  C   UNL A   1      34.827  21.912  24.895  1.00  0.00     0.002 A 
ATOM     18  C   UNL A   1      33.718  22.785  24.994  1.00  0.00     0.034 A 
ATOM     19  C   UNL A   1      34.537  20.553  24.772  1.00  0.00     0.127 A 
ATOM     20  C   UNL A   1      33.248  20.076  24.701  1.00  0.00     0.006 A 
ATOM     21  O   UNL A   1      35.481  19.567  24.664  1.00  0.00    -0.492 OA
ATOM     22  C   UNL A   1      32.175  20.944  24.747  1.00  0.00     0.034 A 
ATOM     23  C   UNL A   1      33.244  18.592  24.585  1.00  0.00     0.028 C 
ATOM     24  C   UNL A   1      34.759  18.334  24.477  1.00  0.00     0.240 C 
ATOM     25  C   UNL A   1      32.658  17.978  25.858  1.00  0.00     0.020 C 
ATOM     26  C   UNL A   1      32.509  18.089  23.340  1.00  0.00     0.020 C 
BRANCH  17  27
ATOM     27  C   UNL A   1      36.270  22.407  24.754  1.00  0.00    -0.009 C 
ATOM     28  C   UNL A   1      36.583  22.922  23.335  1.00  0.00     0.016 C 
ATOM     29  C   UNL A   1      37.325  21.320  25.049  1.00  0.00     0.016 C 
ATOM     30  C   UNL A   1      36.422  23.563  25.767  1.00  0.00     0.016 C 
ENDBRANCH  17  27
ENDBRANCH  14  16
ENDBRANCH   9  14
ENDBRANCH   5   8
ENDBRANCH   3   4
ENDBRANCH   2   3
ENDBRANCH   1   2
BRANCH   1  31
ATOM     31  C   UNL A   1      34.057  30.648  27.624  1.00  0.00     0.002 C 
BRANCH  31  32
ATOM     32  C   UNL A   1      34.628  32.028  27.970  1.00  0.00     0.021 C 
BRANCH  32  33
ATOM     33  C   UNL A   1      35.741  32.125  29.023  1.00  0.00     0.116 C 
BRANCH  33  34
ATOM     34  N   UNL A   1      35.609  31.215  30.149  1.00  0.00    -0.352 N 
ATOM     35  C   UNL A   1      36.525  30.332  30.697  1.00  0.00     0.251 C 
ATOM     36  H   UNL A   1      34.730  31.228  30.592  1.00  0.00     0.163 HD
ATOM     37  O   UNL A   1      36.184  29.628  31.644  1.00  0.00    -0.269 OA
BRANCH  35  38
ATOM     38  C   UNL A   1      37.903  30.184  30.152  1.00  0.00     0.039 A 
ATOM     39  C   UNL A   1      38.138  29.958  28.800  1.00  0.00     0.014 A 
ATOM     40  C   UNL A   1      39.004  30.346  30.997  1.00  0.00     0.014 A 
ATOM     41  C   UNL A   1      39.444  29.696  28.338  1.00  0.00     0.010 A 
ATOM     42  C   UNL A   1      40.316  30.167  30.511  1.00  0.00     0.010 A 
ATOM     43  C   UNL A   1      40.565  29.765  29.186  1.00  0.00    -0.014 A 
BRANCH  43  44
ATOM     44  C   UNL A   1      41.957  29.381  28.728  1.00  0.00     0.031 A 
ATOM     45  C   UNL A   1      42.261  27.962  28.262  1.00  0.00     0.074 A 
ATOM     46  C   UNL A   1      42.977  30.270  28.691  1.00  0.00     0.049 A 
ATOM     47  N   UNL A   1      43.417  27.398  27.990  1.00  0.00    -0.248 NA
ATOM     48  C   UNL A   1      41.115  27.056  28.084  1.00  0.00     0.031 C 
ATOM     49  C   UNL A   1      42.889  31.686  29.047  1.00  0.00     0.029 A 
ATOM     50  N   UNL A   1      44.301  30.113  28.324  1.00  0.00    -0.354 N 
ATOM     51  C   UNL A   1      43.141  26.072  27.659  1.00  0.00     0.074 A 
ATOM     52  C   UNL A   1      41.708  25.907  27.787  1.00  0.00     0.031 C 
ATOM     53  C   UNL A   1      44.076  32.275  28.833  1.00  0.00     0.029 A 
ATOM     54  C   UNL A   1      45.048  31.267  28.417  1.00  0.00     0.049 A 
ATOM     55  H   UNL A   1      44.675  29.255  28.023  1.00  0.00     0.167 HD
ATOM     56  C   UNL A   1      43.986  25.082  27.270  1.00  0.00     0.037 A 
ATOM     57  C   UNL A   1      46.367  31.503  28.235  1.00  0.00     0.037 A 
ATOM     58  C   UNL A   1      45.408  25.234  27.075  1.00  0.00     0.049 A 
ATOM     59  C   UNL A   1      47.299  30.376  27.875  1.00  0.00     0.074 A 
ATOM     60  C   UNL A   1      46.326  24.275  26.673  1.00  0.00     0.029 A 
ATOM     61  N   UNL A   1      46.118  26.410  27.244  1.00  0.00    -0.354 N 
ATOM     62  N   UNL A   1      47.021  29.119  27.631  1.00  0.00    -0.248 NA
ATOM     63  C   UNL A   1      48.733  30.698  27.785  1.00  0.00     0.031 C 
ATOM     64  C   UNL A   1      47.595  24.859  26.642  1.00  0.00     0.029 A 
ATOM     65  C   UNL A   1      47.463  26.197  26.970  1.00  0.00     0.049 A 
ATOM     66  H   UNL A   1      45.728  27.271  27.518  1.00  0.00     0.167 HD
ATOM     67  C   UNL A   1      48.238  28.509  27.338  1.00  0.00     0.074 A 
ATOM     68  C   UNL A   1      49.254  29.535  27.416  1.00  0.00     0.031 C 
ATOM     69  C   UNL A   1      48.485  27.211  27.034  1.00  0.00     0.037 A 
BRANCH  56  70
ATOM     70  C   UNL A   1      43.406  23.710  27.018  1.00  0.00     0.058 A 
ATOM     71  C   UNL A   1      43.176  23.230  25.720  1.00  0.00     0.135 A 
ATOM     72  C   UNL A   1      43.168  22.830  28.090  1.00  0.00     0.135 A 
ATOM     73  F   UNL A   1      43.375  24.027  24.659  1.00  0.00    -0.206 F 
ATOM     74  C   UNL A   1      42.714  21.936  25.493  1.00  0.00     0.059 A 
ATOM     75  C   UNL A   1      42.736  21.522  27.885  1.00  0.00     0.059 A 
ATOM     76  F   UNL A   1      43.381  23.232  29.353  1.00  0.00    -0.206 F 
ATOM     77  C   UNL A   1      42.501  21.088  26.582  1.00  0.00     0.060 A 
BRANCH  77  78
ATOM     78  S   UNL A   1      41.920  19.408  26.261  1.00  0.00     0.124 S 
ATOM     79  O   UNL A   1      42.355  18.714  27.468  1.00  0.00    -0.237 OA
ATOM     80  O   UNL A   1      40.481  19.599  26.123  1.00  0.00    -0.237 OA
ATOM     81  O   UNL A   1      42.622  19.032  25.035  1.00  0.00    -0.744 OA
ENDBRANCH  77  78
ENDBRANCH  56  70
BRANCH  57  82
ATOM     82  C   UNL A   1      46.909  32.882  28.417  1.00  0.00     0.058 A 
ATOM     83  C   UNL A   1      47.400  33.306  29.661  1.00  0.00     0.135 A 
ATOM     84  C   UNL A   1      46.942  33.801  27.356  1.00  0.00     0.135 A 
ATOM     85  F   UNL A   1      47.366  32.475  30.715  1.00  0.00    -0.206 F 
ATOM     86  C   UNL A   1      47.902  34.590  29.848  1.00  0.00     0.059 A 
ATOM     87  C   UNL A   1      47.471  35.079  27.510  1.00  0.00     0.059 A 
ATOM     88  F   UNL A   1      46.484  33.450  26.145  1.00  0.00    -0.206 F 
ATOM     89  C   UNL A   1      47.943  35.467  28.764  1.00  0.00     0.060 A 
BRANCH  89  90
ATOM     90  S   UNL A   1      48.661  37.106  29.004  1.00  0.00     0.124 S 
ATOM     91  O   UNL A   1      49.581  36.867  30.110  1.00  0.00    -0.237 OA
ATOM     92  O   UNL A   1      49.275  37.362  27.705  1.00  0.00    -0.237 OA
ATOM     93  O   UNL A   1      47.503  37.939  29.315  1.00  0.00    -0.744 OA
ENDBRANCH  89  90
ENDBRANCH  57  82
BRANCH  69  94
ATOM     94  C   UNL A   1      49.904  26.812  26.723  1.00  0.00     0.058 A 
ATOM     95  C   UNL A   1      50.793  26.391  27.725  1.00  0.00     0.135 A 
ATOM     96  C   UNL A   1      50.370  26.801  25.397  1.00  0.00     0.135 A 
ATOM     97  F   UNL A   1      50.406  26.385  29.012  1.00  0.00    -0.206 F 
ATOM     98  C   UNL A   1      52.095  25.995  27.428  1.00  0.00     0.059 A 
ATOM     99  C   UNL A   1      51.658  26.383  25.073  1.00  0.00     0.059 A 
ATOM    100  F   UNL A   1      49.563  27.184  24.394  1.00  0.00    -0.206 F 
ATOM    101  C   UNL A   1      52.518  25.993  26.098  1.00  0.00     0.060 A 
BRANCH 101 102
ATOM    102  S   UNL A   1      54.203  25.453  25.729  1.00  0.00     0.124 S 
ATOM    103  O   UNL A   1      54.791  26.673  25.186  1.00  0.00    -0.237 OA
ATOM    104  O   UNL A   1      54.693  25.044  27.041  1.00  0.00    -0.237 OA
ATOM    105  O   UNL A   1      54.011  24.369  24.770  1.00  0.00    -0.744 OA
ENDBRANCH 101 102
ENDBRANCH  69  94
ENDBRANCH  43  44
ENDBRANCH  35  38
ENDBRANCH  33  34
ENDBRANCH  32  33
ENDBRANCH  31  32
ENDBRANCH   1  31
TORSDOF 19
ENDMDL
