MODEL 1
REMARK VINA RESULT:     -12.0      0.000      0.000
REMARK SMILES Cc1cc2c(c(C)c1Br)C=C(C(=O)NCCCCCCNC(=O)c1ccc(-c3c4nc(c(-c5c(F)cc(S(=O)(=O)[O-])cc5F)c5ccc([nH]5)c(-c5c(F)cc(S(=O)(=O)[O-])cc5F)c5nc(c(-c6c(F)cc(S(=O)(=O)[O-])cc6F)c6ccc3[nH]6)C=C5)C=C4)cc1)[C@@H](C(F)(F)F)O2
REMARK SMILES IDX 18 1 17 2 16 3 15 4 14 5 12 6 13 7 11 9 1 10 2 11 3 12 8 13
REMARK SMILES IDX 4 14 6 15 9 16 5 17 95 18 7 19 10 20 90 21 91 22 92 23 93 24
REMARK SMILES IDX 94 25 19 26 20 27 21 28 22 29 23 31 24 32 25 33 89 34 26 35
REMARK SMILES IDX 88 36 27 37 28 38 29 39 82 40 30 41 87 42 81 43 83 44 31 45
REMARK SMILES IDX 86 46 80 47 79 48 32 50 66 51 45 52 65 53 46 54 49 55 64 56
REMARK SMILES IDX 84 57 47 58 48 59 63 61 85 62 50 63 33 64 34 65 43 66 35 67
REMARK SMILES IDX 36 68 42 69 44 70 37 71 38 72 39 73 40 74 41 75 67 76 68 77
REMARK SMILES IDX 77 78 69 79 70 80 76 81 78 82 71 83 72 84 73 85 74 86 75 87
REMARK SMILES IDX 51 88 52 89 61 90 53 91 54 92 60 93 62 94 55 95 56 96 57 97
REMARK SMILES IDX 58 98 59 99
REMARK H PARENT 14 8 21 30 83 49 49 60
REMARK Flexibility Score: inf
ROOT
ATOM      1  C   UNL A   1      33.170  28.730  26.893  1.00  0.00     0.002 C 
ENDROOT
BRANCH   1   2
ATOM      2  C   UNL A   1      33.586  27.761  25.779  1.00  0.00     0.002 C 
BRANCH   2   3
ATOM      3  C   UNL A   1      32.685  27.772  24.542  1.00  0.00     0.021 C 
BRANCH   3   4
ATOM      4  C   UNL A   1      32.081  26.412  24.214  1.00  0.00     0.116 C 
BRANCH   4   5
ATOM      5  N   UNL A   1      31.532  25.770  25.396  1.00  0.00    -0.352 N 
ATOM      6  C   UNL A   1      31.707  24.605  26.062  1.00  0.00     0.251 C 
ATOM      7  O   UNL A   1      31.018  24.471  27.079  1.00  0.00    -0.270 OA
ATOM      8  H   UNL A   1      30.850  26.333  25.828  1.00  0.00     0.163 HD
BRANCH   6   9
ATOM      9  C   UNL A   1      32.644  23.513  25.657  1.00  0.00     0.067 C 
ATOM     10  C   UNL A   1      37.580  19.356  24.787  1.00  0.00     0.046 C 
ATOM     11  C   UNL A   1      36.704  20.540  25.096  1.00  0.00    -0.033 A 
ATOM     12  C   UNL A   1      35.334  20.415  24.861  1.00  0.00     0.051 A 
ATOM     13  C   UNL A   1      37.195  21.758  25.616  1.00  0.00     0.024 A 
ATOM     14  C   UNL A   1      34.466  21.462  25.142  1.00  0.00     0.128 A 
ATOM     15  C   UNL A   1      36.319  22.836  25.907  1.00  0.00    -0.026 A 
ATOM     16  Br  UNL A   1      39.076  21.906  25.936  1.00  0.00    -0.050 Br
ATOM     17  C   UNL A   1      34.930  22.665  25.679  1.00  0.00     0.021 A 
ATOM     18  O   UNL A   1      33.154  21.194  24.897  1.00  0.00    -0.475 OA
ATOM     19  C   UNL A   1      36.810  24.152  26.465  1.00  0.00     0.046 C 
ATOM     20  C   UNL A   1      33.927  23.676  26.030  1.00  0.00     0.026 C 
ATOM     21  C   UNL A   1      32.237  22.312  24.858  1.00  0.00     0.314 C 
BRANCH  21  22
ATOM     22  C   UNL A   1      31.916  22.652  23.392  1.00  0.00     0.429 C 
ATOM     23  F   UNL A   1      32.037  21.550  22.612  1.00  0.00    -0.167 F 
ATOM     24  F   UNL A   1      30.650  23.100  23.227  1.00  0.00    -0.167 F 
ATOM     25  F   UNL A   1      32.739  23.601  22.891  1.00  0.00    -0.167 F 
ENDBRANCH  21  22
ENDBRANCH   6   9
ENDBRANCH   4   5
ENDBRANCH   3   4
ENDBRANCH   2   3
ENDBRANCH   1   2
BRANCH   1  26
ATOM     26  C   UNL A   1      34.065  29.962  27.054  1.00  0.00     0.021 C 
BRANCH  26  27
ATOM     27  C   UNL A   1      35.378  29.696  27.780  1.00  0.00     0.116 C 
BRANCH  27  28
ATOM     28  N   UNL A   1      35.325  30.138  29.163  1.00  0.00    -0.352 N 
ATOM     29  C   UNL A   1      36.292  30.066  30.130  1.00  0.00     0.251 C 
ATOM     30  H   UNL A   1      34.474  30.546  29.445  1.00  0.00     0.163 HD
ATOM     31  O   UNL A   1      36.004  30.268  31.308  1.00  0.00    -0.269 OA
BRANCH  29  32
ATOM     32  C   UNL A   1      37.679  29.732  29.748  1.00  0.00     0.039 A 
ATOM     33  C   UNL A   1      38.530  29.173  30.702  1.00  0.00     0.014 A 
ATOM     34  C   UNL A   1      38.135  29.979  28.448  1.00  0.00     0.014 A 
ATOM     35  C   UNL A   1      39.831  28.820  30.340  1.00  0.00     0.010 A 
ATOM     36  C   UNL A   1      39.405  29.558  28.071  1.00  0.00     0.010 A 
ATOM     37  C   UNL A   1      40.270  28.990  29.017  1.00  0.00    -0.014 A 
BRANCH  37  38
ATOM     38  C   UNL A   1      41.648  28.611  28.617  1.00  0.00     0.031 A 
ATOM     39  C   UNL A   1      42.737  29.648  28.616  1.00  0.00     0.074 A 
ATOM     40  C   UNL A   1      41.909  27.346  28.230  1.00  0.00     0.049 A 
ATOM     41  N   UNL A   1      43.992  29.525  28.273  1.00  0.00    -0.248 NA
ATOM     42  C   UNL A   1      42.362  31.009  29.038  1.00  0.00     0.031 C 
ATOM     43  C   UNL A   1      40.923  26.265  28.161  1.00  0.00     0.029 A 
ATOM     44  N   UNL A   1      43.079  26.757  27.825  1.00  0.00    -0.354 N 
ATOM     45  C   UNL A   1      44.555  30.785  28.439  1.00  0.00     0.074 A 
ATOM     46  C   UNL A   1      43.491  31.674  28.848  1.00  0.00     0.031 C 
ATOM     47  C   UNL A   1      41.539  25.135  27.774  1.00  0.00     0.029 A 
ATOM     48  C   UNL A   1      42.950  25.420  27.530  1.00  0.00     0.049 A 
ATOM     49  H   UNL A   1      43.931  27.244  27.754  1.00  0.00     0.167 HD
ATOM     50  C   UNL A   1      45.848  31.159  28.297  1.00  0.00     0.037 A 
ATOM     51  C   UNL A   1      43.867  24.526  27.110  1.00  0.00     0.037 A 
ATOM     52  C   UNL A   1      46.904  30.261  27.910  1.00  0.00     0.049 A 
ATOM     53  C   UNL A   1      45.292  24.975  26.921  1.00  0.00     0.074 A 
ATOM     54  C   UNL A   1      48.254  30.532  27.775  1.00  0.00     0.029 A 
ATOM     55  N   UNL A   1      46.731  28.921  27.598  1.00  0.00    -0.354 N 
ATOM     56  N   UNL A   1      45.816  26.160  27.131  1.00  0.00    -0.248 NA
ATOM     57  C   UNL A   1      46.248  23.971  26.438  1.00  0.00     0.031 C 
ATOM     58  C   UNL A   1      48.890  29.368  27.335  1.00  0.00     0.029 A 
ATOM     59  C   UNL A   1      47.944  28.357  27.244  1.00  0.00     0.049 A 
ATOM     60  H   UNL A   1      45.871  28.441  27.624  1.00  0.00     0.167 HD
ATOM     61  C   UNL A   1      47.166  26.038  26.822  1.00  0.00     0.074 A 
ATOM     62  C   UNL A   1      47.382  24.660  26.430  1.00  0.00     0.031 C 
ATOM     63  C   UNL A   1      48.140  26.982  26.856  1.00  0.00     0.037 A 
BRANCH  50  64
ATOM     64  C   UNL A   1      46.197  32.594  28.579  1.00  0.00     0.058 A 
ATOM     65  C   UNL A   1      46.617  33.009  29.853  1.00  0.00     0.135 A 
ATOM     66  C   UNL A   1      46.162  33.556  27.556  1.00  0.00     0.135 A 
ATOM     67  F   UNL A   1      46.651  32.134  30.872  1.00  0.00    -0.206 F 
ATOM     68  C   UNL A   1      46.970  34.328  30.109  1.00  0.00     0.059 A 
ATOM     69  C   UNL A   1      46.538  34.877  27.784  1.00  0.00     0.059 A 
ATOM     70  F   UNL A   1      45.763  33.216  26.321  1.00  0.00    -0.206 F 
ATOM     71  C   UNL A   1      46.932  35.255  29.066  1.00  0.00     0.060 A 
BRANCH  71  72
ATOM     72  S   UNL A   1      47.415  36.959  29.416  1.00  0.00     0.124 S 
ATOM     73  O   UNL A   1      48.718  37.032  28.762  1.00  0.00    -0.237 OA
ATOM     74  O   UNL A   1      46.344  37.721  28.783  1.00  0.00    -0.237 OA
ATOM     75  O   UNL A   1      47.443  37.011  30.875  1.00  0.00    -0.744 OA
ENDBRANCH  71  72
ENDBRANCH  50  64
BRANCH  51  76
ATOM     76  C   UNL A   1      43.471  23.112  26.869  1.00  0.00     0.058 A 
ATOM     77  C   UNL A   1      43.397  22.599  25.566  1.00  0.00     0.135 A 
ATOM     78  C   UNL A   1      43.181  22.242  27.931  1.00  0.00     0.135 A 
ATOM     79  F   UNL A   1      43.658  23.393  24.517  1.00  0.00    -0.206 F 
ATOM     80  C   UNL A   1      43.042  21.276  25.322  1.00  0.00     0.059 A 
ATOM     81  C   UNL A   1      42.848  20.908  27.714  1.00  0.00     0.059 A 
ATOM     82  F   UNL A   1      43.249  22.679  29.198  1.00  0.00    -0.206 F 
ATOM     83  C   UNL A   1      42.774  20.436  26.404  1.00  0.00     0.060 A 
BRANCH  83  84
ATOM     84  S   UNL A   1      42.365  18.709  26.074  1.00  0.00     0.124 S 
ATOM     85  O   UNL A   1      43.298  18.384  25.001  1.00  0.00    -0.237 OA
ATOM     86  O   UNL A   1      42.631  18.082  27.364  1.00  0.00    -0.237 OA
ATOM     87  O   UNL A   1      40.957  18.764  25.689  1.00  0.00    -0.744 OA
ENDBRANCH  83  84
ENDBRANCH  51  76
BRANCH  63  88
ATOM     88  C   UNL A   1      49.530  26.565  26.464  1.00  0.00     0.058 A 
ATOM     89  C   UNL A   1      50.395  25.952  27.384  1.00  0.00     0.135 A 
ATOM     90  C   UNL A   1      49.971  26.703  25.138  1.00  0.00     0.135 A 
ATOM     91  F   UNL A   1      50.023  25.802  28.666  1.00  0.00    -0.206 F 
ATOM     92  C   UNL A   1      51.654  25.500  27.006  1.00  0.00     0.059 A 
ATOM     93  C   UNL A   1      51.216  26.232  24.731  1.00  0.00     0.059 A 
ATOM     94  F   UNL A   1      49.178  27.273  24.217  1.00  0.00    -0.206 F 
ATOM     95  C   UNL A   1      52.052  25.637  25.674  1.00  0.00     0.060 A 
BRANCH  95  96
ATOM     96  S   UNL A   1      53.669  24.998  25.190  1.00  0.00     0.124 S 
ATOM     97  O   UNL A   1      53.909  25.714  23.942  1.00  0.00    -0.237 OA
ATOM     98  O   UNL A   1      54.507  25.392  26.319  1.00  0.00    -0.237 OA
ATOM     99  O   UNL A   1      53.442  23.562  25.057  1.00  0.00    -0.744 OA
ENDBRANCH  95  96
ENDBRANCH  63  88
ENDBRANCH  37  38
ENDBRANCH  29  32
ENDBRANCH  27  28
ENDBRANCH  26  27
ENDBRANCH   1  26
TORSDOF 17
ENDMDL
MODEL 2
REMARK VINA RESULT:     -11.8      1.885      8.540
REMARK SMILES Cc1cc2c(c(C)c1Br)C=C(C(=O)NCCCCCCNC(=O)c1ccc(-c3c4nc(c(-c5c(F)cc(S(=O)(=O)[O-])cc5F)c5ccc([nH]5)c(-c5c(F)cc(S(=O)(=O)[O-])cc5F)c5nc(c(-c6c(F)cc(S(=O)(=O)[O-])cc6F)c6ccc3[nH]6)C=C5)C=C4)cc1)[C@@H](C(F)(F)F)O2
REMARK SMILES IDX 18 1 17 2 16 3 15 4 14 5 12 6 13 7 11 9 1 10 2 11 3 12 8 13
REMARK SMILES IDX 4 14 6 15 9 16 5 17 95 18 7 19 10 20 90 21 91 22 92 23 93 24
REMARK SMILES IDX 94 25 19 26 20 27 21 28 22 29 23 31 24 32 25 33 89 34 26 35
REMARK SMILES IDX 88 36 27 37 28 38 29 39 82 40 30 41 87 42 81 43 83 44 31 45
REMARK SMILES IDX 86 46 80 47 79 48 32 50 66 51 45 52 65 53 46 54 49 55 64 56
REMARK SMILES IDX 84 57 47 58 48 59 63 61 85 62 50 63 33 64 34 65 43 66 35 67
REMARK SMILES IDX 36 68 42 69 44 70 37 71 38 72 39 73 40 74 41 75 67 76 68 77
REMARK SMILES IDX 77 78 69 79 70 80 76 81 78 82 71 83 72 84 73 85 74 86 75 87
REMARK SMILES IDX 51 88 52 89 61 90 53 91 54 92 60 93 62 94 55 95 56 96 57 97
REMARK SMILES IDX 58 98 59 99
REMARK H PARENT 14 8 21 30 83 49 49 60
REMARK Flexibility Score: inf
ROOT
ATOM      1  C   UNL A   1      35.862  32.536  27.903  1.00  0.00     0.002 C 
ENDROOT
BRANCH   1   2
ATOM      2  C   UNL A   1      34.703  31.537  27.780  1.00  0.00     0.002 C 
BRANCH   2   3
ATOM      3  C   UNL A   1      35.122  30.067  27.694  1.00  0.00     0.021 C 
BRANCH   3   4
ATOM      4  C   UNL A   1      34.237  29.233  26.775  1.00  0.00     0.116 C 
BRANCH   4   5
ATOM      5  N   UNL A   1      32.962  28.920  27.397  1.00  0.00    -0.352 N 
ATOM      6  C   UNL A   1      31.960  28.030  27.209  1.00  0.00     0.251 C 
ATOM      7  O   UNL A   1      31.031  28.104  28.021  1.00  0.00    -0.270 OA
ATOM      8  H   UNL A   1      32.777  29.515  28.159  1.00  0.00     0.163 HD
BRANCH   6   9
ATOM      9  C   UNL A   1      31.910  27.006  26.122  1.00  0.00     0.067 C 
ATOM     10  C   UNL A   1      32.148  21.692  22.366  1.00  0.00     0.046 C 
ATOM     11  C   UNL A   1      32.340  22.739  23.429  1.00  0.00    -0.033 A 
ATOM     12  C   UNL A   1      31.618  23.928  23.309  1.00  0.00     0.051 A 
ATOM     13  C   UNL A   1      33.200  22.576  24.537  1.00  0.00     0.024 A 
ATOM     14  C   UNL A   1      31.735  24.929  24.265  1.00  0.00     0.128 A 
ATOM     15  C   UNL A   1      33.328  23.591  25.521  1.00  0.00    -0.026 A 
ATOM     16  Br  UNL A   1      34.175  20.936  24.685  1.00  0.00    -0.050 Br
ATOM     17  C   UNL A   1      32.561  24.776  25.380  1.00  0.00     0.021 A 
ATOM     18  O   UNL A   1      30.950  26.019  24.043  1.00  0.00    -0.475 OA
ATOM     19  C   UNL A   1      34.238  23.449  26.719  1.00  0.00     0.046 C 
ATOM     20  C   UNL A   1      32.545  25.847  26.382  1.00  0.00     0.026 C 
ATOM     21  C   UNL A   1      31.241  27.219  24.798  1.00  0.00     0.314 C 
BRANCH  21  22
ATOM     22  C   UNL A   1      31.998  28.211  23.900  1.00  0.00     0.429 C 
ATOM     23  F   UNL A   1      33.335  28.000  23.980  1.00  0.00    -0.167 F 
ATOM     24  F   UNL A   1      31.669  28.087  22.592  1.00  0.00    -0.167 F 
ATOM     25  F   UNL A   1      31.766  29.499  24.243  1.00  0.00    -0.167 F 
ENDBRANCH  21  22
ENDBRANCH   6   9
ENDBRANCH   4   5
ENDBRANCH   3   4
ENDBRANCH   2   3
ENDBRANCH   1   2
BRANCH   1  26
ATOM     26  C   UNL A   1      35.867  33.375  29.184  1.00  0.00     0.021 C 
BRANCH  26  27
ATOM     27  C   UNL A   1      36.882  32.924  30.227  1.00  0.00     0.116 C 
BRANCH  27  28
ATOM     28  N   UNL A   1      36.361  31.848  31.053  1.00  0.00    -0.352 N 
ATOM     29  C   UNL A   1      36.807  30.559  31.173  1.00  0.00     0.251 C 
ATOM     30  H   UNL A   1      35.576  32.078  31.602  1.00  0.00     0.163 HD
ATOM     31  O   UNL A   1      36.111  29.714  31.733  1.00  0.00    -0.269 OA
BRANCH  29  32
ATOM     32  C   UNL A   1      38.124  30.190  30.616  1.00  0.00     0.039 A 
ATOM     33  C   UNL A   1      38.292  30.170  29.230  1.00  0.00     0.014 A 
ATOM     34  C   UNL A   1      39.185  29.858  31.464  1.00  0.00     0.014 A 
ATOM     35  C   UNL A   1      39.542  29.858  28.695  1.00  0.00     0.010 A 
ATOM     36  C   UNL A   1      40.447  29.622  30.931  1.00  0.00     0.010 A 
ATOM     37  C   UNL A   1      40.634  29.603  29.542  1.00  0.00    -0.014 A 
BRANCH  37  38
ATOM     38  C   UNL A   1      41.971  29.279  28.985  1.00  0.00     0.031 A 
ATOM     39  C   UNL A   1      42.260  27.884  28.504  1.00  0.00     0.074 A 
ATOM     40  C   UNL A   1      42.925  30.230  28.939  1.00  0.00     0.049 A 
ATOM     41  N   UNL A   1      43.370  27.395  28.015  1.00  0.00    -0.248 NA
ATOM     42  C   UNL A   1      41.166  26.903  28.605  1.00  0.00     0.031 C 
ATOM     43  C   UNL A   1      42.766  31.609  29.406  1.00  0.00     0.029 A 
ATOM     44  N   UNL A   1      44.215  30.183  28.476  1.00  0.00    -0.354 N 
ATOM     45  C   UNL A   1      43.108  26.056  27.749  1.00  0.00     0.074 A 
ATOM     46  C   UNL A   1      41.758  25.792  28.193  1.00  0.00     0.031 C 
ATOM     47  C   UNL A   1      43.903  32.286  29.172  1.00  0.00     0.029 A 
ATOM     48  C   UNL A   1      44.882  31.381  28.576  1.00  0.00     0.049 A 
ATOM     49  H   UNL A   1      44.625  29.368  28.105  1.00  0.00     0.167 HD
ATOM     50  C   UNL A   1      43.907  25.139  27.156  1.00  0.00     0.037 A 
ATOM     51  C   UNL A   1      46.141  31.711  28.227  1.00  0.00     0.037 A 
ATOM     52  C   UNL A   1      45.243  25.418  26.698  1.00  0.00     0.049 A 
ATOM     53  C   UNL A   1      47.026  30.664  27.606  1.00  0.00     0.074 A 
ATOM     54  C   UNL A   1      46.122  24.569  26.049  1.00  0.00     0.029 A 
ATOM     55  N   UNL A   1      45.891  26.637  26.837  1.00  0.00    -0.354 N 
ATOM     56  N   UNL A   1      46.744  29.415  27.315  1.00  0.00    -0.248 NA
ATOM     57  C   UNL A   1      48.396  31.066  27.265  1.00  0.00     0.031 C 
ATOM     58  C   UNL A   1      47.319  25.260  25.840  1.00  0.00     0.029 A 
ATOM     59  C   UNL A   1      47.169  26.555  26.312  1.00  0.00     0.049 A 
ATOM     60  H   UNL A   1      45.500  27.441  27.249  1.00  0.00     0.167 HD
ATOM     61  C   UNL A   1      47.896  28.889  26.743  1.00  0.00     0.074 A 
ATOM     62  C   UNL A   1      48.872  29.959  26.710  1.00  0.00     0.031 C 
ATOM     63  C   UNL A   1      48.129  27.632  26.289  1.00  0.00     0.037 A 
BRANCH  50  64
ATOM     64  C   UNL A   1      43.355  23.756  26.951  1.00  0.00     0.058 A 
ATOM     65  C   UNL A   1      42.982  23.298  25.678  1.00  0.00     0.135 A 
ATOM     66  C   UNL A   1      43.246  22.860  28.027  1.00  0.00     0.135 A 
ATOM     67  F   UNL A   1      43.048  24.119  24.617  1.00  0.00    -0.206 F 
ATOM     68  C   UNL A   1      42.500  22.009  25.480  1.00  0.00     0.059 A 
ATOM     69  C   UNL A   1      42.792  21.556  27.848  1.00  0.00     0.059 A 
ATOM     70  F   UNL A   1      43.584  23.247  29.267  1.00  0.00    -0.206 F 
ATOM     71  C   UNL A   1      42.413  21.143  26.572  1.00  0.00     0.060 A 
BRANCH  71  72
ATOM     72  S   UNL A   1      41.805  19.468  26.289  1.00  0.00     0.124 S 
ATOM     73  O   UNL A   1      42.427  19.144  25.009  1.00  0.00    -0.237 OA
ATOM     74  O   UNL A   1      42.326  18.750  27.447  1.00  0.00    -0.237 OA
ATOM     75  O   UNL A   1      40.354  19.633  26.255  1.00  0.00    -0.744 OA
ENDBRANCH  71  72
ENDBRANCH  50  64
BRANCH  51  76
ATOM     76  C   UNL A   1      46.628  33.103  28.431  1.00  0.00     0.058 A 
ATOM     77  C   UNL A   1      47.234  33.483  29.637  1.00  0.00     0.135 A 
ATOM     78  C   UNL A   1      46.519  34.072  27.421  1.00  0.00     0.135 A 
ATOM     79  F   UNL A   1      47.355  32.595  30.635  1.00  0.00    -0.206 F 
ATOM     80  C   UNL A   1      47.707  34.775  29.840  1.00  0.00     0.059 A 
ATOM     81  C   UNL A   1      47.008  35.364  27.591  1.00  0.00     0.059 A 
ATOM     82  F   UNL A   1      45.960  33.757  26.243  1.00  0.00    -0.206 F 
ATOM     83  C   UNL A   1      47.594  35.708  28.808  1.00  0.00     0.060 A 
BRANCH  83  84
ATOM     84  S   UNL A   1      48.260  37.366  29.068  1.00  0.00     0.124 S 
ATOM     85  O   UNL A   1      47.352  38.178  28.267  1.00  0.00    -0.237 OA
ATOM     86  O   UNL A   1      48.145  37.516  30.515  1.00  0.00    -0.237 OA
ATOM     87  O   UNL A   1      49.626  37.263  28.562  1.00  0.00    -0.744 OA
ENDBRANCH  83  84
ENDBRANCH  51  76
BRANCH  63  88
ATOM     88  C   UNL A   1      49.485  27.337  25.712  1.00  0.00     0.058 A 
ATOM     89  C   UNL A   1      50.543  26.899  26.522  1.00  0.00     0.135 A 
ATOM     90  C   UNL A   1      49.705  27.413  24.328  1.00  0.00     0.135 A 
ATOM     91  F   UNL A   1      50.387  26.815  27.854  1.00  0.00    -0.206 F 
ATOM     92  C   UNL A   1      51.778  26.557  25.982  1.00  0.00     0.059 A 
ATOM     93  C   UNL A   1      50.923  27.048  23.761  1.00  0.00     0.059 A 
ATOM     94  F   UNL A   1      48.722  27.817  23.507  1.00  0.00    -0.206 F 
ATOM     95  C   UNL A   1      51.954  26.626  24.598  1.00  0.00     0.060 A 
BRANCH  95  96
ATOM     96  S   UNL A   1      53.547  26.127  23.909  1.00  0.00     0.124 S 
ATOM     97  O   UNL A   1      53.223  25.976  22.494  1.00  0.00    -0.237 OA
ATOM     98  O   UNL A   1      54.399  27.264  24.246  1.00  0.00    -0.237 OA
ATOM     99  O   UNL A   1      53.853  24.889  24.619  1.00  0.00    -0.744 OA
ENDBRANCH  95  96
ENDBRANCH  63  88
ENDBRANCH  37  38
ENDBRANCH  29  32
ENDBRANCH  27  28
ENDBRANCH  26  27
ENDBRANCH   1  26
TORSDOF 17
ENDMDL
MODEL 3
REMARK VINA RESULT:     -11.6      1.796      2.581
REMARK SMILES Cc1cc2c(c(C)c1Br)C=C(C(=O)NCCCCCCNC(=O)c1ccc(-c3c4nc(c(-c5c(F)cc(S(=O)(=O)[O-])cc5F)c5ccc([nH]5)c(-c5c(F)cc(S(=O)(=O)[O-])cc5F)c5nc(c(-c6c(F)cc(S(=O)(=O)[O-])cc6F)c6ccc3[nH]6)C=C5)C=C4)cc1)[C@@H](C(F)(F)F)O2
REMARK SMILES IDX 18 1 17 2 16 3 15 4 14 5 12 6 13 7 11 9 1 10 2 11 3 12 8 13
REMARK SMILES IDX 4 14 6 15 9 16 5 17 95 18 7 19 10 20 90 21 91 22 92 23 93 24
REMARK SMILES IDX 94 25 19 26 20 27 21 28 22 29 23 31 24 32 25 33 89 34 26 35
REMARK SMILES IDX 88 36 27 37 28 38 29 39 82 40 30 41 87 42 81 43 83 44 31 45
REMARK SMILES IDX 86 46 80 47 79 48 32 50 66 51 45 52 65 53 46 54 49 55 64 56
REMARK SMILES IDX 84 57 47 58 48 59 63 61 85 62 50 63 33 64 34 65 43 66 35 67
REMARK SMILES IDX 36 68 42 69 44 70 37 71 38 72 39 73 40 74 41 75 67 76 68 77
REMARK SMILES IDX 77 78 69 79 70 80 76 81 78 82 71 83 72 84 73 85 74 86 75 87
REMARK SMILES IDX 51 88 52 89 61 90 53 91 54 92 60 93 62 94 55 95 56 96 57 97
REMARK SMILES IDX 58 98 59 99
REMARK H PARENT 14 8 21 30 83 49 49 60
REMARK Flexibility Score: inf
ROOT
ATOM      1  C   UNL A   1      33.543  30.331  27.231  1.00  0.00     0.002 C 
ENDROOT
BRANCH   1   2
ATOM      2  C   UNL A   1      33.063  28.898  26.964  1.00  0.00     0.002 C 
BRANCH   2   3
ATOM      3  C   UNL A   1      31.640  28.785  26.411  1.00  0.00     0.021 C 
BRANCH   3   4
ATOM      4  C   UNL A   1      31.370  29.707  25.229  1.00  0.00     0.116 C 
BRANCH   4   5
ATOM      5  N   UNL A   1      30.562  29.055  24.213  1.00  0.00    -0.352 N 
ATOM      6  C   UNL A   1      30.650  27.950  23.436  1.00  0.00     0.251 C 
ATOM      7  O   UNL A   1      29.682  27.750  22.694  1.00  0.00    -0.270 OA
ATOM      8  H   UNL A   1      29.727  29.548  24.045  1.00  0.00     0.163 HD
BRANCH   6   9
ATOM      9  C   UNL A   1      31.802  26.997  23.420  1.00  0.00     0.067 C 
ATOM     10  C   UNL A   1      36.032  22.110  24.204  1.00  0.00     0.046 C 
ATOM     11  C   UNL A   1      34.930  23.125  24.344  1.00  0.00    -0.033 A 
ATOM     12  C   UNL A   1      34.791  24.078  23.333  1.00  0.00     0.051 A 
ATOM     13  C   UNL A   1      34.031  23.154  25.432  1.00  0.00     0.024 A 
ATOM     14  C   UNL A   1      33.783  25.031  23.390  1.00  0.00     0.128 A 
ATOM     15  C   UNL A   1      32.996  24.123  25.502  1.00  0.00    -0.026 A 
ATOM     16  Br  UNL A   1      34.236  21.834  26.804  1.00  0.00    -0.050 Br
ATOM     17  C   UNL A   1      32.870  25.061  24.446  1.00  0.00     0.021 A 
ATOM     18  O   UNL A   1      33.741  25.877  22.324  1.00  0.00    -0.475 OA
ATOM     19  C   UNL A   1      32.017  24.182  26.652  1.00  0.00     0.046 C 
ATOM     20  C   UNL A   1      31.784  26.044  24.370  1.00  0.00     0.026 C 
ATOM     21  C   UNL A   1      32.943  27.077  22.452  1.00  0.00     0.314 C 
BRANCH  21  22
ATOM     22  C   UNL A   1      33.870  28.275  22.720  1.00  0.00     0.429 C 
ATOM     23  F   UNL A   1      34.925  28.259  21.870  1.00  0.00    -0.167 F 
ATOM     24  F   UNL A   1      33.250  29.465  22.538  1.00  0.00    -0.167 F 
ATOM     25  F   UNL A   1      34.360  28.275  23.981  1.00  0.00    -0.167 F 
ENDBRANCH  21  22
ENDBRANCH   6   9
ENDBRANCH   4   5
ENDBRANCH   3   4
ENDBRANCH   2   3
ENDBRANCH   1   2
BRANCH   1  26
ATOM     26  C   UNL A   1      35.045  30.479  27.492  1.00  0.00     0.021 C 
BRANCH  26  27
ATOM     27  C   UNL A   1      35.546  29.729  28.721  1.00  0.00     0.116 C 
BRANCH  27  28
ATOM     28  N   UNL A   1      35.654  30.605  29.875  1.00  0.00    -0.352 N 
ATOM     29  C   UNL A   1      36.751  30.883  30.648  1.00  0.00     0.251 C 
ATOM     30  H   UNL A   1      34.823  31.061  30.141  1.00  0.00     0.163 HD
ATOM     31  O   UNL A   1      36.617  31.458  31.726  1.00  0.00    -0.269 OA
BRANCH  29  32
ATOM     32  C   UNL A   1      38.092  30.478  30.179  1.00  0.00     0.039 A 
ATOM     33  C   UNL A   1      39.016  29.993  31.106  1.00  0.00     0.014 A 
ATOM     34  C   UNL A   1      38.433  30.585  28.827  1.00  0.00     0.014 A 
ATOM     35  C   UNL A   1      40.272  29.573  30.667  1.00  0.00     0.010 A 
ATOM     36  C   UNL A   1      39.656  30.097  28.382  1.00  0.00     0.010 A 
ATOM     37  C   UNL A   1      40.593  29.602  29.300  1.00  0.00    -0.014 A 
BRANCH  37  38
ATOM     38  C   UNL A   1      41.923  29.150  28.820  1.00  0.00     0.031 A 
ATOM     39  C   UNL A   1      43.065  30.126  28.760  1.00  0.00     0.074 A 
ATOM     40  C   UNL A   1      42.091  27.875  28.416  1.00  0.00     0.049 A 
ATOM     41  N   UNL A   1      44.290  29.936  28.344  1.00  0.00    -0.248 NA
ATOM     42  C   UNL A   1      42.791  31.503  29.206  1.00  0.00     0.031 C 
ATOM     43  C   UNL A   1      41.045  26.850  28.400  1.00  0.00     0.029 A 
ATOM     44  N   UNL A   1      43.201  27.225  27.942  1.00  0.00    -0.354 N 
ATOM     45  C   UNL A   1      44.930  31.162  28.480  1.00  0.00     0.074 A 
ATOM     46  C   UNL A   1      43.942  32.106  28.952  1.00  0.00     0.031 C 
ATOM     47  C   UNL A   1      41.574  25.690  27.975  1.00  0.00     0.029 A 
ATOM     48  C   UNL A   1      42.982  25.899  27.651  1.00  0.00     0.049 A 
ATOM     49  H   UNL A   1      44.073  27.665  27.822  1.00  0.00     0.167 HD
ATOM     50  C   UNL A   1      46.231  31.466  28.265  1.00  0.00     0.037 A 
ATOM     51  C   UNL A   1      43.823  24.959  27.176  1.00  0.00     0.037 A 
ATOM     52  C   UNL A   1      47.212  30.514  27.815  1.00  0.00     0.049 A 
ATOM     53  C   UNL A   1      45.257  25.330  26.905  1.00  0.00     0.074 A 
ATOM     54  C   UNL A   1      48.566  30.711  27.603  1.00  0.00     0.029 A 
ATOM     55  N   UNL A   1      46.948  29.187  27.509  1.00  0.00    -0.354 N 
ATOM     56  N   UNL A   1      45.857  26.483  27.088  1.00  0.00    -0.248 NA
ATOM     57  C   UNL A   1      46.127  24.278  26.366  1.00  0.00     0.031 C 
ATOM     58  C   UNL A   1      49.109  29.516  27.123  1.00  0.00     0.029 A 
ATOM     59  C   UNL A   1      48.106  28.559  27.085  1.00  0.00     0.049 A 
ATOM     60  H   UNL A   1      46.066  28.755  27.584  1.00  0.00     0.167 HD
ATOM     61  C   UNL A   1      47.178  26.289  26.701  1.00  0.00     0.074 A 
ATOM     62  C   UNL A   1      47.294  24.904  26.294  1.00  0.00     0.031 C 
ATOM     63  C   UNL A   1      48.202  27.178  26.681  1.00  0.00     0.037 A 
BRANCH  50  64
ATOM     64  C   UNL A   1      46.675  32.878  28.530  1.00  0.00     0.058 A 
ATOM     65  C   UNL A   1      47.144  33.272  29.793  1.00  0.00     0.135 A 
ATOM     66  C   UNL A   1      46.680  33.834  27.502  1.00  0.00     0.135 A 
ATOM     67  F   UNL A   1      47.143  32.403  30.817  1.00  0.00    -0.206 F 
ATOM     68  C   UNL A   1      47.584  34.569  30.034  1.00  0.00     0.059 A 
ATOM     69  C   UNL A   1      47.142  35.130  27.713  1.00  0.00     0.059 A 
ATOM     70  F   UNL A   1      46.237  33.512  26.276  1.00  0.00    -0.206 F 
ATOM     71  C   UNL A   1      47.583  35.490  28.984  1.00  0.00     0.060 A 
BRANCH  71  72
ATOM     72  S   UNL A   1      48.179  37.162  29.314  1.00  0.00     0.124 S 
ATOM     73  O   UNL A   1      47.287  37.583  30.389  1.00  0.00    -0.237 OA
ATOM     74  O   UNL A   1      49.566  36.927  29.696  1.00  0.00    -0.237 OA
ATOM     75  O   UNL A   1      47.988  37.849  28.039  1.00  0.00    -0.744 OA
ENDBRANCH  71  72
ENDBRANCH  50  64
BRANCH  51  76
ATOM     76  C   UNL A   1      43.336  23.570  26.954  1.00  0.00     0.058 A 
ATOM     77  C   UNL A   1      43.108  23.087  25.657  1.00  0.00     0.135 A 
ATOM     78  C   UNL A   1      43.111  22.693  28.026  1.00  0.00     0.135 A 
ATOM     79  F   UNL A   1      43.302  23.889  24.599  1.00  0.00    -0.206 F 
ATOM     80  C   UNL A   1      42.666  21.788  25.430  1.00  0.00     0.059 A 
ATOM     81  C   UNL A   1      42.693  21.381  27.823  1.00  0.00     0.059 A 
ATOM     82  F   UNL A   1      43.326  23.101  29.286  1.00  0.00    -0.206 F 
ATOM     83  C   UNL A   1      42.467  20.940  26.520  1.00  0.00     0.060 A 
BRANCH  83  84
ATOM     84  S   UNL A   1      41.943  19.241  26.206  1.00  0.00     0.124 S 
ATOM     85  O   UNL A   1      42.292  18.587  27.462  1.00  0.00    -0.237 OA
ATOM     86  O   UNL A   1      40.517  19.406  25.946  1.00  0.00    -0.237 OA
ATOM     87  O   UNL A   1      42.743  18.851  25.048  1.00  0.00    -0.744 OA
ENDBRANCH  83  84
ENDBRANCH  51  76
BRANCH  63  88
ATOM     88  C   UNL A   1      49.543  26.688  26.209  1.00  0.00     0.058 A 
ATOM     89  C   UNL A   1      49.962  26.873  24.883  1.00  0.00     0.135 A 
ATOM     90  C   UNL A   1      50.448  26.103  27.109  1.00  0.00     0.135 A 
ATOM     91  F   UNL A   1      49.132  27.421  23.981  1.00  0.00    -0.206 F 
ATOM     92  C   UNL A   1      51.229  26.486  24.461  1.00  0.00     0.059 A 
ATOM     93  C   UNL A   1      51.732  25.734  26.716  1.00  0.00     0.059 A 
ATOM     94  F   UNL A   1      50.100  25.913  28.392  1.00  0.00    -0.206 F 
ATOM     95  C   UNL A   1      52.110  25.925  25.389  1.00  0.00     0.060 A 
BRANCH  95  96
ATOM     96  S   UNL A   1      53.769  25.477  24.836  1.00  0.00     0.124 S 
ATOM     97  O   UNL A   1      54.593  25.989  25.926  1.00  0.00    -0.237 OA
ATOM     98  O   UNL A   1      53.680  24.023  24.739  1.00  0.00    -0.237 OA
ATOM     99  O   UNL A   1      53.906  26.178  23.563  1.00  0.00    -0.744 OA
ENDBRANCH  95  96
ENDBRANCH  63  88
ENDBRANCH  37  38
ENDBRANCH  29  32
ENDBRANCH  27  28
ENDBRANCH  26  27
ENDBRANCH   1  26
TORSDOF 17
ENDMDL
