MODEL 1
REMARK VINA RESULT:     -11.2      0.000      0.000
REMARK SMILES C[C@H](C(=O)N[C@H](C)C(=O)NCCCCCCNC(=O)c1ccc(-c2c3nc(c(-c4c(F)cc(S(=O)(=O)[O-])cc4F)c4ccc([nH]4)c(-c4c(F)cc(S(=O)(=O)[O-])cc4F)c4nc(c(-c5c(F)cc(S(=O)(=O)[O-])cc5F)c5ccc2[nH]5)C=C4)C=C3)cc1)n1cnc2ccccc21
REMARK SMILES IDX 13 1 12 2 11 3 10 4 8 5 9 6 6 8 7 9 5 10 3 11 4 12 2 14 1 15
REMARK SMILES IDX 86 16 87 17 94 18 88 19 89 20 93 21 90 22 92 23 91 24 14 25
REMARK SMILES IDX 15 26 16 27 17 28 18 29 19 31 20 32 21 33 85 34 22 35 84 36
REMARK SMILES IDX 23 37 24 38 25 39 78 40 26 41 83 42 77 43 79 44 27 45 82 46
REMARK SMILES IDX 76 47 75 48 28 50 62 51 41 52 61 53 42 54 45 55 60 56 80 57
REMARK SMILES IDX 43 58 44 59 59 61 81 62 46 63 29 64 30 65 39 66 31 67 32 68
REMARK SMILES IDX 38 69 40 70 33 71 34 72 35 73 36 74 37 75 63 76 64 77 73 78
REMARK SMILES IDX 65 79 66 80 72 81 74 82 67 83 68 84 69 85 70 86 71 87 47 88
REMARK SMILES IDX 48 89 57 90 49 91 50 92 56 93 58 94 51 95 52 96 53 97 54 98
REMARK SMILES IDX 55 99
REMARK H PARENT 10 7 5 13 17 30 79 49 45 60
REMARK Flexibility Score: inf
ROOT
ATOM      1  C   UNL A   1      41.039  19.627  26.454  1.00  0.00     0.002 C 
ENDROOT
BRANCH   1   2
ATOM      2  C   UNL A   1      42.368  19.033  26.923  1.00  0.00     0.021 C 
BRANCH   2   3
ATOM      3  C   UNL A   1      43.186  18.379  25.820  1.00  0.00     0.116 C 
BRANCH   3   4
ATOM      4  N   UNL A   1      44.608  18.460  26.093  1.00  0.00    -0.354 N 
ATOM      5  C   UNL A   1      45.610  19.032  25.367  1.00  0.00     0.242 C 
ATOM      6  O   UNL A   1      46.773  18.725  25.636  1.00  0.00    -0.273 OA
ATOM      7  H   UNL A   1      44.895  18.034  26.933  1.00  0.00     0.163 HD
BRANCH   5   8
ATOM      8  C   UNL A   1      45.283  19.921  24.158  1.00  0.00     0.168 C 
ATOM      9  C   UNL A   1      44.934  19.058  22.943  1.00  0.00     0.041 C 
BRANCH   8  10
ATOM     10  N   UNL A   1      44.206  20.859  24.479  1.00  0.00    -0.343 N 
ATOM     11  C   UNL A   1      44.279  22.189  24.756  1.00  0.00     0.243 C 
ATOM     12  O   UNL A   1      43.258  22.861  24.618  1.00  0.00    -0.273 OA
ATOM     13  H   UNL A   1      43.302  20.472  24.497  1.00  0.00     0.164 HD
BRANCH  11  14
ATOM     14  C   UNL A   1      45.592  22.759  25.269  1.00  0.00     0.174 C 
ATOM     15  C   UNL A   1      46.538  23.141  24.130  1.00  0.00     0.042 C 
BRANCH  14  16
ATOM     16  N   UNL A   1      45.340  23.918  26.121  1.00  0.00    -0.318 N 
ATOM     17  C   UNL A   1      45.309  25.217  25.693  1.00  0.00     0.201 A 
ATOM     18  C   UNL A   1      44.949  23.897  27.441  1.00  0.00     0.069 A 
ATOM     19  N   UNL A   1      44.811  26.017  26.608  1.00  0.00    -0.237 NA
ATOM     20  C   UNL A   1      44.547  25.207  27.688  1.00  0.00     0.088 A 
ATOM     21  C   UNL A   1      44.853  22.885  28.405  1.00  0.00     0.028 A 
ATOM     22  C   UNL A   1      43.942  25.516  28.915  1.00  0.00     0.030 A 
ATOM     23  C   UNL A   1      44.258  23.213  29.625  1.00  0.00     0.002 A 
ATOM     24  C   UNL A   1      43.787  24.501  29.870  1.00  0.00     0.002 A 
ENDBRANCH  14  16
ENDBRANCH  11  14
ENDBRANCH   8  10
ENDBRANCH   5   8
ENDBRANCH   3   4
ENDBRANCH   2   3
ENDBRANCH   1   2
BRANCH   1  25
ATOM     25  C   UNL A   1      40.988  21.156  26.408  1.00  0.00     0.002 C 
BRANCH  25  26
ATOM     26  C   UNL A   1      41.291  21.862  27.732  1.00  0.00     0.021 C 
BRANCH  26  27
ATOM     27  C   UNL A   1      40.960  23.346  27.749  1.00  0.00     0.116 C 
BRANCH  27  28
ATOM     28  N   UNL A   1      41.237  23.979  26.473  1.00  0.00    -0.352 N 
ATOM     29  C   UNL A   1      41.151  25.310  26.147  1.00  0.00     0.251 C 
ATOM     30  H   UNL A   1      41.522  23.377  25.748  1.00  0.00     0.163 HD
ATOM     31  O   UNL A   1      41.222  25.668  24.978  1.00  0.00    -0.269 OA
BRANCH  29  32
ATOM     32  C   UNL A   1      40.949  26.299  27.226  1.00  0.00     0.039 A 
ATOM     33  C   UNL A   1      40.087  25.989  28.279  1.00  0.00     0.014 A 
ATOM     34  C   UNL A   1      41.632  27.518  27.203  1.00  0.00     0.014 A 
ATOM     35  C   UNL A   1      39.947  26.887  29.340  1.00  0.00     0.010 A 
ATOM     36  C   UNL A   1      41.550  28.374  28.295  1.00  0.00     0.010 A 
ATOM     37  C   UNL A   1      40.698  28.074  29.369  1.00  0.00    -0.014 A 
BRANCH  37  38
ATOM     38  C   UNL A   1      40.589  29.037  30.492  1.00  0.00     0.031 A 
ATOM     39  C   UNL A   1      41.473  28.870  31.700  1.00  0.00     0.074 A 
ATOM     40  C   UNL A   1      39.655  30.008  30.461  1.00  0.00     0.049 A 
ATOM     41  N   UNL A   1      41.451  29.517  32.836  1.00  0.00    -0.248 NA
ATOM     42  C   UNL A   1      42.497  27.814  31.629  1.00  0.00     0.031 C 
ATOM     43  C   UNL A   1      38.722  30.252  29.359  1.00  0.00     0.029 A 
ATOM     44  N   UNL A   1      39.326  30.965  31.389  1.00  0.00    -0.354 N 
ATOM     45  C   UNL A   1      42.443  28.937  33.619  1.00  0.00     0.074 A 
ATOM     46  C   UNL A   1      43.011  27.852  32.849  1.00  0.00     0.031 C 
ATOM     47  C   UNL A   1      37.935  31.296  29.669  1.00  0.00     0.029 A 
ATOM     48  C   UNL A   1      38.277  31.769  31.008  1.00  0.00     0.049 A 
ATOM     49  H   UNL A   1      39.797  31.065  32.247  1.00  0.00     0.167 HD
ATOM     50  C   UNL A   1      42.860  29.294  34.856  1.00  0.00     0.037 A 
ATOM     51  C   UNL A   1      37.651  32.761  31.670  1.00  0.00     0.037 A 
ATOM     52  C   UNL A   1      42.309  30.394  35.601  1.00  0.00     0.049 A 
ATOM     53  C   UNL A   1      38.123  33.128  33.053  1.00  0.00     0.074 A 
ATOM     54  C   UNL A   1      42.687  30.863  36.847  1.00  0.00     0.029 A 
ATOM     55  N   UNL A   1      41.268  31.202  35.169  1.00  0.00    -0.354 N 
ATOM     56  N   UNL A   1      39.090  32.595  33.763  1.00  0.00    -0.248 NA
ATOM     57  C   UNL A   1      37.424  34.233  33.725  1.00  0.00     0.031 C 
ATOM     58  C   UNL A   1      41.846  31.928  37.186  1.00  0.00     0.029 A 
ATOM     59  C   UNL A   1      40.981  32.158  36.128  1.00  0.00     0.049 A 
ATOM     60  H   UNL A   1      40.801  31.109  34.307  1.00  0.00     0.167 HD
ATOM     61  C   UNL A   1      39.142  33.328  34.944  1.00  0.00     0.074 A 
ATOM     62  C   UNL A   1      38.112  34.342  34.853  1.00  0.00     0.031 C 
ATOM     63  C   UNL A   1      39.971  33.178  36.007  1.00  0.00     0.037 A 
BRANCH  50  64
ATOM     64  C   UNL A   1      43.972  28.495  35.480  1.00  0.00     0.058 A 
ATOM     65  C   UNL A   1      45.319  28.855  35.316  1.00  0.00     0.135 A 
ATOM     66  C   UNL A   1      43.685  27.385  36.291  1.00  0.00     0.135 A 
ATOM     67  F   UNL A   1      45.651  29.896  34.536  1.00  0.00    -0.206 F 
ATOM     68  C   UNL A   1      46.344  28.131  35.916  1.00  0.00     0.059 A 
ATOM     69  C   UNL A   1      44.693  26.664  36.926  1.00  0.00     0.059 A 
ATOM     70  F   UNL A   1      42.415  26.994  36.479  1.00  0.00    -0.206 F 
ATOM     71  C   UNL A   1      46.021  27.039  36.722  1.00  0.00     0.060 A 
BRANCH  71  72
ATOM     72  S   UNL A   1      47.363  26.124  37.510  1.00  0.00     0.124 S 
ATOM     73  O   UNL A   1      47.209  24.805  36.905  1.00  0.00    -0.237 OA
ATOM     74  O   UNL A   1      48.540  26.879  37.093  1.00  0.00    -0.237 OA
ATOM     75  O   UNL A   1      47.040  26.203  38.931  1.00  0.00    -0.744 OA
ENDBRANCH  71  72
ENDBRANCH  50  64
BRANCH  51  76
ATOM     76  C   UNL A   1      36.519  33.490  31.036  1.00  0.00     0.058 A 
ATOM     77  C   UNL A   1      35.210  33.351  31.520  1.00  0.00     0.135 A 
ATOM     78  C   UNL A   1      36.719  34.329  29.928  1.00  0.00     0.135 A 
ATOM     79  F   UNL A   1      34.965  32.557  32.574  1.00  0.00    -0.206 F 
ATOM     80  C   UNL A   1      34.133  33.991  30.911  1.00  0.00     0.059 A 
ATOM     81  C   UNL A   1      35.663  35.003  29.320  1.00  0.00     0.059 A 
ATOM     82  F   UNL A   1      37.954  34.513  29.438  1.00  0.00    -0.206 F 
ATOM     83  C   UNL A   1      34.372  34.814  29.810  1.00  0.00     0.060 A 
BRANCH  83  84
ATOM     84  S   UNL A   1      32.972  35.657  29.041  1.00  0.00     0.124 S 
ATOM     85  O   UNL A   1      33.642  36.713  28.290  1.00  0.00    -0.237 OA
ATOM     86  O   UNL A   1      32.371  34.590  28.247  1.00  0.00    -0.237 OA
ATOM     87  O   UNL A   1      32.180  36.101  30.184  1.00  0.00    -0.744 OA
ENDBRANCH  83  84
ENDBRANCH  51  76
BRANCH  63  88
ATOM     88  C   UNL A   1      39.851  34.169  37.132  1.00  0.00     0.058 A 
ATOM     89  C   UNL A   1      40.486  35.419  37.093  1.00  0.00     0.135 A 
ATOM     90  C   UNL A   1      39.023  33.887  38.232  1.00  0.00     0.135 A 
ATOM     91  F   UNL A   1      41.292  35.737  36.067  1.00  0.00    -0.206 F 
ATOM     92  C   UNL A   1      40.318  36.350  38.113  1.00  0.00     0.059 A 
ATOM     93  C   UNL A   1      38.818  34.813  39.249  1.00  0.00     0.059 A 
ATOM     94  F   UNL A   1      38.385  32.709  38.313  1.00  0.00    -0.206 F 
ATOM     95  C   UNL A   1      39.477  36.040  39.184  1.00  0.00     0.060 A 
BRANCH  95  96
ATOM     96  S   UNL A   1      39.227  37.278  40.474  1.00  0.00     0.124 S 
ATOM     97  O   UNL A   1      38.787  36.451  41.593  1.00  0.00    -0.237 OA
ATOM     98  O   UNL A   1      40.556  37.866  40.604  1.00  0.00    -0.237 OA
ATOM     99  O   UNL A   1      38.211  38.159  39.907  1.00  0.00    -0.744 OA
ENDBRANCH  95  96
ENDBRANCH  63  88
ENDBRANCH  37  38
ENDBRANCH  29  32
ENDBRANCH  27  28
ENDBRANCH  26  27
ENDBRANCH  25  26
ENDBRANCH   1  25
TORSDOF 19
ENDMDL
MODEL 2
REMARK VINA RESULT:     -11.1      0.394      8.191
REMARK SMILES C[C@H](C(=O)N[C@H](C)C(=O)NCCCCCCNC(=O)c1ccc(-c2c3nc(c(-c4c(F)cc(S(=O)(=O)[O-])cc4F)c4ccc([nH]4)c(-c4c(F)cc(S(=O)(=O)[O-])cc4F)c4nc(c(-c5c(F)cc(S(=O)(=O)[O-])cc5F)c5ccc2[nH]5)C=C4)C=C3)cc1)n1cnc2ccccc21
REMARK SMILES IDX 13 1 12 2 11 3 10 4 8 5 9 6 6 8 7 9 5 10 3 11 4 12 2 14 1 15
REMARK SMILES IDX 86 16 87 17 94 18 88 19 89 20 93 21 90 22 92 23 91 24 14 25
REMARK SMILES IDX 15 26 16 27 17 28 18 29 19 31 20 32 21 33 85 34 22 35 84 36
REMARK SMILES IDX 23 37 24 38 25 39 78 40 26 41 83 42 77 43 79 44 27 45 82 46
REMARK SMILES IDX 76 47 75 48 28 50 62 51 41 52 61 53 42 54 45 55 60 56 80 57
REMARK SMILES IDX 43 58 44 59 59 61 81 62 46 63 29 64 30 65 39 66 31 67 32 68
REMARK SMILES IDX 38 69 40 70 33 71 34 72 35 73 36 74 37 75 63 76 64 77 73 78
REMARK SMILES IDX 65 79 66 80 72 81 74 82 67 83 68 84 69 85 70 86 71 87 47 88
REMARK SMILES IDX 48 89 57 90 49 91 50 92 56 93 58 94 51 95 52 96 53 97 54 98
REMARK SMILES IDX 55 99
REMARK H PARENT 10 7 5 13 17 30 79 49 45 60
REMARK Flexibility Score: inf
ROOT
ATOM      1  C   UNL A   1      41.016  19.733  26.101  1.00  0.00     0.002 C 
ENDROOT
BRANCH   1   2
ATOM      2  C   UNL A   1      42.313  19.235  26.738  1.00  0.00     0.021 C 
BRANCH   2   3
ATOM      3  C   UNL A   1      43.135  18.313  25.850  1.00  0.00     0.116 C 
BRANCH   3   4
ATOM      4  N   UNL A   1      44.552  18.417  26.141  1.00  0.00    -0.354 N 
ATOM      5  C   UNL A   1      45.552  19.013  25.432  1.00  0.00     0.242 C 
ATOM      6  O   UNL A   1      46.717  18.725  25.714  1.00  0.00    -0.273 OA
ATOM      7  H   UNL A   1      44.836  17.990  26.982  1.00  0.00     0.163 HD
BRANCH   5   8
ATOM      8  C   UNL A   1      45.224  19.906  24.226  1.00  0.00     0.168 C 
ATOM      9  C   UNL A   1      44.872  19.047  23.009  1.00  0.00     0.041 C 
BRANCH   8  10
ATOM     10  N   UNL A   1      44.148  20.844  24.552  1.00  0.00    -0.343 N 
ATOM     11  C   UNL A   1      44.221  22.177  24.812  1.00  0.00     0.243 C 
ATOM     12  O   UNL A   1      43.195  22.845  24.681  1.00  0.00    -0.273 OA
ATOM     13  H   UNL A   1      43.246  20.455  24.588  1.00  0.00     0.164 HD
BRANCH  11  14
ATOM     14  C   UNL A   1      45.538  22.758  25.299  1.00  0.00     0.174 C 
ATOM     15  C   UNL A   1      46.471  23.121  24.143  1.00  0.00     0.042 C 
BRANCH  14  16
ATOM     16  N   UNL A   1      45.295  23.932  26.134  1.00  0.00    -0.318 N 
ATOM     17  C   UNL A   1      45.225  25.220  25.679  1.00  0.00     0.201 A 
ATOM     18  C   UNL A   1      44.951  23.934  27.467  1.00  0.00     0.069 A 
ATOM     19  N   UNL A   1      44.745  26.031  26.593  1.00  0.00    -0.237 NA
ATOM     20  C   UNL A   1      44.534  25.242  27.699  1.00  0.00     0.088 A 
ATOM     21  C   UNL A   1      44.908  22.942  28.456  1.00  0.00     0.028 A 
ATOM     22  C   UNL A   1      43.967  25.567  28.940  1.00  0.00     0.030 A 
ATOM     23  C   UNL A   1      44.350  23.287  29.688  1.00  0.00     0.002 A 
ATOM     24  C   UNL A   1      43.864  24.572  29.921  1.00  0.00     0.002 A 
ENDBRANCH  14  16
ENDBRANCH  11  14
ENDBRANCH   8  10
ENDBRANCH   5   8
ENDBRANCH   3   4
ENDBRANCH   2   3
ENDBRANCH   1   2
BRANCH   1  25
ATOM     25  C   UNL A   1      40.622  21.169  26.458  1.00  0.00     0.002 C 
BRANCH  25  26
ATOM     26  C   UNL A   1      41.442  21.814  27.577  1.00  0.00     0.021 C 
BRANCH  26  27
ATOM     27  C   UNL A   1      41.196  23.303  27.766  1.00  0.00     0.116 C 
BRANCH  27  28
ATOM     28  N   UNL A   1      41.236  24.024  26.507  1.00  0.00    -0.352 N 
ATOM     29  C   UNL A   1      40.946  25.346  26.274  1.00  0.00     0.251 C 
ATOM     30  H   UNL A   1      41.507  23.499  25.720  1.00  0.00     0.163 HD
ATOM     31  O   UNL A   1      40.831  25.763  25.128  1.00  0.00    -0.269 OA
BRANCH  29  32
ATOM     32  C   UNL A   1      40.751  26.249  27.428  1.00  0.00     0.039 A 
ATOM     33  C   UNL A   1      39.837  25.896  28.421  1.00  0.00     0.014 A 
ATOM     34  C   UNL A   1      41.493  27.429  27.532  1.00  0.00     0.014 A 
ATOM     35  C   UNL A   1      39.701  26.707  29.550  1.00  0.00     0.010 A 
ATOM     36  C   UNL A   1      41.411  28.193  28.690  1.00  0.00     0.010 A 
ATOM     37  C   UNL A   1      40.506  27.847  29.706  1.00  0.00    -0.014 A 
BRANCH  37  38
ATOM     38  C   UNL A   1      40.401  28.717  30.903  1.00  0.00     0.031 A 
ATOM     39  C   UNL A   1      39.394  29.837  30.918  1.00  0.00     0.074 A 
ATOM     40  C   UNL A   1      41.250  28.550  31.936  1.00  0.00     0.049 A 
ATOM     41  N   UNL A   1      39.226  30.785  31.802  1.00  0.00    -0.248 NA
ATOM     42  C   UNL A   1      38.474  29.915  29.771  1.00  0.00     0.031 C 
ATOM     43  C   UNL A   1      42.287  27.520  32.024  1.00  0.00     0.029 A 
ATOM     44  N   UNL A   1      41.386  29.256  33.106  1.00  0.00    -0.354 N 
ATOM     45  C   UNL A   1      38.196  31.580  31.312  1.00  0.00     0.074 A 
ATOM     46  C   UNL A   1      37.815  31.035  30.027  1.00  0.00     0.031 C 
ATOM     47  C   UNL A   1      42.943  27.653  33.189  1.00  0.00     0.029 A 
ATOM     48  C   UNL A   1      42.405  28.802  33.911  1.00  0.00     0.049 A 
ATOM     49  H   UNL A   1      40.809  30.015  33.346  1.00  0.00     0.167 HD
ATOM     50  C   UNL A   1      37.605  32.651  31.891  1.00  0.00     0.037 A 
ATOM     51  C   UNL A   1      42.865  29.271  35.088  1.00  0.00     0.037 A 
ATOM     52  C   UNL A   1      37.971  33.167  33.183  1.00  0.00     0.049 A 
ATOM     53  C   UNL A   1      42.201  30.475  35.704  1.00  0.00     0.074 A 
ATOM     54  C   UNL A   1      37.409  34.224  33.877  1.00  0.00     0.029 A 
ATOM     55  N   UNL A   1      38.989  32.662  33.979  1.00  0.00    -0.354 N 
ATOM     56  N   UNL A   1      41.201  31.190  35.244  1.00  0.00    -0.248 NA
ATOM     57  C   UNL A   1      42.722  30.933  36.999  1.00  0.00     0.031 C 
ATOM     58  C   UNL A   1      38.114  34.385  35.074  1.00  0.00     0.029 A 
ATOM     59  C   UNL A   1      39.079  33.393  35.151  1.00  0.00     0.049 A 
ATOM     60  H   UNL A   1      39.563  31.897  33.744  1.00  0.00     0.167 HD
ATOM     61  C   UNL A   1      40.947  32.155  36.214  1.00  0.00     0.074 A 
ATOM     62  C   UNL A   1      41.896  31.931  37.285  1.00  0.00     0.031 C 
ATOM     63  C   UNL A   1      40.011  33.136  36.219  1.00  0.00     0.037 A 
BRANCH  50  64
ATOM     64  C   UNL A   1      36.494  33.332  31.139  1.00  0.00     0.058 A 
ATOM     65  C   UNL A   1      35.156  33.232  31.552  1.00  0.00     0.135 A 
ATOM     66  C   UNL A   1      36.776  34.134  30.020  1.00  0.00     0.135 A 
ATOM     67  F   UNL A   1      34.828  32.465  32.603  1.00  0.00    -0.206 F 
ATOM     68  C   UNL A   1      34.134  33.885  30.871  1.00  0.00     0.059 A 
ATOM     69  C   UNL A   1      35.772  34.821  29.343  1.00  0.00     0.059 A 
ATOM     70  F   UNL A   1      38.037  34.262  29.580  1.00  0.00    -0.206 F 
ATOM     71  C   UNL A   1      34.452  34.680  29.770  1.00  0.00     0.060 A 
BRANCH  71  72
ATOM     72  S   UNL A   1      33.115  35.537  28.912  1.00  0.00     0.124 S 
ATOM     73  O   UNL A   1      33.858  36.487  28.090  1.00  0.00    -0.237 OA
ATOM     74  O   UNL A   1      32.463  34.449  28.190  1.00  0.00    -0.237 OA
ATOM     75  O   UNL A   1      32.335  36.124  29.997  1.00  0.00    -0.744 OA
ENDBRANCH  71  72
ENDBRANCH  50  64
BRANCH  51  76
ATOM     76  C   UNL A   1      44.002  28.598  35.772  1.00  0.00     0.058 A 
ATOM     77  C   UNL A   1      45.328  28.966  35.499  1.00  0.00     0.135 A 
ATOM     78  C   UNL A   1      43.791  27.567  36.700  1.00  0.00     0.135 A 
ATOM     79  F   UNL A   1      45.584  29.944  34.615  1.00  0.00    -0.206 F 
ATOM     80  C   UNL A   1      46.405  28.318  36.097  1.00  0.00     0.059 A 
ATOM     81  C   UNL A   1      44.850  26.923  37.333  1.00  0.00     0.059 A 
ATOM     82  F   UNL A   1      42.542  27.189  37.013  1.00  0.00    -0.206 F 
ATOM     83  C   UNL A   1      46.154  27.295  37.013  1.00  0.00     0.060 A 
BRANCH  83  84
ATOM     84  S   UNL A   1      47.557  26.474  37.799  1.00  0.00     0.124 S 
ATOM     85  O   UNL A   1      48.469  27.593  38.010  1.00  0.00    -0.237 OA
ATOM     86  O   UNL A   1      46.949  25.909  38.998  1.00  0.00    -0.237 OA
ATOM     87  O   UNL A   1      47.978  25.499  36.797  1.00  0.00    -0.744 OA
ENDBRANCH  83  84
ENDBRANCH  51  76
BRANCH  63  88
ATOM     88  C   UNL A   1      39.914  34.002  37.445  1.00  0.00     0.058 A 
ATOM     89  C   UNL A   1      40.647  35.191  37.575  1.00  0.00     0.135 A 
ATOM     90  C   UNL A   1      39.013  33.671  38.471  1.00  0.00     0.135 A 
ATOM     91  F   UNL A   1      41.526  35.552  36.626  1.00  0.00    -0.206 F 
ATOM     92  C   UNL A   1      40.503  36.013  38.688  1.00  0.00     0.059 A 
ATOM     93  C   UNL A   1      38.831  34.492  39.578  1.00  0.00     0.059 A 
ATOM     94  F   UNL A   1      38.280  32.549  38.390  1.00  0.00    -0.206 F 
ATOM     95  C   UNL A   1      39.588  35.658  39.681  1.00  0.00     0.060 A 
BRANCH  95  96
ATOM     96  S   UNL A   1      39.373  36.762  41.094  1.00  0.00     0.124 S 
ATOM     97  O   UNL A   1      40.756  37.019  41.479  1.00  0.00    -0.237 OA
ATOM     98  O   UNL A   1      38.658  37.889  40.503  1.00  0.00    -0.237 OA
ATOM     99  O   UNL A   1      38.597  35.961  42.036  1.00  0.00    -0.744 OA
ENDBRANCH  95  96
ENDBRANCH  63  88
ENDBRANCH  37  38
ENDBRANCH  29  32
ENDBRANCH  27  28
ENDBRANCH  26  27
ENDBRANCH  25  26
ENDBRANCH   1  25
TORSDOF 19
ENDMDL
MODEL 3
REMARK VINA RESULT:     -10.6      6.785     13.259
REMARK SMILES C[C@H](C(=O)N[C@H](C)C(=O)NCCCCCCNC(=O)c1ccc(-c2c3nc(c(-c4c(F)cc(S(=O)(=O)[O-])cc4F)c4ccc([nH]4)c(-c4c(F)cc(S(=O)(=O)[O-])cc4F)c4nc(c(-c5c(F)cc(S(=O)(=O)[O-])cc5F)c5ccc2[nH]5)C=C4)C=C3)cc1)n1cnc2ccccc21
REMARK SMILES IDX 13 1 12 2 11 3 10 4 8 5 9 6 6 8 7 9 5 10 3 11 4 12 2 14 1 15
REMARK SMILES IDX 86 16 87 17 94 18 88 19 89 20 93 21 90 22 92 23 91 24 14 25
REMARK SMILES IDX 15 26 16 27 17 28 18 29 19 31 20 32 21 33 85 34 22 35 84 36
REMARK SMILES IDX 23 37 24 38 25 39 78 40 26 41 83 42 77 43 79 44 27 45 82 46
REMARK SMILES IDX 76 47 75 48 28 50 62 51 41 52 61 53 42 54 45 55 60 56 80 57
REMARK SMILES IDX 43 58 44 59 59 61 81 62 46 63 29 64 30 65 39 66 31 67 32 68
REMARK SMILES IDX 38 69 40 70 33 71 34 72 35 73 36 74 37 75 63 76 64 77 73 78
REMARK SMILES IDX 65 79 66 80 72 81 74 82 67 83 68 84 69 85 70 86 71 87 47 88
REMARK SMILES IDX 48 89 57 90 49 91 50 92 56 93 58 94 51 95 52 96 53 97 54 98
REMARK SMILES IDX 55 99
REMARK H PARENT 10 7 5 13 17 30 79 49 45 60
REMARK Flexibility Score: inf
ROOT
ATOM      1  C   UNL A   1      33.997  28.402  26.442  1.00  0.00     0.002 C 
ENDROOT
BRANCH   1   2
ATOM      2  C   UNL A   1      32.533  28.803  26.623  1.00  0.00     0.021 C 
BRANCH   2   3
ATOM      3  C   UNL A   1      31.929  29.529  25.429  1.00  0.00     0.116 C 
BRANCH   3   4
ATOM      4  N   UNL A   1      32.875  29.632  24.335  1.00  0.00    -0.354 N 
ATOM      5  C   UNL A   1      33.162  28.750  23.336  1.00  0.00     0.242 C 
ATOM      6  O   UNL A   1      34.201  28.913  22.695  1.00  0.00    -0.273 OA
ATOM      7  H   UNL A   1      33.393  30.469  24.310  1.00  0.00     0.163 HD
BRANCH   5   8
ATOM      8  C   UNL A   1      32.281  27.510  23.119  1.00  0.00     0.168 C 
ATOM      9  C   UNL A   1      30.999  27.893  22.376  1.00  0.00     0.041 C 
BRANCH   8  10
ATOM     10  N   UNL A   1      33.022  26.466  22.409  1.00  0.00    -0.343 N 
ATOM     11  C   UNL A   1      32.809  25.122  22.394  1.00  0.00     0.243 C 
ATOM     12  O   UNL A   1      33.279  24.477  21.457  1.00  0.00    -0.273 OA
ATOM     13  H   UNL A   1      33.780  26.780  21.867  1.00  0.00     0.164 HD
BRANCH  11  14
ATOM     14  C   UNL A   1      32.057  24.486  23.551  1.00  0.00     0.174 C 
ATOM     15  C   UNL A   1      30.643  24.061  23.154  1.00  0.00     0.042 C 
BRANCH  14  16
ATOM     16  N   UNL A   1      32.799  23.338  24.066  1.00  0.00    -0.318 N 
ATOM     17  C   UNL A   1      32.476  22.028  23.844  1.00  0.00     0.201 A 
ATOM     18  C   UNL A   1      34.010  23.371  24.721  1.00  0.00     0.069 A 
ATOM     19  N   UNL A   1      33.448  21.222  24.203  1.00  0.00    -0.237 NA
ATOM     20  C   UNL A   1      34.425  22.042  24.715  1.00  0.00     0.088 A 
ATOM     21  C   UNL A   1      34.793  24.403  25.255  1.00  0.00     0.028 A 
ATOM     22  C   UNL A   1      35.710  21.727  25.181  1.00  0.00     0.030 A 
ATOM     23  C   UNL A   1      36.065  24.069  25.723  1.00  0.00     0.002 A 
ATOM     24  C   UNL A   1      36.528  22.756  25.666  1.00  0.00     0.002 A 
ENDBRANCH  14  16
ENDBRANCH  11  14
ENDBRANCH   8  10
ENDBRANCH   5   8
ENDBRANCH   3   4
ENDBRANCH   2   3
ENDBRANCH   1   2
BRANCH   1  25
ATOM     25  C   UNL A   1      34.998  29.183  27.298  1.00  0.00     0.002 C 
BRANCH  25  26
ATOM     26  C   UNL A   1      34.595  30.622  27.627  1.00  0.00     0.021 C 
BRANCH  26  27
ATOM     27  C   UNL A   1      35.644  31.415  28.393  1.00  0.00     0.116 C 
BRANCH  27  28
ATOM     28  N   UNL A   1      35.475  31.291  29.830  1.00  0.00    -0.352 N 
ATOM     29  C   UNL A   1      36.284  30.640  30.728  1.00  0.00     0.251 C 
ATOM     30  H   UNL A   1      34.679  31.729  30.208  1.00  0.00     0.163 HD
ATOM     31  O   UNL A   1      35.908  30.452  31.878  1.00  0.00    -0.269 OA
BRANCH  29  32
ATOM     32  C   UNL A   1      37.605  30.152  30.278  1.00  0.00     0.039 A 
ATOM     33  C   UNL A   1      37.921  30.203  28.920  1.00  0.00     0.014 A 
ATOM     34  C   UNL A   1      38.532  29.669  31.206  1.00  0.00     0.014 A 
ATOM     35  C   UNL A   1      39.194  29.813  28.496  1.00  0.00     0.010 A 
ATOM     36  C   UNL A   1      39.821  29.354  30.792  1.00  0.00     0.010 A 
ATOM     37  C   UNL A   1      40.161  29.411  29.432  1.00  0.00    -0.014 A 
BRANCH  37  38
ATOM     38  C   UNL A   1      41.529  29.011  29.015  1.00  0.00     0.031 A 
ATOM     39  C   UNL A   1      42.614  30.053  28.943  1.00  0.00     0.074 A 
ATOM     40  C   UNL A   1      41.776  27.743  28.635  1.00  0.00     0.049 A 
ATOM     41  N   UNL A   1      43.834  29.945  28.485  1.00  0.00    -0.248 NA
ATOM     42  C   UNL A   1      42.270  31.402  29.423  1.00  0.00     0.031 C 
ATOM     43  C   UNL A   1      40.798  26.652  28.634  1.00  0.00     0.029 A 
ATOM     44  N   UNL A   1      42.923  27.157  28.161  1.00  0.00    -0.354 N 
ATOM     45  C   UNL A   1      44.396  31.211  28.605  1.00  0.00     0.074 A 
ATOM     46  C   UNL A   1      43.367  32.083  29.128  1.00  0.00     0.031 C 
ATOM     47  C   UNL A   1      41.390  25.529  28.194  1.00  0.00     0.029 A 
ATOM     48  C   UNL A   1      42.774  25.828  27.840  1.00  0.00     0.049 A 
ATOM     49  H   UNL A   1      43.773  27.643  28.060  1.00  0.00     0.167 HD
ATOM     50  C   UNL A   1      45.661  31.604  28.329  1.00  0.00     0.037 A 
ATOM     51  C   UNL A   1      43.650  24.955  27.304  1.00  0.00     0.037 A 
ATOM     52  C   UNL A   1      46.685  30.721  27.837  1.00  0.00     0.049 A 
ATOM     53  C   UNL A   1      45.048  25.421  26.989  1.00  0.00     0.074 A 
ATOM     54  C   UNL A   1      48.010  31.012  27.562  1.00  0.00     0.029 A 
ATOM     55  N   UNL A   1      46.503  29.377  27.552  1.00  0.00    -0.354 N 
ATOM     56  N   UNL A   1      45.574  26.613  27.148  1.00  0.00    -0.248 NA
ATOM     57  C   UNL A   1      45.973  24.426  26.429  1.00  0.00     0.031 C 
ATOM     58  C   UNL A   1      48.618  29.852  27.071  1.00  0.00     0.029 A 
ATOM     59  C   UNL A   1      47.687  28.826  27.092  1.00  0.00     0.049 A 
ATOM     60  H   UNL A   1      45.656  28.886  27.660  1.00  0.00     0.167 HD
ATOM     61  C   UNL A   1      46.901  26.498  26.747  1.00  0.00     0.074 A 
ATOM     62  C   UNL A   1      47.098  25.122  26.341  1.00  0.00     0.031 C 
ATOM     63  C   UNL A   1      47.871  27.446  26.721  1.00  0.00     0.037 A 
BRANCH  50  64
ATOM     64  C   UNL A   1      46.014  33.048  28.561  1.00  0.00     0.058 A 
ATOM     65  C   UNL A   1      46.524  33.493  29.791  1.00  0.00     0.135 A 
ATOM     66  C   UNL A   1      45.887  33.990  27.526  1.00  0.00     0.135 A 
ATOM     67  F   UNL A   1      46.649  32.640  30.820  1.00  0.00    -0.206 F 
ATOM     68  C   UNL A   1      46.875  34.823  29.995  1.00  0.00     0.059 A 
ATOM     69  C   UNL A   1      46.261  35.320  27.698  1.00  0.00     0.059 A 
ATOM     70  F   UNL A   1      45.401  33.619  26.331  1.00  0.00    -0.206 F 
ATOM     71  C   UNL A   1      46.744  35.728  28.941  1.00  0.00     0.060 A 
BRANCH  71  72
ATOM     72  S   UNL A   1      47.224  37.446  29.217  1.00  0.00     0.124 S 
ATOM     73  O   UNL A   1      46.674  37.692  30.546  1.00  0.00    -0.237 OA
ATOM     74  O   UNL A   1      48.680  37.379  29.135  1.00  0.00    -0.237 OA
ATOM     75  O   UNL A   1      46.570  38.162  28.127  1.00  0.00    -0.744 OA
ENDBRANCH  71  72
ENDBRANCH  50  64
BRANCH  51  76
ATOM     76  C   UNL A   1      43.242  23.548  27.041  1.00  0.00     0.058 A 
ATOM     77  C   UNL A   1      42.981  23.105  25.736  1.00  0.00     0.135 A 
ATOM     78  C   UNL A   1      43.092  22.623  28.085  1.00  0.00     0.135 A 
ATOM     79  F   UNL A   1      43.105  23.952  24.702  1.00  0.00    -0.206 F 
ATOM     80  C   UNL A   1      42.556  21.805  25.476  1.00  0.00     0.059 A 
ATOM     81  C   UNL A   1      42.697  21.309  27.849  1.00  0.00     0.059 A 
ATOM     82  F   UNL A   1      43.349  22.989  29.350  1.00  0.00    -0.206 F 
ATOM     83  C   UNL A   1      42.416  20.915  26.542  1.00  0.00     0.060 A 
BRANCH  83  84
ATOM     84  S   UNL A   1      41.885  19.224  26.192  1.00  0.00     0.124 S 
ATOM     85  O   UNL A   1      40.451  19.403  25.996  1.00  0.00    -0.237 OA
ATOM     86  O   UNL A   1      42.659  18.900  24.999  1.00  0.00    -0.237 OA
ATOM     87  O   UNL A   1      42.270  18.497  27.398  1.00  0.00    -0.744 OA
ENDBRANCH  83  84
ENDBRANCH  51  76
BRANCH  63  88
ATOM     88  C   UNL A   1      49.252  27.021  26.304  1.00  0.00     0.058 A 
ATOM     89  C   UNL A   1      50.160  26.453  27.210  1.00  0.00     0.135 A 
ATOM     90  C   UNL A   1      49.641  27.116  24.957  1.00  0.00     0.135 A 
ATOM     91  F   UNL A   1      49.841  26.343  28.509  1.00  0.00    -0.206 F 
ATOM     92  C   UNL A   1      51.413  26.009  26.798  1.00  0.00     0.059 A 
ATOM     93  C   UNL A   1      50.876  26.653  24.518  1.00  0.00     0.059 A 
ATOM     94  F   UNL A   1      48.805  27.642  24.048  1.00  0.00    -0.206 F 
ATOM     95  C   UNL A   1      51.759  26.108  25.449  1.00  0.00     0.060 A 
BRANCH  95  96
ATOM     96  S   UNL A   1      53.367  25.480  24.920  1.00  0.00     0.124 S 
ATOM     97  O   UNL A   1      53.330  25.748  23.487  1.00  0.00    -0.237 OA
ATOM     98  O   UNL A   1      54.293  26.299  25.695  1.00  0.00    -0.237 OA
ATOM     99  O   UNL A   1      53.322  24.070  25.296  1.00  0.00    -0.744 OA
ENDBRANCH  95  96
ENDBRANCH  63  88
ENDBRANCH  37  38
ENDBRANCH  29  32
ENDBRANCH  27  28
ENDBRANCH  26  27
ENDBRANCH  25  26
ENDBRANCH   1  25
TORSDOF 19
ENDMDL
