MODEL 1
REMARK VINA RESULT:      -8.4      0.000      0.000
REMARK SMILES CC(C)c1ccc2c(c1)c(SC(C)(C)C)c(CC(C)(C)C(=O)NCCCCCCNC(=O)c1ccc(-c3c4nc(c(-c5c(F)cc(S(=O)(=O)[O-])cc5F)c5ccc([nH]5)c(-c5c(F)cc(S(=O)(=O)[O-])cc5F)c5nc(c(-c6c(F)cc(S(=O)(=O)[O-])cc6F)c6ccc3[nH]6)C=C5)C=C4)cc1)n2Cc1ccc(Cl)cc1
REMARK SMILES IDX 26 1 25 2 24 3 23 4 21 5 22 6 18 8 19 9 20 10 17 11 16 12
REMARK SMILES IDX 4 13 5 14 9 15 6 16 8 17 7 18 10 19 99 20 2 21 1 22 3 23
REMARK SMILES IDX 11 24 12 25 13 26 14 27 15 28 100 29 101 30 102 31 107 32
REMARK SMILES IDX 103 33 106 34 104 35 105 36 27 37 28 38 29 39 30 40 31 41
REMARK SMILES IDX 32 43 33 44 34 45 98 46 35 47 97 48 36 49 37 50 38 51 91 52
REMARK SMILES IDX 39 53 96 54 90 55 92 56 40 57 95 58 89 59 88 60 41 62 75 63
REMARK SMILES IDX 54 64 74 65 55 66 58 67 73 68 93 69 56 70 57 71 72 73 94 74
REMARK SMILES IDX 59 75 42 76 43 77 52 78 44 79 45 80 51 81 53 82 46 83 47 84
REMARK SMILES IDX 48 85 49 86 50 87 76 88 77 89 86 90 78 91 79 92 85 93 87 94
REMARK SMILES IDX 80 95 81 96 82 97 83 98 84 99 60 100 61 101 70 102 62 103
REMARK SMILES IDX 63 104 69 105 71 106 64 107 65 108 66 109 67 110 68 111
REMARK H PARENT 23 7 30 42 92 61 58 72
REMARK Flexibility Score: inf
ROOT
ATOM      1  C   UNL A   1      45.564  33.103  28.085  1.00  0.00     0.002 C 
ENDROOT
BRANCH   1   2
ATOM      2  C   UNL A   1      45.225  32.309  29.337  1.00  0.00     0.021 C 
BRANCH   2   3
ATOM      3  C   UNL A   1      44.841  30.891  28.994  1.00  0.00     0.116 C 
BRANCH   3   4
ATOM      4  N   UNL A   1      43.935  30.838  27.862  1.00  0.00    -0.356 N 
ATOM      5  C   UNL A   1      43.871  29.903  26.860  1.00  0.00     0.226 C 
ATOM      6  O   UNL A   1      42.819  29.826  26.239  1.00  0.00    -0.275 OA
ATOM      7  H   UNL A   1      43.279  31.570  27.806  1.00  0.00     0.163 HD
BRANCH   5   8
ATOM      8  C   UNL A   1      45.007  28.881  26.744  1.00  0.00     0.049 C 
ATOM      9  C   UNL A   1      46.111  29.865  26.276  1.00  0.00     0.022 C 
ATOM     10  C   UNL A   1      44.525  27.721  25.819  1.00  0.00     0.022 C 
BRANCH   8  11
ATOM     11  C   UNL A   1      45.443  28.101  28.022  1.00  0.00     0.071 C 
BRANCH  11  12
ATOM     12  C   UNL A   1      44.785  26.814  28.276  1.00  0.00     0.034 A 
ATOM     13  C   UNL A   1      42.053  23.103  27.900  1.00  0.00    -0.045 A 
ATOM     14  C   UNL A   1      43.260  22.554  27.459  1.00  0.00     0.006 A 
ATOM     15  C   UNL A   1      42.054  24.413  28.415  1.00  0.00     0.015 A 
ATOM     16  C   UNL A   1      44.447  23.296  27.462  1.00  0.00     0.027 A 
ATOM     17  C   UNL A   1      43.234  25.204  28.414  1.00  0.00     0.014 A 
ATOM     18  C   UNL A   1      44.407  24.630  27.903  1.00  0.00     0.050 A 
ATOM     19  C   UNL A   1      43.522  26.568  28.795  1.00  0.00     0.037 A 
ATOM     20  N   UNL A   1      45.392  25.607  27.934  1.00  0.00    -0.339 N 
BRANCH  13  21
ATOM     21  C   UNL A   1      40.774  22.288  27.783  1.00  0.00     0.013 C 
ATOM     22  C   UNL A   1      39.719  23.018  26.952  1.00  0.00     0.012 C 
ATOM     23  C   UNL A   1      41.029  20.882  27.230  1.00  0.00     0.012 C 
ENDBRANCH  13  21
BRANCH  19  24
ATOM     24  S   UNL A   1      42.255  27.607  29.498  1.00  0.00    -0.118 SA
BRANCH  24  25
ATOM     25  C   UNL A   1      40.661  27.928  28.573  1.00  0.00     0.012 C 
ATOM     26  C   UNL A   1      40.267  29.404  28.689  1.00  0.00     0.023 C 
ATOM     27  C   UNL A   1      40.403  27.473  27.118  1.00  0.00     0.023 C 
ATOM     28  C   UNL A   1      39.641  27.053  29.353  1.00  0.00     0.023 C 
ENDBRANCH  24  25
ENDBRANCH  19  24
BRANCH  20  29
ATOM     29  C   UNL A   1      46.851  25.323  27.840  1.00  0.00     0.158 C 
BRANCH  29  30
ATOM     30  C   UNL A   1      47.626  25.867  26.648  1.00  0.00    -0.028 A 
ATOM     31  C   UNL A   1      47.365  25.413  25.340  1.00  0.00     0.007 A 
ATOM     32  C   UNL A   1      48.649  26.817  26.812  1.00  0.00     0.007 A 
ATOM     33  C   UNL A   1      48.219  25.724  24.276  1.00  0.00     0.021 A 
ATOM     34  C   UNL A   1      49.472  27.179  25.732  1.00  0.00     0.021 A 
ATOM     35  C   UNL A   1      49.287  26.588  24.484  1.00  0.00     0.041 A 
ATOM     36  Cl  UNL A   1      50.395  26.897  23.203  1.00  0.00    -0.084 Cl
ENDBRANCH  29  30
ENDBRANCH  20  29
ENDBRANCH  11  12
ENDBRANCH   8  11
ENDBRANCH   5   8
ENDBRANCH   3   4
ENDBRANCH   2   3
ENDBRANCH   1   2
BRANCH   1  37
ATOM     37  C   UNL A   1      47.055  33.447  27.956  1.00  0.00     0.002 C 
BRANCH  37  38
ATOM     38  C   UNL A   1      47.388  34.467  26.857  1.00  0.00     0.021 C 
BRANCH  38  39
ATOM     39  C   UNL A   1      46.634  35.788  27.003  1.00  0.00     0.116 C 
BRANCH  39  40
ATOM     40  N   UNL A   1      47.273  36.702  27.922  1.00  0.00    -0.352 N 
ATOM     41  C   UNL A   1      47.122  36.983  29.248  1.00  0.00     0.251 C 
ATOM     42  H   UNL A   1      47.975  37.244  27.495  1.00  0.00     0.163 HD
ATOM     43  O   UNL A   1      47.824  37.895  29.689  1.00  0.00    -0.269 OA
BRANCH  41  44
ATOM     44  C   UNL A   1      46.158  36.304  30.152  1.00  0.00     0.039 A 
ATOM     45  C   UNL A   1      46.488  35.404  31.166  1.00  0.00     0.014 A 
ATOM     46  C   UNL A   1      44.803  36.610  29.940  1.00  0.00     0.014 A 
ATOM     47  C   UNL A   1      45.495  34.755  31.887  1.00  0.00     0.010 A 
ATOM     48  C   UNL A   1      43.806  35.996  30.687  1.00  0.00     0.010 A 
ATOM     49  C   UNL A   1      44.154  35.034  31.631  1.00  0.00    -0.014 A 
BRANCH  49  50
ATOM     50  C   UNL A   1      43.156  34.360  32.456  1.00  0.00     0.031 A 
ATOM     51  C   UNL A   1      43.129  34.782  33.890  1.00  0.00     0.074 A 
ATOM     52  C   UNL A   1      42.243  33.512  31.942  1.00  0.00     0.049 A 
ATOM     53  N   UNL A   1      43.285  34.059  34.953  1.00  0.00    -0.248 NA
ATOM     54  C   UNL A   1      43.013  36.225  34.163  1.00  0.00     0.031 C 
ATOM     55  C   UNL A   1      41.975  33.229  30.529  1.00  0.00     0.029 A 
ATOM     56  N   UNL A   1      41.271  32.808  32.585  1.00  0.00    -0.354 N 
ATOM     57  C   UNL A   1      43.095  34.921  36.034  1.00  0.00     0.074 A 
ATOM     58  C   UNL A   1      43.067  36.256  35.494  1.00  0.00     0.031 C 
ATOM     59  C   UNL A   1      40.776  32.618  30.419  1.00  0.00     0.029 A 
ATOM     60  C   UNL A   1      40.262  32.346  31.750  1.00  0.00     0.049 A 
ATOM     61  H   UNL A   1      41.283  32.640  33.555  1.00  0.00     0.167 HD
ATOM     62  C   UNL A   1      42.778  34.475  37.281  1.00  0.00     0.037 A 
ATOM     63  C   UNL A   1      39.057  31.855  32.132  1.00  0.00     0.037 A 
ATOM     64  C   UNL A   1      43.071  33.079  37.448  1.00  0.00     0.049 A 
ATOM     65  C   UNL A   1      39.180  31.436  33.551  1.00  0.00     0.074 A 
ATOM     66  C   UNL A   1      44.221  32.317  37.428  1.00  0.00     0.029 A 
ATOM     67  N   UNL A   1      42.029  32.192  37.349  1.00  0.00    -0.354 N 
ATOM     68  N   UNL A   1      39.923  30.447  33.966  1.00  0.00    -0.248 NA
ATOM     69  C   UNL A   1      38.779  32.386  34.578  1.00  0.00     0.031 C 
ATOM     70  C   UNL A   1      43.832  31.073  36.849  1.00  0.00     0.029 A 
ATOM     71  C   UNL A   1      42.461  31.136  36.588  1.00  0.00     0.049 A 
ATOM     72  H   UNL A   1      41.136  32.294  37.751  1.00  0.00     0.167 HD
ATOM     73  C   UNL A   1      40.424  30.866  35.190  1.00  0.00     0.074 A 
ATOM     74  C   UNL A   1      39.603  32.014  35.561  1.00  0.00     0.031 C 
ATOM     75  C   UNL A   1      41.624  30.413  35.656  1.00  0.00     0.037 A 
BRANCH  62  76
ATOM     76  C   UNL A   1      41.897  35.235  38.240  1.00  0.00     0.058 A 
ATOM     77  C   UNL A   1      40.586  35.594  37.872  1.00  0.00     0.135 A 
ATOM     78  C   UNL A   1      42.398  35.858  39.405  1.00  0.00     0.135 A 
ATOM     79  F   UNL A   1      40.023  35.083  36.765  1.00  0.00    -0.206 F 
ATOM     80  C   UNL A   1      39.841  36.536  38.588  1.00  0.00     0.059 A 
ATOM     81  C   UNL A   1      41.656  36.758  40.163  1.00  0.00     0.059 A 
ATOM     82  F   UNL A   1      43.666  35.692  39.805  1.00  0.00    -0.206 F 
ATOM     83  C   UNL A   1      40.392  37.119  39.727  1.00  0.00     0.060 A 
BRANCH  83  84
ATOM     84  S   UNL A   1      39.474  38.404  40.598  1.00  0.00     0.124 S 
ATOM     85  O   UNL A   1      40.293  39.580  40.329  1.00  0.00    -0.237 OA
ATOM     86  O   UNL A   1      38.179  38.358  39.926  1.00  0.00    -0.237 OA
ATOM     87  O   UNL A   1      39.473  37.936  41.981  1.00  0.00    -0.744 OA
ENDBRANCH  83  84
ENDBRANCH  62  76
BRANCH  63  88
ATOM     88  C   UNL A   1      37.738  32.077  31.480  1.00  0.00     0.058 A 
ATOM     89  C   UNL A   1      37.217  33.375  31.329  1.00  0.00     0.135 A 
ATOM     90  C   UNL A   1      37.103  31.063  30.736  1.00  0.00     0.135 A 
ATOM     91  F   UNL A   1      37.772  34.406  31.985  1.00  0.00    -0.206 F 
ATOM     92  C   UNL A   1      36.169  33.659  30.447  1.00  0.00     0.059 A 
ATOM     93  C   UNL A   1      36.049  31.319  29.861  1.00  0.00     0.059 A 
ATOM     94  F   UNL A   1      37.552  29.799  30.759  1.00  0.00    -0.206 F 
ATOM     95  C   UNL A   1      35.608  32.626  29.697  1.00  0.00     0.060 A 
BRANCH  95  96
ATOM     96  S   UNL A   1      34.387  33.017  28.422  1.00  0.00     0.124 S 
ATOM     97  O   UNL A   1      35.193  33.738  27.442  1.00  0.00    -0.237 OA
ATOM     98  O   UNL A   1      33.931  31.690  28.021  1.00  0.00    -0.237 OA
ATOM     99  O   UNL A   1      33.399  33.824  29.133  1.00  0.00    -0.744 OA
ENDBRANCH  95  96
ENDBRANCH  63  88
BRANCH  75 100
ATOM    100  C   UNL A   1      42.234  29.205  34.992  1.00  0.00     0.058 A 
ATOM    101  C   UNL A   1      43.111  29.257  33.893  1.00  0.00     0.135 A 
ATOM    102  C   UNL A   1      42.033  27.952  35.592  1.00  0.00     0.135 A 
ATOM    103  F   UNL A   1      43.438  30.426  33.326  1.00  0.00    -0.206 F 
ATOM    104  C   UNL A   1      43.726  28.108  33.390  1.00  0.00     0.059 A 
ATOM    105  C   UNL A   1      42.661  26.800  35.128  1.00  0.00     0.059 A 
ATOM    106  F   UNL A   1      41.256  27.846  36.682  1.00  0.00    -0.206 F 
ATOM    107  C   UNL A   1      43.499  26.884  34.018  1.00  0.00     0.060 A 
BRANCH 107 108
ATOM    108  S   UNL A   1      44.361  25.415  33.416  1.00  0.00     0.124 S 
ATOM    109  O   UNL A   1      45.742  25.692  33.790  1.00  0.00    -0.237 OA
ATOM    110  O   UNL A   1      43.705  24.340  34.152  1.00  0.00    -0.237 OA
ATOM    111  O   UNL A   1      44.091  25.428  31.977  1.00  0.00    -0.744 OA
ENDBRANCH 107 108
ENDBRANCH  75 100
ENDBRANCH  49  50
ENDBRANCH  41  44
ENDBRANCH  39  40
ENDBRANCH  38  39
ENDBRANCH  37  38
ENDBRANCH   1  37
TORSDOF 23
ENDMDL
MODEL 2
REMARK VINA RESULT:      -8.3      4.453     11.189
REMARK SMILES CC(C)c1ccc2c(c1)c(SC(C)(C)C)c(CC(C)(C)C(=O)NCCCCCCNC(=O)c1ccc(-c3c4nc(c(-c5c(F)cc(S(=O)(=O)[O-])cc5F)c5ccc([nH]5)c(-c5c(F)cc(S(=O)(=O)[O-])cc5F)c5nc(c(-c6c(F)cc(S(=O)(=O)[O-])cc6F)c6ccc3[nH]6)C=C5)C=C4)cc1)n2Cc1ccc(Cl)cc1
REMARK SMILES IDX 26 1 25 2 24 3 23 4 21 5 22 6 18 8 19 9 20 10 17 11 16 12
REMARK SMILES IDX 4 13 5 14 9 15 6 16 8 17 7 18 10 19 99 20 2 21 1 22 3 23
REMARK SMILES IDX 11 24 12 25 13 26 14 27 15 28 100 29 101 30 102 31 107 32
REMARK SMILES IDX 103 33 106 34 104 35 105 36 27 37 28 38 29 39 30 40 31 41
REMARK SMILES IDX 32 43 33 44 34 45 98 46 35 47 97 48 36 49 37 50 38 51 91 52
REMARK SMILES IDX 39 53 96 54 90 55 92 56 40 57 95 58 89 59 88 60 41 62 75 63
REMARK SMILES IDX 54 64 74 65 55 66 58 67 73 68 93 69 56 70 57 71 72 73 94 74
REMARK SMILES IDX 59 75 42 76 43 77 52 78 44 79 45 80 51 81 53 82 46 83 47 84
REMARK SMILES IDX 48 85 49 86 50 87 76 88 77 89 86 90 78 91 79 92 85 93 87 94
REMARK SMILES IDX 80 95 81 96 82 97 83 98 84 99 60 100 61 101 70 102 62 103
REMARK SMILES IDX 63 104 69 105 71 106 64 107 65 108 66 109 67 110 68 111
REMARK H PARENT 23 7 30 42 92 61 58 72
REMARK Flexibility Score: inf
ROOT
ATOM      1  C   UNL A   1      42.106  42.076  32.134  1.00  0.00     0.002 C 
ENDROOT
BRANCH   1   2
ATOM      2  C   UNL A   1      42.564  41.990  30.686  1.00  0.00     0.021 C 
BRANCH   2   3
ATOM      3  C   UNL A   1      42.112  40.700  30.049  1.00  0.00     0.116 C 
BRANCH   3   4
ATOM      4  N   UNL A   1      41.638  40.907  28.693  1.00  0.00    -0.356 N 
ATOM      5  C   UNL A   1      41.790  40.093  27.600  1.00  0.00     0.226 C 
ATOM      6  O   UNL A   1      41.005  40.255  26.674  1.00  0.00    -0.275 OA
ATOM      7  H   UNL A   1      41.140  41.743  28.538  1.00  0.00     0.163 HD
BRANCH   5   8
ATOM      8  C   UNL A   1      42.754  38.907  27.703  1.00  0.00     0.049 C 
ATOM      9  C   UNL A   1      43.617  39.245  26.459  1.00  0.00     0.022 C 
ATOM     10  C   UNL A   1      41.909  37.596  27.759  1.00  0.00     0.022 C 
BRANCH   8  11
ATOM     11  C   UNL A   1      43.631  38.767  28.984  1.00  0.00     0.071 C 
BRANCH  11  12
ATOM     12  C   UNL A   1      45.054  38.463  28.790  1.00  0.00     0.034 A 
ATOM     13  C   UNL A   1      49.146  37.544  26.844  1.00  0.00    -0.045 A 
ATOM     14  C   UNL A   1      49.338  38.888  27.177  1.00  0.00     0.006 A 
ATOM     15  C   UNL A   1      47.974  36.899  27.284  1.00  0.00     0.015 A 
ATOM     16  C   UNL A   1      48.370  39.615  27.880  1.00  0.00     0.027 A 
ATOM     17  C   UNL A   1      46.959  37.610  27.980  1.00  0.00     0.014 A 
ATOM     18  C   UNL A   1      47.171  38.972  28.236  1.00  0.00     0.050 A 
ATOM     19  C   UNL A   1      45.651  37.250  28.478  1.00  0.00     0.037 A 
ATOM     20  N   UNL A   1      46.025  39.460  28.846  1.00  0.00    -0.339 N 
BRANCH  13  21
ATOM     21  C   UNL A   1      50.184  36.827  25.995  1.00  0.00     0.013 C 
ATOM     22  C   UNL A   1      49.750  36.742  24.533  1.00  0.00     0.012 C 
ATOM     23  C   UNL A   1      51.574  37.464  26.117  1.00  0.00     0.012 C 
ENDBRANCH  13  21
BRANCH  19  24
ATOM     24  S   UNL A   1      45.045  35.580  28.330  1.00  0.00    -0.118 SA
BRANCH  24  25
ATOM     25  C   UNL A   1      44.170  34.752  29.762  1.00  0.00     0.012 C 
ATOM     26  C   UNL A   1      44.918  35.024  31.071  1.00  0.00     0.023 C 
ATOM     27  C   UNL A   1      42.654  34.881  30.037  1.00  0.00     0.023 C 
ATOM     28  C   UNL A   1      44.288  33.245  29.399  1.00  0.00     0.023 C 
ENDBRANCH  24  25
ENDBRANCH  19  24
BRANCH  20  29
ATOM     29  C   UNL A   1      45.968  40.737  29.612  1.00  0.00     0.158 C 
BRANCH  29  30
ATOM     30  C   UNL A   1      45.699  42.031  28.856  1.00  0.00    -0.028 A 
ATOM     31  C   UNL A   1      45.007  42.028  27.628  1.00  0.00     0.007 A 
ATOM     32  C   UNL A   1      46.157  43.269  29.339  1.00  0.00     0.007 A 
ATOM     33  C   UNL A   1      44.960  43.165  26.815  1.00  0.00     0.021 A 
ATOM     34  C   UNL A   1      46.057  44.428  28.550  1.00  0.00     0.021 A 
ATOM     35  C   UNL A   1      45.510  44.357  27.271  1.00  0.00     0.041 A 
ATOM     36  Cl  UNL A   1      45.539  45.732  26.234  1.00  0.00    -0.084 Cl
ENDBRANCH  29  30
ENDBRANCH  20  29
ENDBRANCH  11  12
ENDBRANCH   8  11
ENDBRANCH   5   8
ENDBRANCH   3   4
ENDBRANCH   2   3
ENDBRANCH   1   2
BRANCH   1  37
ATOM     37  C   UNL A   1      43.199  42.553  33.101  1.00  0.00     0.002 C 
BRANCH  37  38
ATOM     38  C   UNL A   1      42.825  42.472  34.588  1.00  0.00     0.021 C 
BRANCH  38  39
ATOM     39  C   UNL A   1      43.571  41.374  35.346  1.00  0.00     0.116 C 
BRANCH  39  40
ATOM     40  N   UNL A   1      44.715  40.868  34.622  1.00  0.00    -0.352 N 
ATOM     41  C   UNL A   1      45.053  39.654  34.101  1.00  0.00     0.251 C 
ATOM     42  H   UNL A   1      45.405  41.553  34.471  1.00  0.00     0.163 HD
ATOM     43  O   UNL A   1      46.172  39.581  33.587  1.00  0.00    -0.269 OA
BRANCH  41  44
ATOM     44  C   UNL A   1      44.195  38.442  34.153  1.00  0.00     0.039 A 
ATOM     45  C   UNL A   1      43.513  37.880  33.074  1.00  0.00     0.014 A 
ATOM     46  C   UNL A   1      44.077  37.832  35.414  1.00  0.00     0.014 A 
ATOM     47  C   UNL A   1      42.662  36.800  33.260  1.00  0.00     0.010 A 
ATOM     48  C   UNL A   1      43.260  36.725  35.599  1.00  0.00     0.010 A 
ATOM     49  C   UNL A   1      42.518  36.238  34.527  1.00  0.00    -0.014 A 
BRANCH  49  50
ATOM     50  C   UNL A   1      41.649  35.071  34.651  1.00  0.00     0.031 A 
ATOM     51  C   UNL A   1      42.068  33.880  33.852  1.00  0.00     0.074 A 
ATOM     52  C   UNL A   1      40.617  35.024  35.517  1.00  0.00     0.049 A 
ATOM     53  N   UNL A   1      41.407  33.239  32.941  1.00  0.00    -0.248 NA
ATOM     54  C   UNL A   1      43.453  33.408  34.024  1.00  0.00     0.031 C 
ATOM     55  C   UNL A   1      40.269  36.001  36.553  1.00  0.00     0.029 A 
ATOM     56  N   UNL A   1      39.723  34.020  35.731  1.00  0.00    -0.354 N 
ATOM     57  C   UNL A   1      42.216  32.167  32.563  1.00  0.00     0.074 A 
ATOM     58  C   UNL A   1      43.507  32.398  33.157  1.00  0.00     0.031 C 
ATOM     59  C   UNL A   1      39.409  35.434  37.427  1.00  0.00     0.029 A 
ATOM     60  C   UNL A   1      39.043  34.115  36.939  1.00  0.00     0.049 A 
ATOM     61  H   UNL A   1      39.571  33.291  35.087  1.00  0.00     0.167 HD
ATOM     62  C   UNL A   1      41.723  31.057  31.946  1.00  0.00     0.037 A 
ATOM     63  C   UNL A   1      38.305  33.144  37.530  1.00  0.00     0.037 A 
ATOM     64  C   UNL A   1      40.427  31.287  31.373  1.00  0.00     0.049 A 
ATOM     65  C   UNL A   1      37.936  32.166  36.476  1.00  0.00     0.074 A 
ATOM     66  C   UNL A   1      39.935  32.104  30.376  1.00  0.00     0.029 A 
ATOM     67  N   UNL A   1      39.332  30.843  32.070  1.00  0.00    -0.354 N 
ATOM     68  N   UNL A   1      37.137  32.424  35.477  1.00  0.00    -0.248 NA
ATOM     69  C   UNL A   1      38.784  30.995  36.307  1.00  0.00     0.031 C 
ATOM     70  C   UNL A   1      38.631  32.479  30.813  1.00  0.00     0.029 A 
ATOM     71  C   UNL A   1      38.389  31.838  32.030  1.00  0.00     0.049 A 
ATOM     72  H   UNL A   1      39.240  29.970  32.516  1.00  0.00     0.167 HD
ATOM     73  C   UNL A   1      37.667  31.720  34.405  1.00  0.00     0.074 A 
ATOM     74  C   UNL A   1      38.611  30.780  35.001  1.00  0.00     0.031 C 
ATOM     75  C   UNL A   1      37.492  32.148  33.122  1.00  0.00     0.037 A 
BRANCH  62  76
ATOM     76  C   UNL A   1      42.281  29.671  32.151  1.00  0.00     0.058 A 
ATOM     77  C   UNL A   1      42.180  29.041  33.407  1.00  0.00     0.135 A 
ATOM     78  C   UNL A   1      43.152  29.055  31.225  1.00  0.00     0.135 A 
ATOM     79  F   UNL A   1      41.402  29.559  34.371  1.00  0.00    -0.206 F 
ATOM     80  C   UNL A   1      42.923  27.903  33.732  1.00  0.00     0.059 A 
ATOM     81  C   UNL A   1      43.861  27.893  31.509  1.00  0.00     0.059 A 
ATOM     82  F   UNL A   1      43.426  29.609  30.037  1.00  0.00    -0.206 F 
ATOM     83  C   UNL A   1      43.770  27.345  32.778  1.00  0.00     0.060 A 
BRANCH  83  84
ATOM     84  S   UNL A   1      44.802  25.935  33.224  1.00  0.00     0.124 S 
ATOM     85  O   UNL A   1      44.430  25.732  34.619  1.00  0.00    -0.237 OA
ATOM     86  O   UNL A   1      44.345  24.916  32.284  1.00  0.00    -0.237 OA
ATOM     87  O   UNL A   1      46.158  26.427  32.996  1.00  0.00    -0.744 OA
ENDBRANCH  83  84
ENDBRANCH  62  76
BRANCH  63  88
ATOM     88  C   UNL A   1      38.226  32.818  38.979  1.00  0.00     0.058 A 
ATOM     89  C   UNL A   1      39.384  32.798  39.779  1.00  0.00     0.135 A 
ATOM     90  C   UNL A   1      36.996  32.810  39.668  1.00  0.00     0.135 A 
ATOM     91  F   UNL A   1      40.598  32.825  39.208  1.00  0.00    -0.206 F 
ATOM     92  C   UNL A   1      39.325  32.830  41.176  1.00  0.00     0.059 A 
ATOM     93  C   UNL A   1      36.913  32.827  41.059  1.00  0.00     0.059 A 
ATOM     94  F   UNL A   1      35.830  32.885  39.009  1.00  0.00    -0.206 F 
ATOM     95  C   UNL A   1      38.083  32.869  41.807  1.00  0.00     0.060 A 
BRANCH  95  96
ATOM     96  S   UNL A   1      38.004  33.101  43.599  1.00  0.00     0.124 S 
ATOM     97  O   UNL A   1      37.055  32.067  43.996  1.00  0.00    -0.237 OA
ATOM     98  O   UNL A   1      39.391  32.881  43.995  1.00  0.00    -0.237 OA
ATOM     99  O   UNL A   1      37.528  34.475  43.743  1.00  0.00    -0.744 OA
ENDBRANCH  95  96
ENDBRANCH  63  88
BRANCH  75 100
ATOM    100  C   UNL A   1      36.441  33.196  32.858  1.00  0.00     0.058 A 
ATOM    101  C   UNL A   1      36.608  34.571  33.100  1.00  0.00     0.135 A 
ATOM    102  C   UNL A   1      35.268  32.800  32.196  1.00  0.00     0.135 A 
ATOM    103  F   UNL A   1      37.742  35.045  33.635  1.00  0.00    -0.206 F 
ATOM    104  C   UNL A   1      35.635  35.504  32.736  1.00  0.00     0.059 A 
ATOM    105  C   UNL A   1      34.300  33.717  31.795  1.00  0.00     0.059 A 
ATOM    106  F   UNL A   1      35.077  31.508  31.882  1.00  0.00    -0.206 F 
ATOM    107  C   UNL A   1      34.485  35.068  32.079  1.00  0.00     0.060 A 
BRANCH 107 108
ATOM    108  S   UNL A   1      33.267  36.286  31.536  1.00  0.00     0.124 S 
ATOM    109  O   UNL A   1      33.218  36.054  30.097  1.00  0.00    -0.237 OA
ATOM    110  O   UNL A   1      32.077  35.898  32.285  1.00  0.00    -0.237 OA
ATOM    111  O   UNL A   1      33.858  37.563  31.941  1.00  0.00    -0.744 OA
ENDBRANCH 107 108
ENDBRANCH  75 100
ENDBRANCH  49  50
ENDBRANCH  41  44
ENDBRANCH  39  40
ENDBRANCH  38  39
ENDBRANCH  37  38
ENDBRANCH   1  37
TORSDOF 23
ENDMDL
MODEL 3
REMARK VINA RESULT:      -8.2      9.403     14.659
REMARK SMILES CC(C)c1ccc2c(c1)c(SC(C)(C)C)c(CC(C)(C)C(=O)NCCCCCCNC(=O)c1ccc(-c3c4nc(c(-c5c(F)cc(S(=O)(=O)[O-])cc5F)c5ccc([nH]5)c(-c5c(F)cc(S(=O)(=O)[O-])cc5F)c5nc(c(-c6c(F)cc(S(=O)(=O)[O-])cc6F)c6ccc3[nH]6)C=C5)C=C4)cc1)n2Cc1ccc(Cl)cc1
REMARK SMILES IDX 26 1 25 2 24 3 23 4 21 5 22 6 18 8 19 9 20 10 17 11 16 12
REMARK SMILES IDX 4 13 5 14 9 15 6 16 8 17 7 18 10 19 99 20 2 21 1 22 3 23
REMARK SMILES IDX 11 24 12 25 13 26 14 27 15 28 100 29 101 30 102 31 107 32
REMARK SMILES IDX 103 33 106 34 104 35 105 36 27 37 28 38 29 39 30 40 31 41
REMARK SMILES IDX 32 43 33 44 34 45 98 46 35 47 97 48 36 49 37 50 38 51 91 52
REMARK SMILES IDX 39 53 96 54 90 55 92 56 40 57 95 58 89 59 88 60 41 62 75 63
REMARK SMILES IDX 54 64 74 65 55 66 58 67 73 68 93 69 56 70 57 71 72 73 94 74
REMARK SMILES IDX 59 75 42 76 43 77 52 78 44 79 45 80 51 81 53 82 46 83 47 84
REMARK SMILES IDX 48 85 49 86 50 87 76 88 77 89 86 90 78 91 79 92 85 93 87 94
REMARK SMILES IDX 80 95 81 96 82 97 83 98 84 99 60 100 61 101 70 102 62 103
REMARK SMILES IDX 63 104 69 105 71 106 64 107 65 108 66 109 67 110 68 111
REMARK H PARENT 23 7 30 42 92 61 58 72
REMARK Flexibility Score: inf
ROOT
ATOM      1  C   UNL A   1      47.159  20.654  39.800  1.00  0.00     0.002 C 
ENDROOT
BRANCH   1   2
ATOM      2  C   UNL A   1      46.588  19.306  40.211  1.00  0.00     0.021 C 
BRANCH   2   3
ATOM      3  C   UNL A   1      46.537  19.173  41.713  1.00  0.00     0.116 C 
BRANCH   3   4
ATOM      4  N   UNL A   1      45.361  19.816  42.270  1.00  0.00    -0.356 N 
ATOM      5  C   UNL A   1      44.949  19.860  43.578  1.00  0.00     0.226 C 
ATOM      6  O   UNL A   1      44.170  20.753  43.884  1.00  0.00    -0.275 OA
ATOM      7  H   UNL A   1      44.783  20.282  41.624  1.00  0.00     0.163 HD
BRANCH   5   8
ATOM      8  C   UNL A   1      45.656  18.958  44.595  1.00  0.00     0.049 C 
ATOM      9  C   UNL A   1      44.488  18.852  45.610  1.00  0.00     0.022 C 
ATOM     10  C   UNL A   1      47.003  19.637  44.994  1.00  0.00     0.022 C 
BRANCH   8  11
ATOM     11  C   UNL A   1      46.141  17.550  44.135  1.00  0.00     0.071 C 
BRANCH  11  12
ATOM     12  C   UNL A   1      45.205  16.432  44.304  1.00  0.00     0.034 A 
ATOM     13  C   UNL A   1      43.063  12.360  43.847  1.00  0.00    -0.045 A 
ATOM     14  C   UNL A   1      43.775  12.122  45.026  1.00  0.00     0.006 A 
ATOM     15  C   UNL A   1      43.078  13.657  43.298  1.00  0.00     0.015 A 
ATOM     16  C   UNL A   1      44.545  13.122  45.632  1.00  0.00     0.027 A 
ATOM     17  C   UNL A   1      43.864  14.691  43.873  1.00  0.00     0.014 A 
ATOM     18  C   UNL A   1      44.611  14.386  45.020  1.00  0.00     0.050 A 
ATOM     19  C   UNL A   1      44.135  16.062  43.504  1.00  0.00     0.037 A 
ATOM     20  N   UNL A   1      45.348  15.515  45.344  1.00  0.00    -0.339 N 
BRANCH  13  21
ATOM     21  C   UNL A   1      42.322  11.214  43.175  1.00  0.00     0.013 C 
ATOM     22  C   UNL A   1      42.484   9.910  43.954  1.00  0.00     0.012 C 
ATOM     23  C   UNL A   1      40.841  11.535  42.948  1.00  0.00     0.012 C 
ENDBRANCH  13  21
BRANCH  19  24
ATOM     24  S   UNL A   1      43.344  16.800  42.086  1.00  0.00    -0.118 SA
BRANCH  24  25
ATOM     25  C   UNL A   1      43.546  16.051  40.383  1.00  0.00     0.012 C 
ATOM     26  C   UNL A   1      45.031  15.926  40.031  1.00  0.00     0.023 C 
ATOM     27  C   UNL A   1      42.829  14.763  39.918  1.00  0.00     0.023 C 
ATOM     28  C   UNL A   1      42.882  17.119  39.469  1.00  0.00     0.023 C 
ENDBRANCH  24  25
ENDBRANCH  19  24
BRANCH  20  29
ATOM     29  C   UNL A   1      45.973  15.748  46.676  1.00  0.00     0.158 C 
BRANCH  29  30
ATOM     30  C   UNL A   1      47.450  15.428  46.858  1.00  0.00    -0.028 A 
ATOM     31  C   UNL A   1      47.870  14.374  47.694  1.00  0.00     0.007 A 
ATOM     32  C   UNL A   1      48.448  16.189  46.224  1.00  0.00     0.007 A 
ATOM     33  C   UNL A   1      49.213  14.220  48.053  1.00  0.00     0.021 A 
ATOM     34  C   UNL A   1      49.804  15.996  46.537  1.00  0.00     0.021 A 
ATOM     35  C   UNL A   1      50.174  15.050  47.491  1.00  0.00     0.041 A 
ATOM     36  Cl  UNL A   1      51.813  14.926  48.003  1.00  0.00    -0.084 Cl
ENDBRANCH  29  30
ENDBRANCH  20  29
ENDBRANCH  11  12
ENDBRANCH   8  11
ENDBRANCH   5   8
ENDBRANCH   3   4
ENDBRANCH   2   3
ENDBRANCH   1   2
BRANCH   1  37
ATOM     37  C   UNL A   1      46.157  21.551  39.059  1.00  0.00     0.002 C 
BRANCH  37  38
ATOM     38  C   UNL A   1      46.172  21.410  37.531  1.00  0.00     0.021 C 
BRANCH  38  39
ATOM     39  C   UNL A   1      45.627  22.638  36.800  1.00  0.00     0.116 C 
BRANCH  39  40
ATOM     40  N   UNL A   1      45.149  23.662  37.701  1.00  0.00    -0.352 N 
ATOM     41  C   UNL A   1      44.579  24.889  37.533  1.00  0.00     0.251 C 
ATOM     42  H   UNL A   1      45.262  23.420  38.648  1.00  0.00     0.163 HD
ATOM     43  O   UNL A   1      44.352  25.524  38.566  1.00  0.00    -0.269 OA
BRANCH  41  44
ATOM     44  C   UNL A   1      44.264  25.504  36.217  1.00  0.00     0.039 A 
ATOM     45  C   UNL A   1      43.531  24.903  35.193  1.00  0.00     0.014 A 
ATOM     46  C   UNL A   1      44.765  26.801  36.014  1.00  0.00     0.014 A 
ATOM     47  C   UNL A   1      43.380  25.535  33.967  1.00  0.00     0.010 A 
ATOM     48  C   UNL A   1      44.582  27.456  34.803  1.00  0.00     0.010 A 
ATOM     49  C   UNL A   1      43.926  26.801  33.765  1.00  0.00    -0.014 A 
BRANCH  49  50
ATOM     50  C   UNL A   1      43.691  27.438  32.472  1.00  0.00     0.031 A 
ATOM     51  C   UNL A   1      42.293  27.916  32.245  1.00  0.00     0.074 A 
ATOM     52  C   UNL A   1      44.684  27.691  31.597  1.00  0.00     0.049 A 
ATOM     53  N   UNL A   1      41.467  27.593  31.301  1.00  0.00    -0.248 NA
ATOM     54  C   UNL A   1      41.708  28.794  33.273  1.00  0.00     0.031 C 
ATOM     55  C   UNL A   1      46.126  27.537  31.806  1.00  0.00     0.029 A 
ATOM     56  N   UNL A   1      44.613  28.260  30.362  1.00  0.00    -0.354 N 
ATOM     57  C   UNL A   1      40.328  28.373  31.506  1.00  0.00     0.074 A 
ATOM     58  C   UNL A   1      40.477  28.986  32.800  1.00  0.00     0.031 C 
ATOM     59  C   UNL A   1      46.790  28.219  30.848  1.00  0.00     0.029 A 
ATOM     60  C   UNL A   1      45.829  28.737  29.888  1.00  0.00     0.049 A 
ATOM     61  H   UNL A   1      43.775  28.327  29.850  1.00  0.00     0.167 HD
ATOM     62  C   UNL A   1      39.422  28.622  30.519  1.00  0.00     0.037 A 
ATOM     63  C   UNL A   1      46.017  29.568  28.834  1.00  0.00     0.037 A 
ATOM     64  C   UNL A   1      39.537  27.691  29.432  1.00  0.00     0.049 A 
ATOM     65  C   UNL A   1      44.800  29.487  27.986  1.00  0.00     0.074 A 
ATOM     66  C   UNL A   1      39.367  26.329  29.294  1.00  0.00     0.029 A 
ATOM     67  N   UNL A   1      40.208  28.101  28.307  1.00  0.00    -0.354 N 
ATOM     68  N   UNL A   1      44.433  28.426  27.322  1.00  0.00    -0.248 NA
ATOM     69  C   UNL A   1      43.758  30.481  28.195  1.00  0.00     0.031 C 
ATOM     70  C   UNL A   1      40.345  25.927  28.339  1.00  0.00     0.029 A 
ATOM     71  C   UNL A   1      41.027  27.072  27.920  1.00  0.00     0.049 A 
ATOM     72  H   UNL A   1      40.118  28.975  27.861  1.00  0.00     0.167 HD
ATOM     73  C   UNL A   1      43.048  28.420  27.396  1.00  0.00     0.074 A 
ATOM     74  C   UNL A   1      42.689  29.761  27.849  1.00  0.00     0.031 C 
ATOM     75  C   UNL A   1      42.341  27.255  27.343  1.00  0.00     0.037 A 
BRANCH  62  76
ATOM     76  C   UNL A   1      38.653  29.913  30.399  1.00  0.00     0.058 A 
ATOM     77  C   UNL A   1      37.244  29.903  30.368  1.00  0.00     0.135 A 
ATOM     78  C   UNL A   1      39.264  31.135  30.038  1.00  0.00     0.135 A 
ATOM     79  F   UNL A   1      36.563  28.784  30.665  1.00  0.00    -0.206 F 
ATOM     80  C   UNL A   1      36.499  31.015  29.968  1.00  0.00     0.059 A 
ATOM     81  C   UNL A   1      38.541  32.270  29.688  1.00  0.00     0.059 A 
ATOM     82  F   UNL A   1      40.593  31.251  29.919  1.00  0.00    -0.206 F 
ATOM     83  C   UNL A   1      37.160  32.190  29.620  1.00  0.00     0.060 A 
BRANCH  83  84
ATOM     84  S   UNL A   1      36.208  33.596  29.012  1.00  0.00     0.124 S 
ATOM     85  O   UNL A   1      35.877  33.160  27.660  1.00  0.00    -0.237 OA
ATOM     86  O   UNL A   1      35.100  33.643  29.959  1.00  0.00    -0.237 OA
ATOM     87  O   UNL A   1      37.152  34.706  29.104  1.00  0.00    -0.744 OA
ENDBRANCH  83  84
ENDBRANCH  62  76
BRANCH  63  88
ATOM     88  C   UNL A   1      46.992  30.685  28.720  1.00  0.00     0.058 A 
ATOM     89  C   UNL A   1      47.798  30.826  27.576  1.00  0.00     0.135 A 
ATOM     90  C   UNL A   1      46.947  31.795  29.588  1.00  0.00     0.135 A 
ATOM     91  F   UNL A   1      47.885  29.827  26.684  1.00  0.00    -0.206 F 
ATOM     92  C   UNL A   1      48.470  32.017  27.279  1.00  0.00     0.059 A 
ATOM     93  C   UNL A   1      47.618  32.987  29.320  1.00  0.00     0.059 A 
ATOM     94  F   UNL A   1      46.166  31.793  30.678  1.00  0.00    -0.206 F 
ATOM     95  C   UNL A   1      48.353  33.102  28.147  1.00  0.00     0.060 A 
BRANCH  95  96
ATOM     96  S   UNL A   1      49.061  34.697  27.675  1.00  0.00     0.124 S 
ATOM     97  O   UNL A   1      50.418  34.324  27.291  1.00  0.00    -0.237 OA
ATOM     98  O   UNL A   1      48.181  35.111  26.587  1.00  0.00    -0.237 OA
ATOM     99  O   UNL A   1      48.953  35.492  28.896  1.00  0.00    -0.744 OA
ENDBRANCH  95  96
ENDBRANCH  63  88
BRANCH  75 100
ATOM    100  C   UNL A   1      43.050  26.013  26.867  1.00  0.00     0.058 A 
ATOM    101  C   UNL A   1      43.633  25.053  27.714  1.00  0.00     0.135 A 
ATOM    102  C   UNL A   1      43.009  25.715  25.496  1.00  0.00     0.135 A 
ATOM    103  F   UNL A   1      43.623  25.212  29.046  1.00  0.00    -0.206 F 
ATOM    104  C   UNL A   1      44.184  23.871  27.216  1.00  0.00     0.059 A 
ATOM    105  C   UNL A   1      43.522  24.528  24.981  1.00  0.00     0.059 A 
ATOM    106  F   UNL A   1      42.412  26.563  24.642  1.00  0.00    -0.206 F 
ATOM    107  C   UNL A   1      44.120  23.615  25.846  1.00  0.00     0.060 A 
BRANCH 107 108
ATOM    108  S   UNL A   1      44.759  22.048  25.215  1.00  0.00     0.124 S 
ATOM    109  O   UNL A   1      46.142  22.069  25.678  1.00  0.00    -0.237 OA
ATOM    110  O   UNL A   1      43.888  21.070  25.857  1.00  0.00    -0.237 OA
ATOM    111  O   UNL A   1      44.586  22.168  23.766  1.00  0.00    -0.744 OA
ENDBRANCH 107 108
ENDBRANCH  75 100
ENDBRANCH  49  50
ENDBRANCH  41  44
ENDBRANCH  39  40
ENDBRANCH  38  39
ENDBRANCH  37  38
ENDBRANCH   1  37
TORSDOF 23
ENDMDL
