MODEL 1
REMARK VINA RESULT:     -13.2      0.000      0.000
REMARK SMILES Cc1ccc(/N=N/c2ccc(NC(=O)CCC(=O)NCCCCCCNC(=O)c3ccc(-c4c5nc(c(-c6c(F)cc(S(=O)(=O)[O-])cc6F)c6ccc([nH]6)c(-c6c(F)cc(S(=O)(=O)[O-])cc6F)c6nc(c(-c7c(F)cc(S(=O)(=O)[O-])cc7F)c7ccc4[nH]7)C=C6)C=C5)cc3)cc2)cc1
REMARK SMILES IDX 21 1 20 2 19 3 17 4 18 5 16 7 15 8 13 9 12 10 14 12 11 13
REMARK SMILES IDX 8 14 9 15 96 16 10 17 95 18 7 19 6 20 5 21 1 22 2 23 3 24
REMARK SMILES IDX 98 25 4 26 97 27 22 28 23 29 24 30 25 31 26 32 27 33 28 35
REMARK SMILES IDX 29 36 30 37 94 38 31 39 93 40 32 41 33 42 34 43 87 44 35 45
REMARK SMILES IDX 92 46 86 47 88 48 36 49 91 50 85 51 84 52 37 54 71 55 50 56
REMARK SMILES IDX 70 57 51 58 54 59 69 60 89 61 52 62 53 63 68 65 90 66 55 67
REMARK SMILES IDX 38 68 39 69 48 70 40 71 41 72 47 73 49 74 42 75 43 76 44 77
REMARK SMILES IDX 45 78 46 79 72 80 73 81 82 82 74 83 75 84 81 85 83 86 76 87
REMARK SMILES IDX 77 88 78 89 79 90 80 91 56 92 57 93 66 94 58 95 59 96 65 97
REMARK SMILES IDX 67 98 60 99 61 100 62 101 63 102 64 103
REMARK H PARENT 19 6 12 11 26 34 88 53 54 64
REMARK Flexibility Score: inf
ROOT
ATOM      1  C   UNL A   1      33.936  25.590  25.765  1.00  0.00     0.021 C 
ENDROOT
BRANCH   1   2
ATOM      2  C   UNL A   1      33.835  26.979  25.139  1.00  0.00     0.116 C 
BRANCH   2   3
ATOM      3  N   UNL A   1      33.382  28.003  26.063  1.00  0.00    -0.356 N 
ATOM      4  C   UNL A   1      32.178  28.638  26.128  1.00  0.00     0.220 C 
ATOM      5  O   UNL A   1      31.927  29.360  27.094  1.00  0.00    -0.275 OA
ATOM      6  H   UNL A   1      34.040  28.279  26.742  1.00  0.00     0.163 HD
BRANCH   4   7
ATOM      7  C   UNL A   1      31.165  28.462  25.018  1.00  0.00     0.110 C 
BRANCH   7   8
ATOM      8  C   UNL A   1      31.588  29.074  23.689  1.00  0.00     0.110 C 
BRANCH   8   9
ATOM      9  C   UNL A   1      30.718  28.684  22.511  1.00  0.00     0.224 C 
ATOM     10  N   UNL A   1      30.677  27.418  22.001  1.00  0.00    -0.326 N 
ATOM     11  H   UNL A   1      30.088  27.313  21.219  1.00  0.00     0.169 HD
ATOM     12  O   UNL A   1      29.935  29.519  22.042  1.00  0.00    -0.275 OA
BRANCH  10  13
ATOM     13  C   UNL A   1      31.329  26.244  22.400  1.00  0.00     0.041 A 
ATOM     14  C   UNL A   1      32.599  23.773  22.837  1.00  0.00     0.086 A 
ATOM     15  C   UNL A   1      31.423  24.105  23.513  1.00  0.00     0.032 A 
ATOM     16  C   UNL A   1      33.176  24.726  21.990  1.00  0.00     0.032 A 
ATOM     17  C   UNL A   1      30.800  25.337  23.311  1.00  0.00     0.028 A 
ATOM     18  C   UNL A   1      32.565  25.968  21.804  1.00  0.00     0.028 A 
BRANCH  14  19
ATOM     19  N   UNL A   1      33.129  22.489  23.037  1.00  0.00    -0.151 NA
ATOM     20  N   UNL A   1      32.300  21.731  23.578  1.00  0.00    -0.151 NA
BRANCH  20  21
ATOM     21  C   UNL A   1      32.693  20.378  23.558  1.00  0.00     0.086 A 
ATOM     22  C   UNL A   1      33.828  16.229  23.979  1.00  0.00     0.044 C 
ATOM     23  C   UNL A   1      33.456  17.669  23.800  1.00  0.00    -0.051 A 
ATOM     24  C   UNL A   1      34.025  18.643  24.626  1.00  0.00     0.006 A 
ATOM     25  C   UNL A   1      32.528  18.057  22.830  1.00  0.00     0.006 A 
ATOM     26  C   UNL A   1      33.646  19.982  24.502  1.00  0.00     0.030 A 
ATOM     27  C   UNL A   1      32.153  19.399  22.710  1.00  0.00     0.030 A 
ENDBRANCH  20  21
ENDBRANCH  14  19
ENDBRANCH  10  13
ENDBRANCH   8   9
ENDBRANCH   7   8
ENDBRANCH   4   7
ENDBRANCH   2   3
ENDBRANCH   1   2
BRANCH   1  28
ATOM     28  C   UNL A   1      35.062  24.690  25.245  1.00  0.00     0.002 C 
BRANCH  28  29
ATOM     29  C   UNL A   1      35.207  23.308  25.897  1.00  0.00     0.002 C 
BRANCH  29  30
ATOM     30  C   UNL A   1      36.554  22.599  25.733  1.00  0.00     0.021 C 
BRANCH  30  31
ATOM     31  C   UNL A   1      37.766  23.487  25.916  1.00  0.00     0.116 C 
BRANCH  31  32
ATOM     32  N   UNL A   1      38.413  23.425  27.210  1.00  0.00    -0.352 N 
ATOM     33  C   UNL A   1      39.659  24.032  27.312  1.00  0.00     0.251 C 
ATOM     34  H   UNL A   1      37.990  22.977  27.978  1.00  0.00     0.163 HD
ATOM     35  O   UNL A   1      40.713  23.559  26.899  1.00  0.00    -0.269 OA
BRANCH  33  36
ATOM     36  C   UNL A   1      39.550  25.476  27.587  1.00  0.00     0.039 A 
ATOM     37  C   UNL A   1      40.058  26.456  26.738  1.00  0.00     0.014 A 
ATOM     38  C   UNL A   1      39.074  25.790  28.864  1.00  0.00     0.014 A 
ATOM     39  C   UNL A   1      40.186  27.759  27.223  1.00  0.00     0.010 A 
ATOM     40  C   UNL A   1      39.302  27.039  29.376  1.00  0.00     0.010 A 
ATOM     41  C   UNL A   1      39.866  28.020  28.558  1.00  0.00    -0.014 A 
BRANCH  41  42
ATOM     42  C   UNL A   1      40.057  29.288  29.236  1.00  0.00     0.031 A 
ATOM     43  C   UNL A   1      38.972  30.290  29.200  1.00  0.00     0.074 A 
ATOM     44  C   UNL A   1      41.115  29.420  30.062  1.00  0.00     0.049 A 
ATOM     45  N   UNL A   1      39.125  31.534  29.488  1.00  0.00    -0.248 NA
ATOM     46  C   UNL A   1      37.604  29.956  28.813  1.00  0.00     0.031 C 
ATOM     47  C   UNL A   1      41.325  30.423  31.098  1.00  0.00     0.029 A 
ATOM     48  N   UNL A   1      42.333  28.742  29.982  1.00  0.00    -0.354 N 
ATOM     49  C   UNL A   1      37.871  32.098  29.600  1.00  0.00     0.074 A 
ATOM     50  C   UNL A   1      36.961  31.089  29.113  1.00  0.00     0.031 C 
ATOM     51  C   UNL A   1      42.639  30.498  31.366  1.00  0.00     0.029 A 
ATOM     52  C   UNL A   1      43.323  29.650  30.401  1.00  0.00     0.049 A 
ATOM     53  H   UNL A   1      42.472  27.812  29.689  1.00  0.00     0.167 HD
ATOM     54  C   UNL A   1      37.744  33.305  30.223  1.00  0.00     0.037 A 
ATOM     55  C   UNL A   1      44.256  30.093  29.504  1.00  0.00     0.037 A 
ATOM     56  C   UNL A   1      39.060  33.816  30.607  1.00  0.00     0.049 A 
ATOM     57  C   UNL A   1      44.150  31.577  29.226  1.00  0.00     0.074 A 
ATOM     58  C   UNL A   1      39.773  33.748  31.792  1.00  0.00     0.029 A 
ATOM     59  N   UNL A   1      39.971  34.174  29.618  1.00  0.00    -0.354 N 
ATOM     60  N   UNL A   1      43.083  32.294  29.453  1.00  0.00    -0.248 NA
ATOM     61  C   UNL A   1      45.254  32.379  28.707  1.00  0.00     0.031 C 
ATOM     62  C   UNL A   1      41.138  33.985  31.498  1.00  0.00     0.029 A 
ATOM     63  C   UNL A   1      41.251  34.225  30.139  1.00  0.00     0.049 A 
ATOM     64  H   UNL A   1      39.738  34.364  28.681  1.00  0.00     0.167 HD
ATOM     65  C   UNL A   1      43.328  33.608  29.142  1.00  0.00     0.074 A 
ATOM     66  C   UNL A   1      44.707  33.609  28.689  1.00  0.00     0.031 C 
ATOM     67  C   UNL A   1      42.386  34.587  29.301  1.00  0.00     0.037 A 
BRANCH  54  68
ATOM     68  C   UNL A   1      36.434  33.860  30.745  1.00  0.00     0.058 A 
ATOM     69  C   UNL A   1      35.402  34.225  29.853  1.00  0.00     0.135 A 
ATOM     70  C   UNL A   1      36.144  34.097  32.104  1.00  0.00     0.135 A 
ATOM     71  F   UNL A   1      35.491  33.987  28.537  1.00  0.00    -0.206 F 
ATOM     72  C   UNL A   1      34.230  34.865  30.261  1.00  0.00     0.059 A 
ATOM     73  C   UNL A   1      35.000  34.782  32.534  1.00  0.00     0.059 A 
ATOM     74  F   UNL A   1      36.941  33.631  33.076  1.00  0.00    -0.206 F 
ATOM     75  C   UNL A   1      34.049  35.171  31.601  1.00  0.00     0.060 A 
BRANCH  75  76
ATOM     76  S   UNL A   1      32.557  36.057  32.093  1.00  0.00     0.124 S 
ATOM     77  O   UNL A   1      31.674  34.968  32.501  1.00  0.00    -0.237 OA
ATOM     78  O   UNL A   1      33.051  36.910  33.168  1.00  0.00    -0.237 OA
ATOM     79  O   UNL A   1      32.158  36.754  30.873  1.00  0.00    -0.744 OA
ENDBRANCH  75  76
ENDBRANCH  54  68
BRANCH  55  80
ATOM     80  C   UNL A   1      44.663  29.026  28.539  1.00  0.00     0.058 A 
ATOM     81  C   UNL A   1      44.220  29.170  27.207  1.00  0.00     0.135 A 
ATOM     82  C   UNL A   1      45.804  28.239  28.752  1.00  0.00     0.135 A 
ATOM     83  F   UNL A   1      43.115  29.888  26.944  1.00  0.00    -0.206 F 
ATOM     84  C   UNL A   1      44.985  28.738  26.126  1.00  0.00     0.059 A 
ATOM     85  C   UNL A   1      46.577  27.778  27.680  1.00  0.00     0.059 A 
ATOM     86  F   UNL A   1      46.271  28.047  29.994  1.00  0.00    -0.206 F 
ATOM     87  C   UNL A   1      46.205  28.119  26.378  1.00  0.00     0.060 A 
BRANCH  87  88
ATOM     88  S   UNL A   1      47.369  27.938  25.001  1.00  0.00     0.124 S 
ATOM     89  O   UNL A   1      46.720  28.709  23.947  1.00  0.00    -0.237 OA
ATOM     90  O   UNL A   1      48.592  28.523  25.555  1.00  0.00    -0.237 OA
ATOM     91  O   UNL A   1      47.420  26.497  24.787  1.00  0.00    -0.744 OA
ENDBRANCH  87  88
ENDBRANCH  55  80
BRANCH  67  92
ATOM     92  C   UNL A   1      42.466  36.013  28.792  1.00  0.00     0.058 A 
ATOM     93  C   UNL A   1      43.028  37.081  29.510  1.00  0.00     0.135 A 
ATOM     94  C   UNL A   1      42.097  36.315  27.453  1.00  0.00     0.135 A 
ATOM     95  F   UNL A   1      43.524  36.911  30.743  1.00  0.00    -0.206 F 
ATOM     96  C   UNL A   1      43.152  38.364  28.971  1.00  0.00     0.059 A 
ATOM     97  C   UNL A   1      42.272  37.569  26.876  1.00  0.00     0.059 A 
ATOM     98  F   UNL A   1      41.561  35.390  26.642  1.00  0.00    -0.206 F 
ATOM     99  C   UNL A   1      42.774  38.598  27.654  1.00  0.00     0.060 A 
BRANCH  99 100
ATOM    100  S   UNL A   1      42.997  40.234  26.933  1.00  0.00     0.124 S 
ATOM    101  O   UNL A   1      43.954  39.953  25.868  1.00  0.00    -0.237 OA
ATOM    102  O   UNL A   1      41.648  40.580  26.493  1.00  0.00    -0.237 OA
ATOM    103  O   UNL A   1      43.505  41.025  28.050  1.00  0.00    -0.744 OA
ENDBRANCH  99 100
ENDBRANCH  67  92
ENDBRANCH  41  42
ENDBRANCH  33  36
ENDBRANCH  31  32
ENDBRANCH  30  31
ENDBRANCH  29  30
ENDBRANCH  28  29
ENDBRANCH   1  28
TORSDOF 21
ENDMDL
MODEL 2
REMARK VINA RESULT:     -13.2      1.357      2.126
REMARK SMILES Cc1ccc(/N=N/c2ccc(NC(=O)CCC(=O)NCCCCCCNC(=O)c3ccc(-c4c5nc(c(-c6c(F)cc(S(=O)(=O)[O-])cc6F)c6ccc([nH]6)c(-c6c(F)cc(S(=O)(=O)[O-])cc6F)c6nc(c(-c7c(F)cc(S(=O)(=O)[O-])cc7F)c7ccc4[nH]7)C=C6)C=C5)cc3)cc2)cc1
REMARK SMILES IDX 21 1 20 2 19 3 17 4 18 5 16 7 15 8 13 9 12 10 14 12 11 13
REMARK SMILES IDX 8 14 9 15 96 16 10 17 95 18 7 19 6 20 5 21 1 22 2 23 3 24
REMARK SMILES IDX 98 25 4 26 97 27 22 28 23 29 24 30 25 31 26 32 27 33 28 35
REMARK SMILES IDX 29 36 30 37 94 38 31 39 93 40 32 41 33 42 34 43 87 44 35 45
REMARK SMILES IDX 92 46 86 47 88 48 36 49 91 50 85 51 84 52 37 54 71 55 50 56
REMARK SMILES IDX 70 57 51 58 54 59 69 60 89 61 52 62 53 63 68 65 90 66 55 67
REMARK SMILES IDX 38 68 39 69 48 70 40 71 41 72 47 73 49 74 42 75 43 76 44 77
REMARK SMILES IDX 45 78 46 79 72 80 73 81 82 82 74 83 75 84 81 85 83 86 76 87
REMARK SMILES IDX 77 88 78 89 79 90 80 91 56 92 57 93 66 94 58 95 59 96 65 97
REMARK SMILES IDX 67 98 60 99 61 100 62 101 63 102 64 103
REMARK H PARENT 19 6 12 11 26 34 88 53 54 64
REMARK Flexibility Score: inf
ROOT
ATOM      1  C   UNL A   1      34.231  25.482  25.499  1.00  0.00     0.021 C 
ENDROOT
BRANCH   1   2
ATOM      2  C   UNL A   1      33.992  26.555  24.440  1.00  0.00     0.116 C 
BRANCH   2   3
ATOM      3  N   UNL A   1      33.816  26.024  23.101  1.00  0.00    -0.356 N 
ATOM      4  C   UNL A   1      33.231  26.598  22.012  1.00  0.00     0.220 C 
ATOM      5  O   UNL A   1      33.331  26.049  20.913  1.00  0.00    -0.275 OA
ATOM      6  H   UNL A   1      34.171  25.116  22.958  1.00  0.00     0.163 HD
BRANCH   4   7
ATOM      7  C   UNL A   1      32.462  27.892  22.157  1.00  0.00     0.110 C 
BRANCH   7   8
ATOM      8  C   UNL A   1      30.968  27.704  22.387  1.00  0.00     0.110 C 
BRANCH   8   9
ATOM      9  C   UNL A   1      30.489  28.098  23.769  1.00  0.00     0.224 C 
ATOM     10  N   UNL A   1      30.274  27.195  24.770  1.00  0.00    -0.326 N 
ATOM     11  H   UNL A   1      29.939  27.588  25.609  1.00  0.00     0.169 HD
ATOM     12  O   UNL A   1      30.375  29.299  24.043  1.00  0.00    -0.275 OA
BRANCH  10  13
ATOM     13  C   UNL A   1      30.449  25.805  24.808  1.00  0.00     0.041 A 
ATOM     14  C   UNL A   1      31.146  23.090  25.032  1.00  0.00     0.086 A 
ATOM     15  C   UNL A   1      30.868  23.658  23.788  1.00  0.00     0.032 A 
ATOM     16  C   UNL A   1      31.001  23.880  26.177  1.00  0.00     0.032 A 
ATOM     17  C   UNL A   1      30.505  25.001  23.675  1.00  0.00     0.028 A 
ATOM     18  C   UNL A   1      30.616  25.219  26.067  1.00  0.00     0.028 A 
BRANCH  14  19
ATOM     19  N   UNL A   1      31.574  21.753  25.060  1.00  0.00    -0.151 NA
ATOM     20  N   UNL A   1      31.867  21.343  23.920  1.00  0.00    -0.151 NA
BRANCH  20  21
ATOM     21  C   UNL A   1      32.543  20.106  23.934  1.00  0.00     0.086 A 
ATOM     22  C   UNL A   1      34.638  16.352  23.493  1.00  0.00     0.044 C 
ATOM     23  C   UNL A   1      33.897  17.640  23.681  1.00  0.00    -0.051 A 
ATOM     24  C   UNL A   1      32.764  17.911  22.907  1.00  0.00     0.006 A 
ATOM     25  C   UNL A   1      34.332  18.593  24.605  1.00  0.00     0.006 A 
ATOM     26  C   UNL A   1      32.096  19.131  23.037  1.00  0.00     0.030 A 
ATOM     27  C   UNL A   1      33.660  19.812  24.732  1.00  0.00     0.030 A 
ENDBRANCH  20  21
ENDBRANCH  14  19
ENDBRANCH  10  13
ENDBRANCH   8   9
ENDBRANCH   7   8
ENDBRANCH   4   7
ENDBRANCH   2   3
ENDBRANCH   1   2
BRANCH   1  28
ATOM     28  C   UNL A   1      34.725  24.124  24.991  1.00  0.00     0.002 C 
BRANCH  28  29
ATOM     29  C   UNL A   1      35.342  23.174  26.027  1.00  0.00     0.002 C 
BRANCH  29  30
ATOM     30  C   UNL A   1      36.740  22.625  25.724  1.00  0.00     0.021 C 
BRANCH  30  31
ATOM     31  C   UNL A   1      37.869  23.610  25.935  1.00  0.00     0.116 C 
BRANCH  31  32
ATOM     32  N   UNL A   1      38.534  23.551  27.221  1.00  0.00    -0.352 N 
ATOM     33  C   UNL A   1      39.780  24.162  27.305  1.00  0.00     0.251 C 
ATOM     34  H   UNL A   1      38.123  23.102  27.995  1.00  0.00     0.163 HD
ATOM     35  O   UNL A   1      40.829  23.692  26.878  1.00  0.00    -0.269 OA
BRANCH  33  36
ATOM     36  C   UNL A   1      39.670  25.605  27.580  1.00  0.00     0.039 A 
ATOM     37  C   UNL A   1      40.204  26.585  26.745  1.00  0.00     0.014 A 
ATOM     38  C   UNL A   1      39.165  25.920  28.846  1.00  0.00     0.014 A 
ATOM     39  C   UNL A   1      40.325  27.886  27.237  1.00  0.00     0.010 A 
ATOM     40  C   UNL A   1      39.385  27.166  29.365  1.00  0.00     0.010 A 
ATOM     41  C   UNL A   1      39.974  28.146  28.564  1.00  0.00    -0.014 A 
BRANCH  41  42
ATOM     42  C   UNL A   1      40.154  29.413  29.249  1.00  0.00     0.031 A 
ATOM     43  C   UNL A   1      39.058  30.402  29.225  1.00  0.00     0.074 A 
ATOM     44  C   UNL A   1      41.215  29.551  30.070  1.00  0.00     0.049 A 
ATOM     45  N   UNL A   1      39.197  31.646  29.520  1.00  0.00    -0.248 NA
ATOM     46  C   UNL A   1      37.692  30.055  28.843  1.00  0.00     0.031 C 
ATOM     47  C   UNL A   1      41.419  30.550  31.111  1.00  0.00     0.029 A 
ATOM     48  N   UNL A   1      42.440  28.888  29.979  1.00  0.00    -0.354 N 
ATOM     49  C   UNL A   1      37.938  32.195  29.642  1.00  0.00     0.074 A 
ATOM     50  C   UNL A   1      37.037  31.178  29.153  1.00  0.00     0.031 C 
ATOM     51  C   UNL A   1      42.733  30.638  31.373  1.00  0.00     0.029 A 
ATOM     52  C   UNL A   1      43.422  29.804  30.400  1.00  0.00     0.049 A 
ATOM     53  H   UNL A   1      42.588  27.962  29.680  1.00  0.00     0.167 HD
ATOM     54  C   UNL A   1      37.801  33.396  30.273  1.00  0.00     0.037 A 
ATOM     55  C   UNL A   1      44.345  30.264  29.501  1.00  0.00     0.037 A 
ATOM     56  C   UNL A   1      39.112  33.920  30.654  1.00  0.00     0.049 A 
ATOM     57  C   UNL A   1      44.220  31.748  29.232  1.00  0.00     0.074 A 
ATOM     58  C   UNL A   1      39.832  33.853  31.835  1.00  0.00     0.029 A 
ATOM     59  N   UNL A   1      40.014  34.295  29.663  1.00  0.00    -0.354 N 
ATOM     60  N   UNL A   1      43.146  32.451  29.469  1.00  0.00    -0.248 NA
ATOM     61  C   UNL A   1      45.312  32.566  28.713  1.00  0.00     0.031 C 
ATOM     62  C   UNL A   1      41.193  34.107  31.535  1.00  0.00     0.029 A 
ATOM     63  C   UNL A   1      41.297  34.357  30.177  1.00  0.00     0.049 A 
ATOM     64  H   UNL A   1      39.774  34.488  28.728  1.00  0.00     0.167 HD
ATOM     65  C   UNL A   1      43.375  33.770  29.165  1.00  0.00     0.074 A 
ATOM     66  C   UNL A   1      44.751  33.789  28.705  1.00  0.00     0.031 C 
ATOM     67  C   UNL A   1      42.422  34.737  29.336  1.00  0.00     0.037 A 
BRANCH  54  68
ATOM     68  C   UNL A   1      36.487  33.933  30.805  1.00  0.00     0.058 A 
ATOM     69  C   UNL A   1      35.428  34.244  29.924  1.00  0.00     0.135 A 
ATOM     70  C   UNL A   1      36.218  34.204  32.162  1.00  0.00     0.135 A 
ATOM     71  F   UNL A   1      35.497  33.969  28.615  1.00  0.00    -0.206 F 
ATOM     72  C   UNL A   1      34.248  34.866  30.337  1.00  0.00     0.059 A 
ATOM     73  C   UNL A   1      35.065  34.872  32.595  1.00  0.00     0.059 A 
ATOM     74  F   UNL A   1      37.046  33.788  33.131  1.00  0.00    -0.206 F 
ATOM     75  C   UNL A   1      34.086  35.207  31.672  1.00  0.00     0.060 A 
BRANCH  75  76
ATOM     76  S   UNL A   1      32.581  36.069  32.167  1.00  0.00     0.124 S 
ATOM     77  O   UNL A   1      33.051  36.894  33.276  1.00  0.00    -0.237 OA
ATOM     78  O   UNL A   1      32.226  36.786  30.948  1.00  0.00    -0.237 OA
ATOM     79  O   UNL A   1      31.676  34.986  32.542  1.00  0.00    -0.744 OA
ENDBRANCH  75  76
ENDBRANCH  54  68
BRANCH  55  80
ATOM     80  C   UNL A   1      44.759  29.207  28.527  1.00  0.00     0.058 A 
ATOM     81  C   UNL A   1      45.695  28.254  28.981  1.00  0.00     0.135 A 
ATOM     82  C   UNL A   1      43.935  28.834  27.454  1.00  0.00     0.135 A 
ATOM     83  F   UNL A   1      46.530  28.564  29.987  1.00  0.00    -0.206 F 
ATOM     84  C   UNL A   1      45.672  26.933  28.542  1.00  0.00     0.059 A 
ATOM     85  C   UNL A   1      43.911  27.516  26.984  1.00  0.00     0.059 A 
ATOM     86  F   UNL A   1      43.035  29.696  26.961  1.00  0.00    -0.206 F 
ATOM     87  C   UNL A   1      44.716  26.558  27.603  1.00  0.00     0.060 A 
BRANCH  87  88
ATOM     88  S   UNL A   1      44.420  24.788  27.349  1.00  0.00     0.124 S 
ATOM     89  O   UNL A   1      43.935  24.752  25.974  1.00  0.00    -0.237 OA
ATOM     90  O   UNL A   1      45.753  24.221  27.568  1.00  0.00    -0.237 OA
ATOM     91  O   UNL A   1      43.436  24.458  28.373  1.00  0.00    -0.744 OA
ENDBRANCH  87  88
ENDBRANCH  55  80
BRANCH  67  92
ATOM     92  C   UNL A   1      42.484  36.167  28.835  1.00  0.00     0.058 A 
ATOM     93  C   UNL A   1      43.201  37.197  29.464  1.00  0.00     0.135 A 
ATOM     94  C   UNL A   1      41.918  36.508  27.576  1.00  0.00     0.135 A 
ATOM     95  F   UNL A   1      43.881  36.985  30.599  1.00  0.00    -0.206 F 
ATOM     96  C   UNL A   1      43.294  38.483  28.927  1.00  0.00     0.059 A 
ATOM     97  C   UNL A   1      42.055  37.764  26.992  1.00  0.00     0.059 A 
ATOM     98  F   UNL A   1      41.219  35.621  26.853  1.00  0.00    -0.206 F 
ATOM     99  C   UNL A   1      42.721  38.757  27.689  1.00  0.00     0.060 A 
BRANCH  99 100
ATOM    100  S   UNL A   1      42.898  40.394  26.960  1.00  0.00     0.124 S 
ATOM    101  O   UNL A   1      41.514  40.714  26.627  1.00  0.00    -0.237 OA
ATOM    102  O   UNL A   1      43.481  41.172  28.049  1.00  0.00    -0.237 OA
ATOM    103  O   UNL A   1      43.784  40.160  25.824  1.00  0.00    -0.744 OA
ENDBRANCH  99 100
ENDBRANCH  67  92
ENDBRANCH  41  42
ENDBRANCH  33  36
ENDBRANCH  31  32
ENDBRANCH  30  31
ENDBRANCH  29  30
ENDBRANCH  28  29
ENDBRANCH   1  28
TORSDOF 21
ENDMDL
MODEL 3
REMARK VINA RESULT:     -12.3      1.677      2.280
REMARK SMILES Cc1ccc(/N=N/c2ccc(NC(=O)CCC(=O)NCCCCCCNC(=O)c3ccc(-c4c5nc(c(-c6c(F)cc(S(=O)(=O)[O-])cc6F)c6ccc([nH]6)c(-c6c(F)cc(S(=O)(=O)[O-])cc6F)c6nc(c(-c7c(F)cc(S(=O)(=O)[O-])cc7F)c7ccc4[nH]7)C=C6)C=C5)cc3)cc2)cc1
REMARK SMILES IDX 21 1 20 2 19 3 17 4 18 5 16 7 15 8 13 9 12 10 14 12 11 13
REMARK SMILES IDX 8 14 9 15 96 16 10 17 95 18 7 19 6 20 5 21 1 22 2 23 3 24
REMARK SMILES IDX 98 25 4 26 97 27 22 28 23 29 24 30 25 31 26 32 27 33 28 35
REMARK SMILES IDX 29 36 30 37 94 38 31 39 93 40 32 41 33 42 34 43 87 44 35 45
REMARK SMILES IDX 92 46 86 47 88 48 36 49 91 50 85 51 84 52 37 54 71 55 50 56
REMARK SMILES IDX 70 57 51 58 54 59 69 60 89 61 52 62 53 63 68 65 90 66 55 67
REMARK SMILES IDX 38 68 39 69 48 70 40 71 41 72 47 73 49 74 42 75 43 76 44 77
REMARK SMILES IDX 45 78 46 79 72 80 73 81 82 82 74 83 75 84 81 85 83 86 76 87
REMARK SMILES IDX 77 88 78 89 79 90 80 91 56 92 57 93 66 94 58 95 59 96 65 97
REMARK SMILES IDX 67 98 60 99 61 100 62 101 63 102 64 103
REMARK H PARENT 19 6 12 11 26 34 88 53 54 64
REMARK Flexibility Score: inf
ROOT
ATOM      1  C   UNL A   1      34.160  24.711  25.415  1.00  0.00     0.021 C 
ENDROOT
BRANCH   1   2
ATOM      2  C   UNL A   1      34.185  25.812  24.358  1.00  0.00     0.116 C 
BRANCH   2   3
ATOM      3  N   UNL A   1      33.956  25.329  23.008  1.00  0.00    -0.356 N 
ATOM      4  C   UNL A   1      33.261  25.907  21.988  1.00  0.00     0.220 C 
ATOM      5  O   UNL A   1      33.323  25.416  20.860  1.00  0.00    -0.275 OA
ATOM      6  H   UNL A   1      34.362  24.456  22.799  1.00  0.00     0.163 HD
BRANCH   4   7
ATOM      7  C   UNL A   1      32.416  27.134  22.245  1.00  0.00     0.110 C 
BRANCH   7   8
ATOM      8  C   UNL A   1      30.948  26.832  22.519  1.00  0.00     0.110 C 
BRANCH   8   9
ATOM      9  C   UNL A   1      30.453  27.288  23.876  1.00  0.00     0.224 C 
ATOM     10  N   UNL A   1      30.266  26.436  24.927  1.00  0.00    -0.326 N 
ATOM     11  H   UNL A   1      29.915  26.865  25.742  1.00  0.00     0.169 HD
ATOM     12  O   UNL A   1      30.298  28.498  24.081  1.00  0.00    -0.275 OA
BRANCH  10  13
ATOM     13  C   UNL A   1      30.487  25.058  25.044  1.00  0.00     0.041 A 
ATOM     14  C   UNL A   1      31.244  22.385  25.477  1.00  0.00     0.086 A 
ATOM     15  C   UNL A   1      31.146  22.902  24.184  1.00  0.00     0.032 A 
ATOM     16  C   UNL A   1      30.887  23.203  26.555  1.00  0.00     0.032 A 
ATOM     17  C   UNL A   1      30.754  24.223  23.965  1.00  0.00     0.028 A 
ATOM     18  C   UNL A   1      30.473  24.519  26.335  1.00  0.00     0.028 A 
BRANCH  14  19
ATOM     19  N   UNL A   1      31.714  21.070  25.622  1.00  0.00    -0.151 NA
ATOM     20  N   UNL A   1      32.230  20.650  24.569  1.00  0.00    -0.151 NA
BRANCH  20  21
ATOM     21  C   UNL A   1      32.942  19.446  24.743  1.00  0.00     0.086 A 
ATOM     22  C   UNL A   1      34.724  15.526  25.122  1.00  0.00     0.044 C 
ATOM     23  C   UNL A   1      34.132  16.899  25.018  1.00  0.00    -0.051 A 
ATOM     24  C   UNL A   1      32.871  17.156  25.565  1.00  0.00     0.006 A 
ATOM     25  C   UNL A   1      34.811  17.928  24.361  1.00  0.00     0.006 A 
ATOM     26  C   UNL A   1      32.287  18.417  25.429  1.00  0.00     0.030 A 
ATOM     27  C   UNL A   1      34.222  19.189  24.228  1.00  0.00     0.030 A 
ENDBRANCH  20  21
ENDBRANCH  14  19
ENDBRANCH  10  13
ENDBRANCH   8   9
ENDBRANCH   7   8
ENDBRANCH   4   7
ENDBRANCH   2   3
ENDBRANCH   1   2
BRANCH   1  28
ATOM     28  C   UNL A   1      35.443  23.889  25.571  1.00  0.00     0.002 C 
BRANCH  28  29
ATOM     29  C   UNL A   1      35.313  22.364  25.444  1.00  0.00     0.002 C 
BRANCH  29  30
ATOM     30  C   UNL A   1      36.613  21.562  25.333  1.00  0.00     0.021 C 
BRANCH  30  31
ATOM     31  C   UNL A   1      37.879  22.390  25.392  1.00  0.00     0.116 C 
BRANCH  31  32
ATOM     32  N   UNL A   1      38.688  22.234  26.583  1.00  0.00    -0.352 N 
ATOM     33  C   UNL A   1      39.972  22.764  26.534  1.00  0.00     0.251 C 
ATOM     34  H   UNL A   1      38.345  21.778  27.385  1.00  0.00     0.163 HD
ATOM     35  O   UNL A   1      40.930  22.250  25.965  1.00  0.00    -0.269 OA
BRANCH  33  36
ATOM     36  C   UNL A   1      39.992  24.198  26.874  1.00  0.00     0.039 A 
ATOM     37  C   UNL A   1      40.736  25.140  26.166  1.00  0.00     0.014 A 
ATOM     38  C   UNL A   1      39.366  24.519  28.083  1.00  0.00     0.014 A 
ATOM     39  C   UNL A   1      40.939  26.397  26.740  1.00  0.00     0.010 A 
ATOM     40  C   UNL A   1      39.658  25.708  28.693  1.00  0.00     0.010 A 
ATOM     41  C   UNL A   1      40.451  26.643  28.026  1.00  0.00    -0.014 A 
BRANCH  41  42
ATOM     42  C   UNL A   1      40.683  27.850  28.797  1.00  0.00     0.031 A 
ATOM     43  C   UNL A   1      39.635  28.889  28.833  1.00  0.00     0.074 A 
ATOM     44  C   UNL A   1      41.742  27.882  29.632  1.00  0.00     0.049 A 
ATOM     45  N   UNL A   1      39.829  30.102  29.214  1.00  0.00    -0.248 NA
ATOM     46  C   UNL A   1      38.257  28.633  28.420  1.00  0.00     0.031 C 
ATOM     47  C   UNL A   1      41.982  28.798  30.741  1.00  0.00     0.029 A 
ATOM     48  N   UNL A   1      42.935  27.170  29.504  1.00  0.00    -0.354 N 
ATOM     49  C   UNL A   1      38.595  30.700  29.364  1.00  0.00     0.074 A 
ATOM     50  C   UNL A   1      37.653  29.762  28.802  1.00  0.00     0.031 C 
ATOM     51  C   UNL A   1      43.297  28.806  31.016  1.00  0.00     0.029 A 
ATOM     52  C   UNL A   1      43.955  28.008  29.992  1.00  0.00     0.049 A 
ATOM     53  H   UNL A   1      43.043  26.260  29.144  1.00  0.00     0.167 HD
ATOM     54  C   UNL A   1      38.508  31.861  30.075  1.00  0.00     0.037 A 
ATOM     55  C   UNL A   1      44.907  28.484  29.133  1.00  0.00     0.037 A 
ATOM     56  C   UNL A   1      39.838  32.296  30.499  1.00  0.00     0.049 A 
ATOM     57  C   UNL A   1      44.854  29.988  28.965  1.00  0.00     0.074 A 
ATOM     58  C   UNL A   1      40.543  32.115  31.677  1.00  0.00     0.029 A 
ATOM     59  N   UNL A   1      40.766  32.694  29.542  1.00  0.00    -0.354 N 
ATOM     60  N   UNL A   1      43.811  30.723  29.243  1.00  0.00    -0.248 NA
ATOM     61  C   UNL A   1      45.987  30.786  28.510  1.00  0.00     0.031 C 
ATOM     62  C   UNL A   1      41.918  32.325  31.404  1.00  0.00     0.029 A 
ATOM     63  C   UNL A   1      42.045  32.661  30.067  1.00  0.00     0.049 A 
ATOM     64  H   UNL A   1      40.545  32.961  28.621  1.00  0.00     0.167 HD
ATOM     65  C   UNL A   1      44.104  32.046  29.031  1.00  0.00     0.074 A 
ATOM     66  C   UNL A   1      45.484  32.033  28.582  1.00  0.00     0.031 C 
ATOM     67  C   UNL A   1      43.195  33.044  29.261  1.00  0.00     0.037 A 
BRANCH  54  68
ATOM     68  C   UNL A   1      37.216  32.422  30.634  1.00  0.00     0.058 A 
ATOM     69  C   UNL A   1      36.664  33.614  30.114  1.00  0.00     0.135 A 
ATOM     70  C   UNL A   1      36.492  31.861  31.706  1.00  0.00     0.135 A 
ATOM     71  F   UNL A   1      37.189  34.222  29.042  1.00  0.00    -0.206 F 
ATOM     72  C   UNL A   1      35.555  34.251  30.673  1.00  0.00     0.059 A 
ATOM     73  C   UNL A   1      35.407  32.505  32.316  1.00  0.00     0.059 A 
ATOM     74  F   UNL A   1      36.781  30.640  32.176  1.00  0.00    -0.206 F 
ATOM     75  C   UNL A   1      34.949  33.707  31.796  1.00  0.00     0.060 A 
BRANCH  75  76
ATOM     76  S   UNL A   1      33.560  34.584  32.539  1.00  0.00     0.124 S 
ATOM     77  O   UNL A   1      32.848  35.082  31.365  1.00  0.00    -0.237 OA
ATOM     78  O   UNL A   1      32.891  33.522  33.281  1.00  0.00    -0.237 OA
ATOM     79  O   UNL A   1      34.201  35.611  33.355  1.00  0.00    -0.744 OA
ENDBRANCH  75  76
ENDBRANCH  54  68
BRANCH  55  80
ATOM     80  C   UNL A   1      45.280  27.478  28.092  1.00  0.00     0.058 A 
ATOM     81  C   UNL A   1      44.749  27.672  26.799  1.00  0.00     0.135 A 
ATOM     82  C   UNL A   1      46.454  26.717  28.193  1.00  0.00     0.135 A 
ATOM     83  F   UNL A   1      43.610  28.368  26.641  1.00  0.00    -0.206 F 
ATOM     84  C   UNL A   1      45.455  27.317  25.652  1.00  0.00     0.059 A 
ATOM     85  C   UNL A   1      47.169  26.333  27.053  1.00  0.00     0.059 A 
ATOM     86  F   UNL A   1      47.004  26.480  29.393  1.00  0.00    -0.206 F 
ATOM     87  C   UNL A   1      46.706  26.724  25.795  1.00  0.00     0.060 A 
BRANCH  87  88
ATOM     88  S   UNL A   1      47.784  26.646  24.341  1.00  0.00     0.124 S 
ATOM     89  O   UNL A   1      47.185  27.642  23.460  1.00  0.00    -0.237 OA
ATOM     90  O   UNL A   1      49.088  27.002  24.907  1.00  0.00    -0.237 OA
ATOM     91  O   UNL A   1      47.662  25.261  23.902  1.00  0.00    -0.744 OA
ENDBRANCH  87  88
ENDBRANCH  55  80
BRANCH  67  92
ATOM     92  C   UNL A   1      43.328  34.499  28.859  1.00  0.00     0.058 A 
ATOM     93  C   UNL A   1      43.472  35.562  29.765  1.00  0.00     0.135 A 
ATOM     94  C   UNL A   1      43.467  34.853  27.489  1.00  0.00     0.135 A 
ATOM     95  F   UNL A   1      43.478  35.357  31.090  1.00  0.00    -0.206 F 
ATOM     96  C   UNL A   1      43.669  36.882  29.350  1.00  0.00     0.059 A 
ATOM     97  C   UNL A   1      43.729  36.150  27.058  1.00  0.00     0.059 A 
ATOM     98  F   UNL A   1      43.369  33.940  26.511  1.00  0.00    -0.206 F 
ATOM     99  C   UNL A   1      43.798  37.166  27.994  1.00  0.00     0.060 A 
BRANCH  99 100
ATOM    100  S   UNL A   1      44.122  38.854  27.458  1.00  0.00     0.124 S 
ATOM    101  O   UNL A   1      42.938  39.133  26.651  1.00  0.00    -0.237 OA
ATOM    102  O   UNL A   1      44.211  39.583  28.719  1.00  0.00    -0.237 OA
ATOM    103  O   UNL A   1      45.376  38.737  26.721  1.00  0.00    -0.744 OA
ENDBRANCH  99 100
ENDBRANCH  67  92
ENDBRANCH  41  42
ENDBRANCH  33  36
ENDBRANCH  31  32
ENDBRANCH  30  31
ENDBRANCH  29  30
ENDBRANCH  28  29
ENDBRANCH   1  28
TORSDOF 21
ENDMDL
