MODEL 1
REMARK VINA RESULT:     -12.2      0.000      0.000
REMARK SMILES Cc1ccnc(C(=O)c2[nH]c3cc(F)ccc3c2CC(=O)NCCCCCCNC(=O)c2ccc(-c3c4nc(c(-c5c(F)cc(S(=O)(=O)[O-])cc5F)c5ccc([nH]5)c(-c5c(F)cc(S(=O)(=O)[O-])cc5F)c5nc(c(-c6c(F)cc(S(=O)(=O)[O-])cc6F)c6ccc3[nH]6)C=C5)C=C4)cc2)c1
REMARK SMILES IDX 25 1 24 2 23 3 22 4 20 5 21 6 19 8 18 9 9 10 10 11 11 12
REMARK SMILES IDX 17 14 12 15 16 16 13 17 15 18 14 19 7 20 8 21 6 22 1 23 2 24
REMARK SMILES IDX 3 25 98 26 4 27 5 28 26 29 27 30 28 31 29 32 30 33 31 35
REMARK SMILES IDX 32 36 33 37 97 38 34 39 96 40 35 41 36 42 37 43 90 44 38 45
REMARK SMILES IDX 95 46 89 47 91 48 39 49 94 50 88 51 87 52 40 54 74 55 53 56
REMARK SMILES IDX 73 57 54 58 57 59 72 60 92 61 55 62 56 63 71 65 93 66 58 67
REMARK SMILES IDX 41 68 42 69 51 70 43 71 44 72 50 73 52 74 45 75 46 76 47 77
REMARK SMILES IDX 48 78 49 79 75 80 76 81 85 82 77 83 78 84 84 85 86 86 79 87
REMARK SMILES IDX 80 88 81 89 82 90 83 91 59 92 60 93 69 94 61 95 62 96 68 97
REMARK SMILES IDX 70 98 63 99 64 100 65 101 66 102 67 103
REMARK H PARENT 22 7 10 13 29 34 91 53 57 64
REMARK Flexibility Score: inf
ROOT
ATOM      1  C   UNL A   1      32.443  28.208  25.283  1.00  0.00     0.002 C 
ENDROOT
BRANCH   1   2
ATOM      2  C   UNL A   1      33.494  27.627  24.330  1.00  0.00     0.021 C 
BRANCH   2   3
ATOM      3  C   UNL A   1      33.927  26.195  24.637  1.00  0.00     0.116 C 
BRANCH   3   4
ATOM      4  N   UNL A   1      33.279  25.216  23.787  1.00  0.00    -0.356 N 
ATOM      5  C   UNL A   1      32.910  23.932  24.072  1.00  0.00     0.224 C 
ATOM      6  O   UNL A   1      32.245  23.313  23.237  1.00  0.00    -0.275 OA
ATOM      7  H   UNL A   1      33.075  25.520  22.873  1.00  0.00     0.163 HD
BRANCH   5   8
ATOM      8  C   UNL A   1      33.211  23.323  25.432  1.00  0.00     0.138 C 
BRANCH   8   9
ATOM      9  C   UNL A   1      34.307  22.295  25.443  1.00  0.00    -0.002 A 
ATOM     10  C   UNL A   1      34.175  20.913  25.352  1.00  0.00     0.093 A 
ATOM     11  N   UNL A   1      35.442  20.375  25.353  1.00  0.00    -0.351 N 
ATOM     12  C   UNL A   1      36.383  21.350  25.561  1.00  0.00     0.049 A 
ATOM     13  H   UNL A   1      35.644  19.420  25.223  1.00  0.00     0.167 HD
ATOM     14  C   UNL A   1      35.705  22.568  25.626  1.00  0.00     0.004 A 
ATOM     15  C   UNL A   1      37.773  21.246  25.683  1.00  0.00     0.066 A 
ATOM     16  C   UNL A   1      36.461  23.745  25.832  1.00  0.00     0.013 A 
ATOM     17  C   UNL A   1      38.484  22.426  25.887  1.00  0.00     0.125 A 
ATOM     18  C   UNL A   1      37.852  23.659  25.961  1.00  0.00     0.040 A 
ATOM     19  F   UNL A   1      39.816  22.366  26.018  1.00  0.00    -0.207 F 
BRANCH  10  20
ATOM     20  C   UNL A   1      32.982  20.095  25.207  1.00  0.00     0.227 C 
ATOM     21  O   UNL A   1      31.861  20.578  25.325  1.00  0.00    -0.285 OA
BRANCH  20  22
ATOM     22  C   UNL A   1      33.164  18.640  24.843  1.00  0.00     0.113 A 
ATOM     23  C   UNL A   1      32.244  15.149  26.010  1.00  0.00     0.044 C 
ATOM     24  C   UNL A   1      32.834  16.286  25.231  1.00  0.00    -0.047 A 
ATOM     25  C   UNL A   1      33.617  16.036  24.104  1.00  0.00     0.023 A 
ATOM     26  C   UNL A   1      32.588  17.614  25.594  1.00  0.00     0.036 A 
ATOM     27  C   UNL A   1      34.139  17.111  23.405  1.00  0.00     0.112 A 
ATOM     28  N   UNL A   1      33.941  18.398  23.753  1.00  0.00    -0.253 NA
ENDBRANCH  20  22
ENDBRANCH  10  20
ENDBRANCH   8   9
ENDBRANCH   5   8
ENDBRANCH   3   4
ENDBRANCH   2   3
ENDBRANCH   1   2
BRANCH   1  29
ATOM     29  C   UNL A   1      32.927  29.317  26.222  1.00  0.00     0.002 C 
BRANCH  29  30
ATOM     30  C   UNL A   1      34.446  29.472  26.359  1.00  0.00     0.021 C 
BRANCH  30  31
ATOM     31  C   UNL A   1      35.054  28.963  27.668  1.00  0.00     0.116 C 
BRANCH  31  32
ATOM     32  N   UNL A   1      35.028  29.963  28.720  1.00  0.00    -0.352 N 
ATOM     33  C   UNL A   1      36.053  30.416  29.513  1.00  0.00     0.251 C 
ATOM     34  H   UNL A   1      34.150  30.375  28.889  1.00  0.00     0.163 HD
ATOM     35  O   UNL A   1      35.807  31.174  30.448  1.00  0.00    -0.269 OA
BRANCH  33  36
ATOM     36  C   UNL A   1      37.448  29.983  29.270  1.00  0.00     0.039 A 
ATOM     37  C   UNL A   1      37.943  30.033  27.962  1.00  0.00     0.014 A 
ATOM     38  C   UNL A   1      38.248  29.474  30.299  1.00  0.00     0.014 A 
ATOM     39  C   UNL A   1      39.250  29.622  27.690  1.00  0.00     0.010 A 
ATOM     40  C   UNL A   1      39.561  29.076  30.030  1.00  0.00     0.010 A 
ATOM     41  C   UNL A   1      40.071  29.151  28.725  1.00  0.00    -0.014 A 
BRANCH  41  42
ATOM     42  C   UNL A   1      41.467  28.732  28.453  1.00  0.00     0.031 A 
ATOM     43  C   UNL A   1      42.583  29.733  28.504  1.00  0.00     0.074 A 
ATOM     44  C   UNL A   1      41.727  27.453  28.128  1.00  0.00     0.049 A 
ATOM     45  N   UNL A   1      43.840  29.581  28.176  1.00  0.00    -0.248 NA
ATOM     46  C   UNL A   1      42.237  31.084  28.971  1.00  0.00     0.031 C 
ATOM     47  C   UNL A   1      40.733  26.384  28.036  1.00  0.00     0.029 A 
ATOM     48  N   UNL A   1      42.911  26.840  27.806  1.00  0.00    -0.354 N 
ATOM     49  C   UNL A   1      44.432  30.822  28.359  1.00  0.00     0.074 A 
ATOM     50  C   UNL A   1      43.399  31.712  28.852  1.00  0.00     0.031 C 
ATOM     51  C   UNL A   1      41.349  25.244  27.682  1.00  0.00     0.029 A 
ATOM     52  C   UNL A   1      42.776  25.507  27.510  1.00  0.00     0.049 A 
ATOM     53  H   UNL A   1      43.775  27.312  27.788  1.00  0.00     0.167 HD
ATOM     54  C   UNL A   1      45.712  31.193  28.118  1.00  0.00     0.037 A 
ATOM     55  C   UNL A   1      43.697  24.600  27.136  1.00  0.00     0.037 A 
ATOM     56  C   UNL A   1      46.746  30.313  27.644  1.00  0.00     0.049 A 
ATOM     57  C   UNL A   1      45.132  25.009  26.983  1.00  0.00     0.074 A 
ATOM     58  C   UNL A   1      48.056  30.614  27.308  1.00  0.00     0.029 A 
ATOM     59  N   UNL A   1      46.593  28.948  27.463  1.00  0.00    -0.354 N 
ATOM     60  N   UNL A   1      45.661  26.201  27.100  1.00  0.00    -0.248 NA
ATOM     61  C   UNL A   1      46.093  23.948  26.650  1.00  0.00     0.031 C 
ATOM     62  C   UNL A   1      48.699  29.424  26.939  1.00  0.00     0.029 A 
ATOM     63  C   UNL A   1      47.789  28.386  27.048  1.00  0.00     0.049 A 
ATOM     64  H   UNL A   1      45.756  28.450  27.609  1.00  0.00     0.167 HD
ATOM     65  C   UNL A   1      47.016  26.040  26.842  1.00  0.00     0.074 A 
ATOM     66  C   UNL A   1      47.230  24.630  26.582  1.00  0.00     0.031 C 
ATOM     67  C   UNL A   1      47.991  26.981  26.808  1.00  0.00     0.037 A 
BRANCH  54  68
ATOM     68  C   UNL A   1      46.042  32.636  28.342  1.00  0.00     0.058 A 
ATOM     69  C   UNL A   1      45.906  33.582  27.316  1.00  0.00     0.135 A 
ATOM     70  C   UNL A   1      46.530  33.069  29.584  1.00  0.00     0.135 A 
ATOM     71  F   UNL A   1      45.460  33.206  26.106  1.00  0.00    -0.206 F 
ATOM     72  C   UNL A   1      46.266  34.912  27.506  1.00  0.00     0.059 A 
ATOM     73  C   UNL A   1      46.891  34.394  29.797  1.00  0.00     0.059 A 
ATOM     74  F   UNL A   1      46.689  32.195  30.591  1.00  0.00    -0.206 F 
ATOM     75  C   UNL A   1      46.773  35.305  28.746  1.00  0.00     0.060 A 
BRANCH  75  76
ATOM     76  S   UNL A   1      47.289  37.016  29.005  1.00  0.00     0.124 S 
ATOM     77  O   UNL A   1      46.514  37.374  30.190  1.00  0.00    -0.237 OA
ATOM     78  O   UNL A   1      48.730  36.902  29.205  1.00  0.00    -0.237 OA
ATOM     79  O   UNL A   1      46.883  37.669  27.765  1.00  0.00    -0.744 OA
ENDBRANCH  75  76
ENDBRANCH  54  68
BRANCH  55  80
ATOM     80  C   UNL A   1      43.274  23.205  26.877  1.00  0.00     0.058 A 
ATOM     81  C   UNL A   1      43.232  22.700  25.571  1.00  0.00     0.135 A 
ATOM     82  C   UNL A   1      42.960  22.342  27.934  1.00  0.00     0.135 A 
ATOM     83  F   UNL A   1      43.527  23.497  24.532  1.00  0.00    -0.206 F 
ATOM     84  C   UNL A   1      42.900  21.374  25.318  1.00  0.00     0.059 A 
ATOM     85  C   UNL A   1      42.629  21.011  27.707  1.00  0.00     0.059 A 
ATOM     86  F   UNL A   1      42.999  22.787  29.199  1.00  0.00    -0.206 F 
ATOM     87  C   UNL A   1      42.604  20.536  26.394  1.00  0.00     0.060 A 
BRANCH  87  88
ATOM     88  S   UNL A   1      42.259  18.786  26.101  1.00  0.00     0.124 S 
ATOM     89  O   UNL A   1      40.850  18.824  25.728  1.00  0.00    -0.237 OA
ATOM     90  O   UNL A   1      43.192  18.443  25.032  1.00  0.00    -0.237 OA
ATOM     91  O   UNL A   1      42.560  18.186  27.398  1.00  0.00    -0.744 OA
ENDBRANCH  87  88
ENDBRANCH  55  80
BRANCH  67  92
ATOM     92  C   UNL A   1      49.374  26.511  26.476  1.00  0.00     0.058 A 
ATOM     93  C   UNL A   1      49.819  26.468  25.146  1.00  0.00     0.135 A 
ATOM     94  C   UNL A   1      50.261  26.115  27.486  1.00  0.00     0.135 A 
ATOM     95  F   UNL A   1      49.001  26.834  24.148  1.00  0.00    -0.206 F 
ATOM     96  C   UNL A   1      51.103  26.038  24.826  1.00  0.00     0.059 A 
ATOM     97  C   UNL A   1      51.550  25.683  27.189  1.00  0.00     0.059 A 
ATOM     98  F   UNL A   1      49.875  26.135  28.772  1.00  0.00    -0.206 F 
ATOM     99  C   UNL A   1      51.958  25.638  25.855  1.00  0.00     0.060 A 
BRANCH  99 100
ATOM    100  S   UNL A   1      53.633  25.091  25.456  1.00  0.00     0.124 S 
ATOM    101  O   UNL A   1      53.831  25.694  24.142  1.00  0.00    -0.237 OA
ATOM    102  O   UNL A   1      54.430  25.659  26.539  1.00  0.00    -0.237 OA
ATOM    103  O   UNL A   1      53.515  23.636  25.473  1.00  0.00    -0.744 OA
ENDBRANCH  99 100
ENDBRANCH  67  92
ENDBRANCH  41  42
ENDBRANCH  33  36
ENDBRANCH  31  32
ENDBRANCH  30  31
ENDBRANCH  29  30
ENDBRANCH   1  29
TORSDOF 19
ENDMDL
MODEL 2
REMARK VINA RESULT:     -12.2      2.977      4.573
REMARK SMILES Cc1ccnc(C(=O)c2[nH]c3cc(F)ccc3c2CC(=O)NCCCCCCNC(=O)c2ccc(-c3c4nc(c(-c5c(F)cc(S(=O)(=O)[O-])cc5F)c5ccc([nH]5)c(-c5c(F)cc(S(=O)(=O)[O-])cc5F)c5nc(c(-c6c(F)cc(S(=O)(=O)[O-])cc6F)c6ccc3[nH]6)C=C5)C=C4)cc2)c1
REMARK SMILES IDX 25 1 24 2 23 3 22 4 20 5 21 6 19 8 18 9 9 10 10 11 11 12
REMARK SMILES IDX 17 14 12 15 16 16 13 17 15 18 14 19 7 20 8 21 6 22 1 23 2 24
REMARK SMILES IDX 3 25 98 26 4 27 5 28 26 29 27 30 28 31 29 32 30 33 31 35
REMARK SMILES IDX 32 36 33 37 97 38 34 39 96 40 35 41 36 42 37 43 90 44 38 45
REMARK SMILES IDX 95 46 89 47 91 48 39 49 94 50 88 51 87 52 40 54 74 55 53 56
REMARK SMILES IDX 73 57 54 58 57 59 72 60 92 61 55 62 56 63 71 65 93 66 58 67
REMARK SMILES IDX 41 68 42 69 51 70 43 71 44 72 50 73 52 74 45 75 46 76 47 77
REMARK SMILES IDX 48 78 49 79 75 80 76 81 85 82 77 83 78 84 84 85 86 86 79 87
REMARK SMILES IDX 80 88 81 89 82 90 83 91 59 92 60 93 69 94 61 95 62 96 68 97
REMARK SMILES IDX 70 98 63 99 64 100 65 101 66 102 67 103
REMARK H PARENT 22 7 10 13 29 34 91 53 57 64
REMARK Flexibility Score: inf
ROOT
ATOM      1  C   UNL A   1      32.161  25.501  26.508  1.00  0.00     0.002 C 
ENDROOT
BRANCH   1   2
ATOM      2  C   UNL A   1      32.241  24.006  26.832  1.00  0.00     0.021 C 
BRANCH   2   3
ATOM      3  C   UNL A   1      31.134  23.149  26.223  1.00  0.00     0.116 C 
BRANCH   3   4
ATOM      4  N   UNL A   1      30.532  23.755  25.051  1.00  0.00    -0.356 N 
ATOM      5  C   UNL A   1      30.793  23.528  23.730  1.00  0.00     0.224 C 
ATOM      6  O   UNL A   1      30.065  24.061  22.888  1.00  0.00    -0.275 OA
ATOM      7  H   UNL A   1      29.836  24.427  25.235  1.00  0.00     0.163 HD
BRANCH   5   8
ATOM      8  C   UNL A   1      31.880  22.552  23.311  1.00  0.00     0.138 C 
BRANCH   8   9
ATOM      9  C   UNL A   1      33.282  23.086  23.383  1.00  0.00    -0.002 A 
ATOM     10  C   UNL A   1      33.825  24.147  22.665  1.00  0.00     0.093 A 
ATOM     11  N   UNL A   1      35.123  24.314  23.088  1.00  0.00    -0.351 N 
ATOM     12  C   UNL A   1      35.477  23.324  23.969  1.00  0.00     0.049 A 
ATOM     13  H   UNL A   1      35.717  25.043  22.799  1.00  0.00     0.167 HD
ATOM     14  C   UNL A   1      34.347  22.533  24.174  1.00  0.00     0.004 A 
ATOM     15  C   UNL A   1      36.701  23.080  24.602  1.00  0.00     0.066 A 
ATOM     16  C   UNL A   1      34.450  21.433  25.056  1.00  0.00     0.013 A 
ATOM     17  C   UNL A   1      36.766  21.987  25.463  1.00  0.00     0.125 A 
ATOM     18  C   UNL A   1      35.668  21.170  25.695  1.00  0.00     0.040 A 
ATOM     19  F   UNL A   1      37.923  21.715  26.080  1.00  0.00    -0.207 F 
BRANCH  10  20
ATOM     20  C   UNL A   1      33.206  25.024  21.685  1.00  0.00     0.227 C 
ATOM     21  O   UNL A   1      32.887  24.614  20.575  1.00  0.00    -0.285 OA
BRANCH  20  22
ATOM     22  C   UNL A   1      32.909  26.446  22.100  1.00  0.00     0.113 A 
ATOM     23  C   UNL A   1      30.049  28.679  23.212  1.00  0.00     0.044 C 
ATOM     24  C   UNL A   1      31.409  28.194  22.806  1.00  0.00    -0.047 A 
ATOM     25  C   UNL A   1      32.491  29.072  22.781  1.00  0.00     0.023 A 
ATOM     26  C   UNL A   1      31.628  26.852  22.478  1.00  0.00     0.036 A 
ATOM     27  C   UNL A   1      33.733  28.586  22.409  1.00  0.00     0.112 A 
ATOM     28  N   UNL A   1      33.963  27.305  22.059  1.00  0.00    -0.253 NA
ENDBRANCH  20  22
ENDBRANCH  10  20
ENDBRANCH   8   9
ENDBRANCH   5   8
ENDBRANCH   3   4
ENDBRANCH   2   3
ENDBRANCH   1   2
BRANCH   1  29
ATOM     29  C   UNL A   1      33.306  26.068  25.664  1.00  0.00     0.002 C 
BRANCH  29  30
ATOM     30  C   UNL A   1      33.707  27.519  25.955  1.00  0.00     0.021 C 
BRANCH  30  31
ATOM     31  C   UNL A   1      33.414  28.022  27.371  1.00  0.00     0.116 C 
BRANCH  31  32
ATOM     32  N   UNL A   1      33.241  29.462  27.426  1.00  0.00    -0.352 N 
ATOM     33  C   UNL A   1      34.130  30.428  27.829  1.00  0.00     0.251 C 
ATOM     34  H   UNL A   1      32.362  29.794  27.134  1.00  0.00     0.163 HD
ATOM     35  O   UNL A   1      33.753  31.592  27.936  1.00  0.00    -0.269 OA
BRANCH  33  36
ATOM     36  C   UNL A   1      35.531  30.079  28.161  1.00  0.00     0.039 A 
ATOM     37  C   UNL A   1      36.483  30.102  27.135  1.00  0.00     0.014 A 
ATOM     38  C   UNL A   1      35.901  29.675  29.448  1.00  0.00     0.014 A 
ATOM     39  C   UNL A   1      37.812  29.767  27.406  1.00  0.00     0.010 A 
ATOM     40  C   UNL A   1      37.234  29.355  29.722  1.00  0.00     0.010 A 
ATOM     41  C   UNL A   1      38.198  29.402  28.704  1.00  0.00    -0.014 A 
BRANCH  41  42
ATOM     42  C   UNL A   1      39.609  29.067  29.009  1.00  0.00     0.031 A 
ATOM     43  C   UNL A   1      40.510  30.083  29.649  1.00  0.00     0.074 A 
ATOM     44  C   UNL A   1      40.092  27.856  28.679  1.00  0.00     0.049 A 
ATOM     45  N   UNL A   1      41.796  30.015  29.874  1.00  0.00    -0.248 NA
ATOM     46  C   UNL A   1      39.884  31.342  30.078  1.00  0.00     0.031 C 
ATOM     47  C   UNL A   1      39.326  26.783  28.045  1.00  0.00     0.029 A 
ATOM     48  N   UNL A   1      41.350  27.330  28.824  1.00  0.00    -0.354 N 
ATOM     49  C   UNL A   1      42.146  31.234  30.437  1.00  0.00     0.074 A 
ATOM     50  C   UNL A   1      40.929  32.014  30.542  1.00  0.00     0.031 C 
ATOM     51  C   UNL A   1      40.130  25.723  27.858  1.00  0.00     0.029 A 
ATOM     52  C   UNL A   1      41.469  26.049  28.345  1.00  0.00     0.049 A 
ATOM     53  H   UNL A   1      42.097  27.824  29.233  1.00  0.00     0.167 HD
ATOM     54  C   UNL A   1      43.372  31.671  30.812  1.00  0.00     0.037 A 
ATOM     55  C   UNL A   1      42.537  25.232  28.297  1.00  0.00     0.037 A 
ATOM     56  C   UNL A   1      44.582  30.898  30.726  1.00  0.00     0.049 A 
ATOM     57  C   UNL A   1      43.862  25.700  28.821  1.00  0.00     0.074 A 
ATOM     58  C   UNL A   1      45.879  31.282  31.021  1.00  0.00     0.029 A 
ATOM     59  N   UNL A   1      44.638  29.569  30.338  1.00  0.00    -0.354 N 
ATOM     60  N   UNL A   1      44.187  26.878  29.293  1.00  0.00    -0.248 NA
ATOM     61  C   UNL A   1      44.962  24.725  28.810  1.00  0.00     0.031 C 
ATOM     62  C   UNL A   1      46.719  30.176  30.825  1.00  0.00     0.029 A 
ATOM     63  C   UNL A   1      45.942  29.107  30.412  1.00  0.00     0.049 A 
ATOM     64  H   UNL A   1      43.864  29.032  30.053  1.00  0.00     0.167 HD
ATOM     65  C   UNL A   1      45.533  26.793  29.622  1.00  0.00     0.074 A 
ATOM     66  C   UNL A   1      45.958  25.443  29.316  1.00  0.00     0.031 C 
ATOM     67  C   UNL A   1      46.347  27.758  30.119  1.00  0.00     0.037 A 
BRANCH  54  68
ATOM     68  C   UNL A   1      43.451  33.077  31.323  1.00  0.00     0.058 A 
ATOM     69  C   UNL A   1      43.677  34.155  30.456  1.00  0.00     0.135 A 
ATOM     70  C   UNL A   1      43.332  33.342  32.695  1.00  0.00     0.135 A 
ATOM     71  F   UNL A   1      43.815  33.943  29.137  1.00  0.00    -0.206 F 
ATOM     72  C   UNL A   1      43.807  35.455  30.936  1.00  0.00     0.059 A 
ATOM     73  C   UNL A   1      43.453  34.632  33.196  1.00  0.00     0.059 A 
ATOM     74  F   UNL A   1      43.127  32.338  33.563  1.00  0.00    -0.206 F 
ATOM     75  C   UNL A   1      43.709  35.680  32.311  1.00  0.00     0.060 A 
BRANCH  75  76
ATOM     76  S   UNL A   1      43.918  37.351  32.965  1.00  0.00     0.124 S 
ATOM     77  O   UNL A   1      45.235  37.255  33.586  1.00  0.00    -0.237 OA
ATOM     78  O   UNL A   1      43.843  38.187  31.770  1.00  0.00    -0.237 OA
ATOM     79  O   UNL A   1      42.793  37.481  33.886  1.00  0.00    -0.744 OA
ENDBRANCH  75  76
ENDBRANCH  54  68
BRANCH  55  80
ATOM     80  C   UNL A   1      42.385  23.877  27.720  1.00  0.00     0.058 A 
ATOM     81  C   UNL A   1      42.397  23.683  26.333  1.00  0.00     0.135 A 
ATOM     82  C   UNL A   1      42.281  22.752  28.548  1.00  0.00     0.135 A 
ATOM     83  F   UNL A   1      42.496  24.737  25.508  1.00  0.00    -0.206 F 
ATOM     84  C   UNL A   1      42.321  22.410  25.779  1.00  0.00     0.059 A 
ATOM     85  C   UNL A   1      42.208  21.469  28.018  1.00  0.00     0.059 A 
ATOM     86  F   UNL A   1      42.275  22.897  29.882  1.00  0.00    -0.206 F 
ATOM     87  C   UNL A   1      42.230  21.309  26.631  1.00  0.00     0.060 A 
BRANCH  87  88
ATOM     88  S   UNL A   1      42.223  19.638  25.941  1.00  0.00     0.124 S 
ATOM     89  O   UNL A   1      43.253  19.741  24.915  1.00  0.00    -0.237 OA
ATOM     90  O   UNL A   1      42.553  18.806  27.094  1.00  0.00    -0.237 OA
ATOM     91  O   UNL A   1      40.851  19.504  25.458  1.00  0.00    -0.744 OA
ENDBRANCH  87  88
ENDBRANCH  55  80
BRANCH  67  92
ATOM     92  C   UNL A   1      47.776  27.380  30.357  1.00  0.00     0.058 A 
ATOM     93  C   UNL A   1      48.711  27.405  29.312  1.00  0.00     0.135 A 
ATOM     94  C   UNL A   1      48.218  27.004  31.634  1.00  0.00     0.135 A 
ATOM     95  F   UNL A   1      48.330  27.755  28.074  1.00  0.00    -0.206 F 
ATOM     96  C   UNL A   1      50.043  27.061  29.523  1.00  0.00     0.059 A 
ATOM     97  C   UNL A   1      49.545  26.658  31.867  1.00  0.00     0.059 A 
ATOM     98  F   UNL A   1      47.355  26.961  32.662  1.00  0.00    -0.206 F 
ATOM     99  C   UNL A   1      50.448  26.679  30.803  1.00  0.00     0.060 A 
BRANCH  99 100
ATOM    100  S   UNL A   1      52.177  26.243  31.095  1.00  0.00     0.124 S 
ATOM    101  O   UNL A   1      52.721  26.287  29.742  1.00  0.00    -0.237 OA
ATOM    102  O   UNL A   1      52.634  27.299  31.994  1.00  0.00    -0.237 OA
ATOM    103  O   UNL A   1      52.083  24.917  31.698  1.00  0.00    -0.744 OA
ENDBRANCH  99 100
ENDBRANCH  67  92
ENDBRANCH  41  42
ENDBRANCH  33  36
ENDBRANCH  31  32
ENDBRANCH  30  31
ENDBRANCH  29  30
ENDBRANCH   1  29
TORSDOF 19
ENDMDL
MODEL 3
REMARK VINA RESULT:     -12.1      2.335      3.013
REMARK SMILES Cc1ccnc(C(=O)c2[nH]c3cc(F)ccc3c2CC(=O)NCCCCCCNC(=O)c2ccc(-c3c4nc(c(-c5c(F)cc(S(=O)(=O)[O-])cc5F)c5ccc([nH]5)c(-c5c(F)cc(S(=O)(=O)[O-])cc5F)c5nc(c(-c6c(F)cc(S(=O)(=O)[O-])cc6F)c6ccc3[nH]6)C=C5)C=C4)cc2)c1
REMARK SMILES IDX 25 1 24 2 23 3 22 4 20 5 21 6 19 8 18 9 9 10 10 11 11 12
REMARK SMILES IDX 17 14 12 15 16 16 13 17 15 18 14 19 7 20 8 21 6 22 1 23 2 24
REMARK SMILES IDX 3 25 98 26 4 27 5 28 26 29 27 30 28 31 29 32 30 33 31 35
REMARK SMILES IDX 32 36 33 37 97 38 34 39 96 40 35 41 36 42 37 43 90 44 38 45
REMARK SMILES IDX 95 46 89 47 91 48 39 49 94 50 88 51 87 52 40 54 74 55 53 56
REMARK SMILES IDX 73 57 54 58 57 59 72 60 92 61 55 62 56 63 71 65 93 66 58 67
REMARK SMILES IDX 41 68 42 69 51 70 43 71 44 72 50 73 52 74 45 75 46 76 47 77
REMARK SMILES IDX 48 78 49 79 75 80 76 81 85 82 77 83 78 84 84 85 86 86 79 87
REMARK SMILES IDX 80 88 81 89 82 90 83 91 59 92 60 93 69 94 61 95 62 96 68 97
REMARK SMILES IDX 70 98 63 99 64 100 65 101 66 102 67 103
REMARK H PARENT 22 7 10 13 29 34 91 53 57 64
REMARK Flexibility Score: inf
ROOT
ATOM      1  C   UNL A   1      32.502  27.222  23.576  1.00  0.00     0.002 C 
ENDROOT
BRANCH   1   2
ATOM      2  C   UNL A   1      33.560  26.684  22.607  1.00  0.00     0.021 C 
BRANCH   2   3
ATOM      3  C   UNL A   1      33.936  25.217  22.806  1.00  0.00     0.116 C 
BRANCH   3   4
ATOM      4  N   UNL A   1      32.804  24.321  22.665  1.00  0.00    -0.356 N 
ATOM      5  C   UNL A   1      32.212  23.522  23.601  1.00  0.00     0.224 C 
ATOM      6  O   UNL A   1      31.169  22.937  23.298  1.00  0.00    -0.275 OA
ATOM      7  H   UNL A   1      32.405  24.284  21.766  1.00  0.00     0.163 HD
BRANCH   5   8
ATOM      8  C   UNL A   1      32.761  23.448  25.017  1.00  0.00     0.138 C 
BRANCH   8   9
ATOM      9  C   UNL A   1      33.876  22.462  25.220  1.00  0.00    -0.002 A 
ATOM     10  C   UNL A   1      33.780  21.075  25.290  1.00  0.00     0.093 A 
ATOM     11  N   UNL A   1      35.056  20.579  25.433  1.00  0.00    -0.351 N 
ATOM     12  C   UNL A   1      35.960  21.600  25.576  1.00  0.00     0.049 A 
ATOM     13  H   UNL A   1      35.287  19.622  25.433  1.00  0.00     0.167 HD
ATOM     14  C   UNL A   1      35.254  22.796  25.451  1.00  0.00     0.004 A 
ATOM     15  C   UNL A   1      37.342  21.552  25.794  1.00  0.00     0.066 A 
ATOM     16  C   UNL A   1      35.969  24.011  25.556  1.00  0.00     0.013 A 
ATOM     17  C   UNL A   1      38.013  22.768  25.894  1.00  0.00     0.125 A 
ATOM     18  C   UNL A   1      37.351  23.982  25.779  1.00  0.00     0.040 A 
ATOM     19  F   UNL A   1      39.335  22.764  26.111  1.00  0.00    -0.207 F 
BRANCH  10  20
ATOM     20  C   UNL A   1      32.617  20.212  25.175  1.00  0.00     0.227 C 
ATOM     21  O   UNL A   1      31.485  20.639  25.374  1.00  0.00    -0.285 OA
BRANCH  20  22
ATOM     22  C   UNL A   1      32.840  18.783  24.740  1.00  0.00     0.113 A 
ATOM     23  C   UNL A   1      32.546  15.215  25.998  1.00  0.00     0.044 C 
ATOM     24  C   UNL A   1      32.828  16.406  25.132  1.00  0.00    -0.047 A 
ATOM     25  C   UNL A   1      33.342  16.236  23.847  1.00  0.00     0.023 A 
ATOM     26  C   UNL A   1      32.555  17.703  25.578  1.00  0.00     0.036 A 
ATOM     27  C   UNL A   1      33.583  17.359  23.074  1.00  0.00     0.112 A 
ATOM     28  N   UNL A   1      33.356  18.620  23.493  1.00  0.00    -0.253 NA
ENDBRANCH  20  22
ENDBRANCH  10  20
ENDBRANCH   8   9
ENDBRANCH   5   8
ENDBRANCH   3   4
ENDBRANCH   2   3
ENDBRANCH   1   2
BRANCH   1  29
ATOM     29  C   UNL A   1      32.973  28.307  24.550  1.00  0.00     0.002 C 
BRANCH  29  30
ATOM     30  C   UNL A   1      33.999  27.871  25.602  1.00  0.00     0.021 C 
BRANCH  30  31
ATOM     31  C   UNL A   1      33.598  28.097  27.061  1.00  0.00     0.116 C 
BRANCH  31  32
ATOM     32  N   UNL A   1      33.356  29.497  27.363  1.00  0.00    -0.352 N 
ATOM     33  C   UNL A   1      34.195  30.417  27.942  1.00  0.00     0.251 C 
ATOM     34  H   UNL A   1      32.465  29.834  27.117  1.00  0.00     0.163 HD
ATOM     35  O   UNL A   1      33.761  31.527  28.242  1.00  0.00    -0.269 OA
BRANCH  33  36
ATOM     36  C   UNL A   1      35.607  30.080  28.232  1.00  0.00     0.039 A 
ATOM     37  C   UNL A   1      36.534  30.139  27.185  1.00  0.00     0.014 A 
ATOM     38  C   UNL A   1      36.013  29.651  29.500  1.00  0.00     0.014 A 
ATOM     39  C   UNL A   1      37.874  29.816  27.416  1.00  0.00     0.010 A 
ATOM     40  C   UNL A   1      37.356  29.343  29.735  1.00  0.00     0.010 A 
ATOM     41  C   UNL A   1      38.295  29.427  28.696  1.00  0.00    -0.014 A 
BRANCH  41  42
ATOM     42  C   UNL A   1      39.718  29.104  28.959  1.00  0.00     0.031 A 
ATOM     43  C   UNL A   1      40.630  30.130  29.563  1.00  0.00     0.074 A 
ATOM     44  C   UNL A   1      40.199  27.894  28.624  1.00  0.00     0.049 A 
ATOM     45  N   UNL A   1      41.924  30.073  29.749  1.00  0.00    -0.248 NA
ATOM     46  C   UNL A   1      40.009  31.388  30.002  1.00  0.00     0.031 C 
ATOM     47  C   UNL A   1      39.421  26.810  28.022  1.00  0.00     0.029 A 
ATOM     48  N   UNL A   1      41.465  27.377  28.734  1.00  0.00    -0.354 N 
ATOM     49  C   UNL A   1      42.282  31.299  30.292  1.00  0.00     0.074 A 
ATOM     50  C   UNL A   1      41.063  32.071  30.428  1.00  0.00     0.031 C 
ATOM     51  C   UNL A   1      40.227  25.755  27.818  1.00  0.00     0.029 A 
ATOM     52  C   UNL A   1      41.577  26.094  28.261  1.00  0.00     0.049 A 
ATOM     53  H   UNL A   1      42.220  27.880  29.116  1.00  0.00     0.167 HD
ATOM     54  C   UNL A   1      43.516  31.748  30.625  1.00  0.00     0.037 A 
ATOM     55  C   UNL A   1      42.649  25.283  28.186  1.00  0.00     0.037 A 
ATOM     56  C   UNL A   1      44.728  30.983  30.508  1.00  0.00     0.049 A 
ATOM     57  C   UNL A   1      43.986  25.765  28.665  1.00  0.00     0.074 A 
ATOM     58  C   UNL A   1      46.031  31.378  30.759  1.00  0.00     0.029 A 
ATOM     59  N   UNL A   1      44.781  29.651  30.128  1.00  0.00    -0.354 N 
ATOM     60  N   UNL A   1      44.318  26.949  29.118  1.00  0.00    -0.248 NA
ATOM     61  C   UNL A   1      45.093  24.798  28.627  1.00  0.00     0.031 C 
ATOM     62  C   UNL A   1      46.872  30.276  30.546  1.00  0.00     0.029 A 
ATOM     63  C   UNL A   1      46.090  29.199  30.165  1.00  0.00     0.049 A 
ATOM     64  H   UNL A   1      44.003  29.106  29.871  1.00  0.00     0.167 HD
ATOM     65  C   UNL A   1      45.674  26.876  29.406  1.00  0.00     0.074 A 
ATOM     66  C   UNL A   1      46.099  25.526  29.096  1.00  0.00     0.031 C 
ATOM     67  C   UNL A   1      46.496  27.850  29.869  1.00  0.00     0.037 A 
BRANCH  54  68
ATOM     68  C   UNL A   1      43.600  33.158  31.123  1.00  0.00     0.058 A 
ATOM     69  C   UNL A   1      43.783  34.232  30.241  1.00  0.00     0.135 A 
ATOM     70  C   UNL A   1      43.530  33.432  32.497  1.00  0.00     0.135 A 
ATOM     71  F   UNL A   1      43.874  34.012  28.919  1.00  0.00    -0.206 F 
ATOM     72  C   UNL A   1      43.919  35.536  30.707  1.00  0.00     0.059 A 
ATOM     73  C   UNL A   1      43.658  34.727  32.984  1.00  0.00     0.059 A 
ATOM     74  F   UNL A   1      43.368  32.432  33.379  1.00  0.00    -0.206 F 
ATOM     75  C   UNL A   1      43.871  35.771  32.082  1.00  0.00     0.060 A 
BRANCH  75  76
ATOM     76  S   UNL A   1      44.087  37.448  32.716  1.00  0.00     0.124 S 
ATOM     77  O   UNL A   1      45.471  37.404  33.179  1.00  0.00    -0.237 OA
ATOM     78  O   UNL A   1      43.841  38.281  31.543  1.00  0.00    -0.237 OA
ATOM     79  O   UNL A   1      43.073  37.533  33.762  1.00  0.00    -0.744 OA
ENDBRANCH  75  76
ENDBRANCH  54  68
BRANCH  55  80
ATOM     80  C   UNL A   1      42.489  23.923  27.624  1.00  0.00     0.058 A 
ATOM     81  C   UNL A   1      42.573  23.704  26.243  1.00  0.00     0.135 A 
ATOM     82  C   UNL A   1      42.306  22.817  28.464  1.00  0.00     0.135 A 
ATOM     83  F   UNL A   1      42.749  24.739  25.408  1.00  0.00    -0.206 F 
ATOM     84  C   UNL A   1      42.490  22.423  25.707  1.00  0.00     0.059 A 
ATOM     85  C   UNL A   1      42.224  21.527  27.952  1.00  0.00     0.059 A 
ATOM     86  F   UNL A   1      42.231  22.987  29.792  1.00  0.00    -0.206 F 
ATOM     87  C   UNL A   1      42.319  21.341  26.571  1.00  0.00     0.060 A 
BRANCH  87  88
ATOM     88  S   UNL A   1      42.300  19.659  25.910  1.00  0.00     0.124 S 
ATOM     89  O   UNL A   1      43.341  19.733  24.892  1.00  0.00    -0.237 OA
ATOM     90  O   UNL A   1      42.611  18.844  27.080  1.00  0.00    -0.237 OA
ATOM     91  O   UNL A   1      40.931  19.531  25.416  1.00  0.00    -0.744 OA
ENDBRANCH  87  88
ENDBRANCH  55  80
BRANCH  67  92
ATOM     92  C   UNL A   1      47.934  27.484  30.066  1.00  0.00     0.058 A 
ATOM     93  C   UNL A   1      48.378  26.938  31.280  1.00  0.00     0.135 A 
ATOM     94  C   UNL A   1      48.871  27.666  29.039  1.00  0.00     0.135 A 
ATOM     95  F   UNL A   1      47.516  26.751  32.291  1.00  0.00    -0.206 F 
ATOM     96  C   UNL A   1      49.711  26.589  31.473  1.00  0.00     0.059 A 
ATOM     97  C   UNL A   1      50.209  27.323  29.210  1.00  0.00     0.059 A 
ATOM     98  F   UNL A   1      48.491  28.191  27.863  1.00  0.00    -0.206 F 
ATOM     99  C   UNL A   1      50.621  26.796  30.434  1.00  0.00     0.060 A 
BRANCH  99 100
ATOM    100  S   UNL A   1      52.353  26.334  30.665  1.00  0.00     0.124 S 
ATOM    101  O   UNL A   1      52.892  27.535  31.295  1.00  0.00    -0.237 OA
ATOM    102  O   UNL A   1      52.267  25.156  31.522  1.00  0.00    -0.237 OA
ATOM    103  O   UNL A   1      52.807  26.076  29.302  1.00  0.00    -0.744 OA
ENDBRANCH  99 100
ENDBRANCH  67  92
ENDBRANCH  41  42
ENDBRANCH  33  36
ENDBRANCH  31  32
ENDBRANCH  30  31
ENDBRANCH  29  30
ENDBRANCH   1  29
TORSDOF 19
ENDMDL
