MODEL 1
REMARK VINA RESULT:     -10.9      0.000      0.000
REMARK SMILES CC(C)[C@H](C)N(C)C(=O)N1CC[C@@H](C(=O)NCCCCCCNC(=O)c2ccc(-c3c4nc(c(-c5c(F)cc(S(=O)(=O)[O-])cc5F)c5ccc([nH]5)c(-c5c(F)cc(S(=O)(=O)[O-])cc5F)c5nc(c(-c6c(F)cc(S(=O)(=O)[O-])cc6F)c6ccc3[nH]6)C=C5)C=C4)cc2)[C@@H]1C
REMARK SMILES IDX 19 1 18 2 17 3 16 4 14 5 15 6 13 8 10 9 11 10 92 11 12 12
REMARK SMILES IDX 93 13 8 14 9 15 6 16 7 17 4 18 5 19 2 20 1 21 3 22 20 23
REMARK SMILES IDX 21 24 22 25 23 26 24 27 25 29 26 30 27 31 91 32 28 33 90 34
REMARK SMILES IDX 29 35 30 36 31 37 84 38 32 39 89 40 83 41 85 42 33 43 88 44
REMARK SMILES IDX 82 45 81 46 34 48 68 49 47 50 67 51 48 52 51 53 66 54 86 55
REMARK SMILES IDX 49 56 50 57 65 59 87 60 52 61 35 62 36 63 45 64 37 65 38 66
REMARK SMILES IDX 44 67 46 68 39 69 40 70 41 71 42 72 43 73 69 74 70 75 79 76
REMARK SMILES IDX 71 77 72 78 78 79 80 80 73 81 74 82 75 83 76 84 77 85 53 86
REMARK SMILES IDX 54 87 63 88 55 89 56 90 62 91 64 92 57 93 58 94 59 95 60 96
REMARK SMILES IDX 61 97
REMARK H PARENT 16 7 23 28 85 47 51 58
REMARK Flexibility Score: inf
ROOT
ATOM      1  C   UNL A   1      34.984  30.366  27.422  1.00  0.00     0.002 C 
ENDROOT
BRANCH   1   2
ATOM      2  C   UNL A   1      34.065  29.156  27.271  1.00  0.00     0.021 C 
BRANCH   2   3
ATOM      3  C   UNL A   1      32.566  29.458  27.287  1.00  0.00     0.116 C 
BRANCH   3   4
ATOM      4  N   UNL A   1      31.785  28.239  27.401  1.00  0.00    -0.356 N 
ATOM      5  C   UNL A   1      31.303  27.385  26.458  1.00  0.00     0.225 C 
ATOM      6  O   UNL A   1      30.625  26.434  26.858  1.00  0.00    -0.275 OA
ATOM      7  H   UNL A   1      31.565  27.983  28.327  1.00  0.00     0.163 HD
BRANCH   5   8
ATOM      8  C   UNL A   1      31.556  27.555  24.964  1.00  0.00     0.102 C 
ATOM      9  N   UNL A   1      32.496  26.038  23.371  1.00  0.00    -0.321 N 
ATOM     10  C   UNL A   1      31.193  26.439  22.868  1.00  0.00     0.122 C 
ATOM     11  C   UNL A   1      32.877  26.922  24.485  1.00  0.00     0.096 C 
ATOM     12  C   UNL A   1      30.453  26.981  24.076  1.00  0.00     0.037 C 
ATOM     13  C   UNL A   1      33.856  27.999  24.007  1.00  0.00     0.032 C 
BRANCH   9  14
ATOM     14  C   UNL A   1      33.235  25.160  22.603  1.00  0.00     0.320 C 
ATOM     15  O   UNL A   1      33.620  25.530  21.491  1.00  0.00    -0.248 OA
BRANCH  14  16
ATOM     16  N   UNL A   1      33.498  23.877  23.056  1.00  0.00    -0.325 N 
ATOM     17  C   UNL A   1      34.815  23.318  23.265  1.00  0.00     0.149 C 
BRANCH  16  18
ATOM     18  C   UNL A   1      32.387  22.978  23.443  1.00  0.00     0.086 C 
ATOM     19  C   UNL A   1      32.176  21.808  22.465  1.00  0.00     0.031 C 
BRANCH  18  20
ATOM     20  C   UNL A   1      32.392  22.511  24.925  1.00  0.00     0.005 C 
ATOM     21  C   UNL A   1      31.276  23.107  25.788  1.00  0.00     0.009 C 
ATOM     22  C   UNL A   1      32.271  20.978  24.969  1.00  0.00     0.009 C 
ENDBRANCH  18  20
ENDBRANCH  16  18
ENDBRANCH  14  16
ENDBRANCH   9  14
ENDBRANCH   5   8
ENDBRANCH   3   4
ENDBRANCH   2   3
ENDBRANCH   1   2
BRANCH   1  23
ATOM     23  C   UNL A   1      34.368  31.565  28.151  1.00  0.00     0.002 C 
BRANCH  23  24
ATOM     24  C   UNL A   1      35.211  32.845  28.171  1.00  0.00     0.021 C 
BRANCH  24  25
ATOM     25  C   UNL A   1      36.290  32.912  29.251  1.00  0.00     0.116 C 
BRANCH  25  26
ATOM     26  N   UNL A   1      35.964  32.092  30.405  1.00  0.00    -0.352 N 
ATOM     27  C   UNL A   1      36.618  31.005  30.922  1.00  0.00     0.251 C 
ATOM     28  H   UNL A   1      35.149  32.359  30.889  1.00  0.00     0.163 HD
ATOM     29  O   UNL A   1      36.070  30.324  31.789  1.00  0.00    -0.269 OA
BRANCH  27  30
ATOM     30  C   UNL A   1      37.967  30.635  30.439  1.00  0.00     0.039 A 
ATOM     31  C   UNL A   1      39.011  30.542  31.363  1.00  0.00     0.014 A 
ATOM     32  C   UNL A   1      38.215  30.418  29.080  1.00  0.00     0.014 A 
ATOM     33  C   UNL A   1      40.289  30.178  30.934  1.00  0.00     0.010 A 
ATOM     34  C   UNL A   1      39.477  29.995  28.662  1.00  0.00     0.010 A 
ATOM     35  C   UNL A   1      40.528  29.873  29.584  1.00  0.00    -0.014 A 
BRANCH  35  36
ATOM     36  C   UNL A   1      41.868  29.421  29.123  1.00  0.00     0.031 A 
ATOM     37  C   UNL A   1      43.001  30.404  28.994  1.00  0.00     0.074 A 
ATOM     38  C   UNL A   1      42.045  28.135  28.757  1.00  0.00     0.049 A 
ATOM     39  N   UNL A   1      44.213  30.210  28.544  1.00  0.00    -0.248 NA
ATOM     40  C   UNL A   1      42.729  31.792  29.402  1.00  0.00     0.031 C 
ATOM     41  C   UNL A   1      41.010  27.098  28.782  1.00  0.00     0.029 A 
ATOM     42  N   UNL A   1      43.152  27.483  28.272  1.00  0.00    -0.354 N 
ATOM     43  C   UNL A   1      44.841  31.449  28.590  1.00  0.00     0.074 A 
ATOM     44  C   UNL A   1      43.863  32.398  29.080  1.00  0.00     0.031 C 
ATOM     45  C   UNL A   1      41.532  25.943  28.341  1.00  0.00     0.029 A 
ATOM     46  C   UNL A   1      42.926  26.161  27.968  1.00  0.00     0.049 A 
ATOM     47  H   UNL A   1      44.026  27.921  28.153  1.00  0.00     0.167 HD
ATOM     48  C   UNL A   1      46.118  31.765  28.270  1.00  0.00     0.037 A 
ATOM     49  C   UNL A   1      43.744  25.231  27.435  1.00  0.00     0.037 A 
ATOM     50  C   UNL A   1      47.098  30.809  27.822  1.00  0.00     0.049 A 
ATOM     51  C   UNL A   1      45.167  25.602  27.114  1.00  0.00     0.074 A 
ATOM     52  C   UNL A   1      48.441  31.016  27.556  1.00  0.00     0.029 A 
ATOM     53  N   UNL A   1      46.843  29.469  27.569  1.00  0.00    -0.354 N 
ATOM     54  N   UNL A   1      45.765  26.762  27.245  1.00  0.00    -0.248 NA
ATOM     55  C   UNL A   1      46.030  24.538  26.582  1.00  0.00     0.031 C 
ATOM     56  C   UNL A   1      48.987  29.814  27.098  1.00  0.00     0.029 A 
ATOM     57  C   UNL A   1      47.998  28.844  27.127  1.00  0.00     0.049 A 
ATOM     58  H   UNL A   1      45.972  29.028  27.686  1.00  0.00     0.167 HD
ATOM     59  C   UNL A   1      47.079  26.560  26.837  1.00  0.00     0.074 A 
ATOM     60  C   UNL A   1      47.193  25.164  26.468  1.00  0.00     0.031 C 
ATOM     61  C   UNL A   1      48.100  27.450  26.774  1.00  0.00     0.037 A 
BRANCH  48  62
ATOM     62  C   UNL A   1      46.545  33.202  28.395  1.00  0.00     0.058 A 
ATOM     63  C   UNL A   1      47.087  33.712  29.585  1.00  0.00     0.135 A 
ATOM     64  C   UNL A   1      46.476  34.063  27.286  1.00  0.00     0.135 A 
ATOM     65  F   UNL A   1      47.163  32.939  30.680  1.00  0.00    -0.206 F 
ATOM     66  C   UNL A   1      47.529  35.028  29.677  1.00  0.00     0.059 A 
ATOM     67  C   UNL A   1      46.936  35.375  27.348  1.00  0.00     0.059 A 
ATOM     68  F   UNL A   1      45.965  33.627  26.123  1.00  0.00    -0.206 F 
ATOM     69  C   UNL A   1      47.452  35.851  28.552  1.00  0.00     0.060 A 
BRANCH  69  70
ATOM     70  S   UNL A   1      48.056  37.547  28.681  1.00  0.00     0.124 S 
ATOM     71  O   UNL A   1      48.953  37.625  27.532  1.00  0.00    -0.237 OA
ATOM     72  O   UNL A   1      46.826  38.326  28.576  1.00  0.00    -0.237 OA
ATOM     73  O   UNL A   1      48.706  37.580  29.987  1.00  0.00    -0.744 OA
ENDBRANCH  69  70
ENDBRANCH  48  62
BRANCH  49  74
ATOM     74  C   UNL A   1      43.239  23.857  27.174  1.00  0.00     0.058 A 
ATOM     75  C   UNL A   1      42.858  23.456  25.885  1.00  0.00     0.135 A 
ATOM     76  C   UNL A   1      43.126  22.915  28.210  1.00  0.00     0.135 A 
ATOM     77  F   UNL A   1      42.942  24.320  24.862  1.00  0.00    -0.206 F 
ATOM     78  C   UNL A   1      42.361  22.181  25.635  1.00  0.00     0.059 A 
ATOM     79  C   UNL A   1      42.658  21.627  27.980  1.00  0.00     0.059 A 
ATOM     80  F   UNL A   1      43.496  23.243  29.458  1.00  0.00    -0.206 F 
ATOM     81  C   UNL A   1      42.264  21.272  26.690  1.00  0.00     0.060 A 
BRANCH  81  82
ATOM     82  S   UNL A   1      41.651  19.608  26.349  1.00  0.00     0.124 S 
ATOM     83  O   UNL A   1      40.222  19.850  26.187  1.00  0.00    -0.237 OA
ATOM     84  O   UNL A   1      42.382  19.254  25.137  1.00  0.00    -0.237 OA
ATOM     85  O   UNL A   1      42.034  18.860  27.543  1.00  0.00    -0.744 OA
ENDBRANCH  81  82
ENDBRANCH  49  74
BRANCH  61  86
ATOM     86  C   UNL A   1      49.441  26.939  26.324  1.00  0.00     0.058 A 
ATOM     87  C   UNL A   1      50.308  26.268  27.200  1.00  0.00     0.135 A 
ATOM     88  C   UNL A   1      49.838  27.076  24.983  1.00  0.00     0.135 A 
ATOM     89  F   UNL A   1      49.979  26.116  28.492  1.00  0.00    -0.206 F 
ATOM     90  C   UNL A   1      51.532  25.768  26.768  1.00  0.00     0.059 A 
ATOM     91  C   UNL A   1      51.045  26.561  24.524  1.00  0.00     0.059 A 
ATOM     92  F   UNL A   1      49.041  27.701  24.103  1.00  0.00    -0.206 F 
ATOM     93  C   UNL A   1      51.891  25.918  25.427  1.00  0.00     0.060 A 
BRANCH  93  94
ATOM     94  S   UNL A   1      53.466  25.234  24.870  1.00  0.00     0.124 S 
ATOM     95  O   UNL A   1      54.420  26.052  25.611  1.00  0.00    -0.237 OA
ATOM     96  O   UNL A   1      53.368  23.838  25.288  1.00  0.00    -0.237 OA
ATOM     97  O   UNL A   1      53.440  25.451  23.427  1.00  0.00    -0.744 OA
ENDBRANCH  93  94
ENDBRANCH  61  86
ENDBRANCH  35  36
ENDBRANCH  27  30
ENDBRANCH  25  26
ENDBRANCH  24  25
ENDBRANCH  23  24
ENDBRANCH   1  23
TORSDOF 20
ENDMDL
MODEL 2
REMARK VINA RESULT:     -10.8      6.262     11.987
REMARK SMILES CC(C)[C@H](C)N(C)C(=O)N1CC[C@@H](C(=O)NCCCCCCNC(=O)c2ccc(-c3c4nc(c(-c5c(F)cc(S(=O)(=O)[O-])cc5F)c5ccc([nH]5)c(-c5c(F)cc(S(=O)(=O)[O-])cc5F)c5nc(c(-c6c(F)cc(S(=O)(=O)[O-])cc6F)c6ccc3[nH]6)C=C5)C=C4)cc2)[C@@H]1C
REMARK SMILES IDX 19 1 18 2 17 3 16 4 14 5 15 6 13 8 10 9 11 10 92 11 12 12
REMARK SMILES IDX 93 13 8 14 9 15 6 16 7 17 4 18 5 19 2 20 1 21 3 22 20 23
REMARK SMILES IDX 21 24 22 25 23 26 24 27 25 29 26 30 27 31 91 32 28 33 90 34
REMARK SMILES IDX 29 35 30 36 31 37 84 38 32 39 89 40 83 41 85 42 33 43 88 44
REMARK SMILES IDX 82 45 81 46 34 48 68 49 47 50 67 51 48 52 51 53 66 54 86 55
REMARK SMILES IDX 49 56 50 57 65 59 87 60 52 61 35 62 36 63 45 64 37 65 38 66
REMARK SMILES IDX 44 67 46 68 39 69 40 70 41 71 42 72 43 73 69 74 70 75 79 76
REMARK SMILES IDX 71 77 72 78 78 79 80 80 73 81 74 82 75 83 76 84 77 85 53 86
REMARK SMILES IDX 54 87 63 88 55 89 56 90 62 91 64 92 57 93 58 94 59 95 60 96
REMARK SMILES IDX 61 97
REMARK H PARENT 16 7 23 28 85 47 51 58
REMARK Flexibility Score: inf
ROOT
ATOM      1  C   UNL A   1      40.094  21.676  26.648  1.00  0.00     0.002 C 
ENDROOT
BRANCH   1   2
ATOM      2  C   UNL A   1      39.038  22.636  26.105  1.00  0.00     0.021 C 
BRANCH   2   3
ATOM      3  C   UNL A   1      37.709  21.998  25.701  1.00  0.00     0.116 C 
BRANCH   3   4
ATOM      4  N   UNL A   1      37.214  22.555  24.455  1.00  0.00    -0.356 N 
ATOM      5  C   UNL A   1      35.950  22.714  23.978  1.00  0.00     0.225 C 
ATOM      6  O   UNL A   1      35.836  23.193  22.845  1.00  0.00    -0.275 OA
ATOM      7  H   UNL A   1      37.919  22.877  23.847  1.00  0.00     0.163 HD
BRANCH   5   8
ATOM      8  C   UNL A   1      34.701  22.328  24.762  1.00  0.00     0.102 C 
ATOM      9  N   UNL A   1      32.836  23.659  25.454  1.00  0.00    -0.321 N 
ATOM     10  C   UNL A   1      32.309  22.539  24.691  1.00  0.00     0.122 C 
ATOM     11  C   UNL A   1      34.250  23.402  25.772  1.00  0.00     0.096 C 
ATOM     12  C   UNL A   1      33.486  22.019  23.889  1.00  0.00     0.037 C 
ATOM     13  C   UNL A   1      34.394  22.893  27.210  1.00  0.00     0.032 C 
BRANCH   9  14
ATOM     14  C   UNL A   1      31.930  24.566  25.967  1.00  0.00     0.320 C 
ATOM     15  O   UNL A   1      31.534  24.413  27.125  1.00  0.00    -0.248 OA
BRANCH  14  16
ATOM     16  N   UNL A   1      31.445  25.598  25.180  1.00  0.00    -0.325 N 
ATOM     17  C   UNL A   1      30.288  25.518  24.316  1.00  0.00     0.149 C 
BRANCH  16  18
ATOM     18  C   UNL A   1      32.072  26.939  25.236  1.00  0.00     0.086 C 
ATOM     19  C   UNL A   1      31.156  28.065  24.723  1.00  0.00     0.031 C 
BRANCH  18  20
ATOM     20  C   UNL A   1      32.752  27.302  26.585  1.00  0.00     0.005 C 
ATOM     21  C   UNL A   1      33.984  28.202  26.459  1.00  0.00     0.009 C 
ATOM     22  C   UNL A   1      31.727  28.008  27.490  1.00  0.00     0.009 C 
ENDBRANCH  18  20
ENDBRANCH  16  18
ENDBRANCH  14  16
ENDBRANCH   9  14
ENDBRANCH   5   8
ENDBRANCH   3   4
ENDBRANCH   2   3
ENDBRANCH   1   2
BRANCH   1  23
ATOM     23  C   UNL A   1      40.809  22.145  27.919  1.00  0.00     0.002 C 
BRANCH  23  24
ATOM     24  C   UNL A   1      42.336  21.995  27.925  1.00  0.00     0.021 C 
BRANCH  24  25
ATOM     25  C   UNL A   1      43.130  23.283  27.712  1.00  0.00     0.116 C 
BRANCH  25  26
ATOM     26  N   UNL A   1      42.825  23.913  26.439  1.00  0.00    -0.352 N 
ATOM     27  C   UNL A   1      42.222  25.115  26.176  1.00  0.00     0.251 C 
ATOM     28  H   UNL A   1      43.094  23.397  25.644  1.00  0.00     0.163 HD
ATOM     29  O   UNL A   1      41.872  25.378  25.025  1.00  0.00    -0.269 OA
BRANCH  27  30
ATOM     30  C   UNL A   1      41.975  26.089  27.261  1.00  0.00     0.039 A 
ATOM     31  C   UNL A   1      40.879  25.893  28.106  1.00  0.00     0.014 A 
ATOM     32  C   UNL A   1      42.793  27.212  27.428  1.00  0.00     0.014 A 
ATOM     33  C   UNL A   1      40.635  26.790  29.149  1.00  0.00     0.010 A 
ATOM     34  C   UNL A   1      42.583  28.072  28.506  1.00  0.00     0.010 A 
ATOM     35  C   UNL A   1      41.501  27.872  29.376  1.00  0.00    -0.014 A 
BRANCH  35  36
ATOM     36  C   UNL A   1      41.291  28.797  30.521  1.00  0.00     0.031 A 
ATOM     37  C   UNL A   1      42.119  28.663  31.771  1.00  0.00     0.074 A 
ATOM     38  C   UNL A   1      40.307  29.717  30.459  1.00  0.00     0.049 A 
ATOM     39  N   UNL A   1      42.032  29.328  32.894  1.00  0.00    -0.248 NA
ATOM     40  C   UNL A   1      43.167  27.629  31.768  1.00  0.00     0.031 C 
ATOM     41  C   UNL A   1      39.399  29.909  29.326  1.00  0.00     0.029 A 
ATOM     42  N   UNL A   1      39.890  30.650  31.376  1.00  0.00    -0.354 N 
ATOM     43  C   UNL A   1      42.992  28.782  33.737  1.00  0.00     0.074 A 
ATOM     44  C   UNL A   1      43.627  27.704  33.010  1.00  0.00     0.031 C 
ATOM     45  C   UNL A   1      38.539  30.900  29.612  1.00  0.00     0.029 A 
ATOM     46  C   UNL A   1      38.809  31.392  30.959  1.00  0.00     0.049 A 
ATOM     47  H   UNL A   1      40.324  30.776  32.252  1.00  0.00     0.167 HD
ATOM     48  C   UNL A   1      43.324  29.154  34.996  1.00  0.00     0.037 A 
ATOM     49  C   UNL A   1      38.104  32.349  31.594  1.00  0.00     0.037 A 
ATOM     50  C   UNL A   1      42.715  30.254  35.700  1.00  0.00     0.049 A 
ATOM     51  C   UNL A   1      38.513  32.763  32.983  1.00  0.00     0.074 A 
ATOM     52  C   UNL A   1      43.043  30.763  36.946  1.00  0.00     0.029 A 
ATOM     53  N   UNL A   1      41.654  31.010  35.227  1.00  0.00    -0.354 N 
ATOM     54  N   UNL A   1      39.479  32.289  33.732  1.00  0.00    -0.248 NA
ATOM     55  C   UNL A   1      37.742  33.846  33.610  1.00  0.00     0.031 C 
ATOM     56  C   UNL A   1      42.151  31.796  37.245  1.00  0.00     0.029 A 
ATOM     57  C   UNL A   1      41.299  31.966  36.165  1.00  0.00     0.049 A 
ATOM     58  H   UNL A   1      41.218  30.887  34.353  1.00  0.00     0.167 HD
ATOM     59  C   UNL A   1      39.449  33.033  34.906  1.00  0.00     0.074 A 
ATOM     60  C   UNL A   1      38.378  33.998  34.763  1.00  0.00     0.031 C 
ATOM     61  C   UNL A   1      40.238  32.928  36.004  1.00  0.00     0.037 A 
BRANCH  48  62
ATOM     62  C   UNL A   1      44.399  28.376  35.704  1.00  0.00     0.058 A 
ATOM     63  C   UNL A   1      44.100  27.270  36.516  1.00  0.00     0.135 A 
ATOM     64  C   UNL A   1      45.753  28.698  35.512  1.00  0.00     0.135 A 
ATOM     65  F   UNL A   1      42.823  26.926  36.746  1.00  0.00    -0.206 F 
ATOM     66  C   UNL A   1      45.103  26.523  37.125  1.00  0.00     0.059 A 
ATOM     67  C   UNL A   1      46.773  27.948  36.089  1.00  0.00     0.059 A 
ATOM     68  F   UNL A   1      46.096  29.746  34.745  1.00  0.00    -0.206 F 
ATOM     69  C   UNL A   1      46.437  26.868  36.903  1.00  0.00     0.060 A 
BRANCH  69  70
ATOM     70  S   UNL A   1      47.726  25.870  37.678  1.00  0.00     0.124 S 
ATOM     71  O   UNL A   1      47.142  25.610  38.991  1.00  0.00    -0.237 OA
ATOM     72  O   UNL A   1      47.810  24.719  36.785  1.00  0.00    -0.237 OA
ATOM     73  O   UNL A   1      48.889  26.751  37.672  1.00  0.00    -0.744 OA
ENDBRANCH  69  70
ENDBRANCH  48  62
BRANCH  49  74
ATOM     74  C   UNL A   1      36.941  32.987  30.922  1.00  0.00     0.058 A 
ATOM     75  C   UNL A   1      37.119  33.884  29.859  1.00  0.00     0.135 A 
ATOM     76  C   UNL A   1      35.626  32.711  31.329  1.00  0.00     0.135 A 
ATOM     77  F   UNL A   1      38.357  34.185  29.435  1.00  0.00    -0.206 F 
ATOM     78  C   UNL A   1      36.039  34.506  29.239  1.00  0.00     0.059 A 
ATOM     79  C   UNL A   1      34.529  33.298  30.708  1.00  0.00     0.059 A 
ATOM     80  F   UNL A   1      35.401  31.844  32.329  1.00  0.00    -0.206 F 
ATOM     81  C   UNL A   1      34.747  34.206  29.672  1.00  0.00     0.060 A 
BRANCH  81  82
ATOM     82  S   UNL A   1      33.349  34.989  28.839  1.00  0.00     0.124 S 
ATOM     83  O   UNL A   1      32.361  35.041  29.910  1.00  0.00    -0.237 OA
ATOM     84  O   UNL A   1      33.915  36.271  28.428  1.00  0.00    -0.237 OA
ATOM     85  O   UNL A   1      33.051  34.067  27.748  1.00  0.00    -0.744 OA
ENDBRANCH  81  82
ENDBRANCH  49  74
BRANCH  61  86
ATOM     86  C   UNL A   1      40.001  33.902  37.126  1.00  0.00     0.058 A 
ATOM     87  C   UNL A   1      40.593  35.174  37.137  1.00  0.00     0.135 A 
ATOM     88  C   UNL A   1      39.126  33.575  38.175  1.00  0.00     0.135 A 
ATOM     89  F   UNL A   1      41.441  35.534  36.162  1.00  0.00    -0.206 F 
ATOM     90  C   UNL A   1      40.342  36.082  38.161  1.00  0.00     0.059 A 
ATOM     91  C   UNL A   1      38.841  34.477  39.194  1.00  0.00     0.059 A 
ATOM     92  F   UNL A   1      38.526  32.375  38.206  1.00  0.00    -0.206 F 
ATOM     93  C   UNL A   1      39.462  35.724  39.185  1.00  0.00     0.060 A 
BRANCH  93  94
ATOM     94  S   UNL A   1      39.117  36.923  40.489  1.00  0.00     0.124 S 
ATOM     95  O   UNL A   1      40.460  37.227  40.972  1.00  0.00    -0.237 OA
ATOM     96  O   UNL A   1      38.448  37.997  39.759  1.00  0.00    -0.237 OA
ATOM     97  O   UNL A   1      38.268  36.183  41.417  1.00  0.00    -0.744 OA
ENDBRANCH  93  94
ENDBRANCH  61  86
ENDBRANCH  35  36
ENDBRANCH  27  30
ENDBRANCH  25  26
ENDBRANCH  24  25
ENDBRANCH  23  24
ENDBRANCH   1  23
TORSDOF 20
ENDMDL
MODEL 3
REMARK VINA RESULT:     -10.7      6.375     11.910
REMARK SMILES CC(C)[C@H](C)N(C)C(=O)N1CC[C@@H](C(=O)NCCCCCCNC(=O)c2ccc(-c3c4nc(c(-c5c(F)cc(S(=O)(=O)[O-])cc5F)c5ccc([nH]5)c(-c5c(F)cc(S(=O)(=O)[O-])cc5F)c5nc(c(-c6c(F)cc(S(=O)(=O)[O-])cc6F)c6ccc3[nH]6)C=C5)C=C4)cc2)[C@@H]1C
REMARK SMILES IDX 19 1 18 2 17 3 16 4 14 5 15 6 13 8 10 9 11 10 92 11 12 12
REMARK SMILES IDX 93 13 8 14 9 15 6 16 7 17 4 18 5 19 2 20 1 21 3 22 20 23
REMARK SMILES IDX 21 24 22 25 23 26 24 27 25 29 26 30 27 31 91 32 28 33 90 34
REMARK SMILES IDX 29 35 30 36 31 37 84 38 32 39 89 40 83 41 85 42 33 43 88 44
REMARK SMILES IDX 82 45 81 46 34 48 68 49 47 50 67 51 48 52 51 53 66 54 86 55
REMARK SMILES IDX 49 56 50 57 65 59 87 60 52 61 35 62 36 63 45 64 37 65 38 66
REMARK SMILES IDX 44 67 46 68 39 69 40 70 41 71 42 72 43 73 69 74 70 75 79 76
REMARK SMILES IDX 71 77 72 78 78 79 80 80 73 81 74 82 75 83 76 84 77 85 53 86
REMARK SMILES IDX 54 87 63 88 55 89 56 90 62 91 64 92 57 93 58 94 59 95 60 96
REMARK SMILES IDX 61 97
REMARK H PARENT 16 7 23 28 85 47 51 58
REMARK Flexibility Score: inf
ROOT
ATOM      1  C   UNL A   1      37.254  23.073  25.226  1.00  0.00     0.002 C 
ENDROOT
BRANCH   1   2
ATOM      2  C   UNL A   1      36.809  21.630  25.458  1.00  0.00     0.021 C 
BRANCH   2   3
ATOM      3  C   UNL A   1      35.378  21.453  25.965  1.00  0.00     0.116 C 
BRANCH   3   4
ATOM      4  N   UNL A   1      34.517  20.906  24.931  1.00  0.00    -0.356 N 
ATOM      5  C   UNL A   1      33.403  21.403  24.329  1.00  0.00     0.225 C 
ATOM      6  O   UNL A   1      32.848  20.681  23.495  1.00  0.00    -0.275 OA
ATOM      7  H   UNL A   1      34.788  20.016  24.607  1.00  0.00     0.163 HD
BRANCH   5   8
ATOM      8  C   UNL A   1      32.824  22.779  24.639  1.00  0.00     0.102 C 
ATOM      9  N   UNL A   1      32.580  24.706  23.242  1.00  0.00    -0.321 N 
ATOM     10  C   UNL A   1      31.265  24.390  23.774  1.00  0.00     0.122 C 
ATOM     11  C   UNL A   1      33.597  23.938  23.978  1.00  0.00     0.096 C 
ATOM     12  C   UNL A   1      31.361  22.946  24.231  1.00  0.00     0.037 C 
ATOM     13  C   UNL A   1      34.273  24.816  25.037  1.00  0.00     0.032 C 
BRANCH   9  14
ATOM     14  C   UNL A   1      32.685  25.799  22.405  1.00  0.00     0.320 C 
ATOM     15  O   UNL A   1      33.323  25.680  21.356  1.00  0.00    -0.248 OA
BRANCH  14  16
ATOM     16  N   UNL A   1      32.121  27.014  22.760  1.00  0.00    -0.325 N 
ATOM     17  C   UNL A   1      30.842  27.509  22.300  1.00  0.00     0.149 C 
BRANCH  16  18
ATOM     18  C   UNL A   1      32.798  27.894  23.741  1.00  0.00     0.086 C 
ATOM     19  C   UNL A   1      33.687  28.969  23.089  1.00  0.00     0.031 C 
BRANCH  18  20
ATOM     20  C   UNL A   1      31.883  28.482  24.851  1.00  0.00     0.005 C 
ATOM     21  C   UNL A   1      31.533  27.505  25.976  1.00  0.00     0.009 C 
ATOM     22  C   UNL A   1      32.573  29.709  25.472  1.00  0.00     0.009 C 
ENDBRANCH  18  20
ENDBRANCH  16  18
ENDBRANCH  14  16
ENDBRANCH   9  14
ENDBRANCH   5   8
ENDBRANCH   3   4
ENDBRANCH   2   3
ENDBRANCH   1   2
BRANCH   1  23
ATOM     23  C   UNL A   1      38.341  23.580  26.178  1.00  0.00     0.002 C 
BRANCH  23  24
ATOM     24  C   UNL A   1      39.396  22.551  26.603  1.00  0.00     0.021 C 
BRANCH  24  25
ATOM     25  C   UNL A   1      40.713  23.128  27.122  1.00  0.00     0.116 C 
BRANCH  25  26
ATOM     26  N   UNL A   1      41.436  23.858  26.095  1.00  0.00    -0.352 N 
ATOM     27  C   UNL A   1      41.773  25.185  26.035  1.00  0.00     0.251 C 
ATOM     28  H   UNL A   1      41.728  23.317  25.326  1.00  0.00     0.163 HD
ATOM     29  O   UNL A   1      42.211  25.651  24.982  1.00  0.00    -0.269 OA
BRANCH  27  30
ATOM     30  C   UNL A   1      41.601  26.062  27.213  1.00  0.00     0.039 A 
ATOM     31  C   UNL A   1      42.556  27.052  27.462  1.00  0.00     0.014 A 
ATOM     32  C   UNL A   1      40.527  25.891  28.094  1.00  0.00     0.014 A 
ATOM     33  C   UNL A   1      42.407  27.903  28.559  1.00  0.00     0.010 A 
ATOM     34  C   UNL A   1      40.348  26.781  29.153  1.00  0.00     0.010 A 
ATOM     35  C   UNL A   1      41.286  27.794  29.398  1.00  0.00    -0.014 A 
BRANCH  35  36
ATOM     36  C   UNL A   1      41.081  28.736  30.531  1.00  0.00     0.031 A 
ATOM     37  C   UNL A   1      41.897  28.603  31.790  1.00  0.00     0.074 A 
ATOM     38  C   UNL A   1      40.110  29.669  30.451  1.00  0.00     0.049 A 
ATOM     39  N   UNL A   1      41.810  29.282  32.904  1.00  0.00    -0.248 NA
ATOM     40  C   UNL A   1      42.929  27.554  31.807  1.00  0.00     0.031 C 
ATOM     41  C   UNL A   1      39.214  29.861  29.309  1.00  0.00     0.029 A 
ATOM     42  N   UNL A   1      39.700  30.618  31.355  1.00  0.00    -0.354 N 
ATOM     43  C   UNL A   1      42.755  28.732  33.761  1.00  0.00     0.074 A 
ATOM     44  C   UNL A   1      43.381  27.637  33.051  1.00  0.00     0.031 C 
ATOM     45  C   UNL A   1      38.367  30.868  29.576  1.00  0.00     0.029 A 
ATOM     46  C   UNL A   1      38.634  31.371  30.920  1.00  0.00     0.049 A 
ATOM     47  H   UNL A   1      40.129  30.748  32.232  1.00  0.00     0.167 HD
ATOM     48  C   UNL A   1      43.083  29.113  35.019  1.00  0.00     0.037 A 
ATOM     49  C   UNL A   1      37.938  32.345  31.539  1.00  0.00     0.037 A 
ATOM     50  C   UNL A   1      42.485  30.229  35.705  1.00  0.00     0.049 A 
ATOM     51  C   UNL A   1      38.341  32.768  32.926  1.00  0.00     0.074 A 
ATOM     52  C   UNL A   1      42.810  30.748  36.948  1.00  0.00     0.029 A 
ATOM     53  N   UNL A   1      41.438  30.996  35.215  1.00  0.00    -0.354 N 
ATOM     54  N   UNL A   1      39.295  32.289  33.688  1.00  0.00    -0.248 NA
ATOM     55  C   UNL A   1      37.581  33.870  33.535  1.00  0.00     0.031 C 
ATOM     56  C   UNL A   1      41.931  31.798  37.228  1.00  0.00     0.029 A 
ATOM     57  C   UNL A   1      41.090  31.968  36.140  1.00  0.00     0.049 A 
ATOM     58  H   UNL A   1      41.007  30.869  34.339  1.00  0.00     0.167 HD
ATOM     59  C   UNL A   1      39.266  33.047  34.854  1.00  0.00     0.074 A 
ATOM     60  C   UNL A   1      38.211  34.026  34.691  1.00  0.00     0.031 C 
ATOM     61  C   UNL A   1      40.045  32.943  35.959  1.00  0.00     0.037 A 
BRANCH  48  62
ATOM     62  C   UNL A   1      44.141  28.327  35.744  1.00  0.00     0.058 A 
ATOM     63  C   UNL A   1      45.507  28.617  35.599  1.00  0.00     0.135 A 
ATOM     64  C   UNL A   1      43.779  27.316  36.650  1.00  0.00     0.135 A 
ATOM     65  F   UNL A   1      45.910  29.564  34.737  1.00  0.00    -0.206 F 
ATOM     66  C   UNL A   1      46.477  27.922  36.314  1.00  0.00     0.059 A 
ATOM     67  C   UNL A   1      44.731  26.626  37.395  1.00  0.00     0.059 A 
ATOM     68  F   UNL A   1      42.486  26.998  36.826  1.00  0.00    -0.206 F 
ATOM     69  C   UNL A   1      46.079  26.930  37.212  1.00  0.00     0.060 A 
BRANCH  69  70
ATOM     70  S   UNL A   1      47.349  26.057  38.151  1.00  0.00     0.124 S 
ATOM     71  O   UNL A   1      47.939  25.206  37.121  1.00  0.00    -0.237 OA
ATOM     72  O   UNL A   1      48.192  27.149  38.627  1.00  0.00    -0.237 OA
ATOM     73  O   UNL A   1      46.591  25.358  39.183  1.00  0.00    -0.744 OA
ENDBRANCH  69  70
ENDBRANCH  48  62
BRANCH  49  74
ATOM     74  C   UNL A   1      36.789  32.993  30.850  1.00  0.00     0.058 A 
ATOM     75  C   UNL A   1      35.467  32.657  31.173  1.00  0.00     0.135 A 
ATOM     76  C   UNL A   1      36.992  33.961  29.853  1.00  0.00     0.135 A 
ATOM     77  F   UNL A   1      35.220  31.734  32.115  1.00  0.00    -0.206 F 
ATOM     78  C   UNL A   1      34.386  33.238  30.517  1.00  0.00     0.059 A 
ATOM     79  C   UNL A   1      35.928  34.576  29.203  1.00  0.00     0.059 A 
ATOM     80  F   UNL A   1      38.239  34.331  29.521  1.00  0.00    -0.206 F 
ATOM     81  C   UNL A   1      34.627  34.197  29.532  1.00  0.00     0.060 A 
BRANCH  81  82
ATOM     82  S   UNL A   1      33.218  34.972  28.711  1.00  0.00     0.124 S 
ATOM     83  O   UNL A   1      32.695  33.865  27.920  1.00  0.00    -0.237 OA
ATOM     84  O   UNL A   1      32.397  35.394  29.842  1.00  0.00    -0.237 OA
ATOM     85  O   UNL A   1      33.829  36.059  27.952  1.00  0.00    -0.744 OA
ENDBRANCH  81  82
ENDBRANCH  49  74
BRANCH  61  86
ATOM     86  C   UNL A   1      39.813  33.932  37.068  1.00  0.00     0.058 A 
ATOM     87  C   UNL A   1      39.072  33.600  38.213  1.00  0.00     0.135 A 
ATOM     88  C   UNL A   1      40.390  35.212  37.008  1.00  0.00     0.135 A 
ATOM     89  F   UNL A   1      38.496  32.392  38.317  1.00  0.00    -0.206 F 
ATOM     90  C   UNL A   1      38.891  34.508  39.250  1.00  0.00     0.059 A 
ATOM     91  C   UNL A   1      40.244  36.127  38.045  1.00  0.00     0.059 A 
ATOM     92  F   UNL A   1      41.117  35.577  35.941  1.00  0.00    -0.206 F 
ATOM     93  C   UNL A   1      39.483  35.771  39.157  1.00  0.00     0.060 A 
BRANCH  93  94
ATOM     94  S   UNL A   1      39.271  36.929  40.525  1.00  0.00     0.124 S 
ATOM     95  O   UNL A   1      40.654  37.178  40.916  1.00  0.00    -0.237 OA
ATOM     96  O   UNL A   1      38.582  38.047  39.886  1.00  0.00    -0.237 OA
ATOM     97  O   UNL A   1      38.471  36.177  41.487  1.00  0.00    -0.744 OA
ENDBRANCH  93  94
ENDBRANCH  61  86
ENDBRANCH  35  36
ENDBRANCH  27  30
ENDBRANCH  25  26
ENDBRANCH  24  25
ENDBRANCH  23  24
ENDBRANCH   1  23
TORSDOF 20
ENDMDL
