MODEL 1
REMARK VINA RESULT:     -10.6      0.000      0.000
REMARK SMILES C[C@H]1CCC(F)(F)[C@@H]1C(=O)NCCCCCCNC(=O)c1ccc(-c2c3nc(c(-c4c(F)cc(S(=O)(=O)[O-])cc4F)c4ccc([nH]4)c(-c4c(F)cc(S(=O)(=O)[O-])cc4F)c4nc(c(-c5c(F)cc(S(=O)(=O)[O-])cc5F)c5ccc2[nH]5)C=C4)C=C3)cc1
REMARK SMILES IDX 16 1 15 2 14 3 13 4 12 5 11 6 9 7 10 8 8 10 1 11 2 12 3 13
REMARK SMILES IDX 4 14 5 15 6 16 7 17 17 18 18 19 19 20 20 22 21 23 22 24
REMARK SMILES IDX 86 25 23 26 85 27 24 28 25 29 26 30 79 31 27 32 84 33 78 34
REMARK SMILES IDX 80 35 28 36 83 37 77 38 76 39 29 41 63 42 42 43 62 44 43 45
REMARK SMILES IDX 46 46 61 47 81 48 44 49 45 50 60 52 82 53 47 54 30 55 31 56
REMARK SMILES IDX 40 57 32 58 33 59 39 60 41 61 34 62 35 63 36 64 37 65 38 66
REMARK SMILES IDX 64 67 65 68 74 69 66 70 67 71 73 72 75 73 68 74 69 75 70 76
REMARK SMILES IDX 71 77 72 78 48 79 49 80 58 81 50 82 51 83 57 84 59 85 52 86
REMARK SMILES IDX 53 87 54 88 55 89 56 90
REMARK H PARENT 11 9 18 21 80 40 46 51
REMARK Flexibility Score: inf
ROOT
ATOM      1  C   UNL A   1      32.244  27.843  26.660  1.00  0.00     0.021 C 
ENDROOT
BRANCH   1   2
ATOM      2  C   UNL A   1      31.485  28.653  25.607  1.00  0.00     0.002 C 
BRANCH   2   3
ATOM      3  C   UNL A   1      32.166  28.747  24.238  1.00  0.00     0.002 C 
BRANCH   3   4
ATOM      4  C   UNL A   1      31.218  28.859  23.038  1.00  0.00     0.021 C 
BRANCH   4   5
ATOM      5  C   UNL A   1      30.674  27.528  22.523  1.00  0.00     0.116 C 
BRANCH   5   6
ATOM      6  N   UNL A   1      31.611  26.885  21.619  1.00  0.00    -0.356 N 
ATOM      7  C   UNL A   1      32.521  25.898  21.860  1.00  0.00     0.229 C 
ATOM      8  O   UNL A   1      33.257  25.554  20.937  1.00  0.00    -0.275 OA
ATOM      9  H   UNL A   1      31.585  27.211  20.690  1.00  0.00     0.163 HD
BRANCH   7  10
ATOM     10  C   UNL A   1      32.635  25.335  23.261  1.00  0.00     0.151 C 
ATOM     11  C   UNL A   1      34.458  24.972  25.005  1.00  0.00     0.009 C 
ATOM     12  C   UNL A   1      34.075  24.859  23.529  1.00  0.00     0.004 C 
ATOM     13  C   UNL A   1      34.103  23.395  23.043  1.00  0.00     0.010 C 
ATOM     14  C   UNL A   1      32.653  22.936  22.875  1.00  0.00     0.078 C 
ATOM     15  C   UNL A   1      31.817  24.072  23.424  1.00  0.00     0.259 C 
ATOM     16  F   UNL A   1      30.594  24.140  22.870  1.00  0.00    -0.206 F 
ATOM     17  F   UNL A   1      31.614  23.852  24.755  1.00  0.00    -0.206 F 
ENDBRANCH   7  10
ENDBRANCH   5   6
ENDBRANCH   4   5
ENDBRANCH   3   4
ENDBRANCH   2   3
ENDBRANCH   1   2
BRANCH   1  18
ATOM     18  C   UNL A   1      33.601  28.415  27.058  1.00  0.00     0.116 C 
BRANCH  18  19
ATOM     19  N   UNL A   1      33.522  29.815  27.441  1.00  0.00    -0.352 N 
ATOM     20  C   UNL A   1      34.441  30.591  28.102  1.00  0.00     0.251 C 
ATOM     21  H   UNL A   1      32.688  30.274  27.188  1.00  0.00     0.163 HD
ATOM     22  O   UNL A   1      34.121  31.712  28.497  1.00  0.00    -0.269 OA
BRANCH  20  23
ATOM     23  C   UNL A   1      35.802  30.074  28.363  1.00  0.00     0.039 A 
ATOM     24  C   UNL A   1      36.751  30.127  27.340  1.00  0.00     0.014 A 
ATOM     25  C   UNL A   1      36.145  29.543  29.610  1.00  0.00     0.014 A 
ATOM     26  C   UNL A   1      38.062  29.715  27.589  1.00  0.00     0.010 A 
ATOM     27  C   UNL A   1      37.469  29.200  29.878  1.00  0.00     0.010 A 
ATOM     28  C   UNL A   1      38.444  29.288  28.872  1.00  0.00    -0.014 A 
BRANCH  28  29
ATOM     29  C   UNL A   1      39.864  28.970  29.184  1.00  0.00     0.031 A 
ATOM     30  C   UNL A   1      40.769  30.017  29.778  1.00  0.00     0.074 A 
ATOM     31  C   UNL A   1      40.354  27.755  28.864  1.00  0.00     0.049 A 
ATOM     32  N   UNL A   1      42.045  29.939  30.056  1.00  0.00    -0.248 NA
ATOM     33  C   UNL A   1      40.172  31.329  30.075  1.00  0.00     0.031 C 
ATOM     34  C   UNL A   1      39.592  26.677  28.229  1.00  0.00     0.029 A 
ATOM     35  N   UNL A   1      41.613  27.226  29.010  1.00  0.00    -0.354 N 
ATOM     36  C   UNL A   1      42.407  31.190  30.542  1.00  0.00     0.074 A 
ATOM     37  C   UNL A   1      41.224  32.021  30.486  1.00  0.00     0.031 C 
ATOM     38  C   UNL A   1      40.393  25.614  28.052  1.00  0.00     0.029 A 
ATOM     39  C   UNL A   1      41.735  25.946  28.517  1.00  0.00     0.049 A 
ATOM     40  H   UNL A   1      42.358  27.715  29.428  1.00  0.00     0.167 HD
ATOM     41  C   UNL A   1      43.611  31.600  31.007  1.00  0.00     0.037 A 
ATOM     42  C   UNL A   1      42.810  25.137  28.429  1.00  0.00     0.037 A 
ATOM     43  C   UNL A   1      44.775  30.755  31.089  1.00  0.00     0.049 A 
ATOM     44  C   UNL A   1      44.134  25.618  28.962  1.00  0.00     0.074 A 
ATOM     45  C   UNL A   1      46.014  31.053  31.631  1.00  0.00     0.029 A 
ATOM     46  N   UNL A   1      44.853  29.456  30.609  1.00  0.00    -0.354 N 
ATOM     47  N   UNL A   1      44.431  26.772  29.511  1.00  0.00    -0.248 NA
ATOM     48  C   UNL A   1      45.267  24.687  28.872  1.00  0.00     0.031 C 
ATOM     49  C   UNL A   1      46.859  29.960  31.421  1.00  0.00     0.029 A 
ATOM     50  C   UNL A   1      46.129  28.955  30.807  1.00  0.00     0.049 A 
ATOM     51  H   UNL A   1      44.110  28.964  30.190  1.00  0.00     0.167 HD
ATOM     52  C   UNL A   1      45.778  26.696  29.849  1.00  0.00     0.074 A 
ATOM     53  C   UNL A   1      46.231  25.376  29.464  1.00  0.00     0.031 C 
ATOM     54  C   UNL A   1      46.569  27.636  30.423  1.00  0.00     0.037 A 
BRANCH  41  55
ATOM     55  C   UNL A   1      43.750  33.027  31.465  1.00  0.00     0.058 A 
ATOM     56  C   UNL A   1      43.579  33.394  32.808  1.00  0.00     0.135 A 
ATOM     57  C   UNL A   1      44.150  34.025  30.560  1.00  0.00     0.135 A 
ATOM     58  F   UNL A   1      43.183  32.486  33.714  1.00  0.00    -0.206 F 
ATOM     59  C   UNL A   1      43.788  34.702  33.237  1.00  0.00     0.059 A 
ATOM     60  C   UNL A   1      44.392  35.332  30.971  1.00  0.00     0.059 A 
ATOM     61  F   UNL A   1      44.325  33.729  29.262  1.00  0.00    -0.206 F 
ATOM     62  C   UNL A   1      44.202  35.662  32.312  1.00  0.00     0.060 A 
BRANCH  62  63
ATOM     63  S   UNL A   1      44.513  37.342  32.895  1.00  0.00     0.124 S 
ATOM     64  O   UNL A   1      44.927  38.006  31.662  1.00  0.00    -0.237 OA
ATOM     65  O   UNL A   1      43.208  37.734  33.417  1.00  0.00    -0.237 OA
ATOM     66  O   UNL A   1      45.561  37.169  33.896  1.00  0.00    -0.744 OA
ENDBRANCH  62  63
ENDBRANCH  41  55
BRANCH  42  67
ATOM     67  C   UNL A   1      42.686  23.793  27.799  1.00  0.00     0.058 A 
ATOM     68  C   UNL A   1      42.482  22.641  28.571  1.00  0.00     0.135 A 
ATOM     69  C   UNL A   1      42.787  23.637  26.407  1.00  0.00     0.135 A 
ATOM     70  F   UNL A   1      42.386  22.736  29.906  1.00  0.00    -0.206 F 
ATOM     71  C   UNL A   1      42.414  21.378  27.992  1.00  0.00     0.059 A 
ATOM     72  C   UNL A   1      42.689  22.388  25.801  1.00  0.00     0.059 A 
ATOM     73  F   UNL A   1      42.963  24.708  25.619  1.00  0.00    -0.206 F 
ATOM     74  C   UNL A   1      42.520  21.261  26.605  1.00  0.00     0.060 A 
BRANCH  74  75
ATOM     75  S   UNL A   1      42.409  19.621  25.859  1.00  0.00     0.124 S 
ATOM     76  O   UNL A   1      41.010  19.579  25.451  1.00  0.00    -0.237 OA
ATOM     77  O   UNL A   1      43.389  19.708  24.781  1.00  0.00    -0.237 OA
ATOM     78  O   UNL A   1      42.774  18.729  26.956  1.00  0.00    -0.744 OA
ENDBRANCH  74  75
ENDBRANCH  42  67
BRANCH  54  79
ATOM     79  C   UNL A   1      48.001  27.267  30.697  1.00  0.00     0.058 A 
ATOM     80  C   UNL A   1      48.385  26.620  31.882  1.00  0.00     0.135 A 
ATOM     81  C   UNL A   1      48.996  27.514  29.735  1.00  0.00     0.135 A 
ATOM     82  F   UNL A   1      47.476  26.365  32.837  1.00  0.00    -0.206 F 
ATOM     83  C   UNL A   1      49.707  26.257  32.117  1.00  0.00     0.059 A 
ATOM     84  C   UNL A   1      50.318  27.130  29.935  1.00  0.00     0.059 A 
ATOM     85  F   UNL A   1      48.683  28.120  28.579  1.00  0.00    -0.206 F 
ATOM     86  C   UNL A   1      50.666  26.512  31.135  1.00  0.00     0.060 A 
BRANCH  86  87
ATOM     87  S   UNL A   1      52.371  26.003  31.440  1.00  0.00     0.124 S 
ATOM     88  O   UNL A   1      52.188  24.643  31.937  1.00  0.00    -0.237 OA
ATOM     89  O   UNL A   1      52.971  26.118  30.115  1.00  0.00    -0.237 OA
ATOM     90  O   UNL A   1      52.845  26.971  32.423  1.00  0.00    -0.744 OA
ENDBRANCH  86  87
ENDBRANCH  54  79
ENDBRANCH  28  29
ENDBRANCH  20  23
ENDBRANCH  18  19
ENDBRANCH   1  18
TORSDOF 16
ENDMDL
MODEL 2
REMARK VINA RESULT:     -10.6      3.327     10.292
REMARK SMILES C[C@H]1CCC(F)(F)[C@@H]1C(=O)NCCCCCCNC(=O)c1ccc(-c2c3nc(c(-c4c(F)cc(S(=O)(=O)[O-])cc4F)c4ccc([nH]4)c(-c4c(F)cc(S(=O)(=O)[O-])cc4F)c4nc(c(-c5c(F)cc(S(=O)(=O)[O-])cc5F)c5ccc2[nH]5)C=C4)C=C3)cc1
REMARK SMILES IDX 16 1 15 2 14 3 13 4 12 5 11 6 9 7 10 8 8 10 1 11 2 12 3 13
REMARK SMILES IDX 4 14 5 15 6 16 7 17 17 18 18 19 19 20 20 22 21 23 22 24
REMARK SMILES IDX 86 25 23 26 85 27 24 28 25 29 26 30 79 31 27 32 84 33 78 34
REMARK SMILES IDX 80 35 28 36 83 37 77 38 76 39 29 41 63 42 42 43 62 44 43 45
REMARK SMILES IDX 46 46 61 47 81 48 44 49 45 50 60 52 82 53 47 54 30 55 31 56
REMARK SMILES IDX 40 57 32 58 33 59 39 60 41 61 34 62 35 63 36 64 37 65 38 66
REMARK SMILES IDX 64 67 65 68 74 69 66 70 67 71 73 72 75 73 68 74 69 75 70 76
REMARK SMILES IDX 71 77 72 78 48 79 49 80 58 81 50 82 51 83 57 84 59 85 52 86
REMARK SMILES IDX 53 87 54 88 55 89 56 90
REMARK H PARENT 11 9 18 21 80 40 46 51
REMARK Flexibility Score: inf
ROOT
ATOM      1  C   UNL A   1      34.575  32.725  29.617  1.00  0.00     0.021 C 
ENDROOT
BRANCH   1   2
ATOM      2  C   UNL A   1      35.820  33.556  29.939  1.00  0.00     0.002 C 
BRANCH   2   3
ATOM      3  C   UNL A   1      37.153  32.927  29.522  1.00  0.00     0.002 C 
BRANCH   3   4
ATOM      4  C   UNL A   1      38.346  33.888  29.473  1.00  0.00     0.021 C 
BRANCH   4   5
ATOM      5  C   UNL A   1      38.405  34.898  30.617  1.00  0.00     0.116 C 
BRANCH   5   6
ATOM      6  N   UNL A   1      39.286  34.446  31.680  1.00  0.00    -0.356 N 
ATOM      7  C   UNL A   1      38.996  33.761  32.823  1.00  0.00     0.229 C 
ATOM      8  O   UNL A   1      39.914  33.541  33.612  1.00  0.00    -0.275 OA
ATOM      9  H   UNL A   1      40.237  34.667  31.556  1.00  0.00     0.163 HD
BRANCH   7  10
ATOM     10  C   UNL A   1      37.558  33.379  33.102  1.00  0.00     0.151 C 
ATOM     11  C   UNL A   1      35.637  34.201  34.563  1.00  0.00     0.009 C 
ATOM     12  C   UNL A   1      37.132  33.885  34.493  1.00  0.00     0.004 C 
ATOM     13  C   UNL A   1      37.520  32.749  35.462  1.00  0.00     0.010 C 
ATOM     14  C   UNL A   1      37.789  31.498  34.622  1.00  0.00     0.078 C 
ATOM     15  C   UNL A   1      37.389  31.879  33.213  1.00  0.00     0.259 C 
ATOM     16  F   UNL A   1      38.054  31.186  32.272  1.00  0.00    -0.206 F 
ATOM     17  F   UNL A   1      36.071  31.574  33.042  1.00  0.00    -0.206 F 
ENDBRANCH   7  10
ENDBRANCH   5   6
ENDBRANCH   4   5
ENDBRANCH   3   4
ENDBRANCH   2   3
ENDBRANCH   1   2
BRANCH   1  18
ATOM     18  C   UNL A   1      34.434  32.319  28.153  1.00  0.00     0.116 C 
BRANCH  18  19
ATOM     19  N   UNL A   1      33.876  30.984  28.000  1.00  0.00    -0.352 N 
ATOM     20  C   UNL A   1      34.518  29.773  27.933  1.00  0.00     0.251 C 
ATOM     21  H   UNL A   1      32.894  30.944  27.935  1.00  0.00     0.163 HD
ATOM     22  O   UNL A   1      33.887  28.764  27.621  1.00  0.00    -0.269 OA
BRANCH  20  23
ATOM     23  C   UNL A   1      35.968  29.683  28.210  1.00  0.00     0.039 A 
ATOM     24  C   UNL A   1      36.389  29.325  29.493  1.00  0.00     0.014 A 
ATOM     25  C   UNL A   1      36.912  29.946  27.212  1.00  0.00     0.014 A 
ATOM     26  C   UNL A   1      37.751  29.160  29.754  1.00  0.00     0.010 A 
ATOM     27  C   UNL A   1      38.264  29.712  27.455  1.00  0.00     0.010 A 
ATOM     28  C   UNL A   1      38.698  29.310  28.727  1.00  0.00    -0.014 A 
BRANCH  28  29
ATOM     29  C   UNL A   1      40.137  29.011  28.961  1.00  0.00     0.031 A 
ATOM     30  C   UNL A   1      40.712  27.672  28.580  1.00  0.00     0.074 A 
ATOM     31  C   UNL A   1      40.909  29.925  29.583  1.00  0.00     0.049 A 
ATOM     32  N   UNL A   1      41.922  27.214  28.764  1.00  0.00    -0.248 NA
ATOM     33  C   UNL A   1      39.803  26.714  27.930  1.00  0.00     0.031 C 
ATOM     34  C   UNL A   1      40.453  31.235  30.055  1.00  0.00     0.029 A 
ATOM     35  N   UNL A   1      42.234  29.889  29.943  1.00  0.00    -0.354 N 
ATOM     36  C   UNL A   1      41.919  25.914  28.272  1.00  0.00     0.074 A 
ATOM     37  C   UNL A   1      40.573  25.641  27.815  1.00  0.00     0.031 C 
ATOM     38  C   UNL A   1      41.481  31.880  30.630  1.00  0.00     0.029 A 
ATOM     39  C   UNL A   1      42.657  31.017  30.610  1.00  0.00     0.049 A 
ATOM     40  H   UNL A   1      42.826  29.128  29.744  1.00  0.00     0.167 HD
ATOM     41  C   UNL A   1      42.947  25.036  28.196  1.00  0.00     0.037 A 
ATOM     42  C   UNL A   1      43.849  31.316  31.162  1.00  0.00     0.037 A 
ATOM     43  C   UNL A   1      44.292  25.328  28.624  1.00  0.00     0.049 A 
ATOM     44  C   UNL A   1      44.977  30.323  31.053  1.00  0.00     0.074 A 
ATOM     45  C   UNL A   1      45.420  24.537  28.502  1.00  0.00     0.029 A 
ATOM     46  N   UNL A   1      44.688  26.491  29.266  1.00  0.00    -0.354 N 
ATOM     47  N   UNL A   1      44.978  29.137  30.494  1.00  0.00    -0.248 NA
ATOM     48  C   UNL A   1      46.265  30.710  31.644  1.00  0.00     0.031 C 
ATOM     49  C   UNL A   1      46.485  25.191  29.127  1.00  0.00     0.029 A 
ATOM     50  C   UNL A   1      46.036  26.421  29.581  1.00  0.00     0.049 A 
ATOM     51  H   UNL A   1      44.100  27.254  29.468  1.00  0.00     0.167 HD
ATOM     52  C   UNL A   1      46.270  28.647  30.647  1.00  0.00     0.074 A 
ATOM     53  C   UNL A   1      47.028  29.673  31.330  1.00  0.00     0.031 C 
ATOM     54  C   UNL A   1      46.782  27.453  30.259  1.00  0.00     0.037 A 
BRANCH  41  55
ATOM     55  C   UNL A   1      42.676  23.668  27.631  1.00  0.00     0.058 A 
ATOM     56  C   UNL A   1      42.745  23.406  26.255  1.00  0.00     0.135 A 
ATOM     57  C   UNL A   1      42.431  22.583  28.492  1.00  0.00     0.135 A 
ATOM     58  F   UNL A   1      42.961  24.406  25.385  1.00  0.00    -0.206 F 
ATOM     59  C   UNL A   1      42.572  22.121  25.748  1.00  0.00     0.059 A 
ATOM     60  C   UNL A   1      42.283  21.286  28.011  1.00  0.00     0.059 A 
ATOM     61  F   UNL A   1      42.351  22.777  29.818  1.00  0.00    -0.206 F 
ATOM     62  C   UNL A   1      42.349  21.066  26.636  1.00  0.00     0.060 A 
BRANCH  62  63
ATOM     63  S   UNL A   1      42.172  19.399  25.965  1.00  0.00     0.124 S 
ATOM     64  O   UNL A   1      42.667  18.586  27.072  1.00  0.00    -0.237 OA
ATOM     65  O   UNL A   1      40.737  19.318  25.712  1.00  0.00    -0.237 OA
ATOM     66  O   UNL A   1      43.017  19.418  24.775  1.00  0.00    -0.744 OA
ENDBRANCH  62  63
ENDBRANCH  41  55
BRANCH  42  67
ATOM     67  C   UNL A   1      44.039  32.607  31.881  1.00  0.00     0.058 A 
ATOM     68  C   UNL A   1      43.748  32.732  33.246  1.00  0.00     0.135 A 
ATOM     69  C   UNL A   1      44.504  33.748  31.206  1.00  0.00     0.135 A 
ATOM     70  F   UNL A   1      43.295  31.673  33.935  1.00  0.00    -0.206 F 
ATOM     71  C   UNL A   1      43.877  33.946  33.912  1.00  0.00     0.059 A 
ATOM     72  C   UNL A   1      44.673  34.966  31.857  1.00  0.00     0.059 A 
ATOM     73  F   UNL A   1      44.816  33.680  29.903  1.00  0.00    -0.206 F 
ATOM     74  C   UNL A   1      44.340  35.059  33.207  1.00  0.00     0.060 A 
BRANCH  74  75
ATOM     75  S   UNL A   1      44.526  36.627  34.084  1.00  0.00     0.124 S 
ATOM     76  O   UNL A   1      44.178  36.244  35.447  1.00  0.00    -0.237 OA
ATOM     77  O   UNL A   1      45.931  36.945  33.846  1.00  0.00    -0.237 OA
ATOM     78  O   UNL A   1      43.571  37.503  33.409  1.00  0.00    -0.744 OA
ENDBRANCH  74  75
ENDBRANCH  42  67
BRANCH  54  79
ATOM     79  C   UNL A   1      48.238  27.196  30.539  1.00  0.00     0.058 A 
ATOM     80  C   UNL A   1      49.237  27.512  29.606  1.00  0.00     0.135 A 
ATOM     81  C   UNL A   1      48.642  26.677  31.781  1.00  0.00     0.135 A 
ATOM     82  F   UNL A   1      48.906  28.006  28.401  1.00  0.00    -0.206 F 
ATOM     83  C   UNL A   1      50.584  27.299  29.882  1.00  0.00     0.059 A 
ATOM     84  C   UNL A   1      49.985  26.486  32.090  1.00  0.00     0.059 A 
ATOM     85  F   UNL A   1      47.729  26.366  32.714  1.00  0.00    -0.206 F 
ATOM     86  C   UNL A   1      50.949  26.788  31.129  1.00  0.00     0.060 A 
BRANCH  86  87
ATOM     87  S   UNL A   1      52.702  26.549  31.485  1.00  0.00     0.124 S 
ATOM     88  O   UNL A   1      52.888  27.417  32.644  1.00  0.00    -0.237 OA
ATOM     89  O   UNL A   1      52.773  25.116  31.749  1.00  0.00    -0.237 OA
ATOM     90  O   UNL A   1      53.362  26.989  30.260  1.00  0.00    -0.744 OA
ENDBRANCH  86  87
ENDBRANCH  54  79
ENDBRANCH  28  29
ENDBRANCH  20  23
ENDBRANCH  18  19
ENDBRANCH   1  18
TORSDOF 16
ENDMDL
MODEL 3
REMARK VINA RESULT:     -10.5      2.573      3.263
REMARK SMILES C[C@H]1CCC(F)(F)[C@@H]1C(=O)NCCCCCCNC(=O)c1ccc(-c2c3nc(c(-c4c(F)cc(S(=O)(=O)[O-])cc4F)c4ccc([nH]4)c(-c4c(F)cc(S(=O)(=O)[O-])cc4F)c4nc(c(-c5c(F)cc(S(=O)(=O)[O-])cc5F)c5ccc2[nH]5)C=C4)C=C3)cc1
REMARK SMILES IDX 16 1 15 2 14 3 13 4 12 5 11 6 9 7 10 8 8 10 1 11 2 12 3 13
REMARK SMILES IDX 4 14 5 15 6 16 7 17 17 18 18 19 19 20 20 22 21 23 22 24
REMARK SMILES IDX 86 25 23 26 85 27 24 28 25 29 26 30 79 31 27 32 84 33 78 34
REMARK SMILES IDX 80 35 28 36 83 37 77 38 76 39 29 41 63 42 42 43 62 44 43 45
REMARK SMILES IDX 46 46 61 47 81 48 44 49 45 50 60 52 82 53 47 54 30 55 31 56
REMARK SMILES IDX 40 57 32 58 33 59 39 60 41 61 34 62 35 63 36 64 37 65 38 66
REMARK SMILES IDX 64 67 65 68 74 69 66 70 67 71 73 72 75 73 68 74 69 75 70 76
REMARK SMILES IDX 71 77 72 78 48 79 49 80 58 81 50 82 51 83 57 84 59 85 52 86
REMARK SMILES IDX 53 87 54 88 55 89 56 90
REMARK H PARENT 11 9 18 21 80 40 46 51
REMARK Flexibility Score: inf
ROOT
ATOM      1  C   UNL A   1      32.659  27.910  26.537  1.00  0.00     0.021 C 
ENDROOT
BRANCH   1   2
ATOM      2  C   UNL A   1      31.727  27.629  25.355  1.00  0.00     0.002 C 
BRANCH   2   3
ATOM      3  C   UNL A   1      31.255  28.868  24.587  1.00  0.00     0.002 C 
BRANCH   3   4
ATOM      4  C   UNL A   1      31.186  28.710  23.064  1.00  0.00     0.021 C 
BRANCH   4   5
ATOM      5  C   UNL A   1      30.660  27.359  22.581  1.00  0.00     0.116 C 
BRANCH   5   6
ATOM      6  N   UNL A   1      31.566  26.747  21.625  1.00  0.00    -0.356 N 
ATOM      7  C   UNL A   1      32.504  25.774  21.810  1.00  0.00     0.229 C 
ATOM      8  O   UNL A   1      33.203  25.457  20.849  1.00  0.00    -0.275 OA
ATOM      9  H   UNL A   1      31.491  27.085  20.704  1.00  0.00     0.163 HD
BRANCH   7  10
ATOM     10  C   UNL A   1      32.693  25.194  23.195  1.00  0.00     0.151 C 
ATOM     11  C   UNL A   1      34.610  24.790  24.826  1.00  0.00     0.009 C 
ATOM     12  C   UNL A   1      34.140  24.699  23.374  1.00  0.00     0.004 C 
ATOM     13  C   UNL A   1      34.123  23.240  22.871  1.00  0.00     0.010 C 
ATOM     14  C   UNL A   1      32.660  22.800  22.783  1.00  0.00     0.078 C 
ATOM     15  C   UNL A   1      31.871  23.938  23.392  1.00  0.00     0.259 C 
ATOM     16  F   UNL A   1      30.619  24.026  22.912  1.00  0.00    -0.206 F 
ATOM     17  F   UNL A   1      31.744  23.705  24.730  1.00  0.00    -0.206 F 
ENDBRANCH   7  10
ENDBRANCH   5   6
ENDBRANCH   4   5
ENDBRANCH   3   4
ENDBRANCH   2   3
ENDBRANCH   1   2
BRANCH   1  18
ATOM     18  C   UNL A   1      33.921  28.693  26.191  1.00  0.00     0.116 C 
BRANCH  18  19
ATOM     19  N   UNL A   1      33.800  30.108  26.507  1.00  0.00    -0.352 N 
ATOM     20  C   UNL A   1      34.539  30.873  27.374  1.00  0.00     0.251 C 
ATOM     21  H   UNL A   1      33.084  30.586  26.030  1.00  0.00     0.163 HD
ATOM     22  O   UNL A   1      34.172  32.016  27.644  1.00  0.00    -0.269 OA
BRANCH  20  23
ATOM     23  C   UNL A   1      35.758  30.319  28.003  1.00  0.00     0.039 A 
ATOM     24  C   UNL A   1      36.980  30.452  27.338  1.00  0.00     0.014 A 
ATOM     25  C   UNL A   1      35.702  29.674  29.242  1.00  0.00     0.014 A 
ATOM     26  C   UNL A   1      38.153  30.004  27.949  1.00  0.00     0.010 A 
ATOM     27  C   UNL A   1      36.881  29.293  29.880  1.00  0.00     0.010 A 
ATOM     28  C   UNL A   1      38.120  29.459  29.244  1.00  0.00    -0.014 A 
BRANCH  28  29
ATOM     29  C   UNL A   1      39.375  29.099  29.956  1.00  0.00     0.031 A 
ATOM     30  C   UNL A   1      39.830  29.890  31.154  1.00  0.00     0.074 A 
ATOM     31  C   UNL A   1      40.142  28.098  29.477  1.00  0.00     0.049 A 
ATOM     32  N   UNL A   1      40.924  29.761  31.859  1.00  0.00    -0.248 NA
ATOM     33  C   UNL A   1      38.957  30.986  31.603  1.00  0.00     0.031 C 
ATOM     34  C   UNL A   1      39.839  27.296  28.289  1.00  0.00     0.029 A 
ATOM     35  N   UNL A   1      41.342  27.594  29.916  1.00  0.00    -0.354 N 
ATOM     36  C   UNL A   1      40.881  30.764  32.821  1.00  0.00     0.074 A 
ATOM     37  C   UNL A   1      39.670  31.519  32.585  1.00  0.00     0.031 C 
ATOM     38  C   UNL A   1      40.818  26.397  28.101  1.00  0.00     0.029 A 
ATOM     39  C   UNL A   1      41.840  26.583  29.126  1.00  0.00     0.049 A 
ATOM     40  H   UNL A   1      41.803  27.924  30.721  1.00  0.00     0.167 HD
ATOM     41  C   UNL A   1      41.763  31.019  33.816  1.00  0.00     0.037 A 
ATOM     42  C   UNL A   1      42.998  25.896  29.202  1.00  0.00     0.037 A 
ATOM     43  C   UNL A   1      42.950  30.240  34.063  1.00  0.00     0.049 A 
ATOM     44  C   UNL A   1      43.955  26.197  30.325  1.00  0.00     0.074 A 
ATOM     45  C   UNL A   1      43.855  30.364  35.102  1.00  0.00     0.029 A 
ATOM     46  N   UNL A   1      43.405  29.205  33.259  1.00  0.00    -0.354 N 
ATOM     47  N   UNL A   1      43.846  27.085  31.285  1.00  0.00    -0.248 NA
ATOM     48  C   UNL A   1      45.188  25.400  30.382  1.00  0.00     0.031 C 
ATOM     49  C   UNL A   1      44.891  29.450  34.894  1.00  0.00     0.029 A 
ATOM     50  C   UNL A   1      44.598  28.709  33.759  1.00  0.00     0.049 A 
ATOM     51  H   UNL A   1      42.947  28.873  32.454  1.00  0.00     0.167 HD
ATOM     52  C   UNL A   1      44.984  26.938  32.069  1.00  0.00     0.074 A 
ATOM     53  C   UNL A   1      45.756  25.861  31.487  1.00  0.00     0.031 C 
ATOM     54  C   UNL A   1      45.358  27.633  33.172  1.00  0.00     0.037 A 
BRANCH  41  55
ATOM     55  C   UNL A   1      41.493  32.188  34.724  1.00  0.00     0.058 A 
ATOM     56  C   UNL A   1      41.990  33.471  34.451  1.00  0.00     0.135 A 
ATOM     57  C   UNL A   1      40.648  32.037  35.838  1.00  0.00     0.135 A 
ATOM     58  F   UNL A   1      42.813  33.670  33.409  1.00  0.00    -0.206 F 
ATOM     59  C   UNL A   1      41.669  34.562  35.253  1.00  0.00     0.059 A 
ATOM     60  C   UNL A   1      40.291  33.119  36.637  1.00  0.00     0.059 A 
ATOM     61  F   UNL A   1      40.147  30.831  36.148  1.00  0.00    -0.206 F 
ATOM     62  C   UNL A   1      40.812  34.378  36.339  1.00  0.00     0.060 A 
BRANCH  62  63
ATOM     63  S   UNL A   1      40.370  35.813  37.342  1.00  0.00     0.124 S 
ATOM     64  O   UNL A   1      39.815  36.712  36.334  1.00  0.00    -0.237 OA
ATOM     65  O   UNL A   1      39.410  35.248  38.284  1.00  0.00    -0.237 OA
ATOM     66  O   UNL A   1      41.643  36.230  37.921  1.00  0.00    -0.744 OA
ENDBRANCH  62  63
ENDBRANCH  41  55
BRANCH  42  67
ATOM     67  C   UNL A   1      43.327  24.867  28.177  1.00  0.00     0.058 A 
ATOM     68  C   UNL A   1      42.945  23.527  28.339  1.00  0.00     0.135 A 
ATOM     69  C   UNL A   1      44.047  25.205  27.020  1.00  0.00     0.135 A 
ATOM     70  F   UNL A   1      42.261  23.152  29.431  1.00  0.00    -0.206 F 
ATOM     71  C   UNL A   1      43.291  22.553  27.409  1.00  0.00     0.059 A 
ATOM     72  C   UNL A   1      44.376  24.254  26.058  1.00  0.00     0.059 A 
ATOM     73  F   UNL A   1      44.420  26.475  26.805  1.00  0.00    -0.206 F 
ATOM     74  C   UNL A   1      44.009  22.926  26.271  1.00  0.00     0.060 A 
BRANCH  74  75
ATOM     75  S   UNL A   1      44.436  21.659  25.058  1.00  0.00     0.124 S 
ATOM     76  O   UNL A   1      43.461  20.619  25.366  1.00  0.00    -0.237 OA
ATOM     77  O   UNL A   1      44.241  22.366  23.796  1.00  0.00    -0.237 OA
ATOM     78  O   UNL A   1      45.824  21.341  25.381  1.00  0.00    -0.744 OA
ENDBRANCH  74  75
ENDBRANCH  42  67
BRANCH  54  79
ATOM     79  C   UNL A   1      46.647  27.238  33.839  1.00  0.00     0.058 A 
ATOM     80  C   UNL A   1      47.862  27.871  33.533  1.00  0.00     0.135 A 
ATOM     81  C   UNL A   1      46.657  26.251  34.839  1.00  0.00     0.135 A 
ATOM     82  F   UNL A   1      47.910  28.817  32.581  1.00  0.00    -0.206 F 
ATOM     83  C   UNL A   1      49.045  27.520  34.174  1.00  0.00     0.059 A 
ATOM     84  C   UNL A   1      47.823  25.908  35.516  1.00  0.00     0.059 A 
ATOM     85  F   UNL A   1      45.521  25.621  35.179  1.00  0.00    -0.206 F 
ATOM     86  C   UNL A   1      49.016  26.540  35.167  1.00  0.00     0.060 A 
BRANCH  86  87
ATOM     87  S   UNL A   1      50.553  26.120  36.014  1.00  0.00     0.124 S 
ATOM     88  O   UNL A   1      51.551  26.676  35.106  1.00  0.00    -0.237 OA
ATOM     89  O   UNL A   1      50.403  26.810  37.291  1.00  0.00    -0.237 OA
ATOM     90  O   UNL A   1      50.516  24.663  36.087  1.00  0.00    -0.744 OA
ENDBRANCH  86  87
ENDBRANCH  54  79
ENDBRANCH  28  29
ENDBRANCH  20  23
ENDBRANCH  18  19
ENDBRANCH   1  18
TORSDOF 16
ENDMDL
