MODEL 1
REMARK VINA RESULT:     -11.8      0.000      0.000
REMARK SMILES O=C(Nc1c(F)cc(F)cc1F)N[C@H]1C=C[C@@H](C(=O)NCCCCCCNC(=O)c2ccc(-c3c4nc(c(-c5c(F)cc(S(=O)(=O)[O-])cc5F)c5ccc([nH]5)c(-c5c(F)cc(S(=O)(=O)[O-])cc5F)c5nc(c(-c6c(F)cc(S(=O)(=O)[O-])cc6F)c6ccc3[nH]6)C=C5)C=C4)cc2)C1
REMARK SMILES IDX 24 1 23 2 22 3 21 4 20 5 18 6 19 7 17 9 14 10 15 11 96 12
REMARK SMILES IDX 16 13 13 14 1 15 2 16 3 17 4 20 5 21 11 22 6 23 7 24 10 25
REMARK SMILES IDX 12 26 8 27 9 28 25 29 26 30 27 31 28 32 29 34 30 35 31 36
REMARK SMILES IDX 95 37 32 38 94 39 33 40 34 41 35 42 88 43 36 44 93 45 87 46
REMARK SMILES IDX 89 47 37 48 92 49 86 50 85 51 38 53 72 54 51 55 71 56 52 57
REMARK SMILES IDX 55 58 70 59 90 60 53 61 54 62 69 64 91 65 56 66 39 67 40 68
REMARK SMILES IDX 49 69 41 70 42 71 48 72 50 73 43 74 44 75 45 76 46 77 47 78
REMARK SMILES IDX 73 79 74 80 83 81 75 82 76 83 82 84 84 85 77 86 78 87 79 88
REMARK SMILES IDX 80 89 81 90 57 91 58 92 67 93 59 94 60 95 66 96 68 97 61 98
REMARK SMILES IDX 62 99 63 100 64 101 65 102
REMARK H PARENT 20 8 3 18 13 19 27 33 89 52 55 63
REMARK Flexibility Score: inf
ROOT
ATOM      1  C   UNL A   1      34.718  24.813  25.119  1.00  0.00     0.002 C 
ENDROOT
BRANCH   1   2
ATOM      2  C   UNL A   1      34.371  24.478  23.664  1.00  0.00     0.002 C 
BRANCH   2   3
ATOM      3  C   UNL A   1      33.629  25.574  22.890  1.00  0.00     0.021 C 
BRANCH   3   4
ATOM      4  C   UNL A   1      32.169  25.253  22.570  1.00  0.00     0.116 C 
BRANCH   4   5
ATOM      5  N   UNL A   1      31.476  26.405  22.029  1.00  0.00    -0.356 N 
ATOM      6  C   UNL A   1      30.726  27.365  22.634  1.00  0.00     0.227 C 
ATOM      7  O   UNL A   1      30.267  28.255  21.908  1.00  0.00    -0.274 OA
ATOM      8  H   UNL A   1      31.563  26.511  21.054  1.00  0.00     0.163 HD
BRANCH   6   9
ATOM      9  C   UNL A   1      30.453  27.392  24.141  1.00  0.00     0.103 C 
ATOM     10  C   UNL A   1      30.608  25.877  26.071  1.00  0.00     0.107 C 
ATOM     11  C   UNL A   1      31.747  26.845  26.019  1.00  0.00    -0.006 C 
ATOM     12  C   UNL A   1      29.871  26.106  24.739  1.00  0.00     0.047 C 
ATOM     13  C   UNL A   1      31.673  27.666  24.967  1.00  0.00    -0.016 C 
BRANCH  10  14
ATOM     14  N   UNL A   1      31.163  24.553  26.151  1.00  0.00    -0.332 N 
ATOM     15  O   UNL A   1      29.465  23.632  27.336  1.00  0.00    -0.248 OA
ATOM     16  C   UNL A   1      30.540  23.513  26.752  1.00  0.00     0.319 C 
ATOM     17  N   UNL A   1      31.069  22.270  26.587  1.00  0.00    -0.303 N 
ATOM     18  H   UNL A   1      30.490  21.552  26.930  1.00  0.00     0.172 HD
ATOM     19  H   UNL A   1      32.047  24.393  25.745  1.00  0.00     0.165 HD
BRANCH  17  20
ATOM     20  C   UNL A   1      32.274  21.794  26.027  1.00  0.00     0.115 A 
ATOM     21  C   UNL A   1      32.489  21.484  24.680  1.00  0.00     0.152 A 
ATOM     22  C   UNL A   1      33.356  21.636  26.907  1.00  0.00     0.152 A 
ATOM     23  F   UNL A   1      31.529  21.654  23.762  1.00  0.00    -0.204 F 
ATOM     24  C   UNL A   1      33.712  21.003  24.232  1.00  0.00     0.081 A 
ATOM     25  C   UNL A   1      34.581  21.138  26.482  1.00  0.00     0.081 A 
ATOM     26  F   UNL A   1      33.192  21.923  28.208  1.00  0.00    -0.204 F 
ATOM     27  C   UNL A   1      34.741  20.829  25.141  1.00  0.00     0.129 A 
ATOM     28  F   UNL A   1      35.905  20.345  24.704  1.00  0.00    -0.207 F 
ENDBRANCH  17  20
ENDBRANCH  10  14
ENDBRANCH   6   9
ENDBRANCH   4   5
ENDBRANCH   3   4
ENDBRANCH   2   3
ENDBRANCH   1   2
BRANCH   1  29
ATOM     29  C   UNL A   1      35.949  24.103  25.687  1.00  0.00     0.021 C 
BRANCH  29  30
ATOM     30  C   UNL A   1      37.048  23.793  24.671  1.00  0.00     0.116 C 
BRANCH  30  31
ATOM     31  N   UNL A   1      37.947  22.745  25.129  1.00  0.00    -0.352 N 
ATOM     32  C   UNL A   1      39.026  22.849  25.977  1.00  0.00     0.251 C 
ATOM     33  H   UNL A   1      37.758  21.841  24.788  1.00  0.00     0.163 HD
ATOM     34  O   UNL A   1      39.785  21.897  26.131  1.00  0.00    -0.269 OA
BRANCH  32  35
ATOM     35  C   UNL A   1      39.276  24.122  26.686  1.00  0.00     0.039 A 
ATOM     36  C   UNL A   1      38.723  24.327  27.953  1.00  0.00     0.014 A 
ATOM     37  C   UNL A   1      40.074  25.107  26.103  1.00  0.00     0.014 A 
ATOM     38  C   UNL A   1      39.039  25.486  28.672  1.00  0.00     0.010 A 
ATOM     39  C   UNL A   1      40.422  26.237  26.842  1.00  0.00     0.010 A 
ATOM     40  C   UNL A   1      39.931  26.433  28.143  1.00  0.00    -0.014 A 
BRANCH  40  41
ATOM     41  C   UNL A   1      40.383  27.623  28.921  1.00  0.00     0.031 A 
ATOM     42  C   UNL A   1      41.697  27.582  29.662  1.00  0.00     0.074 A 
ATOM     43  C   UNL A   1      39.579  28.700  29.055  1.00  0.00     0.049 A 
ATOM     44  N   UNL A   1      42.193  28.441  30.515  1.00  0.00    -0.248 NA
ATOM     45  C   UNL A   1      42.548  26.401  29.440  1.00  0.00     0.031 C 
ATOM     46  C   UNL A   1      38.263  28.863  28.432  1.00  0.00     0.029 A 
ATOM     47  N   UNL A   1      39.742  29.861  29.776  1.00  0.00    -0.354 N 
ATOM     48  C   UNL A   1      43.389  27.889  30.959  1.00  0.00     0.074 A 
ATOM     49  C   UNL A   1      43.529  26.605  30.309  1.00  0.00     0.031 C 
ATOM     50  C   UNL A   1      37.752  30.056  28.780  1.00  0.00     0.029 A 
ATOM     51  C   UNL A   1      38.675  30.727  29.689  1.00  0.00     0.049 A 
ATOM     52  H   UNL A   1      40.550  30.055  30.306  1.00  0.00     0.167 HD
ATOM     53  C   UNL A   1      44.298  28.410  31.816  1.00  0.00     0.037 A 
ATOM     54  C   UNL A   1      38.453  31.917  30.287  1.00  0.00     0.037 A 
ATOM     55  C   UNL A   1      44.196  29.718  32.409  1.00  0.00     0.049 A 
ATOM     56  C   UNL A   1      39.489  32.479  31.229  1.00  0.00     0.074 A 
ATOM     57  C   UNL A   1      45.118  30.366  33.213  1.00  0.00     0.029 A 
ATOM     58  N   UNL A   1      43.119  30.576  32.260  1.00  0.00    -0.354 N 
ATOM     59  N   UNL A   1      40.646  31.970  31.579  1.00  0.00    -0.248 NA
ATOM     60  C   UNL A   1      39.191  33.775  31.859  1.00  0.00     0.031 C 
ATOM     61  C   UNL A   1      44.577  31.598  33.589  1.00  0.00     0.029 A 
ATOM     62  C   UNL A   1      43.342  31.739  32.977  1.00  0.00     0.049 A 
ATOM     63  H   UNL A   1      42.314  30.387  31.725  1.00  0.00     0.167 HD
ATOM     64  C   UNL A   1      41.230  32.904  32.430  1.00  0.00     0.074 A 
ATOM     65  C   UNL A   1      40.300  34.005  32.549  1.00  0.00     0.031 C 
ATOM     66  C   UNL A   1      42.432  32.852  33.052  1.00  0.00     0.037 A 
BRANCH  53  67
ATOM     67  C   UNL A   1      45.500  27.580  32.169  1.00  0.00     0.058 A 
ATOM     68  C   UNL A   1      46.700  27.672  31.448  1.00  0.00     0.135 A 
ATOM     69  C   UNL A   1      45.476  26.745  33.298  1.00  0.00     0.135 A 
ATOM     70  F   UNL A   1      46.773  28.445  30.353  1.00  0.00    -0.206 F 
ATOM     71  C   UNL A   1      47.830  26.954  31.824  1.00  0.00     0.059 A 
ATOM     72  C   UNL A   1      46.602  26.040  33.710  1.00  0.00     0.059 A 
ATOM     73  F   UNL A   1      44.352  26.622  34.024  1.00  0.00    -0.206 F 
ATOM     74  C   UNL A   1      47.773  26.145  32.961  1.00  0.00     0.060 A 
BRANCH  74  75
ATOM     75  S   UNL A   1      49.260  25.250  33.456  1.00  0.00     0.124 S 
ATOM     76  O   UNL A   1      49.932  26.244  34.289  1.00  0.00    -0.237 OA
ATOM     77  O   UNL A   1      48.710  24.098  34.163  1.00  0.00    -0.237 OA
ATOM     78  O   UNL A   1      49.915  24.951  32.186  1.00  0.00    -0.744 OA
ENDBRANCH  74  75
ENDBRANCH  53  67
BRANCH  54  79
ATOM     79  C   UNL A   1      37.201  32.678  30.019  1.00  0.00     0.058 A 
ATOM     80  C   UNL A   1      36.007  32.354  30.683  1.00  0.00     0.135 A 
ATOM     81  C   UNL A   1      37.158  33.710  29.070  1.00  0.00     0.135 A 
ATOM     82  F   UNL A   1      35.993  31.368  31.594  1.00  0.00    -0.206 F 
ATOM     83  C   UNL A   1      34.810  32.999  30.392  1.00  0.00     0.059 A 
ATOM     84  C   UNL A   1      35.978  34.390  28.780  1.00  0.00     0.059 A 
ATOM     85  F   UNL A   1      38.275  34.072  28.418  1.00  0.00    -0.206 F 
ATOM     86  C   UNL A   1      34.805  34.014  29.434  1.00  0.00     0.060 A 
BRANCH  86  87
ATOM     87  S   UNL A   1      33.248  34.852  29.064  1.00  0.00     0.124 S 
ATOM     88  O   UNL A   1      32.623  34.899  30.380  1.00  0.00    -0.237 OA
ATOM     89  O   UNL A   1      33.707  36.129  28.526  1.00  0.00    -0.237 OA
ATOM     90  O   UNL A   1      32.614  33.964  28.094  1.00  0.00    -0.744 OA
ENDBRANCH  86  87
ENDBRANCH  54  79
BRANCH  66  91
ATOM     91  C   UNL A   1      42.867  34.040  33.863  1.00  0.00     0.058 A 
ATOM     92  C   UNL A   1      42.664  34.105  35.249  1.00  0.00     0.135 A 
ATOM     93  C   UNL A   1      43.603  35.072  33.257  1.00  0.00     0.135 A 
ATOM     94  F   UNL A   1      41.959  33.149  35.875  1.00  0.00    -0.206 F 
ATOM     95  C   UNL A   1      43.180  35.151  36.008  1.00  0.00     0.059 A 
ATOM     96  C   UNL A   1      44.149  36.113  34.000  1.00  0.00     0.059 A 
ATOM     97  F   UNL A   1      43.831  35.051  31.934  1.00  0.00    -0.206 F 
ATOM     98  C   UNL A   1      43.933  36.143  35.376  1.00  0.00     0.060 A 
BRANCH  98  99
ATOM     99  S   UNL A   1      44.675  37.443  36.386  1.00  0.00     0.124 S 
ATOM    100  O   UNL A   1      44.334  38.640  35.625  1.00  0.00    -0.237 OA
ATOM    101  O   UNL A   1      43.982  37.283  37.660  1.00  0.00    -0.237 OA
ATOM    102  O   UNL A   1      46.093  37.094  36.403  1.00  0.00    -0.744 OA
ENDBRANCH  98  99
ENDBRANCH  66  91
ENDBRANCH  40  41
ENDBRANCH  32  35
ENDBRANCH  30  31
ENDBRANCH  29  30
ENDBRANCH   1  29
TORSDOF 18
ENDMDL
MODEL 2
REMARK VINA RESULT:     -11.4      2.933      4.641
REMARK SMILES O=C(Nc1c(F)cc(F)cc1F)N[C@H]1C=C[C@@H](C(=O)NCCCCCCNC(=O)c2ccc(-c3c4nc(c(-c5c(F)cc(S(=O)(=O)[O-])cc5F)c5ccc([nH]5)c(-c5c(F)cc(S(=O)(=O)[O-])cc5F)c5nc(c(-c6c(F)cc(S(=O)(=O)[O-])cc6F)c6ccc3[nH]6)C=C5)C=C4)cc2)C1
REMARK SMILES IDX 24 1 23 2 22 3 21 4 20 5 18 6 19 7 17 9 14 10 15 11 96 12
REMARK SMILES IDX 16 13 13 14 1 15 2 16 3 17 4 20 5 21 11 22 6 23 7 24 10 25
REMARK SMILES IDX 12 26 8 27 9 28 25 29 26 30 27 31 28 32 29 34 30 35 31 36
REMARK SMILES IDX 95 37 32 38 94 39 33 40 34 41 35 42 88 43 36 44 93 45 87 46
REMARK SMILES IDX 89 47 37 48 92 49 86 50 85 51 38 53 72 54 51 55 71 56 52 57
REMARK SMILES IDX 55 58 70 59 90 60 53 61 54 62 69 64 91 65 56 66 39 67 40 68
REMARK SMILES IDX 49 69 41 70 42 71 48 72 50 73 43 74 44 75 45 76 46 77 47 78
REMARK SMILES IDX 73 79 74 80 83 81 75 82 76 83 82 84 84 85 77 86 78 87 79 88
REMARK SMILES IDX 80 89 81 90 57 91 58 92 67 93 59 94 60 95 66 96 68 97 61 98
REMARK SMILES IDX 62 99 63 100 64 101 65 102
REMARK H PARENT 20 8 3 18 13 19 27 33 89 52 55 63
REMARK Flexibility Score: inf
ROOT
ATOM      1  C   UNL A   1      36.664  23.453  24.637  1.00  0.00     0.002 C 
ENDROOT
BRANCH   1   2
ATOM      2  C   UNL A   1      35.468  24.219  25.215  1.00  0.00     0.002 C 
BRANCH   2   3
ATOM      3  C   UNL A   1      34.721  23.519  26.357  1.00  0.00     0.021 C 
BRANCH   3   4
ATOM      4  C   UNL A   1      33.201  23.487  26.201  1.00  0.00     0.116 C 
BRANCH   4   5
ATOM      5  N   UNL A   1      32.715  22.139  25.983  1.00  0.00    -0.356 N 
ATOM      6  C   UNL A   1      32.158  21.554  24.888  1.00  0.00     0.227 C 
ATOM      7  O   UNL A   1      31.853  20.360  24.988  1.00  0.00    -0.274 OA
ATOM      8  H   UNL A   1      32.803  21.544  26.762  1.00  0.00     0.163 HD
BRANCH   6   9
ATOM      9  C   UNL A   1      31.920  22.296  23.570  1.00  0.00     0.103 C 
ATOM     10  C   UNL A   1      31.732  24.611  22.762  1.00  0.00     0.107 C 
ATOM     11  C   UNL A   1      33.069  24.014  22.460  1.00  0.00    -0.006 C 
ATOM     12  C   UNL A   1      31.054  23.558  23.658  1.00  0.00     0.047 C 
ATOM     13  C   UNL A   1      33.181  22.757  22.904  1.00  0.00    -0.016 C 
BRANCH  10  14
ATOM     14  N   UNL A   1      31.953  25.845  23.467  1.00  0.00    -0.332 N 
ATOM     15  O   UNL A   1      30.465  27.085  22.290  1.00  0.00    -0.248 OA
ATOM     16  C   UNL A   1      31.283  26.991  23.202  1.00  0.00     0.319 C 
ATOM     17  N   UNL A   1      31.435  28.032  24.065  1.00  0.00    -0.303 N 
ATOM     18  H   UNL A   1      30.814  28.775  23.890  1.00  0.00     0.172 HD
ATOM     19  H   UNL A   1      32.630  25.857  24.183  1.00  0.00     0.165 HD
BRANCH  17  20
ATOM     20  C   UNL A   1      32.294  28.270  25.160  1.00  0.00     0.115 A 
ATOM     21  C   UNL A   1      31.963  28.130  26.511  1.00  0.00     0.152 A 
ATOM     22  C   UNL A   1      33.604  28.667  24.853  1.00  0.00     0.152 A 
ATOM     23  F   UNL A   1      30.751  27.706  26.893  1.00  0.00    -0.204 F 
ATOM     24  C   UNL A   1      32.879  28.407  27.516  1.00  0.00     0.081 A 
ATOM     25  C   UNL A   1      34.531  28.968  25.844  1.00  0.00     0.081 A 
ATOM     26  F   UNL A   1      33.964  28.813  23.569  1.00  0.00    -0.204 F 
ATOM     27  C   UNL A   1      34.151  28.830  27.170  1.00  0.00     0.129 A 
ATOM     28  F   UNL A   1      35.017  29.115  28.143  1.00  0.00    -0.207 F 
ENDBRANCH  17  20
ENDBRANCH  10  14
ENDBRANCH   6   9
ENDBRANCH   4   5
ENDBRANCH   3   4
ENDBRANCH   2   3
ENDBRANCH   1   2
BRANCH   1  29
ATOM     29  C   UNL A   1      37.686  22.953  25.661  1.00  0.00     0.021 C 
BRANCH  29  30
ATOM     30  C   UNL A   1      38.575  24.035  26.275  1.00  0.00     0.116 C 
BRANCH  30  31
ATOM     31  N   UNL A   1      39.991  23.732  26.136  1.00  0.00    -0.352 N 
ATOM     32  C   UNL A   1      41.071  24.431  26.624  1.00  0.00     0.251 C 
ATOM     33  H   UNL A   1      40.205  22.919  25.624  1.00  0.00     0.163 HD
ATOM     34  O   UNL A   1      42.209  24.135  26.274  1.00  0.00    -0.269 OA
BRANCH  32  35
ATOM     35  C   UNL A   1      40.850  25.556  27.558  1.00  0.00     0.039 A 
ATOM     36  C   UNL A   1      39.826  25.475  28.505  1.00  0.00     0.014 A 
ATOM     37  C   UNL A   1      41.668  26.685  27.506  1.00  0.00     0.014 A 
ATOM     38  C   UNL A   1      39.677  26.490  29.458  1.00  0.00     0.010 A 
ATOM     39  C   UNL A   1      41.544  27.670  28.485  1.00  0.00     0.010 A 
ATOM     40  C   UNL A   1      40.565  27.577  29.488  1.00  0.00    -0.014 A 
BRANCH  40  41
ATOM     41  C   UNL A   1      40.513  28.621  30.554  1.00  0.00     0.031 A 
ATOM     42  C   UNL A   1      41.408  28.506  31.763  1.00  0.00     0.074 A 
ATOM     43  C   UNL A   1      39.597  29.612  30.497  1.00  0.00     0.049 A 
ATOM     44  N   UNL A   1      41.406  29.212  32.863  1.00  0.00    -0.248 NA
ATOM     45  C   UNL A   1      42.415  27.431  31.744  1.00  0.00     0.031 C 
ATOM     46  C   UNL A   1      38.637  29.824  29.411  1.00  0.00     0.029 A 
ATOM     47  N   UNL A   1      39.309  30.623  31.386  1.00  0.00    -0.354 N 
ATOM     48  C   UNL A   1      42.377  28.646  33.681  1.00  0.00     0.074 A 
ATOM     49  C   UNL A   1      42.925  27.516  32.965  1.00  0.00     0.031 C 
ATOM     50  C   UNL A   1      37.886  30.904  29.686  1.00  0.00     0.029 A 
ATOM     51  C   UNL A   1      38.271  31.436  30.990  1.00  0.00     0.049 A 
ATOM     52  H   UNL A   1      39.802  30.753  32.228  1.00  0.00     0.167 HD
ATOM     53  C   UNL A   1      42.789  29.041  34.908  1.00  0.00     0.037 A 
ATOM     54  C   UNL A   1      37.680  32.479  31.610  1.00  0.00     0.037 A 
ATOM     55  C   UNL A   1      42.294  30.207  35.593  1.00  0.00     0.049 A 
ATOM     56  C   UNL A   1      38.169  32.905  32.973  1.00  0.00     0.074 A 
ATOM     57  C   UNL A   1      42.724  30.737  36.797  1.00  0.00     0.029 A 
ATOM     58  N   UNL A   1      41.273  31.023  35.136  1.00  0.00    -0.354 N 
ATOM     59  N   UNL A   1      39.137  32.396  33.696  1.00  0.00    -0.248 NA
ATOM     60  C   UNL A   1      37.483  34.043  33.607  1.00  0.00     0.031 C 
ATOM     61  C   UNL A   1      41.930  31.847  37.093  1.00  0.00     0.029 A 
ATOM     62  C   UNL A   1      41.042  32.040  36.047  1.00  0.00     0.049 A 
ATOM     63  H   UNL A   1      40.785  30.899  34.290  1.00  0.00     0.167 HD
ATOM     64  C   UNL A   1      39.206  33.181  34.844  1.00  0.00     0.074 A 
ATOM     65  C   UNL A   1      38.180  34.193  34.725  1.00  0.00     0.031 C 
ATOM     66  C   UNL A   1      40.050  33.072  35.898  1.00  0.00     0.037 A 
BRANCH  53  67
ATOM     67  C   UNL A   1      43.837  28.219  35.605  1.00  0.00     0.058 A 
ATOM     68  C   UNL A   1      43.499  27.176  36.480  1.00  0.00     0.135 A 
ATOM     69  C   UNL A   1      45.199  28.425  35.324  1.00  0.00     0.135 A 
ATOM     70  F   UNL A   1      42.214  26.946  36.792  1.00  0.00    -0.206 F 
ATOM     71  C   UNL A   1      44.473  26.374  37.064  1.00  0.00     0.059 A 
ATOM     72  C   UNL A   1      46.188  27.618  35.875  1.00  0.00     0.059 A 
ATOM     73  F   UNL A   1      45.576  29.410  34.493  1.00  0.00    -0.206 F 
ATOM     74  C   UNL A   1      45.816  26.599  36.751  1.00  0.00     0.060 A 
BRANCH  74  75
ATOM     75  S   UNL A   1      47.064  25.525  37.489  1.00  0.00     0.124 S 
ATOM     76  O   UNL A   1      46.230  24.552  38.189  1.00  0.00    -0.237 OA
ATOM     77  O   UNL A   1      47.776  25.024  36.319  1.00  0.00    -0.237 OA
ATOM     78  O   UNL A   1      47.826  26.428  38.346  1.00  0.00    -0.744 OA
ENDBRANCH  74  75
ENDBRANCH  53  67
BRANCH  54  79
ATOM     79  C   UNL A   1      36.561  33.215  30.959  1.00  0.00     0.058 A 
ATOM     80  C   UNL A   1      36.809  34.133  29.926  1.00  0.00     0.135 A 
ATOM     81  C   UNL A   1      35.232  33.050  31.378  1.00  0.00     0.135 A 
ATOM     82  F   UNL A   1      38.064  34.333  29.495  1.00  0.00    -0.206 F 
ATOM     83  C   UNL A   1      35.788  34.887  29.358  1.00  0.00     0.059 A 
ATOM     84  C   UNL A   1      34.188  33.772  30.805  1.00  0.00     0.059 A 
ATOM     85  F   UNL A   1      34.936  32.173  32.350  1.00  0.00    -0.206 F 
ATOM     86  C   UNL A   1      34.480  34.703  29.808  1.00  0.00     0.060 A 
BRANCH  86  87
ATOM     87  S   UNL A   1      33.158  35.681  29.061  1.00  0.00     0.124 S 
ATOM     88  O   UNL A   1      33.915  36.601  28.221  1.00  0.00    -0.237 OA
ATOM     89  O   UNL A   1      32.382  34.664  28.359  1.00  0.00    -0.237 OA
ATOM     90  O   UNL A   1      32.494  36.280  30.215  1.00  0.00    -0.744 OA
ENDBRANCH  86  87
ENDBRANCH  54  79
BRANCH  66  91
ATOM     91  C   UNL A   1      39.968  34.106  36.986  1.00  0.00     0.058 A 
ATOM     92  C   UNL A   1      40.550  35.374  36.849  1.00  0.00     0.135 A 
ATOM     93  C   UNL A   1      39.192  33.859  38.132  1.00  0.00     0.135 A 
ATOM     94  F   UNL A   1      41.308  35.658  35.777  1.00  0.00    -0.206 F 
ATOM     95  C   UNL A   1      40.362  36.366  37.808  1.00  0.00     0.059 A 
ATOM     96  C   UNL A   1      38.971  34.842  39.089  1.00  0.00     0.059 A 
ATOM     97  F   UNL A   1      38.608  32.663  38.306  1.00  0.00    -0.206 F 
ATOM     98  C   UNL A   1      39.561  36.094  38.918  1.00  0.00     0.060 A 
BRANCH  98  99
ATOM     99  S   UNL A   1      39.250  37.417  40.107  1.00  0.00     0.124 S 
ATOM    100  O   UNL A   1      38.650  36.683  41.216  1.00  0.00    -0.237 OA
ATOM    101  O   UNL A   1      40.590  37.944  40.346  1.00  0.00    -0.237 OA
ATOM    102  O   UNL A   1      38.349  38.315  39.390  1.00  0.00    -0.744 OA
ENDBRANCH  98  99
ENDBRANCH  66  91
ENDBRANCH  40  41
ENDBRANCH  32  35
ENDBRANCH  30  31
ENDBRANCH  29  30
ENDBRANCH   1  29
TORSDOF 18
ENDMDL
MODEL 3
REMARK VINA RESULT:     -11.3      1.575      3.640
REMARK SMILES O=C(Nc1c(F)cc(F)cc1F)N[C@H]1C=C[C@@H](C(=O)NCCCCCCNC(=O)c2ccc(-c3c4nc(c(-c5c(F)cc(S(=O)(=O)[O-])cc5F)c5ccc([nH]5)c(-c5c(F)cc(S(=O)(=O)[O-])cc5F)c5nc(c(-c6c(F)cc(S(=O)(=O)[O-])cc6F)c6ccc3[nH]6)C=C5)C=C4)cc2)C1
REMARK SMILES IDX 24 1 23 2 22 3 21 4 20 5 18 6 19 7 17 9 14 10 15 11 96 12
REMARK SMILES IDX 16 13 13 14 1 15 2 16 3 17 4 20 5 21 11 22 6 23 7 24 10 25
REMARK SMILES IDX 12 26 8 27 9 28 25 29 26 30 27 31 28 32 29 34 30 35 31 36
REMARK SMILES IDX 95 37 32 38 94 39 33 40 34 41 35 42 88 43 36 44 93 45 87 46
REMARK SMILES IDX 89 47 37 48 92 49 86 50 85 51 38 53 72 54 51 55 71 56 52 57
REMARK SMILES IDX 55 58 70 59 90 60 53 61 54 62 69 64 91 65 56 66 39 67 40 68
REMARK SMILES IDX 49 69 41 70 42 71 48 72 50 73 43 74 44 75 45 76 46 77 47 78
REMARK SMILES IDX 73 79 74 80 83 81 75 82 76 83 82 84 84 85 77 86 78 87 79 88
REMARK SMILES IDX 80 89 81 90 57 91 58 92 67 93 59 94 60 95 66 96 68 97 61 98
REMARK SMILES IDX 62 99 63 100 64 101 65 102
REMARK H PARENT 20 8 3 18 13 19 27 33 89 52 55 63
REMARK Flexibility Score: inf
ROOT
ATOM      1  C   UNL A   1      35.654  21.575  24.698  1.00  0.00     0.002 C 
ENDROOT
BRANCH   1   2
ATOM      2  C   UNL A   1      34.488  21.514  25.691  1.00  0.00     0.002 C 
BRANCH   2   3
ATOM      3  C   UNL A   1      34.422  22.660  26.708  1.00  0.00     0.021 C 
BRANCH   3   4
ATOM      4  C   UNL A   1      33.295  23.664  26.467  1.00  0.00     0.116 C 
BRANCH   4   5
ATOM      5  N   UNL A   1      31.995  23.080  26.727  1.00  0.00    -0.356 N 
ATOM      6  C   UNL A   1      30.900  22.940  25.931  1.00  0.00     0.227 C 
ATOM      7  O   UNL A   1      29.920  22.372  26.426  1.00  0.00    -0.274 OA
ATOM      8  H   UNL A   1      31.885  22.722  27.638  1.00  0.00     0.163 HD
BRANCH   6   9
ATOM      9  C   UNL A   1      30.848  23.430  24.482  1.00  0.00     0.103 C 
ATOM     10  C   UNL A   1      31.198  25.515  23.225  1.00  0.00     0.107 C 
ATOM     11  C   UNL A   1      32.367  24.589  23.119  1.00  0.00    -0.006 C 
ATOM     12  C   UNL A   1      30.290  24.843  24.272  1.00  0.00     0.047 C 
ATOM     13  C   UNL A   1      32.186  23.456  23.808  1.00  0.00    -0.016 C 
BRANCH  10  14
ATOM     14  N   UNL A   1      31.687  26.787  23.684  1.00  0.00    -0.332 N 
ATOM     15  O   UNL A   1      30.781  28.029  22.019  1.00  0.00    -0.248 OA
ATOM     16  C   UNL A   1      31.421  27.961  23.066  1.00  0.00     0.319 C 
ATOM     17  N   UNL A   1      31.769  29.111  23.704  1.00  0.00    -0.303 N 
ATOM     18  H   UNL A   1      31.420  29.920  23.265  1.00  0.00     0.172 HD
ATOM     19  H   UNL A   1      32.248  26.805  24.494  1.00  0.00     0.165 HD
BRANCH  17  20
ATOM     20  C   UNL A   1      32.525  29.389  24.864  1.00  0.00     0.115 A 
ATOM     21  C   UNL A   1      33.760  28.823  25.196  1.00  0.00     0.152 A 
ATOM     22  C   UNL A   1      31.988  30.334  25.750  1.00  0.00     0.152 A 
ATOM     23  F   UNL A   1      34.370  27.951  24.382  1.00  0.00    -0.204 F 
ATOM     24  C   UNL A   1      34.416  29.151  26.374  1.00  0.00     0.081 A 
ATOM     25  C   UNL A   1      32.619  30.663  26.944  1.00  0.00     0.081 A 
ATOM     26  F   UNL A   1      30.805  30.902  25.470  1.00  0.00    -0.204 F 
ATOM     27  C   UNL A   1      33.833  30.063  27.237  1.00  0.00     0.129 A 
ATOM     28  F   UNL A   1      34.461  30.354  28.377  1.00  0.00    -0.207 F 
ENDBRANCH  17  20
ENDBRANCH  10  14
ENDBRANCH   6   9
ENDBRANCH   4   5
ENDBRANCH   3   4
ENDBRANCH   2   3
ENDBRANCH   1   2
BRANCH   1  29
ATOM     29  C   UNL A   1      36.010  22.971  24.180  1.00  0.00     0.021 C 
BRANCH  29  30
ATOM     30  C   UNL A   1      37.206  23.633  24.863  1.00  0.00     0.116 C 
BRANCH  30  31
ATOM     31  N   UNL A   1      38.237  22.673  25.226  1.00  0.00    -0.352 N 
ATOM     32  C   UNL A   1      39.361  22.868  25.995  1.00  0.00     0.251 C 
ATOM     33  H   UNL A   1      38.114  21.761  24.874  1.00  0.00     0.163 HD
ATOM     34  O   UNL A   1      40.221  21.996  26.067  1.00  0.00    -0.269 OA
BRANCH  32  35
ATOM     35  C   UNL A   1      39.536  24.146  26.719  1.00  0.00     0.039 A 
ATOM     36  C   UNL A   1      38.938  24.317  27.970  1.00  0.00     0.014 A 
ATOM     37  C   UNL A   1      40.307  25.168  26.165  1.00  0.00     0.014 A 
ATOM     38  C   UNL A   1      39.184  25.483  28.705  1.00  0.00     0.010 A 
ATOM     39  C   UNL A   1      40.585  26.307  26.921  1.00  0.00     0.010 A 
ATOM     40  C   UNL A   1      40.048  26.471  28.209  1.00  0.00    -0.014 A 
BRANCH  40  41
ATOM     41  C   UNL A   1      40.427  27.675  29.007  1.00  0.00     0.031 A 
ATOM     42  C   UNL A   1      41.714  27.680  29.793  1.00  0.00     0.074 A 
ATOM     43  C   UNL A   1      39.578  28.719  29.115  1.00  0.00     0.049 A 
ATOM     44  N   UNL A   1      42.146  28.553  30.666  1.00  0.00    -0.248 NA
ATOM     45  C   UNL A   1      42.618  26.533  29.598  1.00  0.00     0.031 C 
ATOM     46  C   UNL A   1      38.279  28.834  28.447  1.00  0.00     0.029 A 
ATOM     47  N   UNL A   1      39.670  29.881  29.847  1.00  0.00    -0.354 N 
ATOM     48  C   UNL A   1      43.346  28.045  31.151  1.00  0.00     0.074 A 
ATOM     49  C   UNL A   1      43.558  26.770  30.502  1.00  0.00     0.031 C 
ATOM     50  C   UNL A   1      37.710  30.005  28.780  1.00  0.00     0.029 A 
ATOM     51  C   UNL A   1      38.574  30.706  29.725  1.00  0.00     0.049 A 
ATOM     52  H   UNL A   1      40.450  30.103  30.405  1.00  0.00     0.167 HD
ATOM     53  C   UNL A   1      44.203  28.596  32.042  1.00  0.00     0.037 A 
ATOM     54  C   UNL A   1      38.285  31.883  30.319  1.00  0.00     0.037 A 
ATOM     55  C   UNL A   1      44.029  29.896  32.635  1.00  0.00     0.049 A 
ATOM     56  C   UNL A   1      39.265  32.480  31.299  1.00  0.00     0.074 A 
ATOM     57  C   UNL A   1      44.897  30.575  33.474  1.00  0.00     0.029 A 
ATOM     58  N   UNL A   1      42.926  30.713  32.452  1.00  0.00    -0.354 N 
ATOM     59  N   UNL A   1      40.427  32.014  31.688  1.00  0.00    -0.248 NA
ATOM     60  C   UNL A   1      38.895  33.761  31.923  1.00  0.00     0.031 C 
ATOM     61  C   UNL A   1      44.296  31.784  33.836  1.00  0.00     0.029 A 
ATOM     62  C   UNL A   1      43.079  31.880  33.181  1.00  0.00     0.049 A 
ATOM     63  H   UNL A   1      42.149  30.496  31.887  1.00  0.00     0.167 HD
ATOM     64  C   UNL A   1      40.944  32.966  32.563  1.00  0.00     0.074 A 
ATOM     65  C   UNL A   1      39.969  34.030  32.652  1.00  0.00     0.031 C 
ATOM     66  C   UNL A   1      42.125  32.957  33.227  1.00  0.00     0.037 A 
BRANCH  53  67
ATOM     67  C   UNL A   1      45.423  27.811  32.434  1.00  0.00     0.058 A 
ATOM     68  C   UNL A   1      45.439  26.987  33.570  1.00  0.00     0.135 A 
ATOM     69  C   UNL A   1      46.563  27.818  31.613  1.00  0.00     0.135 A 
ATOM     70  F   UNL A   1      44.380  26.953  34.394  1.00  0.00    -0.206 F 
ATOM     71  C   UNL A   1      46.546  26.208  33.886  1.00  0.00     0.059 A 
ATOM     72  C   UNL A   1      47.672  27.026  31.894  1.00  0.00     0.059 A 
ATOM     73  F   UNL A   1      46.600  28.590  30.515  1.00  0.00    -0.206 F 
ATOM     74  C   UNL A   1      47.657  26.230  33.038  1.00  0.00     0.060 A 
BRANCH  74  75
ATOM     75  S   UNL A   1      49.070  25.184  33.445  1.00  0.00     0.124 S 
ATOM     76  O   UNL A   1      49.758  26.002  34.440  1.00  0.00    -0.237 OA
ATOM     77  O   UNL A   1      48.429  23.975  33.951  1.00  0.00    -0.237 OA
ATOM     78  O   UNL A   1      49.763  25.038  32.168  1.00  0.00    -0.744 OA
ENDBRANCH  74  75
ENDBRANCH  53  67
BRANCH  54  79
ATOM     79  C   UNL A   1      37.015  32.597  30.009  1.00  0.00     0.058 A 
ATOM     80  C   UNL A   1      36.968  33.579  29.007  1.00  0.00     0.135 A 
ATOM     81  C   UNL A   1      35.838  32.347  30.731  1.00  0.00     0.135 A 
ATOM     82  F   UNL A   1      38.070  33.862  28.294  1.00  0.00    -0.206 F 
ATOM     83  C   UNL A   1      35.814  34.312  28.755  1.00  0.00     0.059 A 
ATOM     84  C   UNL A   1      34.661  33.048  30.478  1.00  0.00     0.059 A 
ATOM     85  F   UNL A   1      35.822  31.407  31.689  1.00  0.00    -0.206 F 
ATOM     86  C   UNL A   1      34.666  34.042  29.500  1.00  0.00     0.060 A 
BRANCH  86  87
ATOM     87  S   UNL A   1      33.168  34.994  29.163  1.00  0.00     0.124 S 
ATOM     88  O   UNL A   1      32.524  34.175  28.145  1.00  0.00    -0.237 OA
ATOM     89  O   UNL A   1      32.519  35.019  30.471  1.00  0.00    -0.237 OA
ATOM     90  O   UNL A   1      33.686  36.280  28.706  1.00  0.00    -0.744 OA
ENDBRANCH  86  87
ENDBRANCH  54  79
BRANCH  66  91
ATOM     91  C   UNL A   1      42.484  34.156  34.058  1.00  0.00     0.058 A 
ATOM     92  C   UNL A   1      42.282  34.185  35.445  1.00  0.00     0.135 A 
ATOM     93  C   UNL A   1      43.150  35.244  33.468  1.00  0.00     0.135 A 
ATOM     94  F   UNL A   1      41.644  33.174  36.056  1.00  0.00    -0.206 F 
ATOM     95  C   UNL A   1      42.733  35.249  36.221  1.00  0.00     0.059 A 
ATOM     96  C   UNL A   1      43.630  36.305  34.227  1.00  0.00     0.059 A 
ATOM     97  F   UNL A   1      43.374  35.261  32.144  1.00  0.00    -0.206 F 
ATOM     98  C   UNL A   1      43.417  36.299  35.605  1.00  0.00     0.060 A 
BRANCH  98  99
ATOM     99  S   UNL A   1      44.077  37.626  36.635  1.00  0.00     0.124 S 
ATOM    100  O   UNL A   1      44.085  38.748  35.702  1.00  0.00    -0.237 OA
ATOM    101  O   UNL A   1      43.094  37.704  37.711  1.00  0.00    -0.237 OA
ATOM    102  O   UNL A   1      45.392  37.130  37.030  1.00  0.00    -0.744 OA
ENDBRANCH  98  99
ENDBRANCH  66  91
ENDBRANCH  40  41
ENDBRANCH  32  35
ENDBRANCH  30  31
ENDBRANCH  29  30
ENDBRANCH   1  29
TORSDOF 18
ENDMDL
