MODEL 1
REMARK VINA RESULT:     -11.7      0.000      0.000
REMARK SMILES Nc1cc(Br)ccc1C(=O)NC1(C(=O)NCCCCCCNC(=O)c2ccc(-c3c4nc(c(-c5c(F)cc(S(=O)(=O)[O-])cc5F)c5ccc([nH]5)c(-c5c(F)cc(S(=O)(=O)[O-])cc5F)c5nc(c(-c6c(F)cc(S(=O)(=O)[O-])cc6F)c6ccc3[nH]6)C=C5)C=C4)cc2)CC1
REMARK SMILES IDX 18 1 17 2 16 3 15 4 13 5 14 6 12 8 91 9 92 10 11 11 9 12
REMARK SMILES IDX 10 13 8 15 2 16 3 17 4 18 7 19 5 20 6 21 1 22 19 25 20 26
REMARK SMILES IDX 21 27 22 28 23 29 24 31 25 32 26 33 90 34 27 35 89 36 28 37
REMARK SMILES IDX 29 38 30 39 83 40 31 41 88 42 82 43 84 44 32 45 87 46 81 47
REMARK SMILES IDX 80 48 33 50 67 51 46 52 66 53 47 54 50 55 65 56 85 57 48 58
REMARK SMILES IDX 49 59 64 61 86 62 51 63 34 64 35 65 44 66 36 67 37 68 43 69
REMARK SMILES IDX 45 70 38 71 39 72 40 73 41 74 42 75 68 76 69 77 78 78 70 79
REMARK SMILES IDX 71 80 77 81 79 82 72 83 73 84 74 85 75 86 76 87 52 88 53 89
REMARK SMILES IDX 62 90 54 91 55 92 61 93 63 94 56 95 57 96 58 97 59 98 60 99
REMARK H PARENT 15 7 11 14 1 23 1 24 22 30 84 49 50 60
REMARK Flexibility Score: inf
ROOT
ATOM      1  C   UNL A   1      36.879  23.170  25.560  1.00  0.00     0.002 C 
ENDROOT
BRANCH   1   2
ATOM      2  C   UNL A   1      37.019  21.956  24.627  1.00  0.00     0.021 C 
BRANCH   2   3
ATOM      3  C   UNL A   1      36.096  20.777  24.939  1.00  0.00     0.116 C 
BRANCH   3   4
ATOM      4  N   UNL A   1      35.354  21.017  26.155  1.00  0.00    -0.354 N 
ATOM      5  C   UNL A   1      34.054  21.277  26.459  1.00  0.00     0.245 C 
ATOM      6  O   UNL A   1      33.817  21.403  27.666  1.00  0.00    -0.272 OA
ATOM      7  H   UNL A   1      35.926  20.984  26.955  1.00  0.00     0.163 HD
BRANCH   5   8
ATOM      8  C   UNL A   1      32.871  21.383  25.493  1.00  0.00     0.119 C 
ATOM      9  C   UNL A   1      32.551  20.049  24.801  1.00  0.00     0.041 C 
ATOM     10  C   UNL A   1      32.852  21.256  23.986  1.00  0.00     0.041 C 
BRANCH   8  11
ATOM     11  N   UNL A   1      31.764  22.058  26.153  1.00  0.00    -0.338 N 
ATOM     12  C   UNL A   1      31.510  23.383  26.410  1.00  0.00     0.254 C 
ATOM     13  O   UNL A   1      30.730  23.661  27.324  1.00  0.00    -0.269 OA
ATOM     14  H   UNL A   1      31.062  21.448  26.477  1.00  0.00     0.164 HD
BRANCH  12  15
ATOM     15  C   UNL A   1      31.986  24.493  25.548  1.00  0.00     0.062 A 
ATOM     16  C   UNL A   1      31.423  24.921  24.334  1.00  0.00     0.045 A 
ATOM     17  C   UNL A   1      31.965  26.068  23.724  1.00  0.00     0.042 A 
ATOM     18  C   UNL A   1      33.118  26.679  24.224  1.00  0.00     0.020 A 
ATOM     19  C   UNL A   1      33.173  25.098  26.018  1.00  0.00     0.017 A 
ATOM     20  Br  UNL A   1      33.848  28.187  23.345  1.00  0.00    -0.051 Br
ATOM     21  C   UNL A   1      33.747  26.178  25.354  1.00  0.00     0.016 A 
BRANCH  16  22
ATOM     22  N   UNL A   1      30.320  24.323  23.732  1.00  0.00    -0.398 N 
ATOM     23  H   UNL A   1      30.374  23.391  23.423  1.00  0.00     0.156 HD
ATOM     24  H   UNL A   1      29.486  24.834  23.616  1.00  0.00     0.156 HD
ENDBRANCH  16  22
ENDBRANCH  12  15
ENDBRANCH   8  11
ENDBRANCH   5   8
ENDBRANCH   3   4
ENDBRANCH   2   3
ENDBRANCH   1   2
BRANCH   1  25
ATOM     25  C   UNL A   1      38.185  23.728  26.136  1.00  0.00     0.002 C 
BRANCH  25  26
ATOM     26  C   UNL A   1      39.179  22.685  26.643  1.00  0.00     0.021 C 
BRANCH  26  27
ATOM     27  C   UNL A   1      40.553  23.230  27.010  1.00  0.00     0.116 C 
BRANCH  27  28
ATOM     28  N   UNL A   1      41.147  24.029  25.951  1.00  0.00    -0.352 N 
ATOM     29  C   UNL A   1      41.519  25.354  25.984  1.00  0.00     0.251 C 
ATOM     30  H   UNL A   1      41.303  23.562  25.097  1.00  0.00     0.163 HD
ATOM     31  O   UNL A   1      41.884  25.925  24.960  1.00  0.00    -0.269 OA
BRANCH  29  32
ATOM     32  C   UNL A   1      41.434  26.090  27.263  1.00  0.00     0.039 A 
ATOM     33  C   UNL A   1      40.291  25.994  28.059  1.00  0.00     0.014 A 
ATOM     34  C   UNL A   1      42.488  26.929  27.637  1.00  0.00     0.014 A 
ATOM     35  C   UNL A   1      40.133  26.852  29.142  1.00  0.00     0.010 A 
ATOM     36  C   UNL A   1      42.356  27.737  28.770  1.00  0.00     0.010 A 
ATOM     37  C   UNL A   1      41.161  27.736  29.507  1.00  0.00    -0.014 A 
BRANCH  37  38
ATOM     38  C   UNL A   1      40.971  28.653  30.661  1.00  0.00     0.031 A 
ATOM     39  C   UNL A   1      41.902  28.604  31.844  1.00  0.00     0.074 A 
ATOM     40  C   UNL A   1      39.980  29.564  30.619  1.00  0.00     0.049 A 
ATOM     41  N   UNL A   1      41.859  29.294  32.955  1.00  0.00    -0.248 NA
ATOM     42  C   UNL A   1      43.029  27.660  31.770  1.00  0.00     0.031 C 
ATOM     43  C   UNL A   1      39.035  29.732  29.512  1.00  0.00     0.029 A 
ATOM     44  N   UNL A   1      39.612  30.534  31.517  1.00  0.00    -0.354 N 
ATOM     45  C   UNL A   1      42.939  28.861  33.717  1.00  0.00     0.074 A 
ATOM     46  C   UNL A   1      43.607  27.832  32.952  1.00  0.00     0.031 C 
ATOM     47  C   UNL A   1      38.227  30.770  29.775  1.00  0.00     0.029 A 
ATOM     48  C   UNL A   1      38.550  31.298  31.095  1.00  0.00     0.049 A 
ATOM     49  H   UNL A   1      40.065  30.669  32.380  1.00  0.00     0.167 HD
ATOM     50  C   UNL A   1      43.339  29.292  34.939  1.00  0.00     0.037 A 
ATOM     51  C   UNL A   1      37.896  32.301  31.711  1.00  0.00     0.037 A 
ATOM     52  C   UNL A   1      42.674  30.326  35.691  1.00  0.00     0.049 A 
ATOM     53  C   UNL A   1      38.326  32.720  33.087  1.00  0.00     0.074 A 
ATOM     54  C   UNL A   1      42.985  30.811  36.950  1.00  0.00     0.029 A 
ATOM     55  N   UNL A   1      41.572  31.043  35.249  1.00  0.00    -0.354 N 
ATOM     56  N   UNL A   1      39.316  32.262  33.814  1.00  0.00    -0.248 NA
ATOM     57  C   UNL A   1      37.543  33.781  33.732  1.00  0.00     0.031 C 
ATOM     58  C   UNL A   1      42.056  31.803  37.279  1.00  0.00     0.029 A 
ATOM     59  C   UNL A   1      41.191  31.966  36.210  1.00  0.00     0.049 A 
ATOM     60  H   UNL A   1      41.127  30.916  34.381  1.00  0.00     0.167 HD
ATOM     61  C   UNL A   1      39.288  32.994  34.995  1.00  0.00     0.074 A 
ATOM     62  C   UNL A   1      38.190  33.931  34.880  1.00  0.00     0.031 C 
ATOM     63  C   UNL A   1      40.099  32.896  36.076  1.00  0.00     0.037 A 
BRANCH  50  64
ATOM     64  C   UNL A   1      44.551  28.645  35.550  1.00  0.00     0.058 A 
ATOM     65  C   UNL A   1      45.839  29.170  35.354  1.00  0.00     0.135 A 
ATOM     66  C   UNL A   1      44.419  27.532  36.396  1.00  0.00     0.135 A 
ATOM     67  F   UNL A   1      46.024  30.221  34.540  1.00  0.00    -0.206 F 
ATOM     68  C   UNL A   1      46.954  28.607  35.968  1.00  0.00     0.059 A 
ATOM     69  C   UNL A   1      45.519  26.966  37.037  1.00  0.00     0.059 A 
ATOM     70  F   UNL A   1      43.211  26.990  36.615  1.00  0.00    -0.206 F 
ATOM     71  C   UNL A   1      46.783  27.507  36.811  1.00  0.00     0.060 A 
BRANCH  71  72
ATOM     72  S   UNL A   1      48.239  26.805  37.615  1.00  0.00     0.124 S 
ATOM     73  O   UNL A   1      47.774  25.458  37.932  1.00  0.00    -0.237 OA
ATOM     74  O   UNL A   1      49.249  26.894  36.564  1.00  0.00    -0.237 OA
ATOM     75  O   UNL A   1      48.453  27.681  38.761  1.00  0.00    -0.744 OA
ENDBRANCH  71  72
ENDBRANCH  50  64
BRANCH  51  76
ATOM     76  C   UNL A   1      36.763  32.973  31.023  1.00  0.00     0.058 A 
ATOM     77  C   UNL A   1      35.439  32.713  31.401  1.00  0.00     0.135 A 
ATOM     78  C   UNL A   1      36.982  33.908  30.000  1.00  0.00     0.135 A 
ATOM     79  F   UNL A   1      35.180  31.821  32.371  1.00  0.00    -0.206 F 
ATOM     80  C   UNL A   1      34.368  33.350  30.784  1.00  0.00     0.059 A 
ATOM     81  C   UNL A   1      35.930  34.578  29.385  1.00  0.00     0.059 A 
ATOM     82  F   UNL A   1      38.234  34.201  29.613  1.00  0.00    -0.206 F 
ATOM     83  C   UNL A   1      34.625  34.285  29.779  1.00  0.00     0.060 A 
BRANCH  83  84
ATOM     84  S   UNL A   1      33.232  35.153  29.027  1.00  0.00     0.124 S 
ATOM     85  O   UNL A   1      33.891  36.313  28.442  1.00  0.00    -0.237 OA
ATOM     86  O   UNL A   1      32.725  34.161  28.084  1.00  0.00    -0.237 OA
ATOM     87  O   UNL A   1      32.356  35.428  30.164  1.00  0.00    -0.744 OA
ENDBRANCH  83  84
ENDBRANCH  51  76
BRANCH  63  88
ATOM     88  C   UNL A   1      39.853  33.854  37.206  1.00  0.00     0.058 A 
ATOM     89  C   UNL A   1      40.471  35.112  37.252  1.00  0.00     0.135 A 
ATOM     90  C   UNL A   1      38.957  33.522  38.234  1.00  0.00     0.135 A 
ATOM     91  F   UNL A   1      41.342  35.472  36.296  1.00  0.00    -0.206 F 
ATOM     92  C   UNL A   1      40.228  36.001  38.293  1.00  0.00     0.059 A 
ATOM     93  C   UNL A   1      38.681  34.404  39.274  1.00  0.00     0.059 A 
ATOM     94  F   UNL A   1      38.333  32.333  38.230  1.00  0.00    -0.206 F 
ATOM     95  C   UNL A   1      39.332  35.637  39.301  1.00  0.00     0.060 A 
BRANCH  95  96
ATOM     96  S   UNL A   1      39.007  36.809  40.635  1.00  0.00     0.124 S 
ATOM     97  O   UNL A   1      38.278  35.977  41.586  1.00  0.00    -0.237 OA
ATOM     98  O   UNL A   1      40.354  37.204  41.039  1.00  0.00    -0.237 OA
ATOM     99  O   UNL A   1      38.224  37.856  39.984  1.00  0.00    -0.744 OA
ENDBRANCH  95  96
ENDBRANCH  63  88
ENDBRANCH  37  38
ENDBRANCH  29  32
ENDBRANCH  27  28
ENDBRANCH  26  27
ENDBRANCH  25  26
ENDBRANCH   1  25
TORSDOF 19
ENDMDL
MODEL 2
REMARK VINA RESULT:     -11.6      0.514      8.317
REMARK SMILES Nc1cc(Br)ccc1C(=O)NC1(C(=O)NCCCCCCNC(=O)c2ccc(-c3c4nc(c(-c5c(F)cc(S(=O)(=O)[O-])cc5F)c5ccc([nH]5)c(-c5c(F)cc(S(=O)(=O)[O-])cc5F)c5nc(c(-c6c(F)cc(S(=O)(=O)[O-])cc6F)c6ccc3[nH]6)C=C5)C=C4)cc2)CC1
REMARK SMILES IDX 18 1 17 2 16 3 15 4 13 5 14 6 12 8 91 9 92 10 11 11 9 12
REMARK SMILES IDX 10 13 8 15 2 16 3 17 4 18 7 19 5 20 6 21 1 22 19 25 20 26
REMARK SMILES IDX 21 27 22 28 23 29 24 31 25 32 26 33 90 34 27 35 89 36 28 37
REMARK SMILES IDX 29 38 30 39 83 40 31 41 88 42 82 43 84 44 32 45 87 46 81 47
REMARK SMILES IDX 80 48 33 50 67 51 46 52 66 53 47 54 50 55 65 56 85 57 48 58
REMARK SMILES IDX 49 59 64 61 86 62 51 63 34 64 35 65 44 66 36 67 37 68 43 69
REMARK SMILES IDX 45 70 38 71 39 72 40 73 41 74 42 75 68 76 69 77 78 78 70 79
REMARK SMILES IDX 71 80 77 81 79 82 72 83 73 84 74 85 75 86 76 87 52 88 53 89
REMARK SMILES IDX 62 90 54 91 55 92 61 93 63 94 56 95 57 96 58 97 59 98 60 99
REMARK H PARENT 15 7 11 14 1 23 1 24 22 30 84 49 50 60
REMARK Flexibility Score: inf
ROOT
ATOM      1  C   UNL A   1      38.218  23.578  26.049  1.00  0.00     0.002 C 
ENDROOT
BRANCH   1   2
ATOM      2  C   UNL A   1      36.927  23.249  25.282  1.00  0.00     0.021 C 
BRANCH   2   3
ATOM      3  C   UNL A   1      36.432  21.808  25.416  1.00  0.00     0.116 C 
BRANCH   3   4
ATOM      4  N   UNL A   1      35.565  21.669  26.562  1.00  0.00    -0.354 N 
ATOM      5  C   UNL A   1      34.224  21.542  26.751  1.00  0.00     0.245 C 
ATOM      6  O   UNL A   1      33.873  21.424  27.930  1.00  0.00    -0.272 OA
ATOM      7  H   UNL A   1      36.064  21.665  27.410  1.00  0.00     0.163 HD
BRANCH   5   8
ATOM      8  C   UNL A   1      33.131  21.486  25.680  1.00  0.00     0.119 C 
ATOM      9  C   UNL A   1      33.006  20.097  25.035  1.00  0.00     0.041 C 
ATOM     10  C   UNL A   1      33.264  21.289  24.186  1.00  0.00     0.041 C 
BRANCH   8  11
ATOM     11  N   UNL A   1      31.908  22.076  26.203  1.00  0.00    -0.338 N 
ATOM     12  C   UNL A   1      31.516  23.379  26.388  1.00  0.00     0.254 C 
ATOM     13  O   UNL A   1      30.625  23.608  27.210  1.00  0.00    -0.269 OA
ATOM     14  H   UNL A   1      31.231  21.414  26.475  1.00  0.00     0.164 HD
BRANCH  12  15
ATOM     15  C   UNL A   1      31.981  24.505  25.542  1.00  0.00     0.062 A 
ATOM     16  C   UNL A   1      31.431  24.927  24.320  1.00  0.00     0.045 A 
ATOM     17  C   UNL A   1      31.957  26.090  23.727  1.00  0.00     0.042 A 
ATOM     18  C   UNL A   1      33.085  26.726  24.252  1.00  0.00     0.020 A 
ATOM     19  C   UNL A   1      33.144  25.136  26.037  1.00  0.00     0.017 A 
ATOM     20  Br  UNL A   1      33.794  28.256  23.395  1.00  0.00    -0.051 Br
ATOM     21  C   UNL A   1      33.704  26.233  25.390  1.00  0.00     0.016 A 
BRANCH  16  22
ATOM     22  N   UNL A   1      30.354  24.306  23.693  1.00  0.00    -0.398 N 
ATOM     23  H   UNL A   1      30.439  23.995  22.763  1.00  0.00     0.156 HD
ATOM     24  H   UNL A   1      29.509  24.176  24.181  1.00  0.00     0.156 HD
ENDBRANCH  16  22
ENDBRANCH  12  15
ENDBRANCH   8  11
ENDBRANCH   5   8
ENDBRANCH   3   4
ENDBRANCH   2   3
ENDBRANCH   1   2
BRANCH   1  25
ATOM     25  C   UNL A   1      39.229  22.435  26.184  1.00  0.00     0.002 C 
BRANCH  25  26
ATOM     26  C   UNL A   1      40.111  22.481  27.430  1.00  0.00     0.021 C 
BRANCH  26  27
ATOM     27  C   UNL A   1      41.484  23.109  27.224  1.00  0.00     0.116 C 
BRANCH  27  28
ATOM     28  N   UNL A   1      41.530  24.005  26.080  1.00  0.00    -0.352 N 
ATOM     29  C   UNL A   1      41.417  25.377  26.062  1.00  0.00     0.251 C 
ATOM     30  H   UNL A   1      41.660  23.575  25.203  1.00  0.00     0.163 HD
ATOM     31  O   UNL A   1      41.341  25.982  24.997  1.00  0.00    -0.269 OA
BRANCH  29  32
ATOM     32  C   UNL A   1      41.348  26.108  27.346  1.00  0.00     0.039 A 
ATOM     33  C   UNL A   1      40.176  26.089  28.107  1.00  0.00     0.014 A 
ATOM     34  C   UNL A   1      42.447  26.864  27.759  1.00  0.00     0.014 A 
ATOM     35  C   UNL A   1      40.049  26.947  29.193  1.00  0.00     0.010 A 
ATOM     36  C   UNL A   1      42.341  27.670  28.896  1.00  0.00     0.010 A 
ATOM     37  C   UNL A   1      41.127  27.751  29.597  1.00  0.00    -0.014 A 
BRANCH  37  38
ATOM     38  C   UNL A   1      40.970  28.671  30.754  1.00  0.00     0.031 A 
ATOM     39  C   UNL A   1      39.904  29.735  30.751  1.00  0.00     0.074 A 
ATOM     40  C   UNL A   1      41.764  28.514  31.830  1.00  0.00     0.049 A 
ATOM     41  N   UNL A   1      39.653  30.652  31.650  1.00  0.00    -0.248 NA
ATOM     42  C   UNL A   1      39.002  29.775  29.588  1.00  0.00     0.031 C 
ATOM     43  C   UNL A   1      42.810  27.496  31.966  1.00  0.00     0.029 A 
ATOM     44  N   UNL A   1      41.806  29.191  33.023  1.00  0.00    -0.354 N 
ATOM     45  C   UNL A   1      38.577  31.385  31.160  1.00  0.00     0.074 A 
ATOM     46  C   UNL A   1      38.236  30.821  29.873  1.00  0.00     0.031 C 
ATOM     47  C   UNL A   1      43.357  27.586  33.187  1.00  0.00     0.029 A 
ATOM     48  C   UNL A   1      42.751  28.708  33.896  1.00  0.00     0.049 A 
ATOM     49  H   UNL A   1      41.215  29.950  33.232  1.00  0.00     0.167 HD
ATOM     50  C   UNL A   1      37.930  32.426  31.739  1.00  0.00     0.037 A 
ATOM     51  C   UNL A   1      43.106  29.131  35.123  1.00  0.00     0.037 A 
ATOM     52  C   UNL A   1      38.269  32.976  33.027  1.00  0.00     0.049 A 
ATOM     53  C   UNL A   1      42.409  30.322  35.716  1.00  0.00     0.074 A 
ATOM     54  C   UNL A   1      37.692  34.049  33.684  1.00  0.00     0.029 A 
ATOM     55  N   UNL A   1      39.266  32.489  33.860  1.00  0.00    -0.354 N 
ATOM     56  N   UNL A   1      41.430  31.036  35.214  1.00  0.00    -0.248 NA
ATOM     57  C   UNL A   1      42.873  30.773  37.034  1.00  0.00     0.031 C 
ATOM     58  C   UNL A   1      38.356  34.227  34.902  1.00  0.00     0.029 A 
ATOM     59  C   UNL A   1      39.320  33.239  35.023  1.00  0.00     0.049 A 
ATOM     60  H   UNL A   1      39.848  31.722  33.654  1.00  0.00     0.167 HD
ATOM     61  C   UNL A   1      41.146  32.009  36.165  1.00  0.00     0.074 A 
ATOM     62  C   UNL A   1      42.050  31.786  37.275  1.00  0.00     0.031 C 
ATOM     63  C   UNL A   1      40.222  32.998  36.121  1.00  0.00     0.037 A 
BRANCH  50  64
ATOM     64  C   UNL A   1      36.788  33.050  30.985  1.00  0.00     0.058 A 
ATOM     65  C   UNL A   1      35.453  32.813  31.349  1.00  0.00     0.135 A 
ATOM     66  C   UNL A   1      37.030  33.948  29.932  1.00  0.00     0.135 A 
ATOM     67  F   UNL A   1      35.165  31.950  32.336  1.00  0.00    -0.206 F 
ATOM     68  C   UNL A   1      34.398  33.438  30.690  1.00  0.00     0.059 A 
ATOM     69  C   UNL A   1      35.991  34.600  29.273  1.00  0.00     0.059 A 
ATOM     70  F   UNL A   1      38.288  34.207  29.542  1.00  0.00    -0.206 F 
ATOM     71  C   UNL A   1      34.678  34.332  29.655  1.00  0.00     0.060 A 
BRANCH  71  72
ATOM     72  S   UNL A   1      33.296  35.148  28.826  1.00  0.00     0.124 S 
ATOM     73  O   UNL A   1      33.986  36.190  28.071  1.00  0.00    -0.237 OA
ATOM     74  O   UNL A   1      32.725  34.064  28.032  1.00  0.00    -0.237 OA
ATOM     75  O   UNL A   1      32.466  35.618  29.929  1.00  0.00    -0.744 OA
ENDBRANCH  71  72
ENDBRANCH  50  64
BRANCH  51  76
ATOM     76  C   UNL A   1      44.177  28.420  35.868  1.00  0.00     0.058 A 
ATOM     77  C   UNL A   1      45.523  28.772  35.700  1.00  0.00     0.135 A 
ATOM     78  C   UNL A   1      43.874  27.398  36.781  1.00  0.00     0.135 A 
ATOM     79  F   UNL A   1      45.860  29.739  34.832  1.00  0.00    -0.206 F 
ATOM     80  C   UNL A   1      46.535  28.132  36.406  1.00  0.00     0.059 A 
ATOM     81  C   UNL A   1      44.866  26.761  37.519  1.00  0.00     0.059 A 
ATOM     82  F   UNL A   1      42.598  27.036  36.988  1.00  0.00    -0.206 F 
ATOM     83  C   UNL A   1      46.196  27.130  37.318  1.00  0.00     0.060 A 
BRANCH  83  84
ATOM     84  S   UNL A   1      47.512  26.348  38.275  1.00  0.00     0.124 S 
ATOM     85  O   UNL A   1      48.056  25.405  37.307  1.00  0.00    -0.237 OA
ATOM     86  O   UNL A   1      48.364  27.485  38.611  1.00  0.00    -0.237 OA
ATOM     87  O   UNL A   1      46.798  25.757  39.403  1.00  0.00    -0.744 OA
ENDBRANCH  83  84
ENDBRANCH  51  76
BRANCH  63  88
ATOM     88  C   UNL A   1      40.114  33.891  37.324  1.00  0.00     0.058 A 
ATOM     89  C   UNL A   1      39.231  33.604  38.375  1.00  0.00     0.135 A 
ATOM     90  C   UNL A   1      40.934  35.024  37.442  1.00  0.00     0.135 A 
ATOM     91  F   UNL A   1      38.421  32.537  38.305  1.00  0.00    -0.206 F 
ATOM     92  C   UNL A   1      39.146  34.426  39.493  1.00  0.00     0.059 A 
ATOM     93  C   UNL A   1      40.882  35.847  38.561  1.00  0.00     0.059 A 
ATOM     94  F   UNL A   1      41.802  35.335  36.466  1.00  0.00    -0.206 F 
ATOM     95  C   UNL A   1      39.975  35.547  39.576  1.00  0.00     0.060 A 
BRANCH  95  96
ATOM     96  S   UNL A   1      39.872  36.593  41.044  1.00  0.00     0.124 S 
ATOM     97  O   UNL A   1      38.694  37.402  40.746  1.00  0.00    -0.237 OA
ATOM     98  O   UNL A   1      39.716  35.615  42.116  1.00  0.00    -0.237 OA
ATOM     99  O   UNL A   1      41.144  37.310  41.040  1.00  0.00    -0.744 OA
ENDBRANCH  95  96
ENDBRANCH  63  88
ENDBRANCH  37  38
ENDBRANCH  29  32
ENDBRANCH  27  28
ENDBRANCH  26  27
ENDBRANCH  25  26
ENDBRANCH   1  25
TORSDOF 19
ENDMDL
MODEL 3
REMARK VINA RESULT:     -11.4      6.095      8.238
REMARK SMILES Nc1cc(Br)ccc1C(=O)NC1(C(=O)NCCCCCCNC(=O)c2ccc(-c3c4nc(c(-c5c(F)cc(S(=O)(=O)[O-])cc5F)c5ccc([nH]5)c(-c5c(F)cc(S(=O)(=O)[O-])cc5F)c5nc(c(-c6c(F)cc(S(=O)(=O)[O-])cc6F)c6ccc3[nH]6)C=C5)C=C4)cc2)CC1
REMARK SMILES IDX 18 1 17 2 16 3 15 4 13 5 14 6 12 8 91 9 92 10 11 11 9 12
REMARK SMILES IDX 10 13 8 15 2 16 3 17 4 18 7 19 5 20 6 21 1 22 19 25 20 26
REMARK SMILES IDX 21 27 22 28 23 29 24 31 25 32 26 33 90 34 27 35 89 36 28 37
REMARK SMILES IDX 29 38 30 39 83 40 31 41 88 42 82 43 84 44 32 45 87 46 81 47
REMARK SMILES IDX 80 48 33 50 67 51 46 52 66 53 47 54 50 55 65 56 85 57 48 58
REMARK SMILES IDX 49 59 64 61 86 62 51 63 34 64 35 65 44 66 36 67 37 68 43 69
REMARK SMILES IDX 45 70 38 71 39 72 40 73 41 74 42 75 68 76 69 77 78 78 70 79
REMARK SMILES IDX 71 80 77 81 79 82 72 83 73 84 74 85 75 86 76 87 52 88 53 89
REMARK SMILES IDX 62 90 54 91 55 92 61 93 63 94 56 95 57 96 58 97 59 98 60 99
REMARK H PARENT 15 7 11 14 1 23 1 24 22 30 84 49 50 60
REMARK Flexibility Score: inf
ROOT
ATOM      1  C   UNL A   1      38.028  22.700  25.405  1.00  0.00     0.002 C 
ENDROOT
BRANCH   1   2
ATOM      2  C   UNL A   1      36.944  23.710  25.817  1.00  0.00     0.021 C 
BRANCH   2   3
ATOM      3  C   UNL A   1      35.509  23.314  25.462  1.00  0.00     0.116 C 
BRANCH   3   4
ATOM      4  N   UNL A   1      34.937  22.485  26.497  1.00  0.00    -0.354 N 
ATOM      5  C   UNL A   1      33.780  21.785  26.646  1.00  0.00     0.245 C 
ATOM      6  O   UNL A   1      33.679  21.168  27.712  1.00  0.00    -0.272 OA
ATOM      7  H   UNL A   1      35.524  22.408  27.282  1.00  0.00     0.163 HD
BRANCH   5   8
ATOM      8  C   UNL A   1      32.636  21.646  25.639  1.00  0.00     0.119 C 
ATOM      9  C   UNL A   1      32.500  20.216  25.092  1.00  0.00     0.041 C 
ATOM     10  C   UNL A   1      32.696  21.354  24.156  1.00  0.00     0.041 C 
BRANCH   8  11
ATOM     11  N   UNL A   1      31.431  22.253  26.185  1.00  0.00    -0.338 N 
ATOM     12  C   UNL A   1      31.074  23.560  26.406  1.00  0.00     0.254 C 
ATOM     13  O   UNL A   1      30.194  23.791  27.240  1.00  0.00    -0.269 OA
ATOM     14  H   UNL A   1      30.740  21.602  26.446  1.00  0.00     0.164 HD
BRANCH  12  15
ATOM     15  C   UNL A   1      31.562  24.695  25.585  1.00  0.00     0.062 A 
ATOM     16  C   UNL A   1      31.182  25.011  24.270  1.00  0.00     0.045 A 
ATOM     17  C   UNL A   1      31.684  26.199  23.706  1.00  0.00     0.042 A 
ATOM     18  C   UNL A   1      32.644  26.968  24.369  1.00  0.00     0.020 A 
ATOM     19  C   UNL A   1      32.561  25.461  26.225  1.00  0.00     0.017 A 
ATOM     20  Br  UNL A   1      33.334  28.529  23.555  1.00  0.00    -0.051 Br
ATOM     21  C   UNL A   1      33.112  26.585  25.617  1.00  0.00     0.016 A 
BRANCH  16  22
ATOM     22  N   UNL A   1      30.288  24.259  23.514  1.00  0.00    -0.398 N 
ATOM     23  H   UNL A   1      29.661  24.708  22.903  1.00  0.00     0.156 HD
ATOM     24  H   UNL A   1      30.285  23.277  23.590  1.00  0.00     0.156 HD
ENDBRANCH  16  22
ENDBRANCH  12  15
ENDBRANCH   8  11
ENDBRANCH   5   8
ENDBRANCH   3   4
ENDBRANCH   2   3
ENDBRANCH   1   2
BRANCH   1  25
ATOM     25  C   UNL A   1      37.530  21.417  24.732  1.00  0.00     0.002 C 
BRANCH  25  26
ATOM     26  C   UNL A   1      38.244  20.134  25.154  1.00  0.00     0.021 C 
BRANCH  26  27
ATOM     27  C   UNL A   1      39.452  20.337  26.059  1.00  0.00     0.116 C 
BRANCH  27  28
ATOM     28  N   UNL A   1      40.380  19.219  26.022  1.00  0.00    -0.352 N 
ATOM     29  C   UNL A   1      41.754  19.243  26.114  1.00  0.00     0.251 C 
ATOM     30  H   UNL A   1      39.975  18.328  25.918  1.00  0.00     0.163 HD
ATOM     31  O   UNL A   1      42.409  18.221  25.930  1.00  0.00    -0.269 OA
BRANCH  29  32
ATOM     32  C   UNL A   1      42.431  20.526  26.398  1.00  0.00     0.039 A 
ATOM     33  C   UNL A   1      42.472  21.029  27.700  1.00  0.00     0.014 A 
ATOM     34  C   UNL A   1      42.978  21.257  25.340  1.00  0.00     0.014 A 
ATOM     35  C   UNL A   1      42.916  22.329  27.921  1.00  0.00     0.010 A 
ATOM     36  C   UNL A   1      43.492  22.535  25.578  1.00  0.00     0.010 A 
ATOM     37  C   UNL A   1      43.426  23.098  26.863  1.00  0.00    -0.014 A 
BRANCH  37  38
ATOM     38  C   UNL A   1      43.886  24.488  27.115  1.00  0.00     0.031 A 
ATOM     39  C   UNL A   1      45.324  24.875  26.892  1.00  0.00     0.074 A 
ATOM     40  C   UNL A   1      42.991  25.416  27.506  1.00  0.00     0.049 A 
ATOM     41  N   UNL A   1      45.911  26.026  27.105  1.00  0.00    -0.248 NA
ATOM     42  C   UNL A   1      46.222  23.837  26.359  1.00  0.00     0.031 C 
ATOM     43  C   UNL A   1      41.562  25.169  27.722  1.00  0.00     0.029 A 
ATOM     44  N   UNL A   1      43.139  26.753  27.770  1.00  0.00    -0.354 N 
ATOM     45  C   UNL A   1      47.243  25.849  26.747  1.00  0.00     0.074 A 
ATOM     46  C   UNL A   1      47.385  24.474  26.323  1.00  0.00     0.031 C 
ATOM     47  C   UNL A   1      40.959  26.324  28.040  1.00  0.00     0.029 A 
ATOM     48  C   UNL A   1      41.965  27.378  28.118  1.00  0.00     0.049 A 
ATOM     49  H   UNL A   1      44.004  27.220  27.716  1.00  0.00     0.167 HD
ATOM     50  C   UNL A   1      48.250  26.757  26.762  1.00  0.00     0.037 A 
ATOM     51  C   UNL A   1      41.726  28.653  28.477  1.00  0.00     0.037 A 
ATOM     52  C   UNL A   1      48.098  28.128  27.175  1.00  0.00     0.049 A 
ATOM     53  C   UNL A   1      42.871  29.623  28.539  1.00  0.00     0.074 A 
ATOM     54  C   UNL A   1      49.065  29.116  27.254  1.00  0.00     0.029 A 
ATOM     55  N   UNL A   1      46.901  28.711  27.566  1.00  0.00    -0.354 N 
ATOM     56  N   UNL A   1      44.134  29.424  28.248  1.00  0.00    -0.248 NA
ATOM     57  C   UNL A   1      42.562  30.986  28.990  1.00  0.00     0.031 C 
ATOM     58  C   UNL A   1      48.458  30.289  27.717  1.00  0.00     0.029 A 
ATOM     59  C   UNL A   1      47.105  30.043  27.888  1.00  0.00     0.049 A 
ATOM     60  H   UNL A   1      46.035  28.246  27.609  1.00  0.00     0.167 HD
ATOM     61  C   UNL A   1      44.767  30.642  28.461  1.00  0.00     0.074 A 
ATOM     62  C   UNL A   1      43.747  31.574  28.895  1.00  0.00     0.031 C 
ATOM     63  C   UNL A   1      46.076  30.959  28.311  1.00  0.00     0.037 A 
BRANCH  50  64
ATOM     64  C   UNL A   1      49.614  26.300  26.324  1.00  0.00     0.058 A 
ATOM     65  C   UNL A   1      50.092  26.556  25.029  1.00  0.00     0.135 A 
ATOM     66  C   UNL A   1      50.480  25.661  27.227  1.00  0.00     0.135 A 
ATOM     67  F   UNL A   1      49.299  27.146  24.120  1.00  0.00    -0.206 F 
ATOM     68  C   UNL A   1      51.377  26.186  24.642  1.00  0.00     0.059 A 
ATOM     69  C   UNL A   1      51.777  25.302  26.868  1.00  0.00     0.059 A 
ATOM     70  F   UNL A   1      50.072  25.391  28.477  1.00  0.00    -0.206 F 
ATOM     71  C   UNL A   1      52.213  25.563  25.570  1.00  0.00     0.060 A 
BRANCH  71  72
ATOM     72  S   UNL A   1      53.884  25.110  25.055  1.00  0.00     0.124 S 
ATOM     73  O   UNL A   1      54.674  25.580  26.189  1.00  0.00    -0.237 OA
ATOM     74  O   UNL A   1      53.783  23.661  24.912  1.00  0.00    -0.237 OA
ATOM     75  O   UNL A   1      54.070  25.848  23.811  1.00  0.00    -0.744 OA
ENDBRANCH  71  72
ENDBRANCH  50  64
BRANCH  51  76
ATOM     76  C   UNL A   1      40.342  29.079  28.809  1.00  0.00     0.058 A 
ATOM     77  C   UNL A   1      39.919  29.170  30.142  1.00  0.00     0.135 A 
ATOM     78  C   UNL A   1      39.427  29.430  27.804  1.00  0.00     0.135 A 
ATOM     79  F   UNL A   1      40.758  28.839  31.136  1.00  0.00    -0.206 F 
ATOM     80  C   UNL A   1      38.634  29.589  30.470  1.00  0.00     0.059 A 
ATOM     81  C   UNL A   1      38.145  29.876  28.107  1.00  0.00     0.059 A 
ATOM     82  F   UNL A   1      39.790  29.372  26.513  1.00  0.00    -0.206 F 
ATOM     83  C   UNL A   1      37.756  29.945  29.444  1.00  0.00     0.060 A 
BRANCH  83  84
ATOM     84  S   UNL A   1      36.111  30.546  29.883  1.00  0.00     0.124 S 
ATOM     85  O   UNL A   1      36.276  31.986  29.734  1.00  0.00    -0.237 OA
ATOM     86  O   UNL A   1      35.269  29.891  28.887  1.00  0.00    -0.237 OA
ATOM     87  O   UNL A   1      35.934  30.067  31.252  1.00  0.00    -0.744 OA
ENDBRANCH  83  84
ENDBRANCH  51  76
BRANCH  63  88
ATOM     88  C   UNL A   1      46.473  32.381  28.582  1.00  0.00     0.058 A 
ATOM     89  C   UNL A   1      46.470  33.351  27.568  1.00  0.00     0.135 A 
ATOM     90  C   UNL A   1      46.822  32.786  29.879  1.00  0.00     0.135 A 
ATOM     91  F   UNL A   1      46.151  33.012  26.309  1.00  0.00    -0.206 F 
ATOM     92  C   UNL A   1      46.824  34.670  27.827  1.00  0.00     0.059 A 
ATOM     93  C   UNL A   1      47.158  34.105  30.166  1.00  0.00     0.059 A 
ATOM     94  F   UNL A   1      46.831  31.896  30.885  1.00  0.00    -0.206 F 
ATOM     95  C   UNL A   1      47.168  35.037  29.130  1.00  0.00     0.060 A 
BRANCH  95  96
ATOM     96  S   UNL A   1      47.604  36.758  29.458  1.00  0.00     0.124 S 
ATOM     97  O   UNL A   1      48.678  36.978  28.495  1.00  0.00    -0.237 OA
ATOM     98  O   UNL A   1      46.351  37.456  29.183  1.00  0.00    -0.237 OA
ATOM     99  O   UNL A   1      48.010  36.744  30.861  1.00  0.00    -0.744 OA
ENDBRANCH  95  96
ENDBRANCH  63  88
ENDBRANCH  37  38
ENDBRANCH  29  32
ENDBRANCH  27  28
ENDBRANCH  26  27
ENDBRANCH  25  26
ENDBRANCH   1  25
TORSDOF 19
ENDMDL
