MODEL 1
REMARK VINA RESULT:     -11.6      0.000      0.000
REMARK SMILES O=C(NCCCCCCNC(=O)[C@@H]1C=C[C@H](NC(=O)[C@@H]2Cc3ccccc3O2)C1)c1ccc(-c2c3nc(c(-c4c(F)cc(S(=O)(=O)[O-])cc4F)c4ccc([nH]4)c(-c4c(F)cc(S(=O)(=O)[O-])cc4F)c4nc(c(-c5c(F)cc(S(=O)(=O)[O-])cc5F)c5ccc2[nH]5)C=C4)C=C3)cc1
REMARK SMILES IDX 6 1 5 2 4 3 3 4 1 5 2 6 30 8 31 9 95 10 32 11 94 12 33 13
REMARK SMILES IDX 34 14 35 15 88 16 36 17 93 18 87 19 89 20 37 21 92 22 86 23
REMARK SMILES IDX 85 24 38 26 72 27 51 28 71 29 52 30 55 31 70 32 90 33 53 34
REMARK SMILES IDX 54 35 69 37 91 38 56 39 39 40 40 41 49 42 41 43 42 44 48 45
REMARK SMILES IDX 50 46 43 47 44 48 45 49 46 50 47 51 73 52 74 53 83 54 75 55
REMARK SMILES IDX 76 56 82 57 84 58 77 59 78 60 79 61 80 62 81 63 57 64 58 65
REMARK SMILES IDX 67 66 59 67 60 68 66 69 68 70 61 71 62 72 63 73 64 74 65 75
REMARK SMILES IDX 7 76 8 77 9 78 10 79 11 80 12 82 13 83 14 84 29 85 15 86
REMARK SMILES IDX 16 87 17 88 18 89 19 91 20 92 21 93 28 94 22 95 27 96 23 97
REMARK SMILES IDX 26 98 24 99 25 100
REMARK H PARENT 3 7 89 25 55 36 10 81 17 90
REMARK Flexibility Score: inf
ROOT
ATOM      1  C   UNL A   1      43.227  22.049  26.401  1.00  0.00     0.002 C 
ENDROOT
BRANCH   1   2
ATOM      2  C   UNL A   1      43.812  22.963  27.477  1.00  0.00     0.021 C 
BRANCH   2   3
ATOM      3  C   UNL A   1      43.950  24.423  27.074  1.00  0.00     0.116 C 
BRANCH   3   4
ATOM      4  N   UNL A   1      43.075  24.776  25.973  1.00  0.00    -0.352 N 
ATOM      5  O   UNL A   1      41.245  25.673  25.007  1.00  0.00    -0.269 OA
ATOM      6  C   UNL A   1      41.990  25.614  25.982  1.00  0.00     0.251 C 
ATOM      7  H   UNL A   1      43.287  24.359  25.107  1.00  0.00     0.163 HD
BRANCH   6   8
ATOM      8  C   UNL A   1      41.712  26.427  27.185  1.00  0.00     0.039 A 
ATOM      9  C   UNL A   1      42.379  27.639  27.399  1.00  0.00     0.014 A 
ATOM     10  C   UNL A   1      40.776  25.962  28.109  1.00  0.00     0.014 A 
ATOM     11  C   UNL A   1      42.189  28.332  28.590  1.00  0.00     0.010 A 
ATOM     12  C   UNL A   1      40.532  26.698  29.269  1.00  0.00     0.010 A 
ATOM     13  C   UNL A   1      41.249  27.878  29.528  1.00  0.00    -0.014 A 
BRANCH  13  14
ATOM     14  C   UNL A   1      40.963  28.667  30.750  1.00  0.00     0.031 A 
ATOM     15  C   UNL A   1      39.867  29.694  30.760  1.00  0.00     0.074 A 
ATOM     16  C   UNL A   1      41.740  28.489  31.835  1.00  0.00     0.049 A 
ATOM     17  N   UNL A   1      39.557  30.559  31.690  1.00  0.00    -0.248 NA
ATOM     18  C   UNL A   1      39.017  29.765  29.563  1.00  0.00     0.031 C 
ATOM     19  C   UNL A   1      42.835  27.521  31.935  1.00  0.00     0.029 A 
ATOM     20  N   UNL A   1      41.749  29.130  33.047  1.00  0.00    -0.354 N 
ATOM     21  C   UNL A   1      38.496  31.299  31.183  1.00  0.00     0.074 A 
ATOM     22  C   UNL A   1      38.230  30.791  29.853  1.00  0.00     0.031 C 
ATOM     23  C   UNL A   1      43.411  27.634  33.141  1.00  0.00     0.029 A 
ATOM     24  C   UNL A   1      42.773  28.725  33.870  1.00  0.00     0.049 A 
ATOM     25  H   UNL A   1      41.088  29.813  33.303  1.00  0.00     0.167 HD
ATOM     26  C   UNL A   1      37.811  32.307  31.775  1.00  0.00     0.037 A 
ATOM     27  C   UNL A   1      43.185  29.204  35.059  1.00  0.00     0.037 A 
ATOM     28  C   UNL A   1      38.097  32.802  33.099  1.00  0.00     0.049 A 
ATOM     29  C   UNL A   1      42.442  30.348  35.683  1.00  0.00     0.074 A 
ATOM     30  C   UNL A   1      37.442  33.794  33.806  1.00  0.00     0.029 A 
ATOM     31  N   UNL A   1      39.135  32.355  33.907  1.00  0.00    -0.354 N 
ATOM     32  N   UNL A   1      41.416  31.013  35.209  1.00  0.00    -0.248 NA
ATOM     33  C   UNL A   1      42.903  30.806  36.999  1.00  0.00     0.031 C 
ATOM     34  C   UNL A   1      38.118  33.987  35.015  1.00  0.00     0.029 A 
ATOM     35  C   UNL A   1      39.154  33.070  35.094  1.00  0.00     0.049 A 
ATOM     36  H   UNL A   1      39.765  31.636  33.671  1.00  0.00     0.167 HD
ATOM     37  C   UNL A   1      41.088  31.950  36.182  1.00  0.00     0.074 A 
ATOM     38  C   UNL A   1      42.029  31.767  37.269  1.00  0.00     0.031 C 
ATOM     39  C   UNL A   1      40.090  32.869  36.175  1.00  0.00     0.037 A 
BRANCH  26  40
ATOM     40  C   UNL A   1      36.719  32.968  30.977  1.00  0.00     0.058 A 
ATOM     41  C   UNL A   1      36.993  33.933  29.994  1.00  0.00     0.135 A 
ATOM     42  C   UNL A   1      35.373  32.632  31.201  1.00  0.00     0.135 A 
ATOM     43  F   UNL A   1      38.260  34.300  29.740  1.00  0.00    -0.206 F 
ATOM     44  C   UNL A   1      35.972  34.579  29.303  1.00  0.00     0.059 A 
ATOM     45  C   UNL A   1      34.337  33.243  30.499  1.00  0.00     0.059 A 
ATOM     46  F   UNL A   1      35.050  31.710  32.122  1.00  0.00    -0.206 F 
ATOM     47  C   UNL A   1      34.647  34.235  29.571  1.00  0.00     0.060 A 
BRANCH  47  48
ATOM     48  S   UNL A   1      33.333  35.121  28.707  1.00  0.00     0.124 S 
ATOM     49  O   UNL A   1      34.104  36.026  27.859  1.00  0.00    -0.237 OA
ATOM     50  O   UNL A   1      32.635  34.044  28.010  1.00  0.00    -0.237 OA
ATOM     51  O   UNL A   1      32.583  35.757  29.785  1.00  0.00    -0.744 OA
ENDBRANCH  47  48
ENDBRANCH  26  40
BRANCH  27  52
ATOM     52  C   UNL A   1      44.371  28.587  35.709  1.00  0.00     0.058 A 
ATOM     53  C   UNL A   1      45.657  29.104  35.503  1.00  0.00     0.135 A 
ATOM     54  C   UNL A   1      44.226  27.531  36.624  1.00  0.00     0.135 A 
ATOM     55  F   UNL A   1      45.845  30.109  34.636  1.00  0.00    -0.206 F 
ATOM     56  C   UNL A   1      46.758  28.603  36.189  1.00  0.00     0.059 A 
ATOM     57  C   UNL A   1      45.307  27.032  37.341  1.00  0.00     0.059 A 
ATOM     58  F   UNL A   1      43.010  27.017  36.870  1.00  0.00    -0.206 F 
ATOM     59  C   UNL A   1      46.571  27.576  37.117  1.00  0.00     0.060 A 
BRANCH  59  60
ATOM     60  S   UNL A   1      47.992  27.007  38.074  1.00  0.00     0.124 S 
ATOM     61  O   UNL A   1      47.348  26.226  39.123  1.00  0.00    -0.237 OA
ATOM     62  O   UNL A   1      48.745  26.247  37.081  1.00  0.00    -0.237 OA
ATOM     63  O   UNL A   1      48.623  28.250  38.510  1.00  0.00    -0.744 OA
ENDBRANCH  59  60
ENDBRANCH  27  52
BRANCH  39  64
ATOM     64  C   UNL A   1      39.914  33.721  37.401  1.00  0.00     0.058 A 
ATOM     65  C   UNL A   1      40.539  34.970  37.535  1.00  0.00     0.135 A 
ATOM     66  C   UNL A   1      39.017  33.324  38.407  1.00  0.00     0.135 A 
ATOM     67  F   UNL A   1      41.416  35.390  36.609  1.00  0.00    -0.206 F 
ATOM     68  C   UNL A   1      40.277  35.798  38.622  1.00  0.00     0.059 A 
ATOM     69  C   UNL A   1      38.720  34.147  39.487  1.00  0.00     0.059 A 
ATOM     70  F   UNL A   1      38.389  32.140  38.323  1.00  0.00    -0.206 F 
ATOM     71  C   UNL A   1      39.355  35.383  39.587  1.00  0.00     0.060 A 
BRANCH  71  72
ATOM     72  S   UNL A   1      38.956  36.506  40.943  1.00  0.00     0.124 S 
ATOM     73  O   UNL A   1      37.906  35.767  41.637  1.00  0.00    -0.237 OA
ATOM     74  O   UNL A   1      40.230  36.608  41.648  1.00  0.00    -0.237 OA
ATOM     75  O   UNL A   1      38.522  37.722  40.263  1.00  0.00    -0.744 OA
ENDBRANCH  71  72
ENDBRANCH  39  64
ENDBRANCH  13  14
ENDBRANCH   6   8
ENDBRANCH   3   4
ENDBRANCH   2   3
ENDBRANCH   1   2
BRANCH   1  76
ATOM     76  C   UNL A   1      41.978  21.260  26.806  1.00  0.00     0.002 C 
BRANCH  76  77
ATOM     77  C   UNL A   1      40.731  22.087  27.145  1.00  0.00     0.021 C 
BRANCH  77  78
ATOM     78  C   UNL A   1      39.549  21.909  26.207  1.00  0.00     0.116 C 
BRANCH  78  79
ATOM     79  N   UNL A   1      38.629  23.013  26.280  1.00  0.00    -0.356 N 
ATOM     80  C   UNL A   1      37.405  23.087  25.701  1.00  0.00     0.227 C 
ATOM     81  H   UNL A   1      38.917  23.795  26.805  1.00  0.00     0.163 HD
ATOM     82  O   UNL A   1      36.557  23.757  26.287  1.00  0.00    -0.274 OA
BRANCH  80  83
ATOM     83  C   UNL A   1      37.105  22.325  24.415  1.00  0.00     0.103 C 
ATOM     84  C   UNL A   1      36.346  23.108  23.377  1.00  0.00    -0.016 C 
ATOM     85  C   UNL A   1      36.106  21.210  24.744  1.00  0.00     0.047 C 
ATOM     86  C   UNL A   1      35.052  22.767  23.336  1.00  0.00    -0.006 C 
ATOM     87  C   UNL A   1      34.725  21.770  24.374  1.00  0.00     0.106 C 
BRANCH  87  88
ATOM     88  N   UNL A   1      33.932  22.271  25.493  1.00  0.00    -0.347 N 
ATOM     89  C   UNL A   1      33.378  23.383  26.020  1.00  0.00     0.261 C 
ATOM     90  H   UNL A   1      33.724  21.513  26.085  1.00  0.00     0.164 HD
ATOM     91  O   UNL A   1      33.036  23.209  27.209  1.00  0.00    -0.271 OA
BRANCH  89  92
ATOM     92  C   UNL A   1      33.025  24.767  25.394  1.00  0.00     0.266 C 
ATOM     93  C   UNL A   1      34.050  25.869  25.139  1.00  0.00     0.095 C 
ATOM     94  O   UNL A   1      31.804  25.366  25.895  1.00  0.00    -0.480 OA
ATOM     95  C   UNL A   1      33.470  26.958  25.960  1.00  0.00    -0.002 A 
ATOM     96  C   UNL A   1      32.174  26.619  26.305  1.00  0.00     0.123 A 
ATOM     97  C   UNL A   1      34.003  28.179  26.340  1.00  0.00     0.008 A 
ATOM     98  C   UNL A   1      31.359  27.469  27.028  1.00  0.00     0.047 A 
ATOM     99  C   UNL A   1      33.209  29.042  27.103  1.00  0.00     0.001 A 
ATOM    100  C   UNL A   1      31.891  28.692  27.441  1.00  0.00     0.004 A 
ENDBRANCH  89  92
ENDBRANCH  87  88
ENDBRANCH  80  83
ENDBRANCH  78  79
ENDBRANCH  77  78
ENDBRANCH  76  77
ENDBRANCH   1  76
TORSDOF 18
ENDMDL
MODEL 2
REMARK VINA RESULT:     -11.3      6.461     11.585
REMARK SMILES O=C(NCCCCCCNC(=O)[C@@H]1C=C[C@H](NC(=O)[C@@H]2Cc3ccccc3O2)C1)c1ccc(-c2c3nc(c(-c4c(F)cc(S(=O)(=O)[O-])cc4F)c4ccc([nH]4)c(-c4c(F)cc(S(=O)(=O)[O-])cc4F)c4nc(c(-c5c(F)cc(S(=O)(=O)[O-])cc5F)c5ccc2[nH]5)C=C4)C=C3)cc1
REMARK SMILES IDX 6 1 5 2 4 3 3 4 1 5 2 6 30 8 31 9 95 10 32 11 94 12 33 13
REMARK SMILES IDX 34 14 35 15 88 16 36 17 93 18 87 19 89 20 37 21 92 22 86 23
REMARK SMILES IDX 85 24 38 26 72 27 51 28 71 29 52 30 55 31 70 32 90 33 53 34
REMARK SMILES IDX 54 35 69 37 91 38 56 39 39 40 40 41 49 42 41 43 42 44 48 45
REMARK SMILES IDX 50 46 43 47 44 48 45 49 46 50 47 51 73 52 74 53 83 54 75 55
REMARK SMILES IDX 76 56 82 57 84 58 77 59 78 60 79 61 80 62 81 63 57 64 58 65
REMARK SMILES IDX 67 66 59 67 60 68 66 69 68 70 61 71 62 72 63 73 64 74 65 75
REMARK SMILES IDX 7 76 8 77 9 78 10 79 11 80 12 82 13 83 14 84 29 85 15 86
REMARK SMILES IDX 16 87 17 88 18 89 19 91 20 92 21 93 28 94 22 95 27 96 23 97
REMARK SMILES IDX 26 98 24 99 25 100
REMARK H PARENT 3 7 89 25 55 36 10 81 17 90
REMARK Flexibility Score: inf
ROOT
ATOM      1  C   UNL A   1      34.056  28.334  26.214  1.00  0.00     0.002 C 
ENDROOT
BRANCH   1   2
ATOM      2  C   UNL A   1      34.526  29.573  26.975  1.00  0.00     0.021 C 
BRANCH   2   3
ATOM      3  C   UNL A   1      35.460  29.293  28.143  1.00  0.00     0.116 C 
BRANCH   3   4
ATOM      4  N   UNL A   1      35.457  30.366  29.119  1.00  0.00    -0.352 N 
ATOM      5  O   UNL A   1      36.298  31.632  30.785  1.00  0.00    -0.269 OA
ATOM      6  C   UNL A   1      36.502  30.832  29.875  1.00  0.00     0.251 C 
ATOM      7  H   UNL A   1      34.593  30.818  29.257  1.00  0.00     0.163 HD
BRANCH   6   8
ATOM      8  C   UNL A   1      37.869  30.345  29.600  1.00  0.00     0.039 A 
ATOM      9  C   UNL A   1      38.741  30.032  30.650  1.00  0.00     0.014 A 
ATOM     10  C   UNL A   1      38.281  30.207  28.275  1.00  0.00     0.014 A 
ATOM     11  C   UNL A   1      40.060  29.684  30.374  1.00  0.00     0.010 A 
ATOM     12  C   UNL A   1      39.582  29.787  27.999  1.00  0.00     0.010 A 
ATOM     13  C   UNL A   1      40.487  29.540  29.046  1.00  0.00    -0.014 A 
BRANCH  13  14
ATOM     14  C   UNL A   1      41.859  29.067  28.743  1.00  0.00     0.031 A 
ATOM     15  C   UNL A   1      43.008  30.032  28.685  1.00  0.00     0.074 A 
ATOM     16  C   UNL A   1      42.050  27.763  28.463  1.00  0.00     0.049 A 
ATOM     17  N   UNL A   1      44.244  29.821  28.315  1.00  0.00    -0.248 NA
ATOM     18  C   UNL A   1      42.726  31.419  29.083  1.00  0.00     0.031 C 
ATOM     19  C   UNL A   1      41.006  26.737  28.488  1.00  0.00     0.029 A 
ATOM     20  N   UNL A   1      43.176  27.083  28.079  1.00  0.00    -0.354 N 
ATOM     21  C   UNL A   1      44.884  31.051  28.406  1.00  0.00     0.074 A 
ATOM     22  C   UNL A   1      43.890  32.007  28.848  1.00  0.00     0.031 C 
ATOM     23  C   UNL A   1      41.539  25.560  28.131  1.00  0.00     0.029 A 
ATOM     24  C   UNL A   1      42.942  25.761  27.788  1.00  0.00     0.049 A 
ATOM     25  H   UNL A   1      44.066  27.501  28.017  1.00  0.00     0.167 HD
ATOM     26  C   UNL A   1      46.179  31.349  28.143  1.00  0.00     0.037 A 
ATOM     27  C   UNL A   1      43.751  24.822  27.260  1.00  0.00     0.037 A 
ATOM     28  C   UNL A   1      47.151  30.382  27.698  1.00  0.00     0.049 A 
ATOM     29  C   UNL A   1      45.171  25.179  26.936  1.00  0.00     0.074 A 
ATOM     30  C   UNL A   1      48.497  30.572  27.439  1.00  0.00     0.029 A 
ATOM     31  N   UNL A   1      46.877  29.048  27.427  1.00  0.00    -0.354 N 
ATOM     32  N   UNL A   1      45.774  26.337  27.063  1.00  0.00    -0.248 NA
ATOM     33  C   UNL A   1      46.024  24.110  26.403  1.00  0.00     0.031 C 
ATOM     34  C   UNL A   1      49.022  29.369  26.956  1.00  0.00     0.029 A 
ATOM     35  C   UNL A   1      48.022  28.409  26.978  1.00  0.00     0.049 A 
ATOM     36  H   UNL A   1      45.998  28.618  27.538  1.00  0.00     0.167 HD
ATOM     37  C   UNL A   1      47.086  26.130  26.655  1.00  0.00     0.074 A 
ATOM     38  C   UNL A   1      47.187  24.736  26.272  1.00  0.00     0.031 C 
ATOM     39  C   UNL A   1      48.112  27.015  26.612  1.00  0.00     0.037 A 
BRANCH  26  40
ATOM     40  C   UNL A   1      46.604  32.787  28.289  1.00  0.00     0.058 A 
ATOM     41  C   UNL A   1      46.524  33.700  27.225  1.00  0.00     0.135 A 
ATOM     42  C   UNL A   1      47.104  33.259  29.515  1.00  0.00     0.135 A 
ATOM     43  F   UNL A   1      46.061  33.305  26.027  1.00  0.00    -0.206 F 
ATOM     44  C   UNL A   1      46.973  35.011  27.354  1.00  0.00     0.059 A 
ATOM     45  C   UNL A   1      47.530  34.574  29.676  1.00  0.00     0.059 A 
ATOM     46  F   UNL A   1      47.196  32.435  30.570  1.00  0.00    -0.206 F 
ATOM     47  C   UNL A   1      47.485  35.435  28.581  1.00  0.00     0.060 A 
BRANCH  47  48
ATOM     48  S   UNL A   1      48.116  37.121  28.717  1.00  0.00     0.124 S 
ATOM     49  O   UNL A   1      48.077  37.327  30.162  1.00  0.00    -0.237 OA
ATOM     50  O   UNL A   1      49.448  37.005  28.130  1.00  0.00    -0.237 OA
ATOM     51  O   UNL A   1      47.159  37.907  27.945  1.00  0.00    -0.744 OA
ENDBRANCH  47  48
ENDBRANCH  26  40
BRANCH  27  52
ATOM     52  C   UNL A   1      43.203  23.463  27.008  1.00  0.00     0.058 A 
ATOM     53  C   UNL A   1      42.872  23.049  25.711  1.00  0.00     0.135 A 
ATOM     54  C   UNL A   1      43.093  22.524  28.046  1.00  0.00     0.135 A 
ATOM     55  F   UNL A   1      42.957  23.912  24.688  1.00  0.00    -0.206 F 
ATOM     56  C   UNL A   1      42.461  21.746  25.449  1.00  0.00     0.059 A 
ATOM     57  C   UNL A   1      42.711  21.209  27.805  1.00  0.00     0.059 A 
ATOM     58  F   UNL A   1      43.419  22.868  29.302  1.00  0.00    -0.206 F 
ATOM     59  C   UNL A   1      42.396  20.829  26.501  1.00  0.00     0.060 A 
BRANCH  59  60
ATOM     60  S   UNL A   1      41.962  19.117  26.128  1.00  0.00     0.124 S 
ATOM     61  O   UNL A   1      42.837  18.830  24.998  1.00  0.00    -0.237 OA
ATOM     62  O   UNL A   1      42.291  18.440  27.379  1.00  0.00    -0.237 OA
ATOM     63  O   UNL A   1      40.537  19.190  25.821  1.00  0.00    -0.744 OA
ENDBRANCH  59  60
ENDBRANCH  27  52
BRANCH  39  64
ATOM     64  C   UNL A   1      49.462  26.504  26.191  1.00  0.00     0.058 A 
ATOM     65  C   UNL A   1      49.944  26.668  24.883  1.00  0.00     0.135 A 
ATOM     66  C   UNL A   1      50.325  25.938  27.144  1.00  0.00     0.135 A 
ATOM     67  F   UNL A   1      49.154  27.191  23.932  1.00  0.00    -0.206 F 
ATOM     68  C   UNL A   1      51.238  26.293  24.537  1.00  0.00     0.059 A 
ATOM     69  C   UNL A   1      51.631  25.581  26.825  1.00  0.00     0.059 A 
ATOM     70  F   UNL A   1      49.913  25.764  28.409  1.00  0.00    -0.206 F 
ATOM     71  C   UNL A   1      52.079  25.762  25.518  1.00  0.00     0.060 A 
BRANCH  71  72
ATOM     72  S   UNL A   1      53.784  25.364  25.077  1.00  0.00     0.124 S 
ATOM     73  O   UNL A   1      53.703  23.923  24.858  1.00  0.00    -0.237 OA
ATOM     74  O   UNL A   1      53.994  26.176  23.882  1.00  0.00    -0.237 OA
ATOM     75  O   UNL A   1      54.545  25.778  26.251  1.00  0.00    -0.744 OA
ENDBRANCH  71  72
ENDBRANCH  39  64
ENDBRANCH  13  14
ENDBRANCH   6   8
ENDBRANCH   3   4
ENDBRANCH   2   3
ENDBRANCH   1   2
BRANCH   1  76
ATOM     76  C   UNL A   1      33.459  28.592  24.827  1.00  0.00     0.002 C 
BRANCH  76  77
ATOM     77  C   UNL A   1      33.934  27.666  23.699  1.00  0.00     0.021 C 
BRANCH  77  78
ATOM     78  C   UNL A   1      33.274  26.298  23.650  1.00  0.00     0.116 C 
BRANCH  78  79
ATOM     79  N   UNL A   1      34.107  25.317  23.007  1.00  0.00    -0.356 N 
ATOM     80  C   UNL A   1      34.794  24.316  23.611  1.00  0.00     0.227 C 
ATOM     81  H   UNL A   1      34.185  25.378  22.027  1.00  0.00     0.163 HD
ATOM     82  O   UNL A   1      34.953  23.286  22.960  1.00  0.00    -0.274 OA
BRANCH  80  83
ATOM     83  C   UNL A   1      35.288  24.468  25.046  1.00  0.00     0.103 C 
ATOM     84  C   UNL A   1      36.663  23.911  25.304  1.00  0.00    -0.016 C 
ATOM     85  C   UNL A   1      34.425  23.573  25.943  1.00  0.00     0.047 C 
ATOM     86  C   UNL A   1      36.617  22.729  25.932  1.00  0.00    -0.006 C 
ATOM     87  C   UNL A   1      35.227  22.276  26.126  1.00  0.00     0.106 C 
BRANCH  87  88
ATOM     88  N   UNL A   1      34.811  21.159  25.283  1.00  0.00    -0.347 N 
ATOM     89  C   UNL A   1      33.734  20.531  24.763  1.00  0.00     0.261 C 
ATOM     90  H   UNL A   1      35.619  20.685  24.981  1.00  0.00     0.164 HD
ATOM     91  O   UNL A   1      34.029  19.401  24.320  1.00  0.00    -0.271 OA
BRANCH  89  92
ATOM     92  C   UNL A   1      32.261  20.996  24.551  1.00  0.00     0.266 C 
ATOM     93  C   UNL A   1      31.844  22.058  23.538  1.00  0.00     0.095 C 
ATOM     94  O   UNL A   1      31.503  21.186  25.772  1.00  0.00    -0.480 OA
ATOM     95  C   UNL A   1      31.212  23.047  24.443  1.00  0.00    -0.002 A 
ATOM     96  C   UNL A   1      31.004  22.457  25.677  1.00  0.00     0.123 A 
ATOM     97  C   UNL A   1      30.799  24.348  24.207  1.00  0.00     0.008 A 
ATOM     98  C   UNL A   1      30.378  23.122  26.714  1.00  0.00     0.047 A 
ATOM     99  C   UNL A   1      30.194  25.053  25.253  1.00  0.00     0.001 A 
ATOM    100  C   UNL A   1      29.979  24.443  26.499  1.00  0.00     0.004 A 
ENDBRANCH  89  92
ENDBRANCH  87  88
ENDBRANCH  80  83
ENDBRANCH  78  79
ENDBRANCH  77  78
ENDBRANCH  76  77
ENDBRANCH   1  76
TORSDOF 18
ENDMDL
MODEL 3
REMARK VINA RESULT:     -11.3      6.633     11.893
REMARK SMILES O=C(NCCCCCCNC(=O)[C@@H]1C=C[C@H](NC(=O)[C@@H]2Cc3ccccc3O2)C1)c1ccc(-c2c3nc(c(-c4c(F)cc(S(=O)(=O)[O-])cc4F)c4ccc([nH]4)c(-c4c(F)cc(S(=O)(=O)[O-])cc4F)c4nc(c(-c5c(F)cc(S(=O)(=O)[O-])cc5F)c5ccc2[nH]5)C=C4)C=C3)cc1
REMARK SMILES IDX 6 1 5 2 4 3 3 4 1 5 2 6 30 8 31 9 95 10 32 11 94 12 33 13
REMARK SMILES IDX 34 14 35 15 88 16 36 17 93 18 87 19 89 20 37 21 92 22 86 23
REMARK SMILES IDX 85 24 38 26 72 27 51 28 71 29 52 30 55 31 70 32 90 33 53 34
REMARK SMILES IDX 54 35 69 37 91 38 56 39 39 40 40 41 49 42 41 43 42 44 48 45
REMARK SMILES IDX 50 46 43 47 44 48 45 49 46 50 47 51 73 52 74 53 83 54 75 55
REMARK SMILES IDX 76 56 82 57 84 58 77 59 78 60 79 61 80 62 81 63 57 64 58 65
REMARK SMILES IDX 67 66 59 67 60 68 66 69 68 70 61 71 62 72 63 73 64 74 65 75
REMARK SMILES IDX 7 76 8 77 9 78 10 79 11 80 12 82 13 83 14 84 29 85 15 86
REMARK SMILES IDX 16 87 17 88 18 89 19 91 20 92 21 93 28 94 22 95 27 96 23 97
REMARK SMILES IDX 26 98 24 99 25 100
REMARK H PARENT 3 7 89 25 55 36 10 81 17 90
REMARK Flexibility Score: inf
ROOT
ATOM      1  C   UNL A   1      33.339  30.380  26.818  1.00  0.00     0.002 C 
ENDROOT
BRANCH   1   2
ATOM      2  C   UNL A   1      34.194  29.121  26.680  1.00  0.00     0.021 C 
BRANCH   2   3
ATOM      3  C   UNL A   1      35.368  29.033  27.643  1.00  0.00     0.116 C 
BRANCH   3   4
ATOM      4  N   UNL A   1      35.287  30.021  28.701  1.00  0.00    -0.352 N 
ATOM      5  O   UNL A   1      36.005  31.156  30.513  1.00  0.00    -0.269 OA
ATOM      6  C   UNL A   1      36.277  30.438  29.554  1.00  0.00     0.251 C 
ATOM      7  H   UNL A   1      34.409  30.447  28.824  1.00  0.00     0.163 HD
BRANCH   6   8
ATOM      8  C   UNL A   1      37.668  29.996  29.323  1.00  0.00     0.039 A 
ATOM      9  C   UNL A   1      38.491  29.633  30.396  1.00  0.00     0.014 A 
ATOM     10  C   UNL A   1      38.151  29.951  28.016  1.00  0.00     0.014 A 
ATOM     11  C   UNL A   1      39.829  29.329  30.170  1.00  0.00     0.010 A 
ATOM     12  C   UNL A   1      39.474  29.574  27.784  1.00  0.00     0.010 A 
ATOM     13  C   UNL A   1      40.328  29.278  28.860  1.00  0.00    -0.014 A 
BRANCH  13  14
ATOM     14  C   UNL A   1      41.725  28.851  28.602  1.00  0.00     0.031 A 
ATOM     15  C   UNL A   1      42.840  29.856  28.569  1.00  0.00     0.074 A 
ATOM     16  C   UNL A   1      41.969  27.553  28.339  1.00  0.00     0.049 A 
ATOM     17  N   UNL A   1      44.093  29.686  28.237  1.00  0.00    -0.248 NA
ATOM     18  C   UNL A   1      42.498  31.235  28.946  1.00  0.00     0.031 C 
ATOM     19  C   UNL A   1      40.961  26.491  28.341  1.00  0.00     0.029 A 
ATOM     20  N   UNL A   1      43.130  26.911  27.994  1.00  0.00    -0.354 N 
ATOM     21  C   UNL A   1      44.686  30.938  28.336  1.00  0.00     0.074 A 
ATOM     22  C   UNL A   1      43.647  31.862  28.740  1.00  0.00     0.031 C 
ATOM     23  C   UNL A   1      41.546  25.330  28.010  1.00  0.00     0.029 A 
ATOM     24  C   UNL A   1      42.951  25.579  27.707  1.00  0.00     0.049 A 
ATOM     25  H   UNL A   1      44.005  27.359  27.954  1.00  0.00     0.167 HD
ATOM     26  C   UNL A   1      45.977  31.281  28.109  1.00  0.00     0.037 A 
ATOM     27  C   UNL A   1      43.807  24.665  27.212  1.00  0.00     0.037 A 
ATOM     28  C   UNL A   1      46.996  30.345  27.701  1.00  0.00     0.049 A 
ATOM     29  C   UNL A   1      45.223  25.069  26.927  1.00  0.00     0.074 A 
ATOM     30  C   UNL A   1      48.341  30.580  27.480  1.00  0.00     0.029 A 
ATOM     31  N   UNL A   1      46.777  29.000  27.434  1.00  0.00    -0.354 N 
ATOM     32  N   UNL A   1      45.780  26.249  27.061  1.00  0.00    -0.248 NA
ATOM     33  C   UNL A   1      46.128  24.027  26.428  1.00  0.00     0.031 C 
ATOM     34  C   UNL A   1      48.922  29.393  27.023  1.00  0.00     0.029 A 
ATOM     35  C   UNL A   1      47.956  28.398  27.024  1.00  0.00     0.049 A 
ATOM     36  H   UNL A   1      45.910  28.540  27.523  1.00  0.00     0.167 HD
ATOM     37  C   UNL A   1      47.111  26.085  26.693  1.00  0.00     0.074 A 
ATOM     38  C   UNL A   1      47.272  24.693  26.326  1.00  0.00     0.031 C 
ATOM     39  C   UNL A   1      48.106  27.006  26.673  1.00  0.00     0.037 A 
BRANCH  26  40
ATOM     40  C   UNL A   1      46.347  32.733  28.255  1.00  0.00     0.058 A 
ATOM     41  C   UNL A   1      46.300  33.627  27.172  1.00  0.00     0.135 A 
ATOM     42  C   UNL A   1      46.758  33.240  29.499  1.00  0.00     0.135 A 
ATOM     43  F   UNL A   1      45.922  33.199  25.957  1.00  0.00    -0.206 F 
ATOM     44  C   UNL A   1      46.700  34.954  27.305  1.00  0.00     0.059 A 
ATOM     45  C   UNL A   1      47.132  34.571  29.663  1.00  0.00     0.059 A 
ATOM     46  F   UNL A   1      46.815  32.435  30.572  1.00  0.00    -0.206 F 
ATOM     47  C   UNL A   1      47.125  35.413  28.552  1.00  0.00     0.060 A 
BRANCH  47  48
ATOM     48  S   UNL A   1      47.692  37.121  28.696  1.00  0.00     0.124 S 
ATOM     49  O   UNL A   1      46.993  37.752  27.580  1.00  0.00    -0.237 OA
ATOM     50  O   UNL A   1      47.223  37.495  30.027  1.00  0.00    -0.237 OA
ATOM     51  O   UNL A   1      49.139  37.014  28.550  1.00  0.00    -0.744 OA
ENDBRANCH  47  48
ENDBRANCH  26  40
BRANCH  27  52
ATOM     52  C   UNL A   1      43.316  23.286  26.955  1.00  0.00     0.058 A 
ATOM     53  C   UNL A   1      43.145  22.812  25.647  1.00  0.00     0.135 A 
ATOM     54  C   UNL A   1      43.100  22.387  28.012  1.00  0.00     0.135 A 
ATOM     55  F   UNL A   1      43.336  23.635  24.606  1.00  0.00    -0.206 F 
ATOM     56  C   UNL A   1      42.790  21.492  25.394  1.00  0.00     0.059 A 
ATOM     57  C   UNL A   1      42.770  21.056  27.784  1.00  0.00     0.059 A 
ATOM     58  F   UNL A   1      43.270  22.788  29.282  1.00  0.00    -0.206 F 
ATOM     59  C   UNL A   1      42.617  20.617  26.470  1.00  0.00     0.060 A 
BRANCH  59  60
ATOM     60  S   UNL A   1      42.257  18.882  26.122  1.00  0.00     0.124 S 
ATOM     61  O   UNL A   1      40.857  18.946  25.720  1.00  0.00    -0.237 OA
ATOM     62  O   UNL A   1      43.214  18.579  25.061  1.00  0.00    -0.237 OA
ATOM     63  O   UNL A   1      42.519  18.222  27.397  1.00  0.00    -0.744 OA
ENDBRANCH  59  60
ENDBRANCH  27  52
BRANCH  39  64
ATOM     64  C   UNL A   1      49.485  26.540  26.296  1.00  0.00     0.058 A 
ATOM     65  C   UNL A   1      50.035  26.792  25.030  1.00  0.00     0.135 A 
ATOM     66  C   UNL A   1      50.304  25.925  27.258  1.00  0.00     0.135 A 
ATOM     67  F   UNL A   1      49.290  27.364  24.071  1.00  0.00    -0.206 F 
ATOM     68  C   UNL A   1      51.352  26.456  24.733  1.00  0.00     0.059 A 
ATOM     69  C   UNL A   1      51.630  25.606  26.991  1.00  0.00     0.059 A 
ATOM     70  F   UNL A   1      49.827  25.666  28.486  1.00  0.00    -0.206 F 
ATOM     71  C   UNL A   1      52.147  25.875  25.725  1.00  0.00     0.060 A 
BRANCH  71  72
ATOM     72  S   UNL A   1      53.879  25.528  25.354  1.00  0.00     0.124 S 
ATOM     73  O   UNL A   1      53.882  25.569  23.895  1.00  0.00    -0.237 OA
ATOM     74  O   UNL A   1      54.567  26.629  26.021  1.00  0.00    -0.237 OA
ATOM     75  O   UNL A   1      54.096  24.211  25.944  1.00  0.00    -0.744 OA
ENDBRANCH  71  72
ENDBRANCH  39  64
ENDBRANCH  13  14
ENDBRANCH   6   8
ENDBRANCH   3   4
ENDBRANCH   2   3
ENDBRANCH   1   2
BRANCH   1  76
ATOM     76  C   UNL A   1      31.831  30.183  26.632  1.00  0.00     0.002 C 
BRANCH  76  77
ATOM     77  C   UNL A   1      31.116  31.212  25.745  1.00  0.00     0.021 C 
BRANCH  77  78
ATOM     78  C   UNL A   1      30.177  30.636  24.697  1.00  0.00     0.116 C 
BRANCH  78  79
ATOM     79  N   UNL A   1      30.884  29.905  23.679  1.00  0.00    -0.356 N 
ATOM     80  C   UNL A   1      30.716  28.599  23.355  1.00  0.00     0.227 C 
ATOM     81  H   UNL A   1      31.558  30.405  23.164  1.00  0.00     0.163 HD
ATOM     82  O   UNL A   1      30.919  28.292  22.182  1.00  0.00    -0.274 OA
BRANCH  80  83
ATOM     83  C   UNL A   1      30.248  27.592  24.401  1.00  0.00     0.103 C 
ATOM     84  C   UNL A   1      31.333  27.058  25.296  1.00  0.00    -0.016 C 
ATOM     85  C   UNL A   1      29.804  26.320  23.670  1.00  0.00     0.047 C 
ATOM     86  C   UNL A   1      31.713  25.822  24.945  1.00  0.00    -0.006 C 
ATOM     87  C   UNL A   1      31.006  25.366  23.733  1.00  0.00     0.106 C 
BRANCH  87  88
ATOM     88  N   UNL A   1      31.820  25.304  22.523  1.00  0.00    -0.347 N 
ATOM     89  C   UNL A   1      32.860  24.667  21.944  1.00  0.00     0.261 C 
ATOM     90  H   UNL A   1      31.483  25.980  21.892  1.00  0.00     0.164 HD
ATOM     91  O   UNL A   1      33.283  25.288  20.946  1.00  0.00    -0.271 OA
BRANCH  89  92
ATOM     92  C   UNL A   1      33.540  23.297  22.247  1.00  0.00     0.266 C 
ATOM     93  C   UNL A   1      32.978  22.268  23.224  1.00  0.00     0.095 C 
ATOM     94  O   UNL A   1      34.980  23.355  22.402  1.00  0.00    -0.480 OA
ATOM     95  C   UNL A   1      34.110  22.166  24.175  1.00  0.00    -0.002 A 
ATOM     96  C   UNL A   1      35.225  22.761  23.612  1.00  0.00     0.123 A 
ATOM     97  C   UNL A   1      34.189  21.558  25.417  1.00  0.00     0.008 A 
ATOM     98  C   UNL A   1      36.452  22.773  24.246  1.00  0.00     0.047 A 
ATOM     99  C   UNL A   1      35.414  21.588  26.094  1.00  0.00     0.001 A 
ATOM    100  C   UNL A   1      36.541  22.187  25.510  1.00  0.00     0.004 A 
ENDBRANCH  89  92
ENDBRANCH  87  88
ENDBRANCH  80  83
ENDBRANCH  78  79
ENDBRANCH  77  78
ENDBRANCH  76  77
ENDBRANCH   1  76
TORSDOF 18
ENDMDL
