MODEL 1
REMARK VINA RESULT:     -11.2      0.000      0.000
REMARK SMILES CCC(=O)N1CCc2cc(C(=O)NC3(C(=O)NCCCCCCNC(=O)c4ccc(-c5c6nc(c(-c7c(F)cc(S(=O)(=O)[O-])cc7F)c7ccc([nH]7)c(-c7c(F)cc(S(=O)(=O)[O-])cc7F)c7nc(c(-c8c(F)cc(S(=O)(=O)[O-])cc8F)c8ccc5[nH]8)C=C7)C=C6)cc4)CCCC3)ccc21
REMARK SMILES IDX 20 1 19 2 18 3 17 4 15 5 16 6 14 8 93 9 96 10 94 11 95 12
REMARK SMILES IDX 13 13 11 14 12 15 10 17 5 18 6 19 99 20 7 21 8 22 98 23 9 24
REMARK SMILES IDX 97 25 3 26 4 27 2 28 1 29 21 30 22 31 23 32 24 33 25 34
REMARK SMILES IDX 26 36 27 37 28 38 92 39 29 40 91 41 30 42 31 43 32 44 85 45
REMARK SMILES IDX 33 46 90 47 84 48 86 49 34 50 89 51 83 52 82 53 35 55 69 56
REMARK SMILES IDX 48 57 68 58 49 59 52 60 67 61 87 62 50 63 51 64 66 66 88 67
REMARK SMILES IDX 53 68 36 69 37 70 46 71 38 72 39 73 45 74 47 75 40 76 41 77
REMARK SMILES IDX 42 78 43 79 44 80 70 81 71 82 80 83 72 84 73 85 79 86 81 87
REMARK SMILES IDX 74 88 75 89 76 90 77 91 78 92 54 93 55 94 64 95 56 96 57 97
REMARK SMILES IDX 63 98 65 99 58 100 59 101 60 102 61 103 62 104
REMARK H PARENT 17 7 13 16 24 35 86 54 52 65
REMARK Flexibility Score: inf
ROOT
ATOM      1  C   UNL A   1      30.820  26.820  25.502  1.00  0.00     0.002 C 
ENDROOT
BRANCH   1   2
ATOM      2  C   UNL A   1      30.189  26.061  24.337  1.00  0.00     0.021 C 
BRANCH   2   3
ATOM      3  C   UNL A   1      30.569  24.587  24.268  1.00  0.00     0.116 C 
BRANCH   3   4
ATOM      4  N   UNL A   1      30.381  23.876  25.514  1.00  0.00    -0.354 N 
ATOM      5  C   UNL A   1      31.234  23.313  26.410  1.00  0.00     0.245 C 
ATOM      6  O   UNL A   1      30.724  23.025  27.503  1.00  0.00    -0.272 OA
ATOM      7  H   UNL A   1      29.434  23.780  25.768  1.00  0.00     0.163 HD
BRANCH   5   8
ATOM      8  C   UNL A   1      32.763  23.065  26.163  1.00  0.00     0.119 C 
ATOM      9  C   UNL A   1      32.886  21.712  25.409  1.00  0.00     0.038 C 
ATOM     10  C   UNL A   1      33.735  22.891  27.346  1.00  0.00     0.038 C 
ATOM     11  C   UNL A   1      33.200  20.671  26.468  1.00  0.00     0.003 C 
ATOM     12  C   UNL A   1      34.086  21.403  27.461  1.00  0.00     0.003 C 
BRANCH   8  13
ATOM     13  N   UNL A   1      33.279  24.145  25.263  1.00  0.00    -0.338 N 
ATOM     14  C   UNL A   1      34.433  24.361  24.545  1.00  0.00     0.252 C 
ATOM     15  O   UNL A   1      34.427  25.301  23.744  1.00  0.00    -0.269 OA
ATOM     16  H   UNL A   1      32.635  24.881  25.159  1.00  0.00     0.164 HD
BRANCH  14  17
ATOM     17  C   UNL A   1      35.707  23.612  24.733  1.00  0.00     0.040 A 
ATOM     18  N   UNL A   1      39.201  21.581  25.885  1.00  0.00    -0.312 N 
ATOM     19  C   UNL A   1      39.778  22.531  26.844  1.00  0.00     0.130 C 
ATOM     20  C   UNL A   1      38.051  22.160  25.325  1.00  0.00     0.047 A 
ATOM     21  C   UNL A   1      38.875  23.764  26.893  1.00  0.00     0.059 C 
ATOM     22  C   UNL A   1      37.813  23.409  25.902  1.00  0.00    -0.022 A 
ATOM     23  C   UNL A   1      37.139  21.655  24.429  1.00  0.00     0.027 A 
ATOM     24  C   UNL A   1      36.658  24.141  25.620  1.00  0.00     0.019 A 
ATOM     25  C   UNL A   1      36.000  22.405  24.098  1.00  0.00     0.016 A 
BRANCH  18  26
ATOM     26  C   UNL A   1      39.779  20.337  25.747  1.00  0.00     0.226 C 
ATOM     27  O   UNL A   1      39.085  19.345  25.491  1.00  0.00    -0.275 OA
BRANCH  26  28
ATOM     28  C   UNL A   1      41.239  20.127  26.112  1.00  0.00     0.097 C 
ATOM     29  C   UNL A   1      41.532  19.684  27.526  1.00  0.00     0.014 C 
ENDBRANCH  26  28
ENDBRANCH  18  26
ENDBRANCH  14  17
ENDBRANCH   8  13
ENDBRANCH   5   8
ENDBRANCH   3   4
ENDBRANCH   2   3
ENDBRANCH   1   2
BRANCH   1  30
ATOM     30  C   UNL A   1      32.012  27.715  25.164  1.00  0.00     0.002 C 
BRANCH  30  31
ATOM     31  C   UNL A   1      33.148  27.704  26.186  1.00  0.00     0.021 C 
BRANCH  31  32
ATOM     32  C   UNL A   1      34.259  28.709  25.912  1.00  0.00     0.116 C 
BRANCH  32  33
ATOM     33  N   UNL A   1      33.950  30.032  26.434  1.00  0.00    -0.352 N 
ATOM     34  C   UNL A   1      34.543  30.715  27.466  1.00  0.00     0.251 C 
ATOM     35  H   UNL A   1      33.212  30.503  25.982  1.00  0.00     0.163 HD
ATOM     36  O   UNL A   1      34.029  31.740  27.907  1.00  0.00    -0.269 OA
BRANCH  34  37
ATOM     37  C   UNL A   1      35.790  30.192  28.057  1.00  0.00     0.039 A 
ATOM     38  C   UNL A   1      36.988  30.319  27.351  1.00  0.00     0.014 A 
ATOM     39  C   UNL A   1      35.777  29.612  29.329  1.00  0.00     0.014 A 
ATOM     40  C   UNL A   1      38.185  29.929  27.953  1.00  0.00     0.010 A 
ATOM     41  C   UNL A   1      36.977  29.308  29.959  1.00  0.00     0.010 A 
ATOM     42  C   UNL A   1      38.195  29.459  29.278  1.00  0.00    -0.014 A 
BRANCH  42  43
ATOM     43  C   UNL A   1      39.461  29.115  29.971  1.00  0.00     0.031 A 
ATOM     44  C   UNL A   1      39.861  29.860  31.216  1.00  0.00     0.074 A 
ATOM     45  C   UNL A   1      40.285  28.188  29.441  1.00  0.00     0.049 A 
ATOM     46  N   UNL A   1      40.963  29.772  31.914  1.00  0.00    -0.248 NA
ATOM     47  C   UNL A   1      38.908  30.861  31.725  1.00  0.00     0.031 C 
ATOM     48  C   UNL A   1      40.032  27.434  28.211  1.00  0.00     0.029 A 
ATOM     49  N   UNL A   1      41.508  27.730  29.862  1.00  0.00    -0.354 N 
ATOM     50  C   UNL A   1      40.843  30.712  32.931  1.00  0.00     0.074 A 
ATOM     51  C   UNL A   1      39.588  31.402  32.724  1.00  0.00     0.031 C 
ATOM     52  C   UNL A   1      41.055  26.592  27.991  1.00  0.00     0.029 A 
ATOM     53  C   UNL A   1      42.055  26.774  29.037  1.00  0.00     0.049 A 
ATOM     54  H   UNL A   1      41.952  28.054  30.678  1.00  0.00     0.167 HD
ATOM     55  C   UNL A   1      41.688  30.959  33.959  1.00  0.00     0.037 A 
ATOM     56  C   UNL A   1      43.234  26.126  29.110  1.00  0.00     0.037 A 
ATOM     57  C   UNL A   1      42.921  30.248  34.173  1.00  0.00     0.049 A 
ATOM     58  C   UNL A   1      44.159  26.420  30.260  1.00  0.00     0.074 A 
ATOM     59  C   UNL A   1      43.819  30.380  35.217  1.00  0.00     0.029 A 
ATOM     60  N   UNL A   1      43.429  29.271  33.328  1.00  0.00    -0.354 N 
ATOM     61  N   UNL A   1      44.000  27.267  31.249  1.00  0.00    -0.248 NA
ATOM     62  C   UNL A   1      45.422  25.669  30.309  1.00  0.00     0.031 C 
ATOM     63  C   UNL A   1      44.895  29.519  34.978  1.00  0.00     0.029 A 
ATOM     64  C   UNL A   1      44.640  28.809  33.815  1.00  0.00     0.049 A 
ATOM     65  H   UNL A   1      42.992  28.954  32.505  1.00  0.00     0.167 HD
ATOM     66  C   UNL A   1      45.127  27.130  32.053  1.00  0.00     0.074 A 
ATOM     67  C   UNL A   1      45.953  26.110  31.441  1.00  0.00     0.031 C 
ATOM     68  C   UNL A   1      45.446  27.785  33.197  1.00  0.00     0.037 A 
BRANCH  55  69
ATOM     69  C   UNL A   1      41.306  32.040  34.934  1.00  0.00     0.058 A 
ATOM     70  C   UNL A   1      41.817  33.344  34.827  1.00  0.00     0.135 A 
ATOM     71  C   UNL A   1      40.392  31.781  35.967  1.00  0.00     0.135 A 
ATOM     72  F   UNL A   1      42.707  33.647  33.868  1.00  0.00    -0.206 F 
ATOM     73  C   UNL A   1      41.462  34.342  35.729  1.00  0.00     0.059 A 
ATOM     74  C   UNL A   1      39.997  32.772  36.861  1.00  0.00     0.059 A 
ATOM     75  F   UNL A   1      39.872  30.552  36.118  1.00  0.00    -0.206 F 
ATOM     76  C   UNL A   1      40.550  34.046  36.742  1.00  0.00     0.060 A 
BRANCH  76  77
ATOM     77  S   UNL A   1      40.095  35.354  37.899  1.00  0.00     0.124 S 
ATOM     78  O   UNL A   1      38.899  34.791  38.519  1.00  0.00    -0.237 OA
ATOM     79  O   UNL A   1      41.273  35.437  38.756  1.00  0.00    -0.237 OA
ATOM     80  O   UNL A   1      39.869  36.510  37.036  1.00  0.00    -0.744 OA
ENDBRANCH  76  77
ENDBRANCH  55  69
BRANCH  56  81
ATOM     81  C   UNL A   1      43.597  25.120  28.075  1.00  0.00     0.058 A 
ATOM     82  C   UNL A   1      44.396  25.469  26.977  1.00  0.00     0.135 A 
ATOM     83  C   UNL A   1      43.162  23.788  28.168  1.00  0.00     0.135 A 
ATOM     84  F   UNL A   1      44.831  26.731  26.839  1.00  0.00    -0.206 F 
ATOM     85  C   UNL A   1      44.739  24.542  25.998  1.00  0.00     0.059 A 
ATOM     86  C   UNL A   1      43.514  22.836  27.217  1.00  0.00     0.059 A 
ATOM     87  F   UNL A   1      42.410  23.396  29.208  1.00  0.00    -0.206 F 
ATOM     88  C   UNL A   1      44.294  23.225  26.128  1.00  0.00     0.060 A 
BRANCH  88  89
ATOM     89  S   UNL A   1      44.782  22.017  24.878  1.00  0.00     0.124 S 
ATOM     90  O   UNL A   1      46.195  22.334  24.700  1.00  0.00    -0.237 OA
ATOM     91  O   UNL A   1      44.489  20.752  25.545  1.00  0.00    -0.237 OA
ATOM     92  O   UNL A   1      43.915  22.337  23.747  1.00  0.00    -0.744 OA
ENDBRANCH  88  89
ENDBRANCH  56  81
BRANCH  68  93
ATOM     93  C   UNL A   1      46.726  27.399  33.885  1.00  0.00     0.058 A 
ATOM     94  C   UNL A   1      47.930  28.075  33.640  1.00  0.00     0.135 A 
ATOM     95  C   UNL A   1      46.730  26.380  34.852  1.00  0.00     0.135 A 
ATOM     96  F   UNL A   1      47.983  29.052  32.721  1.00  0.00    -0.206 F 
ATOM     97  C   UNL A   1      49.100  27.743  34.316  1.00  0.00     0.059 A 
ATOM     98  C   UNL A   1      47.880  26.051  35.561  1.00  0.00     0.059 A 
ATOM     99  F   UNL A   1      45.602  25.709  35.132  1.00  0.00    -0.206 F 
ATOM    100  C   UNL A   1      49.063  26.732  35.279  1.00  0.00     0.060 A 
BRANCH 100 101
ATOM    101  S   UNL A   1      50.578  26.343  36.181  1.00  0.00     0.124 S 
ATOM    102  O   UNL A   1      50.277  25.012  36.700  1.00  0.00    -0.237 OA
ATOM    103  O   UNL A   1      51.589  26.400  35.130  1.00  0.00    -0.237 OA
ATOM    104  O   UNL A   1      50.661  27.402  37.182  1.00  0.00    -0.744 OA
ENDBRANCH 100 101
ENDBRANCH  68  93
ENDBRANCH  42  43
ENDBRANCH  34  37
ENDBRANCH  32  33
ENDBRANCH  31  32
ENDBRANCH  30  31
ENDBRANCH   1  30
TORSDOF 20
ENDMDL
MODEL 2
REMARK VINA RESULT:     -10.9      0.843      8.011
REMARK SMILES CCC(=O)N1CCc2cc(C(=O)NC3(C(=O)NCCCCCCNC(=O)c4ccc(-c5c6nc(c(-c7c(F)cc(S(=O)(=O)[O-])cc7F)c7ccc([nH]7)c(-c7c(F)cc(S(=O)(=O)[O-])cc7F)c7nc(c(-c8c(F)cc(S(=O)(=O)[O-])cc8F)c8ccc5[nH]8)C=C7)C=C6)cc4)CCCC3)ccc21
REMARK SMILES IDX 20 1 19 2 18 3 17 4 15 5 16 6 14 8 93 9 96 10 94 11 95 12
REMARK SMILES IDX 13 13 11 14 12 15 10 17 5 18 6 19 99 20 7 21 8 22 98 23 9 24
REMARK SMILES IDX 97 25 3 26 4 27 2 28 1 29 21 30 22 31 23 32 24 33 25 34
REMARK SMILES IDX 26 36 27 37 28 38 92 39 29 40 91 41 30 42 31 43 32 44 85 45
REMARK SMILES IDX 33 46 90 47 84 48 86 49 34 50 89 51 83 52 82 53 35 55 69 56
REMARK SMILES IDX 48 57 68 58 49 59 52 60 67 61 87 62 50 63 51 64 66 66 88 67
REMARK SMILES IDX 53 68 36 69 37 70 46 71 38 72 39 73 45 74 47 75 40 76 41 77
REMARK SMILES IDX 42 78 43 79 44 80 70 81 71 82 80 83 72 84 73 85 79 86 81 87
REMARK SMILES IDX 74 88 75 89 76 90 77 91 78 92 54 93 55 94 64 95 56 96 57 97
REMARK SMILES IDX 63 98 65 99 58 100 59 101 60 102 61 103 62 104
REMARK H PARENT 17 7 13 16 24 35 86 54 52 65
REMARK Flexibility Score: inf
ROOT
ATOM      1  C   UNL A   1      30.669  26.711  24.726  1.00  0.00     0.002 C 
ENDROOT
BRANCH   1   2
ATOM      2  C   UNL A   1      30.523  25.815  23.497  1.00  0.00     0.021 C 
BRANCH   2   3
ATOM      3  C   UNL A   1      30.681  24.327  23.783  1.00  0.00     0.116 C 
BRANCH   3   4
ATOM      4  N   UNL A   1      30.561  23.984  25.184  1.00  0.00    -0.354 N 
ATOM      5  C   UNL A   1      31.454  23.593  26.132  1.00  0.00     0.245 C 
ATOM      6  O   UNL A   1      31.031  23.649  27.296  1.00  0.00    -0.272 OA
ATOM      7  H   UNL A   1      29.639  24.048  25.522  1.00  0.00     0.163 HD
BRANCH   5   8
ATOM      8  C   UNL A   1      32.930  23.145  25.848  1.00  0.00     0.119 C 
ATOM      9  C   UNL A   1      32.868  21.673  25.356  1.00  0.00     0.038 C 
ATOM     10  C   UNL A   1      33.968  23.087  26.985  1.00  0.00     0.038 C 
ATOM     11  C   UNL A   1      33.164  20.814  26.572  1.00  0.00     0.003 C 
ATOM     12  C   UNL A   1      34.187  21.616  27.357  1.00  0.00     0.003 C 
BRANCH   8  13
ATOM     13  N   UNL A   1      33.474  23.985  24.733  1.00  0.00    -0.338 N 
ATOM     14  C   UNL A   1      34.641  24.019  24.006  1.00  0.00     0.252 C 
ATOM     15  O   UNL A   1      34.661  24.750  23.011  1.00  0.00    -0.269 OA
ATOM     16  H   UNL A   1      32.842  24.683  24.452  1.00  0.00     0.164 HD
BRANCH  14  17
ATOM     17  C   UNL A   1      35.902  23.320  24.385  1.00  0.00     0.040 A 
ATOM     18  N   UNL A   1      39.314  21.516  26.047  1.00  0.00    -0.312 N 
ATOM     19  C   UNL A   1      39.817  22.596  26.905  1.00  0.00     0.130 C 
ATOM     20  C   UNL A   1      38.204  21.997  25.333  1.00  0.00     0.047 A 
ATOM     21  C   UNL A   1      38.906  23.811  26.721  1.00  0.00     0.059 C 
ATOM     22  C   UNL A   1      37.919  23.309  25.716  1.00  0.00    -0.022 A 
ATOM     23  C   UNL A   1      37.361  21.361  24.453  1.00  0.00     0.027 A 
ATOM     24  C   UNL A   1      36.785  23.979  25.255  1.00  0.00     0.019 A 
ATOM     25  C   UNL A   1      36.245  22.042  23.944  1.00  0.00     0.016 A 
BRANCH  18  26
ATOM     26  C   UNL A   1      39.905  20.273  26.121  1.00  0.00     0.226 C 
ATOM     27  O   UNL A   1      39.427  19.309  25.511  1.00  0.00    -0.275 OA
BRANCH  26  28
ATOM     28  C   UNL A   1      41.025  20.018  27.117  1.00  0.00     0.097 C 
ATOM     29  C   UNL A   1      42.364  19.607  26.550  1.00  0.00     0.014 C 
ENDBRANCH  26  28
ENDBRANCH  18  26
ENDBRANCH  14  17
ENDBRANCH   8  13
ENDBRANCH   5   8
ENDBRANCH   3   4
ENDBRANCH   2   3
ENDBRANCH   1   2
BRANCH   1  30
ATOM     30  C   UNL A   1      32.014  27.416  24.896  1.00  0.00     0.002 C 
BRANCH  30  31
ATOM     31  C   UNL A   1      32.778  27.068  26.172  1.00  0.00     0.021 C 
BRANCH  31  32
ATOM     32  C   UNL A   1      33.985  27.953  26.452  1.00  0.00     0.116 C 
BRANCH  32  33
ATOM     33  N   UNL A   1      33.614  29.343  26.670  1.00  0.00    -0.352 N 
ATOM     34  C   UNL A   1      34.234  30.293  27.442  1.00  0.00     0.251 C 
ATOM     35  H   UNL A   1      32.804  29.644  26.196  1.00  0.00     0.163 HD
ATOM     36  O   UNL A   1      33.677  31.364  27.674  1.00  0.00    -0.269 OA
BRANCH  34  37
ATOM     37  C   UNL A   1      35.565  30.006  28.011  1.00  0.00     0.039 A 
ATOM     38  C   UNL A   1      36.707  30.319  27.272  1.00  0.00     0.014 A 
ATOM     39  C   UNL A   1      35.679  29.465  29.295  1.00  0.00     0.014 A 
ATOM     40  C   UNL A   1      37.967  30.154  27.852  1.00  0.00     0.010 A 
ATOM     41  C   UNL A   1      36.928  29.386  29.900  1.00  0.00     0.010 A 
ATOM     42  C   UNL A   1      38.086  29.726  29.185  1.00  0.00    -0.014 A 
BRANCH  42  43
ATOM     43  C   UNL A   1      39.408  29.622  29.853  1.00  0.00     0.031 A 
ATOM     44  C   UNL A   1      40.448  28.678  29.313  1.00  0.00     0.074 A 
ATOM     45  C   UNL A   1      39.644  30.319  30.983  1.00  0.00     0.049 A 
ATOM     46  N   UNL A   1      41.623  28.377  29.801  1.00  0.00    -0.248 NA
ATOM     47  C   UNL A   1      40.108  27.950  28.079  1.00  0.00     0.031 C 
ATOM     48  C   UNL A   1      38.695  31.228  31.632  1.00  0.00     0.029 A 
ATOM     49  N   UNL A   1      40.749  30.362  31.795  1.00  0.00    -0.354 N 
ATOM     50  C   UNL A   1      42.154  27.419  28.945  1.00  0.00     0.074 A 
ATOM     51  C   UNL A   1      41.149  27.143  27.943  1.00  0.00     0.031 C 
ATOM     52  C   UNL A   1      39.268  31.755  32.726  1.00  0.00     0.029 A 
ATOM     53  C   UNL A   1      40.606  31.194  32.882  1.00  0.00     0.049 A 
ATOM     54  H   UNL A   1      41.568  29.847  31.617  1.00  0.00     0.167 HD
ATOM     55  C   UNL A   1      43.378  26.841  28.977  1.00  0.00     0.037 A 
ATOM     56  C   UNL A   1      41.452  31.464  33.895  1.00  0.00     0.037 A 
ATOM     57  C   UNL A   1      44.382  27.143  29.962  1.00  0.00     0.049 A 
ATOM     58  C   UNL A   1      42.806  30.807  33.910  1.00  0.00     0.074 A 
ATOM     59  C   UNL A   1      45.675  26.658  30.048  1.00  0.00     0.029 A 
ATOM     60  N   UNL A   1      44.207  28.007  31.034  1.00  0.00    -0.354 N 
ATOM     61  N   UNL A   1      43.316  29.951  33.057  1.00  0.00    -0.248 NA
ATOM     62  C   UNL A   1      43.702  31.154  35.022  1.00  0.00     0.031 C 
ATOM     63  C   UNL A   1      46.266  27.191  31.199  1.00  0.00     0.029 A 
ATOM     64  C   UNL A   1      45.361  28.052  31.799  1.00  0.00     0.049 A 
ATOM     65  H   UNL A   1      43.385  28.514  31.221  1.00  0.00     0.167 HD
ATOM     66  C   UNL A   1      44.602  29.680  33.512  1.00  0.00     0.074 A 
ATOM     67  C   UNL A   1      44.795  30.472  34.709  1.00  0.00     0.031 C 
ATOM     68  C   UNL A   1      45.539  28.855  32.984  1.00  0.00     0.037 A 
BRANCH  55  69
ATOM     69  C   UNL A   1      43.700  25.828  27.912  1.00  0.00     0.058 A 
ATOM     70  C   UNL A   1      43.318  24.482  28.034  1.00  0.00     0.135 A 
ATOM     71  C   UNL A   1      44.369  26.212  26.738  1.00  0.00     0.135 A 
ATOM     72  F   UNL A   1      42.691  24.054  29.142  1.00  0.00    -0.206 F 
ATOM     73  C   UNL A   1      43.617  23.547  27.048  1.00  0.00     0.059 A 
ATOM     74  C   UNL A   1      44.649  25.301  25.724  1.00  0.00     0.059 A 
ATOM     75  F   UNL A   1      44.758  27.486  26.569  1.00  0.00    -0.206 F 
ATOM     76  C   UNL A   1      44.282  23.967  25.896  1.00  0.00     0.060 A 
BRANCH  76  77
ATOM     77  S   UNL A   1      44.655  22.743  24.623  1.00  0.00     0.124 S 
ATOM     78  O   UNL A   1      45.727  23.407  23.887  1.00  0.00    -0.237 OA
ATOM     79  O   UNL A   1      45.054  21.584  25.413  1.00  0.00    -0.237 OA
ATOM     80  O   UNL A   1      43.392  22.604  23.903  1.00  0.00    -0.744 OA
ENDBRANCH  76  77
ENDBRANCH  55  69
BRANCH  56  81
ATOM     81  C   UNL A   1      41.052  32.417  34.966  1.00  0.00     0.058 A 
ATOM     82  C   UNL A   1      40.277  31.995  36.055  1.00  0.00     0.135 A 
ATOM     83  C   UNL A   1      41.445  33.765  34.928  1.00  0.00     0.135 A 
ATOM     84  F   UNL A   1      39.871  30.718  36.135  1.00  0.00    -0.206 F 
ATOM     85  C   UNL A   1      39.890  32.875  37.062  1.00  0.00     0.059 A 
ATOM     86  C   UNL A   1      41.094  34.657  35.935  1.00  0.00     0.059 A 
ATOM     87  F   UNL A   1      42.202  34.217  33.916  1.00  0.00    -0.206 F 
ATOM     88  C   UNL A   1      40.306  34.206  36.993  1.00  0.00     0.060 A 
BRANCH  88  89
ATOM     89  S   UNL A   1      39.839  35.330  38.327  1.00  0.00     0.124 S 
ATOM     90  O   UNL A   1      39.597  36.568  37.595  1.00  0.00    -0.237 OA
ATOM     91  O   UNL A   1      38.658  34.673  38.880  1.00  0.00    -0.237 OA
ATOM     92  O   UNL A   1      41.013  35.327  39.194  1.00  0.00    -0.744 OA
ENDBRANCH  88  89
ENDBRANCH  56  81
BRANCH  68  93
ATOM     93  C   UNL A   1      46.874  28.787  33.673  1.00  0.00     0.058 A 
ATOM     94  C   UNL A   1      47.893  29.712  33.405  1.00  0.00     0.135 A 
ATOM     95  C   UNL A   1      47.111  27.818  34.663  1.00  0.00     0.135 A 
ATOM     96  F   UNL A   1      47.721  30.653  32.463  1.00  0.00    -0.206 F 
ATOM     97  C   UNL A   1      49.109  29.671  34.081  1.00  0.00     0.059 A 
ATOM     98  C   UNL A   1      48.306  27.775  35.372  1.00  0.00     0.059 A 
ATOM     99  F   UNL A   1      46.164  26.914  34.965  1.00  0.00    -0.206 F 
ATOM    100  C   UNL A   1      49.303  28.701  35.067  1.00  0.00     0.060 A 
BRANCH 100 101
ATOM    101  S   UNL A   1      50.868  28.687  35.967  1.00  0.00     0.124 S 
ATOM    102  O   UNL A   1      50.534  27.859  37.122  1.00  0.00    -0.237 OA
ATOM    103  O   UNL A   1      51.779  28.086  34.998  1.00  0.00    -0.237 OA
ATOM    104  O   UNL A   1      51.108  30.097  36.255  1.00  0.00    -0.744 OA
ENDBRANCH 100 101
ENDBRANCH  68  93
ENDBRANCH  42  43
ENDBRANCH  34  37
ENDBRANCH  32  33
ENDBRANCH  31  32
ENDBRANCH  30  31
ENDBRANCH   1  30
TORSDOF 20
ENDMDL
MODEL 3
REMARK VINA RESULT:     -10.7      4.026      8.065
REMARK SMILES CCC(=O)N1CCc2cc(C(=O)NC3(C(=O)NCCCCCCNC(=O)c4ccc(-c5c6nc(c(-c7c(F)cc(S(=O)(=O)[O-])cc7F)c7ccc([nH]7)c(-c7c(F)cc(S(=O)(=O)[O-])cc7F)c7nc(c(-c8c(F)cc(S(=O)(=O)[O-])cc8F)c8ccc5[nH]8)C=C7)C=C6)cc4)CCCC3)ccc21
REMARK SMILES IDX 20 1 19 2 18 3 17 4 15 5 16 6 14 8 93 9 96 10 94 11 95 12
REMARK SMILES IDX 13 13 11 14 12 15 10 17 5 18 6 19 99 20 7 21 8 22 98 23 9 24
REMARK SMILES IDX 97 25 3 26 4 27 2 28 1 29 21 30 22 31 23 32 24 33 25 34
REMARK SMILES IDX 26 36 27 37 28 38 92 39 29 40 91 41 30 42 31 43 32 44 85 45
REMARK SMILES IDX 33 46 90 47 84 48 86 49 34 50 89 51 83 52 82 53 35 55 69 56
REMARK SMILES IDX 48 57 68 58 49 59 52 60 67 61 87 62 50 63 51 64 66 66 88 67
REMARK SMILES IDX 53 68 36 69 37 70 46 71 38 72 39 73 45 74 47 75 40 76 41 77
REMARK SMILES IDX 42 78 43 79 44 80 70 81 71 82 80 83 72 84 73 85 79 86 81 87
REMARK SMILES IDX 74 88 75 89 76 90 77 91 78 92 54 93 55 94 64 95 56 96 57 97
REMARK SMILES IDX 63 98 65 99 58 100 59 101 60 102 61 103 62 104
REMARK H PARENT 17 7 13 16 24 35 86 54 52 65
REMARK Flexibility Score: inf
ROOT
ATOM      1  C   UNL A   1      37.718  33.329  30.480  1.00  0.00     0.002 C 
ENDROOT
BRANCH   1   2
ATOM      2  C   UNL A   1      38.516  34.367  31.268  1.00  0.00     0.021 C 
BRANCH   2   3
ATOM      3  C   UNL A   1      38.954  33.904  32.652  1.00  0.00     0.116 C 
BRANCH   3   4
ATOM      4  N   UNL A   1      38.884  34.938  33.663  1.00  0.00    -0.354 N 
ATOM      5  C   UNL A   1      39.361  35.041  34.932  1.00  0.00     0.245 C 
ATOM      6  O   UNL A   1      39.338  36.188  35.402  1.00  0.00    -0.272 OA
ATOM      7  H   UNL A   1      38.386  35.735  33.369  1.00  0.00     0.163 HD
BRANCH   5   8
ATOM      8  C   UNL A   1      39.952  33.855  35.770  1.00  0.00     0.119 C 
ATOM      9  C   UNL A   1      40.181  34.389  37.211  1.00  0.00     0.038 C 
ATOM     10  C   UNL A   1      41.317  33.238  35.409  1.00  0.00     0.038 C 
ATOM     11  C   UNL A   1      41.648  34.771  37.285  1.00  0.00     0.003 C 
ATOM     12  C   UNL A   1      42.350  33.733  36.428  1.00  0.00     0.003 C 
BRANCH   8  13
ATOM     13  N   UNL A   1      38.926  32.765  35.838  1.00  0.00    -0.338 N 
ATOM     14  C   UNL A   1      38.937  31.395  35.715  1.00  0.00     0.252 C 
ATOM     15  O   UNL A   1      37.903  30.796  36.028  1.00  0.00    -0.269 OA
ATOM     16  H   UNL A   1      38.024  33.114  36.013  1.00  0.00     0.164 HD
BRANCH  14  17
ATOM     17  C   UNL A   1      40.060  30.599  35.145  1.00  0.00     0.040 A 
ATOM     18  N   UNL A   1      43.009  27.879  33.894  1.00  0.00    -0.312 N 
ATOM     19  C   UNL A   1      43.462  27.339  35.182  1.00  0.00     0.130 C 
ATOM     20  C   UNL A   1      42.068  28.890  34.143  1.00  0.00     0.047 A 
ATOM     21  C   UNL A   1      42.697  28.058  36.294  1.00  0.00     0.059 C 
ATOM     22  C   UNL A   1      41.839  29.005  35.516  1.00  0.00    -0.022 A 
ATOM     23  C   UNL A   1      41.320  29.653  33.277  1.00  0.00     0.027 A 
ATOM     24  C   UNL A   1      40.850  29.846  36.029  1.00  0.00     0.019 A 
ATOM     25  C   UNL A   1      40.359  30.540  33.784  1.00  0.00     0.016 A 
BRANCH  18  26
ATOM     26  C   UNL A   1      43.475  27.308  32.729  1.00  0.00     0.226 C 
ATOM     27  O   UNL A   1      42.865  27.462  31.663  1.00  0.00    -0.275 OA
BRANCH  26  28
ATOM     28  C   UNL A   1      44.621  26.310  32.772  1.00  0.00     0.097 C 
ATOM     29  C   UNL A   1      44.284  24.869  32.467  1.00  0.00     0.014 C 
ENDBRANCH  26  28
ENDBRANCH  18  26
ENDBRANCH  14  17
ENDBRANCH   8  13
ENDBRANCH   5   8
ENDBRANCH   3   4
ENDBRANCH   2   3
ENDBRANCH   1   2
BRANCH   1  30
ATOM     30  C   UNL A   1      37.398  33.678  29.028  1.00  0.00     0.002 C 
BRANCH  30  31
ATOM     31  C   UNL A   1      35.937  33.500  28.620  1.00  0.00     0.021 C 
BRANCH  31  32
ATOM     32  C   UNL A   1      35.104  32.668  29.586  1.00  0.00     0.116 C 
BRANCH  32  33
ATOM     33  N   UNL A   1      34.250  31.712  28.897  1.00  0.00    -0.352 N 
ATOM     34  C   UNL A   1      34.594  30.541  28.268  1.00  0.00     0.251 C 
ATOM     35  H   UNL A   1      33.290  31.935  28.882  1.00  0.00     0.163 HD
ATOM     36  O   UNL A   1      33.777  29.952  27.564  1.00  0.00    -0.269 OA
BRANCH  34  37
ATOM     37  C   UNL A   1      35.963  30.011  28.424  1.00  0.00     0.039 A 
ATOM     38  C   UNL A   1      36.860  30.107  27.359  1.00  0.00     0.014 A 
ATOM     39  C   UNL A   1      36.367  29.457  29.643  1.00  0.00     0.014 A 
ATOM     40  C   UNL A   1      38.186  29.710  27.540  1.00  0.00     0.010 A 
ATOM     41  C   UNL A   1      37.706  29.147  29.846  1.00  0.00     0.010 A 
ATOM     42  C   UNL A   1      38.630  29.266  28.797  1.00  0.00    -0.014 A 
BRANCH  42  43
ATOM     43  C   UNL A   1      40.052  28.917  29.040  1.00  0.00     0.031 A 
ATOM     44  C   UNL A   1      40.997  29.955  29.585  1.00  0.00     0.074 A 
ATOM     45  C   UNL A   1      40.509  27.694  28.702  1.00  0.00     0.049 A 
ATOM     46  N   UNL A   1      42.287  29.875  29.781  1.00  0.00    -0.248 NA
ATOM     47  C   UNL A   1      40.419  31.266  29.921  1.00  0.00     0.031 C 
ATOM     48  C   UNL A   1      39.702  26.620  28.119  1.00  0.00     0.029 A 
ATOM     49  N   UNL A   1      41.767  27.151  28.788  1.00  0.00    -0.354 N 
ATOM     50  C   UNL A   1      42.675  31.125  30.249  1.00  0.00     0.074 A 
ATOM     51  C   UNL A   1      41.497  31.963  30.248  1.00  0.00     0.031 C 
ATOM     52  C   UNL A   1      40.478  25.541  27.922  1.00  0.00     0.029 A 
ATOM     53  C   UNL A   1      41.844  25.858  28.325  1.00  0.00     0.049 A 
ATOM     54  H   UNL A   1      42.540  27.641  29.148  1.00  0.00     0.167 HD
ATOM     55  C   UNL A   1      43.898  31.530  30.666  1.00  0.00     0.037 A 
ATOM     56  C   UNL A   1      42.899  25.025  28.225  1.00  0.00     0.037 A 
ATOM     57  C   UNL A   1      45.060  30.681  30.689  1.00  0.00     0.049 A 
ATOM     58  C   UNL A   1      44.249  25.500  28.692  1.00  0.00     0.074 A 
ATOM     59  C   UNL A   1      46.331  30.976  31.149  1.00  0.00     0.029 A 
ATOM     60  N   UNL A   1      45.093  29.371  30.233  1.00  0.00    -0.354 N 
ATOM     61  N   UNL A   1      44.586  26.664  29.192  1.00  0.00    -0.248 NA
ATOM     62  C   UNL A   1      45.363  24.546  28.587  1.00  0.00     0.031 C 
ATOM     63  C   UNL A   1      47.145  29.861  30.926  1.00  0.00     0.029 A 
ATOM     64  C   UNL A   1      46.368  28.851  30.380  1.00  0.00     0.049 A 
ATOM     65  H   UNL A   1      44.323  28.883  29.862  1.00  0.00     0.167 HD
ATOM     66  C   UNL A   1      45.942  26.575  29.488  1.00  0.00     0.074 A 
ATOM     67  C   UNL A   1      46.360  25.237  29.121  1.00  0.00     0.031 C 
ATOM     68  C   UNL A   1      46.765  27.512  30.018  1.00  0.00     0.037 A 
BRANCH  55  69
ATOM     69  C   UNL A   1      44.041  32.953  31.135  1.00  0.00     0.058 A 
ATOM     70  C   UNL A   1      44.358  33.994  30.248  1.00  0.00     0.135 A 
ATOM     71  C   UNL A   1      43.825  33.287  32.482  1.00  0.00     0.135 A 
ATOM     72  F   UNL A   1      44.592  33.732  28.952  1.00  0.00    -0.206 F 
ATOM     73  C   UNL A   1      44.489  35.309  30.684  1.00  0.00     0.059 A 
ATOM     74  C   UNL A   1      43.918  34.599  32.934  1.00  0.00     0.059 A 
ATOM     75  F   UNL A   1      43.520  32.331  33.374  1.00  0.00    -0.206 F 
ATOM     76  C   UNL A   1      44.266  35.601  32.030  1.00  0.00     0.060 A 
BRANCH  76  77
ATOM     77  S   UNL A   1      44.433  37.313  32.577  1.00  0.00     0.124 S 
ATOM     78  O   UNL A   1      45.846  37.364  32.943  1.00  0.00    -0.237 OA
ATOM     79  O   UNL A   1      44.061  38.061  31.381  1.00  0.00    -0.237 OA
ATOM     80  O   UNL A   1      43.493  37.408  33.691  1.00  0.00    -0.744 OA
ENDBRANCH  76  77
ENDBRANCH  55  69
BRANCH  56  81
ATOM     81  C   UNL A   1      42.716  23.652  27.681  1.00  0.00     0.058 A 
ATOM     82  C   UNL A   1      42.643  23.427  26.299  1.00  0.00     0.135 A 
ATOM     83  C   UNL A   1      42.622  22.538  28.530  1.00  0.00     0.135 A 
ATOM     84  F   UNL A   1      42.722  24.460  25.447  1.00  0.00    -0.206 F 
ATOM     85  C   UNL A   1      42.467  22.150  25.775  1.00  0.00     0.059 A 
ATOM     86  C   UNL A   1      42.473  21.248  28.029  1.00  0.00     0.059 A 
ATOM     87  F   UNL A   1      42.704  22.695  29.860  1.00  0.00    -0.206 F 
ATOM     88  C   UNL A   1      42.385  21.065  26.650  1.00  0.00     0.060 A 
BRANCH  88  89
ATOM     89  S   UNL A   1      42.202  19.407  25.959  1.00  0.00     0.124 S 
ATOM     90  O   UNL A   1      42.614  18.574  27.084  1.00  0.00    -0.237 OA
ATOM     91  O   UNL A   1      40.782  19.371  25.622  1.00  0.00    -0.237 OA
ATOM     92  O   UNL A   1      43.110  19.419  24.816  1.00  0.00    -0.744 OA
ENDBRANCH  88  89
ENDBRANCH  56  81
BRANCH  68  93
ATOM     93  C   UNL A   1      48.195  27.121  30.270  1.00  0.00     0.058 A 
ATOM     94  C   UNL A   1      49.179  27.234  29.277  1.00  0.00     0.135 A 
ATOM     95  C   UNL A   1      48.596  26.688  31.545  1.00  0.00     0.135 A 
ATOM     96  F   UNL A   1      48.848  27.636  28.040  1.00  0.00    -0.206 F 
ATOM     97  C   UNL A   1      50.509  26.914  29.532  1.00  0.00     0.059 A 
ATOM     98  C   UNL A   1      49.924  26.390  31.831  1.00  0.00     0.059 A 
ATOM     99  F   UNL A   1      47.695  26.572  32.535  1.00  0.00    -0.206 F 
ATOM    100  C   UNL A   1      50.872  26.498  30.815  1.00  0.00     0.060 A 
BRANCH 100 101
ATOM    101  S   UNL A   1      52.608  26.130  31.145  1.00  0.00     0.124 S 
ATOM    102  O   UNL A   1      52.972  27.216  32.049  1.00  0.00    -0.237 OA
ATOM    103  O   UNL A   1      52.536  24.801  31.745  1.00  0.00    -0.237 OA
ATOM    104  O   UNL A   1      53.224  26.181  29.822  1.00  0.00    -0.744 OA
ENDBRANCH 100 101
ENDBRANCH  68  93
ENDBRANCH  42  43
ENDBRANCH  34  37
ENDBRANCH  32  33
ENDBRANCH  31  32
ENDBRANCH  30  31
ENDBRANCH   1  30
TORSDOF 20
ENDMDL
