MODEL 1
REMARK VINA RESULT:     -10.6      0.000      0.000
REMARK SMILES O=C(NCCCCCCNC(=O)c1cc(-c2ccc(F)c(C(F)(F)F)c2)cnc1O)c1ccc(-c2c3nc(c(-c4c(F)cc(S(=O)(=O)[O-])cc4F)c4ccc([nH]4)c(-c4c(F)cc(S(=O)(=O)[O-])cc4F)c4nc(c(-c5c(F)cc(S(=O)(=O)[O-])cc5F)c5ccc2[nH]5)C=C4)C=C3)cc1
REMARK SMILES IDX 6 1 5 2 4 3 3 4 1 5 2 6 31 8 32 9 96 10 33 11 95 12 34 13
REMARK SMILES IDX 35 14 36 15 89 16 37 17 94 18 88 19 90 20 38 21 93 22 87 23
REMARK SMILES IDX 86 24 39 26 73 27 52 28 72 29 53 30 56 31 71 32 91 33 54 34
REMARK SMILES IDX 55 35 70 37 92 38 57 39 40 40 41 41 50 42 42 43 43 44 49 45
REMARK SMILES IDX 51 46 44 47 45 48 46 49 47 50 48 51 74 52 75 53 84 54 76 55
REMARK SMILES IDX 77 56 83 57 85 58 78 59 79 60 80 61 81 62 82 63 58 64 59 65
REMARK SMILES IDX 68 66 60 67 61 68 67 69 69 70 62 71 63 72 64 73 65 74 66 75
REMARK SMILES IDX 7 76 8 77 9 78 10 79 11 80 12 82 13 83 14 84 29 85 15 86
REMARK SMILES IDX 28 87 27 88 30 89 16 91 17 92 26 93 18 94 21 95 19 96 20 97
REMARK SMILES IDX 22 98 23 99 24 100 25 101
REMARK H PARENT 3 7 90 25 56 36 10 81 30 90
REMARK Flexibility Score: inf
ROOT
ATOM      1  C   UNL A   1      44.958  23.763  25.109  1.00  0.00     0.002 C 
ENDROOT
BRANCH   1   2
ATOM      2  C   UNL A   1      45.645  25.116  25.309  1.00  0.00     0.021 C 
BRANCH   2   3
ATOM      3  C   UNL A   1      44.704  26.299  25.511  1.00  0.00     0.116 C 
BRANCH   3   4
ATOM      4  N   UNL A   1      43.381  26.047  24.975  1.00  0.00    -0.352 N 
ATOM      5  O   UNL A   1      41.153  25.770  25.006  1.00  0.00    -0.269 OA
ATOM      6  C   UNL A   1      42.152  26.218  25.561  1.00  0.00     0.251 C 
ATOM      7  H   UNL A   1      43.361  25.703  24.053  1.00  0.00     0.163 HD
BRANCH   6   8
ATOM      8  C   UNL A   1      42.023  26.928  26.856  1.00  0.00     0.039 A 
ATOM      9  C   UNL A   1      41.303  26.316  27.886  1.00  0.00     0.014 A 
ATOM     10  C   UNL A   1      42.544  28.213  27.040  1.00  0.00     0.014 A 
ATOM     11  C   UNL A   1      41.116  26.983  29.100  1.00  0.00     0.010 A 
ATOM     12  C   UNL A   1      42.418  28.848  28.274  1.00  0.00     0.010 A 
ATOM     13  C   UNL A   1      41.675  28.253  29.306  1.00  0.00    -0.014 A 
BRANCH  13  14
ATOM     14  C   UNL A   1      41.415  29.014  30.555  1.00  0.00     0.031 A 
ATOM     15  C   UNL A   1      40.258  29.978  30.607  1.00  0.00     0.074 A 
ATOM     16  C   UNL A   1      42.211  28.855  31.630  1.00  0.00     0.049 A 
ATOM     17  N   UNL A   1      39.898  30.788  31.569  1.00  0.00    -0.248 NA
ATOM     18  C   UNL A   1      39.405  30.058  29.407  1.00  0.00     0.031 C 
ATOM     19  C   UNL A   1      43.368  27.961  31.701  1.00  0.00     0.029 A 
ATOM     20  N   UNL A   1      42.168  29.440  32.870  1.00  0.00    -0.354 N 
ATOM     21  C   UNL A   1      38.790  31.478  31.088  1.00  0.00     0.074 A 
ATOM     22  C   UNL A   1      38.570  31.034  29.731  1.00  0.00     0.031 C 
ATOM     23  C   UNL A   1      43.906  28.036  32.931  1.00  0.00     0.029 A 
ATOM     24  C   UNL A   1      43.157  29.008  33.722  1.00  0.00     0.049 A 
ATOM     25  H   UNL A   1      41.491  30.109  33.126  1.00  0.00     0.167 HD
ATOM     26  C   UNL A   1      38.008  32.377  31.730  1.00  0.00     0.037 A 
ATOM     27  C   UNL A   1      43.429  29.360  34.994  1.00  0.00     0.037 A 
ATOM     28  C   UNL A   1      38.203  32.785  33.095  1.00  0.00     0.049 A 
ATOM     29  C   UNL A   1      42.558  30.377  35.679  1.00  0.00     0.074 A 
ATOM     30  C   UNL A   1      37.444  33.665  33.846  1.00  0.00     0.029 A 
ATOM     31  N   UNL A   1      39.223  32.332  33.918  1.00  0.00    -0.354 N 
ATOM     32  N   UNL A   1      41.506  31.009  35.214  1.00  0.00    -0.248 NA
ATOM     33  C   UNL A   1      42.910  30.735  37.061  1.00  0.00     0.031 C 
ATOM     34  C   UNL A   1      38.023  33.768  35.115  1.00  0.00     0.029 A 
ATOM     35  C   UNL A   1      39.120  32.923  35.167  1.00  0.00     0.049 A 
ATOM     36  H   UNL A   1      39.918  31.687  33.654  1.00  0.00     0.167 HD
ATOM     37  C   UNL A   1      41.058  31.820  36.252  1.00  0.00     0.074 A 
ATOM     38  C   UNL A   1      41.946  31.591  37.373  1.00  0.00     0.031 C 
ATOM     39  C   UNL A   1      40.009  32.678  36.273  1.00  0.00     0.037 A 
BRANCH  26  40
ATOM     40  C   UNL A   1      36.853  32.967  30.970  1.00  0.00     0.058 A 
ATOM     41  C   UNL A   1      35.531  32.566  31.220  1.00  0.00     0.135 A 
ATOM     42  C   UNL A   1      37.062  33.977  30.017  1.00  0.00     0.135 A 
ATOM     43  F   UNL A   1      35.277  31.590  32.107  1.00  0.00    -0.206 F 
ATOM     44  C   UNL A   1      34.458  33.131  30.541  1.00  0.00     0.059 A 
ATOM     45  C   UNL A   1      36.001  34.576  29.344  1.00  0.00     0.059 A 
ATOM     46  F   UNL A   1      38.306  34.395  29.737  1.00  0.00    -0.206 F 
ATOM     47  C   UNL A   1      34.702  34.139  29.606  1.00  0.00     0.060 A 
BRANCH  47  48
ATOM     48  S   UNL A   1      33.295  34.875  28.750  1.00  0.00     0.124 S 
ATOM     49  O   UNL A   1      32.435  35.248  29.869  1.00  0.00    -0.237 OA
ATOM     50  O   UNL A   1      33.914  35.983  28.030  1.00  0.00    -0.237 OA
ATOM     51  O   UNL A   1      32.797  33.787  27.914  1.00  0.00    -0.744 OA
ENDBRANCH  47  48
ENDBRANCH  26  40
BRANCH  27  52
ATOM     52  C   UNL A   1      44.564  28.722  35.715  1.00  0.00     0.058 A 
ATOM     53  C   UNL A   1      44.366  27.569  36.488  1.00  0.00     0.135 A 
ATOM     54  C   UNL A   1      45.865  29.241  35.636  1.00  0.00     0.135 A 
ATOM     55  F   UNL A   1      43.138  27.041  36.601  1.00  0.00    -0.206 F 
ATOM     56  C   UNL A   1      45.415  26.957  37.167  1.00  0.00     0.059 A 
ATOM     57  C   UNL A   1      46.935  28.634  36.287  1.00  0.00     0.059 A 
ATOM     58  F   UNL A   1      46.109  30.337  34.899  1.00  0.00    -0.206 F 
ATOM     59  C   UNL A   1      46.698  27.497  37.057  1.00  0.00     0.060 A 
BRANCH  59  60
ATOM     60  S   UNL A   1      48.060  26.663  37.901  1.00  0.00     0.124 S 
ATOM     61  O   UNL A   1      47.951  25.310  37.368  1.00  0.00    -0.237 OA
ATOM     62  O   UNL A   1      49.215  27.435  37.454  1.00  0.00    -0.237 OA
ATOM     63  O   UNL A   1      47.723  26.814  39.313  1.00  0.00    -0.744 OA
ENDBRANCH  59  60
ENDBRANCH  27  52
BRANCH  39  64
ATOM     64  C   UNL A   1      39.746  33.424  37.550  1.00  0.00     0.058 A 
ATOM     65  C   UNL A   1      40.409  34.623  37.847  1.00  0.00     0.135 A 
ATOM     66  C   UNL A   1      38.760  32.977  38.446  1.00  0.00     0.135 A 
ATOM     67  F   UNL A   1      41.363  35.089  37.026  1.00  0.00    -0.206 F 
ATOM     68  C   UNL A   1      40.113  35.351  38.994  1.00  0.00     0.059 A 
ATOM     69  C   UNL A   1      38.431  33.702  39.587  1.00  0.00     0.059 A 
ATOM     70  F   UNL A   1      38.089  31.841  38.201  1.00  0.00    -0.206 F 
ATOM     71  C   UNL A   1      39.118  34.885  39.856  1.00  0.00     0.060 A 
BRANCH  71  72
ATOM     72  S   UNL A   1      38.709  35.869  41.313  1.00  0.00     0.124 S 
ATOM     73  O   UNL A   1      37.431  35.289  41.711  1.00  0.00    -0.237 OA
ATOM     74  O   UNL A   1      39.834  35.595  42.201  1.00  0.00    -0.237 OA
ATOM     75  O   UNL A   1      38.644  37.234  40.796  1.00  0.00    -0.744 OA
ENDBRANCH  71  72
ENDBRANCH  39  64
ENDBRANCH  13  14
ENDBRANCH   6   8
ENDBRANCH   3   4
ENDBRANCH   2   3
ENDBRANCH   1   2
BRANCH   1  76
ATOM     76  C   UNL A   1      45.411  22.964  23.884  1.00  0.00     0.002 C 
BRANCH  76  77
ATOM     77  C   UNL A   1      44.899  21.521  23.803  1.00  0.00     0.021 C 
BRANCH  77  78
ATOM     78  C   UNL A   1      44.728  20.814  25.146  1.00  0.00     0.116 C 
BRANCH  78  79
ATOM     79  N   UNL A   1      43.754  19.733  25.075  1.00  0.00    -0.352 N 
ATOM     80  C   UNL A   1      42.585  19.584  25.772  1.00  0.00     0.256 C 
ATOM     81  H   UNL A   1      43.964  19.011  24.439  1.00  0.00     0.163 HD
ATOM     82  O   UNL A   1      41.974  18.519  25.752  1.00  0.00    -0.269 OA
BRANCH  80  83
ATOM     83  C   UNL A   1      42.042  20.713  26.536  1.00  0.00     0.102 A 
ATOM     84  C   UNL A   1      42.905  21.448  27.355  1.00  0.00     0.029 A 
ATOM     85  C   UNL A   1      40.693  21.047  26.516  1.00  0.00     0.223 A 
ATOM     86  C   UNL A   1      42.410  22.522  28.101  1.00  0.00     0.001 A 
ATOM     87  N   UNL A   1      40.185  22.090  27.198  1.00  0.00    -0.221 NA
ATOM     88  C   UNL A   1      41.048  22.800  27.963  1.00  0.00     0.124 A 
BRANCH  85  89
ATOM     89  O   UNL A   1      39.753  20.348  25.815  1.00  0.00    -0.493 OA
ATOM     90  H   UNL A   1      39.917  19.459  25.570  1.00  0.00     0.295 HD
ENDBRANCH  85  89
BRANCH  86  91
ATOM     91  C   UNL A   1      43.261  23.297  29.009  1.00  0.00    -0.016 A 
ATOM     92  C   UNL A   1      44.090  24.315  28.505  1.00  0.00     0.012 A 
ATOM     93  C   UNL A   1      43.276  23.051  30.393  1.00  0.00     0.025 A 
ATOM     94  C   UNL A   1      44.911  25.057  29.354  1.00  0.00     0.040 A 
ATOM     95  C   UNL A   1      44.103  23.793  31.256  1.00  0.00     0.092 A 
ATOM     96  C   UNL A   1      44.912  24.788  30.717  1.00  0.00     0.135 A 
ATOM     97  F   UNL A   1      45.712  25.508  31.515  1.00  0.00    -0.206 F 
BRANCH  95  98
ATOM     98  C   UNL A   1      44.153  23.536  32.732  1.00  0.00     0.419 C 
ATOM     99  F   UNL A   1      43.873  24.645  33.470  1.00  0.00    -0.166 F 
ATOM    100  F   UNL A   1      43.275  22.577  33.135  1.00  0.00    -0.166 F 
ATOM    101  F   UNL A   1      45.376  23.111  33.157  1.00  0.00    -0.166 F 
ENDBRANCH  95  98
ENDBRANCH  86  91
ENDBRANCH  80  83
ENDBRANCH  78  79
ENDBRANCH  77  78
ENDBRANCH  76  77
ENDBRANCH   1  76
TORSDOF 19
ENDMDL
MODEL 2
REMARK VINA RESULT:     -10.3      3.787     10.121
REMARK SMILES O=C(NCCCCCCNC(=O)c1cc(-c2ccc(F)c(C(F)(F)F)c2)cnc1O)c1ccc(-c2c3nc(c(-c4c(F)cc(S(=O)(=O)[O-])cc4F)c4ccc([nH]4)c(-c4c(F)cc(S(=O)(=O)[O-])cc4F)c4nc(c(-c5c(F)cc(S(=O)(=O)[O-])cc5F)c5ccc2[nH]5)C=C4)C=C3)cc1
REMARK SMILES IDX 6 1 5 2 4 3 3 4 1 5 2 6 31 8 32 9 96 10 33 11 95 12 34 13
REMARK SMILES IDX 35 14 36 15 89 16 37 17 94 18 88 19 90 20 38 21 93 22 87 23
REMARK SMILES IDX 86 24 39 26 73 27 52 28 72 29 53 30 56 31 71 32 91 33 54 34
REMARK SMILES IDX 55 35 70 37 92 38 57 39 40 40 41 41 50 42 42 43 43 44 49 45
REMARK SMILES IDX 51 46 44 47 45 48 46 49 47 50 48 51 74 52 75 53 84 54 76 55
REMARK SMILES IDX 77 56 83 57 85 58 78 59 79 60 80 61 81 62 82 63 58 64 59 65
REMARK SMILES IDX 68 66 60 67 61 68 67 69 69 70 62 71 63 72 64 73 65 74 66 75
REMARK SMILES IDX 7 76 8 77 9 78 10 79 11 80 12 82 13 83 14 84 29 85 15 86
REMARK SMILES IDX 28 87 27 88 30 89 16 91 17 92 26 93 18 94 21 95 19 96 20 97
REMARK SMILES IDX 22 98 23 99 24 100 25 101
REMARK H PARENT 3 7 90 25 56 36 10 81 30 90
REMARK Flexibility Score: inf
ROOT
ATOM      1  C   UNL A   1      37.912  22.269  25.468  1.00  0.00     0.002 C 
ENDROOT
BRANCH   1   2
ATOM      2  C   UNL A   1      38.381  23.527  26.203  1.00  0.00     0.021 C 
BRANCH   2   3
ATOM      3  C   UNL A   1      39.658  23.365  27.019  1.00  0.00     0.116 C 
BRANCH   3   4
ATOM      4  N   UNL A   1      40.836  23.793  26.289  1.00  0.00    -0.352 N 
ATOM      5  O   UNL A   1      42.387  25.221  25.515  1.00  0.00    -0.269 OA
ATOM      6  C   UNL A   1      41.522  24.980  26.353  1.00  0.00     0.251 C 
ATOM      7  H   UNL A   1      41.197  23.135  25.652  1.00  0.00     0.163 HD
BRANCH   6   8
ATOM      8  C   UNL A   1      41.223  25.970  27.415  1.00  0.00     0.039 A 
ATOM      9  C   UNL A   1      41.965  27.155  27.452  1.00  0.00     0.014 A 
ATOM     10  C   UNL A   1      40.272  25.713  28.408  1.00  0.00     0.014 A 
ATOM     11  C   UNL A   1      41.746  28.084  28.473  1.00  0.00     0.010 A 
ATOM     12  C   UNL A   1      40.005  26.672  29.384  1.00  0.00     0.010 A 
ATOM     13  C   UNL A   1      40.762  27.852  29.446  1.00  0.00    -0.014 A 
BRANCH  13  14
ATOM     14  C   UNL A   1      40.575  28.785  30.586  1.00  0.00     0.031 A 
ATOM     15  C   UNL A   1      41.456  28.654  31.802  1.00  0.00     0.074 A 
ATOM     16  C   UNL A   1      39.618  29.732  30.544  1.00  0.00     0.049 A 
ATOM     17  N   UNL A   1      41.415  29.317  32.929  1.00  0.00    -0.248 NA
ATOM     18  C   UNL A   1      42.510  27.626  31.750  1.00  0.00     0.031 C 
ATOM     19  C   UNL A   1      38.695  29.953  29.430  1.00  0.00     0.029 A 
ATOM     20  N   UNL A   1      39.264  30.689  31.462  1.00  0.00    -0.354 N 
ATOM     21  C   UNL A   1      42.424  28.779  33.721  1.00  0.00     0.074 A 
ATOM     22  C   UNL A   1      43.024  27.700  32.969  1.00  0.00     0.031 C 
ATOM     23  C   UNL A   1      37.900  30.998  29.719  1.00  0.00     0.029 A 
ATOM     24  C   UNL A   1      38.231  31.497  31.050  1.00  0.00     0.049 A 
ATOM     25  H   UNL A   1      39.708  30.786  32.336  1.00  0.00     0.167 HD
ATOM     26  C   UNL A   1      42.835  29.169  34.950  1.00  0.00     0.037 A 
ATOM     27  C   UNL A   1      37.620  32.522  31.677  1.00  0.00     0.037 A 
ATOM     28  C   UNL A   1      42.265  30.271  35.678  1.00  0.00     0.049 A 
ATOM     29  C   UNL A   1      38.081  32.924  33.052  1.00  0.00     0.074 A 
ATOM     30  C   UNL A   1      42.635  30.766  36.916  1.00  0.00     0.029 A 
ATOM     31  N   UNL A   1      41.214  31.056  35.229  1.00  0.00    -0.354 N 
ATOM     32  N   UNL A   1      39.047  32.413  33.780  1.00  0.00    -0.248 NA
ATOM     33  C   UNL A   1      37.369  34.037  33.696  1.00  0.00     0.031 C 
ATOM     34  C   UNL A   1      41.787  31.832  37.231  1.00  0.00     0.029 A 
ATOM     35  C   UNL A   1      40.914  32.026  36.172  1.00  0.00     0.049 A 
ATOM     36  H   UNL A   1      40.750  30.941  34.370  1.00  0.00     0.167 HD
ATOM     37  C   UNL A   1      39.072  33.157  34.955  1.00  0.00     0.074 A 
ATOM     38  C   UNL A   1      38.034  34.160  34.837  1.00  0.00     0.031 C 
ATOM     39  C   UNL A   1      39.881  33.020  36.034  1.00  0.00     0.037 A 
BRANCH  26  40
ATOM     40  C   UNL A   1      43.972  28.413  35.579  1.00  0.00     0.058 A 
ATOM     41  C   UNL A   1      45.308  28.789  35.367  1.00  0.00     0.135 A 
ATOM     42  C   UNL A   1      43.725  27.332  36.442  1.00  0.00     0.135 A 
ATOM     43  F   UNL A   1      45.600  29.802  34.536  1.00  0.00    -0.206 F 
ATOM     44  C   UNL A   1      46.360  28.111  35.972  1.00  0.00     0.059 A 
ATOM     45  C   UNL A   1      44.761  26.656  37.080  1.00  0.00     0.059 A 
ATOM     46  F   UNL A   1      42.466  26.929  36.676  1.00  0.00    -0.206 F 
ATOM     47  C   UNL A   1      46.076  27.047  36.830  1.00  0.00     0.060 A 
BRANCH  47  48
ATOM     48  S   UNL A   1      47.454  26.193  37.622  1.00  0.00     0.124 S 
ATOM     49  O   UNL A   1      46.834  24.926  37.999  1.00  0.00    -0.237 OA
ATOM     50  O   UNL A   1      48.437  26.123  36.546  1.00  0.00    -0.237 OA
ATOM     51  O   UNL A   1      47.806  27.071  38.734  1.00  0.00    -0.744 OA
ENDBRANCH  47  48
ENDBRANCH  26  40
BRANCH  27  52
ATOM     52  C   UNL A   1      36.522  33.261  30.998  1.00  0.00     0.058 A 
ATOM     53  C   UNL A   1      36.800  34.182  29.978  1.00  0.00     0.135 A 
ATOM     54  C   UNL A   1      35.178  33.053  31.343  1.00  0.00     0.135 A 
ATOM     55  F   UNL A   1      38.071  34.420  29.619  1.00  0.00    -0.206 F 
ATOM     56  C   UNL A   1      35.787  34.880  29.329  1.00  0.00     0.059 A 
ATOM     57  C   UNL A   1      34.145  33.723  30.694  1.00  0.00     0.059 A 
ATOM     58  F   UNL A   1      34.858  32.173  32.306  1.00  0.00    -0.206 F 
ATOM     59  C   UNL A   1      34.460  34.641  29.693  1.00  0.00     0.060 A 
BRANCH  59  60
ATOM     60  S   UNL A   1      33.151  35.515  28.808  1.00  0.00     0.124 S 
ATOM     61  O   UNL A   1      33.921  36.435  27.979  1.00  0.00    -0.237 OA
ATOM     62  O   UNL A   1      32.480  34.427  28.102  1.00  0.00    -0.237 OA
ATOM     63  O   UNL A   1      32.374  36.130  29.879  1.00  0.00    -0.744 OA
ENDBRANCH  59  60
ENDBRANCH  27  52
BRANCH  39  64
ATOM     64  C   UNL A   1      39.694  33.984  37.171  1.00  0.00     0.058 A 
ATOM     65  C   UNL A   1      38.955  33.636  38.312  1.00  0.00     0.135 A 
ATOM     66  C   UNL A   1      40.329  35.237  37.155  1.00  0.00     0.135 A 
ATOM     67  F   UNL A   1      38.325  32.453  38.373  1.00  0.00    -0.206 F 
ATOM     68  C   UNL A   1      38.842  34.502  39.394  1.00  0.00     0.059 A 
ATOM     69  C   UNL A   1      40.249  36.108  38.237  1.00  0.00     0.059 A 
ATOM     70  F   UNL A   1      41.057  35.612  36.092  1.00  0.00    -0.206 F 
ATOM     71  C   UNL A   1      39.498  35.734  39.350  1.00  0.00     0.060 A 
BRANCH  71  72
ATOM     72  S   UNL A   1      39.384  36.823  40.785  1.00  0.00     0.124 S 
ATOM     73  O   UNL A   1      38.682  37.973  40.227  1.00  0.00    -0.237 OA
ATOM     74  O   UNL A   1      38.624  36.013  41.732  1.00  0.00    -0.237 OA
ATOM     75  O   UNL A   1      40.780  37.056  41.148  1.00  0.00    -0.744 OA
ENDBRANCH  71  72
ENDBRANCH  39  64
ENDBRANCH  13  14
ENDBRANCH   6   8
ENDBRANCH   3   4
ENDBRANCH   2   3
ENDBRANCH   1   2
BRANCH   1  76
ATOM     76  C   UNL A   1      37.015  22.508  24.250  1.00  0.00     0.002 C 
BRANCH  76  77
ATOM     77  C   UNL A   1      35.556  22.064  24.399  1.00  0.00     0.021 C 
BRANCH  77  78
ATOM     78  C   UNL A   1      34.585  23.156  24.846  1.00  0.00     0.116 C 
BRANCH  78  79
ATOM     79  N   UNL A   1      33.326  22.605  25.329  1.00  0.00    -0.352 N 
ATOM     80  C   UNL A   1      32.113  23.225  25.462  1.00  0.00     0.256 C 
ATOM     81  H   UNL A   1      33.351  21.658  25.598  1.00  0.00     0.163 HD
ATOM     82  O   UNL A   1      31.197  22.685  26.077  1.00  0.00    -0.269 OA
BRANCH  80  83
ATOM     83  C   UNL A   1      31.894  24.538  24.847  1.00  0.00     0.102 A 
ATOM     84  C   UNL A   1      32.298  25.682  25.543  1.00  0.00     0.029 A 
ATOM     85  C   UNL A   1      31.251  24.692  23.624  1.00  0.00     0.223 A 
ATOM     86  C   UNL A   1      32.091  26.947  24.983  1.00  0.00     0.001 A 
ATOM     87  N   UNL A   1      31.059  25.889  23.041  1.00  0.00    -0.221 NA
ATOM     88  C   UNL A   1      31.485  26.979  23.724  1.00  0.00     0.124 A 
BRANCH  85  89
ATOM     89  O   UNL A   1      30.746  23.650  22.902  1.00  0.00    -0.493 OA
ATOM     90  H   UNL A   1      29.926  23.266  23.144  1.00  0.00     0.295 HD
ENDBRANCH  85  89
BRANCH  86  91
ATOM     91  C   UNL A   1      32.457  28.180  25.687  1.00  0.00    -0.016 A 
ATOM     92  C   UNL A   1      31.564  29.265  25.724  1.00  0.00     0.012 A 
ATOM     93  C   UNL A   1      33.695  28.314  26.339  1.00  0.00     0.025 A 
ATOM     94  C   UNL A   1      31.900  30.447  26.384  1.00  0.00     0.040 A 
ATOM     95  C   UNL A   1      34.043  29.504  27.004  1.00  0.00     0.092 A 
ATOM     96  C   UNL A   1      33.133  30.557  27.013  1.00  0.00     0.135 A 
ATOM     97  F   UNL A   1      33.439  31.703  27.636  1.00  0.00    -0.206 F 
BRANCH  95  98
ATOM     98  C   UNL A   1      35.365  29.680  27.688  1.00  0.00     0.419 C 
ATOM     99  F   UNL A   1      36.144  30.626  27.095  1.00  0.00    -0.166 F 
ATOM    100  F   UNL A   1      35.244  30.047  28.993  1.00  0.00    -0.166 F 
ATOM    101  F   UNL A   1      36.115  28.541  27.699  1.00  0.00    -0.166 F 
ENDBRANCH  95  98
ENDBRANCH  86  91
ENDBRANCH  80  83
ENDBRANCH  78  79
ENDBRANCH  77  78
ENDBRANCH  76  77
ENDBRANCH   1  76
TORSDOF 19
ENDMDL
MODEL 3
REMARK VINA RESULT:     -10.2      4.125     10.902
REMARK SMILES O=C(NCCCCCCNC(=O)c1cc(-c2ccc(F)c(C(F)(F)F)c2)cnc1O)c1ccc(-c2c3nc(c(-c4c(F)cc(S(=O)(=O)[O-])cc4F)c4ccc([nH]4)c(-c4c(F)cc(S(=O)(=O)[O-])cc4F)c4nc(c(-c5c(F)cc(S(=O)(=O)[O-])cc5F)c5ccc2[nH]5)C=C4)C=C3)cc1
REMARK SMILES IDX 6 1 5 2 4 3 3 4 1 5 2 6 31 8 32 9 96 10 33 11 95 12 34 13
REMARK SMILES IDX 35 14 36 15 89 16 37 17 94 18 88 19 90 20 38 21 93 22 87 23
REMARK SMILES IDX 86 24 39 26 73 27 52 28 72 29 53 30 56 31 71 32 91 33 54 34
REMARK SMILES IDX 55 35 70 37 92 38 57 39 40 40 41 41 50 42 42 43 43 44 49 45
REMARK SMILES IDX 51 46 44 47 45 48 46 49 47 50 48 51 74 52 75 53 84 54 76 55
REMARK SMILES IDX 77 56 83 57 85 58 78 59 79 60 80 61 81 62 82 63 58 64 59 65
REMARK SMILES IDX 68 66 60 67 61 68 67 69 69 70 62 71 63 72 64 73 65 74 66 75
REMARK SMILES IDX 7 76 8 77 9 78 10 79 11 80 12 82 13 83 14 84 29 85 15 86
REMARK SMILES IDX 28 87 27 88 30 89 16 91 17 92 26 93 18 94 21 95 19 96 20 97
REMARK SMILES IDX 22 98 23 99 24 100 25 101
REMARK H PARENT 3 7 90 25 56 36 10 81 30 90
REMARK Flexibility Score: inf
ROOT
ATOM      1  C   UNL A   1      35.357  33.980  30.338  1.00  0.00     0.002 C 
ENDROOT
BRANCH   1   2
ATOM      2  C   UNL A   1      34.634  34.014  28.989  1.00  0.00     0.021 C 
BRANCH   2   3
ATOM      3  C   UNL A   1      35.107  32.981  27.972  1.00  0.00     0.116 C 
BRANCH   3   4
ATOM      4  N   UNL A   1      34.223  31.834  27.903  1.00  0.00    -0.352 N 
ATOM      5  O   UNL A   1      33.640  29.683  27.624  1.00  0.00    -0.269 OA
ATOM      6  C   UNL A   1      34.527  30.496  27.872  1.00  0.00     0.251 C 
ATOM      7  H   UNL A   1      33.262  32.045  27.874  1.00  0.00     0.163 HD
BRANCH   6   8
ATOM      8  C   UNL A   1      35.910  30.028  28.126  1.00  0.00     0.039 A 
ATOM      9  C   UNL A   1      36.231  29.552  29.401  1.00  0.00     0.014 A 
ATOM     10  C   UNL A   1      36.904  30.117  27.145  1.00  0.00     0.014 A 
ATOM     11  C   UNL A   1      37.541  29.155  29.688  1.00  0.00     0.010 A 
ATOM     12  C   UNL A   1      38.191  29.654  27.412  1.00  0.00     0.010 A 
ATOM     13  C   UNL A   1      38.531  29.199  28.695  1.00  0.00    -0.014 A 
BRANCH  13  14
ATOM     14  C   UNL A   1      39.945  28.864  29.005  1.00  0.00     0.031 A 
ATOM     15  C   UNL A   1      40.802  29.871  29.728  1.00  0.00     0.074 A 
ATOM     16  C   UNL A   1      40.463  27.678  28.633  1.00  0.00     0.049 A 
ATOM     17  N   UNL A   1      42.073  29.809  30.033  1.00  0.00    -0.248 NA
ATOM     18  C   UNL A   1      40.147  31.124  30.144  1.00  0.00     0.031 C 
ATOM     19  C   UNL A   1      39.739  26.625  27.919  1.00  0.00     0.029 A 
ATOM     20  N   UNL A   1      41.721  27.157  28.806  1.00  0.00    -0.354 N 
ATOM     21  C   UNL A   1      42.370  31.013  30.662  1.00  0.00     0.074 A 
ATOM     22  C   UNL A   1      41.164  31.809  30.647  1.00  0.00     0.031 C 
ATOM     23  C   UNL A   1      40.557  25.573  27.741  1.00  0.00     0.029 A 
ATOM     24  C   UNL A   1      41.871  25.890  28.294  1.00  0.00     0.049 A 
ATOM     25  H   UNL A   1      42.449  27.646  29.253  1.00  0.00     0.167 HD
ATOM     26  C   UNL A   1      43.533  31.408  31.230  1.00  0.00     0.037 A 
ATOM     27  C   UNL A   1      42.947  25.079  28.271  1.00  0.00     0.037 A 
ATOM     28  C   UNL A   1      44.720  30.596  31.283  1.00  0.00     0.049 A 
ATOM     29  C   UNL A   1      44.236  25.548  28.890  1.00  0.00     0.074 A 
ATOM     30  C   UNL A   1      45.940  30.893  31.866  1.00  0.00     0.029 A 
ATOM     31  N   UNL A   1      44.833  29.324  30.742  1.00  0.00    -0.354 N 
ATOM     32  N   UNL A   1      44.495  26.684  29.494  1.00  0.00    -0.248 NA
ATOM     33  C   UNL A   1      45.381  24.629  28.823  1.00  0.00     0.031 C 
ATOM     34  C   UNL A   1      46.800  29.812  31.652  1.00  0.00     0.029 A 
ATOM     35  C   UNL A   1      46.106  28.826  30.969  1.00  0.00     0.049 A 
ATOM     36  H   UNL A   1      44.115  28.846  30.269  1.00  0.00     0.167 HD
ATOM     37  C   UNL A   1      45.824  26.607  29.897  1.00  0.00     0.074 A 
ATOM     38  C   UNL A   1      46.312  25.309  29.480  1.00  0.00     0.031 C 
ATOM     39  C   UNL A   1      46.571  27.529  30.552  1.00  0.00     0.037 A 
BRANCH  26  40
ATOM     40  C   UNL A   1      43.576  32.771  31.861  1.00  0.00     0.058 A 
ATOM     41  C   UNL A   1      43.819  33.924  31.097  1.00  0.00     0.135 A 
ATOM     42  C   UNL A   1      43.324  32.935  33.233  1.00  0.00     0.135 A 
ATOM     43  F   UNL A   1      44.086  33.821  29.785  1.00  0.00    -0.206 F 
ATOM     44  C   UNL A   1      43.829  35.189  31.673  1.00  0.00     0.059 A 
ATOM     45  C   UNL A   1      43.302  34.195  33.825  1.00  0.00     0.059 A 
ATOM     46  F   UNL A   1      43.089  31.866  34.009  1.00  0.00    -0.206 F 
ATOM     47  C   UNL A   1      43.566  35.315  33.038  1.00  0.00     0.060 A 
BRANCH  47  48
ATOM     48  S   UNL A   1      43.562  36.968  33.763  1.00  0.00     0.124 S 
ATOM     49  O   UNL A   1      44.712  36.896  34.659  1.00  0.00    -0.237 OA
ATOM     50  O   UNL A   1      43.724  37.822  32.591  1.00  0.00    -0.237 OA
ATOM     51  O   UNL A   1      42.261  37.049  34.420  1.00  0.00    -0.744 OA
ENDBRANCH  47  48
ENDBRANCH  26  40
BRANCH  27  52
ATOM     52  C   UNL A   1      42.844  23.725  27.664  1.00  0.00     0.058 A 
ATOM     53  C   UNL A   1      43.008  23.543  26.283  1.00  0.00     0.135 A 
ATOM     54  C   UNL A   1      42.595  22.588  28.448  1.00  0.00     0.135 A 
ATOM     55  F   UNL A   1      43.238  24.601  25.491  1.00  0.00    -0.206 F 
ATOM     56  C   UNL A   1      42.918  22.284  25.697  1.00  0.00     0.059 A 
ATOM     57  C   UNL A   1      42.524  21.316  27.889  1.00  0.00     0.059 A 
ATOM     58  F   UNL A   1      42.443  22.707  29.777  1.00  0.00    -0.206 F 
ATOM     59  C   UNL A   1      42.678  21.175  26.510  1.00  0.00     0.060 A 
BRANCH  59  60
ATOM     60  S   UNL A   1      42.616  19.540  25.744  1.00  0.00     0.124 S 
ATOM     61  O   UNL A   1      43.536  19.706  24.626  1.00  0.00    -0.237 OA
ATOM     62  O   UNL A   1      43.075  18.677  26.828  1.00  0.00    -0.237 OA
ATOM     63  O   UNL A   1      41.209  19.391  25.387  1.00  0.00    -0.744 OA
ENDBRANCH  59  60
ENDBRANCH  27  52
BRANCH  39  64
ATOM     64  C   UNL A   1      47.993  27.168  30.877  1.00  0.00     0.058 A 
ATOM     65  C   UNL A   1      48.341  26.603  32.113  1.00  0.00     0.135 A 
ATOM     66  C   UNL A   1      49.003  27.312  29.911  1.00  0.00     0.135 A 
ATOM     67  F   UNL A   1      47.413  26.450  33.071  1.00  0.00    -0.206 F 
ATOM     68  C   UNL A   1      49.644  26.203  32.386  1.00  0.00     0.059 A 
ATOM     69  C   UNL A   1      50.309  26.896  30.155  1.00  0.00     0.059 A 
ATOM     70  F   UNL A   1      48.720  27.836  28.709  1.00  0.00    -0.206 F 
ATOM     71  C   UNL A   1      50.620  26.348  31.399  1.00  0.00     0.060 A 
BRANCH  71  72
ATOM     72  S   UNL A   1      52.295  25.775  31.751  1.00  0.00     0.124 S 
ATOM     73  O   UNL A   1      52.066  24.367  32.058  1.00  0.00    -0.237 OA
ATOM     74  O   UNL A   1      52.989  26.046  30.496  1.00  0.00    -0.237 OA
ATOM     75  O   UNL A   1      52.709  26.604  32.881  1.00  0.00    -0.744 OA
ENDBRANCH  71  72
ENDBRANCH  39  64
ENDBRANCH  13  14
ENDBRANCH   6   8
ENDBRANCH   3   4
ENDBRANCH   2   3
ENDBRANCH   1   2
BRANCH   1  76
ATOM     76  C   UNL A   1      36.850  33.646  30.282  1.00  0.00     0.002 C 
BRANCH  76  77
ATOM     77  C   UNL A   1      37.698  34.191  31.437  1.00  0.00     0.021 C 
BRANCH  77  78
ATOM     78  C   UNL A   1      38.088  33.165  32.500  1.00  0.00     0.116 C 
BRANCH  78  79
ATOM     79  N   UNL A   1      37.200  32.010  32.496  1.00  0.00    -0.352 N 
ATOM     80  C   UNL A   1      37.392  30.779  33.063  1.00  0.00     0.256 C 
ATOM     81  H   UNL A   1      36.346  32.130  32.021  1.00  0.00     0.163 HD
ATOM     82  O   UNL A   1      36.642  29.843  32.799  1.00  0.00    -0.269 OA
BRANCH  80  83
ATOM     83  C   UNL A   1      38.492  30.576  34.013  1.00  0.00     0.102 A 
ATOM     84  C   UNL A   1      39.599  29.823  33.609  1.00  0.00     0.029 A 
ATOM     85  C   UNL A   1      38.451  31.059  35.316  1.00  0.00     0.223 A 
ATOM     86  C   UNL A   1      40.656  29.607  34.499  1.00  0.00     0.001 A 
ATOM     87  N   UNL A   1      39.459  30.896  36.191  1.00  0.00    -0.221 NA
ATOM     88  C   UNL A   1      40.531  30.185  35.765  1.00  0.00     0.124 A 
BRANCH  85  89
ATOM     89  O   UNL A   1      37.386  31.735  35.836  1.00  0.00    -0.493 OA
ATOM     90  H   UNL A   1      36.513  31.452  35.646  1.00  0.00     0.295 HD
ENDBRANCH  85  89
BRANCH  86  91
ATOM     91  C   UNL A   1      41.820  28.790  34.142  1.00  0.00    -0.016 A 
ATOM     92  C   UNL A   1      41.780  27.959  33.009  1.00  0.00     0.012 A 
ATOM     93  C   UNL A   1      42.996  28.812  34.912  1.00  0.00     0.025 A 
ATOM     94  C   UNL A   1      42.876  27.170  32.660  1.00  0.00     0.040 A 
ATOM     95  C   UNL A   1      44.106  28.017  34.568  1.00  0.00     0.092 A 
ATOM     96  C   UNL A   1      44.024  27.204  33.441  1.00  0.00     0.135 A 
ATOM     97  F   UNL A   1      45.064  26.434  33.093  1.00  0.00    -0.206 F 
BRANCH  95  98
ATOM     98  C   UNL A   1      45.363  28.005  35.383  1.00  0.00     0.419 C 
ATOM     99  F   UNL A   1      46.431  28.517  34.713  1.00  0.00    -0.166 F 
ATOM    100  F   UNL A   1      45.256  28.721  36.536  1.00  0.00    -0.166 F 
ATOM    101  F   UNL A   1      45.738  26.751  35.767  1.00  0.00    -0.166 F 
ENDBRANCH  95  98
ENDBRANCH  86  91
ENDBRANCH  80  83
ENDBRANCH  78  79
ENDBRANCH  77  78
ENDBRANCH  76  77
ENDBRANCH   1  76
TORSDOF 19
ENDMDL
