MODEL 1
REMARK VINA RESULT:     -11.8      0.000      0.000
REMARK SMILES Nc1c(N2CCC(C(=O)NCCCCCCNC(=O)c3ccc(-c4c5nc(c(-c6c(F)cc(S(=O)(=O)[O-])cc6F)c6ccc([nH]6)c(-c6c(F)cc(S(=O)(=O)[O-])cc6F)c6nc(c(-c7c(F)cc(S(=O)(=O)[O-])cc7F)c7ccc4[nH]7)C=C6)C=C5)cc3)CC2)ncnc1N1CCN(c2ccccc2)CC1
REMARK SMILES IDX 13 1 12 2 11 3 10 4 8 5 9 6 7 8 4 9 5 10 87 11 6 12 86 13
REMARK SMILES IDX 3 14 2 15 91 16 88 17 90 18 89 19 1 20 92 23 93 24 103 25
REMARK SMILES IDX 94 26 102 27 95 28 96 29 97 30 101 31 98 32 100 33 99 34
REMARK SMILES IDX 14 35 15 36 16 37 17 38 18 39 19 41 20 42 21 43 85 44 22 45
REMARK SMILES IDX 84 46 23 47 24 48 25 49 78 50 26 51 83 52 77 53 79 54 27 55
REMARK SMILES IDX 82 56 76 57 75 58 28 60 62 61 41 62 61 63 42 64 45 65 60 66
REMARK SMILES IDX 80 67 43 68 44 69 59 71 81 72 46 73 29 74 30 75 39 76 31 77
REMARK SMILES IDX 32 78 38 79 40 80 33 81 34 82 35 83 36 84 37 85 63 86 64 87
REMARK SMILES IDX 73 88 65 89 66 90 72 91 74 92 67 93 68 94 69 95 70 96 71 97
REMARK SMILES IDX 47 98 48 99 57 100 49 101 50 102 56 103 58 104 51 105 52 106
REMARK SMILES IDX 53 107 54 108 55 109
REMARK H PARENT 10 7 1 21 1 22 17 40 79 59 45 70
REMARK Flexibility Score: inf
ROOT
ATOM      1  C   UNL A   1      34.422  34.034  27.976  1.00  0.00     0.002 C 
ENDROOT
BRANCH   1   2
ATOM      2  C   UNL A   1      33.365  32.942  27.783  1.00  0.00     0.021 C 
BRANCH   2   3
ATOM      3  C   UNL A   1      33.946  31.586  27.392  1.00  0.00     0.116 C 
BRANCH   3   4
ATOM      4  N   UNL A   1      33.147  30.501  27.943  1.00  0.00    -0.356 N 
ATOM      5  C   UNL A   1      32.523  29.459  27.330  1.00  0.00     0.223 C 
ATOM      6  O   UNL A   1      31.855  28.687  28.023  1.00  0.00    -0.275 OA
ATOM      7  H   UNL A   1      33.041  30.524  28.921  1.00  0.00     0.163 HD
BRANCH   5   8
ATOM      8  C   UNL A   1      32.673  29.217  25.838  1.00  0.00     0.082 C 
ATOM      9  N   UNL A   1      32.663  27.261  23.818  1.00  0.00    -0.355 N 
ATOM     10  C   UNL A   1      33.963  27.831  24.100  1.00  0.00     0.119 C 
ATOM     11  C   UNL A   1      31.504  28.136  23.876  1.00  0.00     0.119 C 
ATOM     12  C   UNL A   1      33.955  28.434  25.502  1.00  0.00     0.035 C 
ATOM     13  C   UNL A   1      31.355  28.650  25.289  1.00  0.00     0.035 C 
BRANCH   9  14
ATOM     14  C   UNL A   1      32.604  26.227  22.888  1.00  0.00     0.157 A 
ATOM     15  C   UNL A   1      32.620  24.888  23.295  1.00  0.00     0.118 A 
ATOM     16  C   UNL A   1      32.857  23.939  22.289  1.00  0.00     0.157 A 
ATOM     17  N   UNL A   1      32.708  26.583  21.597  1.00  0.00    -0.217 NA
ATOM     18  N   UNL A   1      33.029  24.282  21.004  1.00  0.00    -0.217 NA
ATOM     19  C   UNL A   1      32.909  25.588  20.721  1.00  0.00     0.226 A 
BRANCH  15  20
ATOM     20  N   UNL A   1      32.437  24.500  24.634  1.00  0.00    -0.393 N 
ATOM     21  H   UNL A   1      33.162  24.627  25.287  1.00  0.00     0.156 HD
ATOM     22  H   UNL A   1      31.583  24.101  24.919  1.00  0.00     0.156 HD
ENDBRANCH  15  20
BRANCH  16  23
ATOM     23  N   UNL A   1      33.034  22.621  22.657  1.00  0.00    -0.351 N 
ATOM     24  C   UNL A   1      34.270  22.205  23.318  1.00  0.00     0.139 C 
ATOM     25  C   UNL A   1      32.269  21.561  22.004  1.00  0.00     0.139 C 
ATOM     26  C   UNL A   1      33.912  21.152  24.399  1.00  0.00     0.138 C 
ATOM     27  C   UNL A   1      31.899  20.490  23.051  1.00  0.00     0.138 C 
ATOM     28  N   UNL A   1      33.089  20.074  23.817  1.00  0.00    -0.368 N 
BRANCH  28  29
ATOM     29  C   UNL A   1      33.153  18.782  24.287  1.00  0.00     0.037 A 
ATOM     30  C   UNL A   1      32.735  18.421  25.571  1.00  0.00     0.026 A 
ATOM     31  C   UNL A   1      33.681  17.779  23.463  1.00  0.00     0.026 A 
ATOM     32  C   UNL A   1      32.836  17.098  26.015  1.00  0.00     0.002 A 
ATOM     33  C   UNL A   1      33.801  16.462  23.903  1.00  0.00     0.002 A 
ATOM     34  C   UNL A   1      33.376  16.121  25.182  1.00  0.00     0.000 A 
ENDBRANCH  28  29
ENDBRANCH  16  23
ENDBRANCH   9  14
ENDBRANCH   5   8
ENDBRANCH   3   4
ENDBRANCH   2   3
ENDBRANCH   1   2
BRANCH   1  35
ATOM     35  C   UNL A   1      35.048  34.090  29.374  1.00  0.00     0.002 C 
BRANCH  35  36
ATOM     36  C   UNL A   1      36.559  33.848  29.420  1.00  0.00     0.021 C 
BRANCH  36  37
ATOM     37  C   UNL A   1      37.078  33.309  30.748  1.00  0.00     0.116 C 
BRANCH  37  38
ATOM     38  N   UNL A   1      36.364  32.115  31.169  1.00  0.00    -0.352 N 
ATOM     39  C   UNL A   1      36.709  30.798  30.996  1.00  0.00     0.251 C 
ATOM     40  H   UNL A   1      35.517  32.273  31.645  1.00  0.00     0.163 HD
ATOM     41  O   UNL A   1      35.899  29.910  31.249  1.00  0.00    -0.269 OA
BRANCH  39  42
ATOM     42  C   UNL A   1      38.052  30.459  30.484  1.00  0.00     0.039 A 
ATOM     43  C   UNL A   1      39.074  30.183  31.395  1.00  0.00     0.014 A 
ATOM     44  C   UNL A   1      38.297  30.408  29.108  1.00  0.00     0.014 A 
ATOM     45  C   UNL A   1      40.333  29.804  30.924  1.00  0.00     0.010 A 
ATOM     46  C   UNL A   1      39.534  29.969  28.642  1.00  0.00     0.010 A 
ATOM     47  C   UNL A   1      40.564  29.669  29.545  1.00  0.00    -0.014 A 
BRANCH  47  48
ATOM     48  C   UNL A   1      41.886  29.230  29.033  1.00  0.00     0.031 A 
ATOM     49  C   UNL A   1      43.023  30.210  28.958  1.00  0.00     0.074 A 
ATOM     50  C   UNL A   1      42.048  27.965  28.600  1.00  0.00     0.049 A 
ATOM     51  N   UNL A   1      44.235  30.034  28.500  1.00  0.00    -0.248 NA
ATOM     52  C   UNL A   1      42.758  31.574  29.443  1.00  0.00     0.031 C 
ATOM     53  C   UNL A   1      41.009  26.933  28.594  1.00  0.00     0.029 A 
ATOM     54  N   UNL A   1      43.148  27.330  28.081  1.00  0.00    -0.354 N 
ATOM     55  C   UNL A   1      44.875  31.259  28.639  1.00  0.00     0.074 A 
ATOM     56  C   UNL A   1      43.902  32.187  29.172  1.00  0.00     0.031 C 
ATOM     57  C   UNL A   1      41.529  25.787  28.123  1.00  0.00     0.029 A 
ATOM     58  C   UNL A   1      42.926  26.010  27.764  1.00  0.00     0.049 A 
ATOM     59  H   UNL A   1      44.015  27.777  27.948  1.00  0.00     0.167 HD
ATOM     60  C   UNL A   1      46.164  31.575  28.374  1.00  0.00     0.037 A 
ATOM     61  C   UNL A   1      43.756  25.086  27.244  1.00  0.00     0.037 A 
ATOM     62  C   UNL A   1      47.134  30.642  27.863  1.00  0.00     0.049 A 
ATOM     63  C   UNL A   1      45.180  25.466  26.937  1.00  0.00     0.074 A 
ATOM     64  C   UNL A   1      48.475  30.855  27.596  1.00  0.00     0.029 A 
ATOM     65  N   UNL A   1      46.868  29.318  27.547  1.00  0.00    -0.354 N 
ATOM     66  N   UNL A   1      45.777  26.620  27.110  1.00  0.00    -0.248 NA
ATOM     67  C   UNL A   1      46.039  24.421  26.363  1.00  0.00     0.031 C 
ATOM     68  C   UNL A   1      49.013  29.669  27.086  1.00  0.00     0.029 A 
ATOM     69  C   UNL A   1      48.016  28.706  27.072  1.00  0.00     0.049 A 
ATOM     70  H   UNL A   1      45.993  28.878  27.645  1.00  0.00     0.167 HD
ATOM     71  C   UNL A   1      47.088  26.436  26.685  1.00  0.00     0.074 A 
ATOM     72  C   UNL A   1      47.200  25.056  26.258  1.00  0.00     0.031 C 
ATOM     73  C   UNL A   1      48.108  27.329  26.652  1.00  0.00     0.037 A 
BRANCH  60  74
ATOM     74  C   UNL A   1      46.605  32.985  28.648  1.00  0.00     0.058 A 
ATOM     75  C   UNL A   1      47.118  33.359  29.900  1.00  0.00     0.135 A 
ATOM     76  C   UNL A   1      46.550  33.964  27.643  1.00  0.00     0.135 A 
ATOM     77  F   UNL A   1      47.176  32.466  30.901  1.00  0.00    -0.206 F 
ATOM     78  C   UNL A   1      47.540  34.659  30.155  1.00  0.00     0.059 A 
ATOM     79  C   UNL A   1      46.990  35.266  27.868  1.00  0.00     0.059 A 
ATOM     80  F   UNL A   1      46.064  33.661  26.429  1.00  0.00    -0.206 F 
ATOM     81  C   UNL A   1      47.473  35.606  29.131  1.00  0.00     0.060 A 
BRANCH  81  82
ATOM     82  S   UNL A   1      48.035  37.286  29.477  1.00  0.00     0.124 S 
ATOM     83  O   UNL A   1      46.849  37.869  30.096  1.00  0.00    -0.237 OA
ATOM     84  O   UNL A   1      49.168  37.058  30.368  1.00  0.00    -0.237 OA
ATOM     85  O   UNL A   1      48.375  37.810  28.158  1.00  0.00    -0.744 OA
ENDBRANCH  81  82
ENDBRANCH  60  74
BRANCH  61  86
ATOM     86  C   UNL A   1      43.269  23.699  27.016  1.00  0.00     0.058 A 
ATOM     87  C   UNL A   1      43.045  23.225  25.715  1.00  0.00     0.135 A 
ATOM     88  C   UNL A   1      43.047  22.816  28.083  1.00  0.00     0.135 A 
ATOM     89  F   UNL A   1      43.236  24.036  24.664  1.00  0.00    -0.206 F 
ATOM     90  C   UNL A   1      42.613  21.924  25.478  1.00  0.00     0.059 A 
ATOM     91  C   UNL A   1      42.635  21.503  27.871  1.00  0.00     0.059 A 
ATOM     92  F   UNL A   1      43.261  23.219  29.346  1.00  0.00    -0.206 F 
ATOM     93  C   UNL A   1      42.416  21.069  26.564  1.00  0.00     0.060 A 
BRANCH  93  94
ATOM     94  S   UNL A   1      41.916  19.363  26.240  1.00  0.00     0.124 S 
ATOM     95  O   UNL A   1      42.448  18.673  27.408  1.00  0.00    -0.237 OA
ATOM     96  O   UNL A   1      40.462  19.479  26.173  1.00  0.00    -0.237 OA
ATOM     97  O   UNL A   1      42.570  19.056  24.972  1.00  0.00    -0.744 OA
ENDBRANCH  93  94
ENDBRANCH  61  86
BRANCH  73  98
ATOM     98  C   UNL A   1      49.439  26.847  26.149  1.00  0.00     0.058 A 
ATOM     99  C   UNL A   1      49.833  27.048  24.818  1.00  0.00     0.135 A 
ATOM    100  C   UNL A   1      50.358  26.248  27.026  1.00  0.00     0.135 A 
ATOM    101  F   UNL A   1      48.988  27.609  23.940  1.00  0.00    -0.206 F 
ATOM    102  C   UNL A   1      51.093  26.665  24.371  1.00  0.00     0.059 A 
ATOM    103  C   UNL A   1      51.631  25.879  26.606  1.00  0.00     0.059 A 
ATOM    104  F   UNL A   1      50.031  26.043  28.312  1.00  0.00    -0.206 F 
ATOM    105  C   UNL A   1      51.988  26.086  25.273  1.00  0.00     0.060 A 
BRANCH 105 106
ATOM    106  S   UNL A   1      53.638  25.642  24.689  1.00  0.00     0.124 S 
ATOM    107  O   UNL A   1      54.486  26.400  25.602  1.00  0.00    -0.237 OA
ATOM    108  O   UNL A   1      53.651  24.194  24.866  1.00  0.00    -0.237 OA
ATOM    109  O   UNL A   1      53.643  26.098  23.302  1.00  0.00    -0.744 OA
ENDBRANCH 105 106
ENDBRANCH  73  98
ENDBRANCH  47  48
ENDBRANCH  39  42
ENDBRANCH  37  38
ENDBRANCH  36  37
ENDBRANCH  35  36
ENDBRANCH   1  35
TORSDOF 20
ENDMDL
MODEL 2
REMARK VINA RESULT:     -11.8      0.395      7.839
REMARK SMILES Nc1c(N2CCC(C(=O)NCCCCCCNC(=O)c3ccc(-c4c5nc(c(-c6c(F)cc(S(=O)(=O)[O-])cc6F)c6ccc([nH]6)c(-c6c(F)cc(S(=O)(=O)[O-])cc6F)c6nc(c(-c7c(F)cc(S(=O)(=O)[O-])cc7F)c7ccc4[nH]7)C=C6)C=C5)cc3)CC2)ncnc1N1CCN(c2ccccc2)CC1
REMARK SMILES IDX 13 1 12 2 11 3 10 4 8 5 9 6 7 8 4 9 5 10 87 11 6 12 86 13
REMARK SMILES IDX 3 14 2 15 91 16 88 17 90 18 89 19 1 20 92 23 93 24 103 25
REMARK SMILES IDX 94 26 102 27 95 28 96 29 97 30 101 31 98 32 100 33 99 34
REMARK SMILES IDX 14 35 15 36 16 37 17 38 18 39 19 41 20 42 21 43 85 44 22 45
REMARK SMILES IDX 84 46 23 47 24 48 25 49 78 50 26 51 83 52 77 53 79 54 27 55
REMARK SMILES IDX 82 56 76 57 75 58 28 60 62 61 41 62 61 63 42 64 45 65 60 66
REMARK SMILES IDX 80 67 43 68 44 69 59 71 81 72 46 73 29 74 30 75 39 76 31 77
REMARK SMILES IDX 32 78 38 79 40 80 33 81 34 82 35 83 36 84 37 85 63 86 64 87
REMARK SMILES IDX 73 88 65 89 66 90 72 91 74 92 67 93 68 94 69 95 70 96 71 97
REMARK SMILES IDX 47 98 48 99 57 100 49 101 50 102 56 103 58 104 51 105 52 106
REMARK SMILES IDX 53 107 54 108 55 109
REMARK H PARENT 10 7 1 21 1 22 17 40 79 59 45 70
REMARK Flexibility Score: inf
ROOT
ATOM      1  C   UNL A   1      34.858  33.808  28.003  1.00  0.00     0.002 C 
ENDROOT
BRANCH   1   2
ATOM      2  C   UNL A   1      33.676  32.868  27.745  1.00  0.00     0.021 C 
BRANCH   2   3
ATOM      3  C   UNL A   1      34.084  31.416  27.512  1.00  0.00     0.116 C 
BRANCH   3   4
ATOM      4  N   UNL A   1      33.034  30.506  27.945  1.00  0.00    -0.356 N 
ATOM      5  C   UNL A   1      32.340  29.559  27.257  1.00  0.00     0.223 C 
ATOM      6  O   UNL A   1      31.450  28.942  27.847  1.00  0.00    -0.275 OA
ATOM      7  H   UNL A   1      32.784  30.588  28.894  1.00  0.00     0.163 HD
BRANCH   5   8
ATOM      8  C   UNL A   1      32.673  29.233  25.812  1.00  0.00     0.082 C 
ATOM      9  N   UNL A   1      32.705  27.203  23.866  1.00  0.00    -0.355 N 
ATOM     10  C   UNL A   1      34.012  27.620  24.324  1.00  0.00     0.119 C 
ATOM     11  C   UNL A   1      31.673  28.217  23.726  1.00  0.00     0.119 C 
ATOM     12  C   UNL A   1      33.878  28.283  25.693  1.00  0.00     0.035 C 
ATOM     13  C   UNL A   1      31.387  28.809  25.086  1.00  0.00     0.035 C 
BRANCH   9  14
ATOM     14  C   UNL A   1      32.649  26.143  22.965  1.00  0.00     0.157 A 
ATOM     15  C   UNL A   1      32.722  24.817  23.406  1.00  0.00     0.118 A 
ATOM     16  C   UNL A   1      32.956  23.849  22.418  1.00  0.00     0.157 A 
ATOM     17  N   UNL A   1      32.698  26.467  21.663  1.00  0.00    -0.217 NA
ATOM     18  N   UNL A   1      33.074  24.163  21.119  1.00  0.00    -0.217 NA
ATOM     19  C   UNL A   1      32.902  25.456  20.807  1.00  0.00     0.226 A 
BRANCH  15  20
ATOM     20  N   UNL A   1      32.596  24.460  24.761  1.00  0.00    -0.393 N 
ATOM     21  H   UNL A   1      33.028  25.006  25.456  1.00  0.00     0.156 HD
ATOM     22  H   UNL A   1      32.077  23.662  25.013  1.00  0.00     0.156 HD
ENDBRANCH  15  20
BRANCH  16  23
ATOM     23  N   UNL A   1      33.188  22.548  22.814  1.00  0.00    -0.351 N 
ATOM     24  C   UNL A   1      34.431  22.202  23.501  1.00  0.00     0.139 C 
ATOM     25  C   UNL A   1      32.484  21.441  22.169  1.00  0.00     0.139 C 
ATOM     26  C   UNL A   1      34.106  21.154  24.597  1.00  0.00     0.138 C 
ATOM     27  C   UNL A   1      32.148  20.373  23.231  1.00  0.00     0.138 C 
ATOM     28  N   UNL A   1      33.343  20.028  24.022  1.00  0.00    -0.368 N 
BRANCH  28  29
ATOM     29  C   UNL A   1      33.460  18.749  24.519  1.00  0.00     0.037 A 
ATOM     30  C   UNL A   1      34.450  17.859  24.095  1.00  0.00     0.026 A 
ATOM     31  C   UNL A   1      32.537  18.299  25.473  1.00  0.00     0.026 A 
ATOM     32  C   UNL A   1      34.519  16.561  24.613  1.00  0.00     0.002 A 
ATOM     33  C   UNL A   1      32.587  17.002  25.981  1.00  0.00     0.002 A 
ATOM     34  C   UNL A   1      33.582  16.132  25.551  1.00  0.00     0.000 A 
ENDBRANCH  28  29
ENDBRANCH  16  23
ENDBRANCH   9  14
ENDBRANCH   5   8
ENDBRANCH   3   4
ENDBRANCH   2   3
ENDBRANCH   1   2
BRANCH   1  35
ATOM     35  C   UNL A   1      35.370  33.824  29.447  1.00  0.00     0.002 C 
BRANCH  35  36
ATOM     36  C   UNL A   1      36.891  33.750  29.599  1.00  0.00     0.021 C 
BRANCH  36  37
ATOM     37  C   UNL A   1      37.372  33.108  30.895  1.00  0.00     0.116 C 
BRANCH  37  38
ATOM     38  N   UNL A   1      36.558  31.965  31.273  1.00  0.00    -0.352 N 
ATOM     39  C   UNL A   1      36.784  30.631  31.043  1.00  0.00     0.251 C 
ATOM     40  H   UNL A   1      35.731  32.177  31.764  1.00  0.00     0.163 HD
ATOM     41  O   UNL A   1      35.901  29.808  31.266  1.00  0.00    -0.269 OA
BRANCH  39  42
ATOM     42  C   UNL A   1      38.089  30.197  30.504  1.00  0.00     0.039 A 
ATOM     43  C   UNL A   1      38.277  30.181  29.120  1.00  0.00     0.014 A 
ATOM     44  C   UNL A   1      39.123  29.813  31.364  1.00  0.00     0.014 A 
ATOM     45  C   UNL A   1      39.524  29.828  28.599  1.00  0.00     0.010 A 
ATOM     46  C   UNL A   1      40.382  29.523  30.845  1.00  0.00     0.010 A 
ATOM     47  C   UNL A   1      40.593  29.523  29.459  1.00  0.00    -0.014 A 
BRANCH  47  48
ATOM     48  C   UNL A   1      41.933  29.183  28.919  1.00  0.00     0.031 A 
ATOM     49  C   UNL A   1      42.222  27.782  28.458  1.00  0.00     0.074 A 
ATOM     50  C   UNL A   1      42.897  30.124  28.883  1.00  0.00     0.049 A 
ATOM     51  N   UNL A   1      43.339  27.278  28.001  1.00  0.00    -0.248 NA
ATOM     52  C   UNL A   1      41.116  26.814  28.540  1.00  0.00     0.031 C 
ATOM     53  C   UNL A   1      42.743  31.509  29.333  1.00  0.00     0.029 A 
ATOM     54  N   UNL A   1      44.196  30.059  28.448  1.00  0.00    -0.354 N 
ATOM     55  C   UNL A   1      43.073  25.939  27.742  1.00  0.00     0.074 A 
ATOM     56  C   UNL A   1      41.705  25.694  28.146  1.00  0.00     0.031 C 
ATOM     57  C   UNL A   1      43.895  32.170  29.124  1.00  0.00     0.029 A 
ATOM     58  C   UNL A   1      44.876  31.249  28.557  1.00  0.00     0.049 A 
ATOM     59  H   UNL A   1      44.604  29.236  28.092  1.00  0.00     0.167 HD
ATOM     60  C   UNL A   1      43.884  25.006  27.192  1.00  0.00     0.037 A 
ATOM     61  C   UNL A   1      46.145  31.563  28.234  1.00  0.00     0.037 A 
ATOM     62  C   UNL A   1      45.237  25.261  26.772  1.00  0.00     0.049 A 
ATOM     63  C   UNL A   1      47.036  30.503  27.645  1.00  0.00     0.074 A 
ATOM     64  C   UNL A   1      46.130  24.392  26.170  1.00  0.00     0.029 A 
ATOM     65  N   UNL A   1      45.891  26.477  26.907  1.00  0.00    -0.354 N 
ATOM     66  N   UNL A   1      46.755  29.251  27.373  1.00  0.00    -0.248 NA
ATOM     67  C   UNL A   1      48.414  30.897  27.320  1.00  0.00     0.031 C 
ATOM     68  C   UNL A   1      47.335  25.072  25.971  1.00  0.00     0.029 A 
ATOM     69  C   UNL A   1      47.181  26.376  26.414  1.00  0.00     0.049 A 
ATOM     70  H   UNL A   1      45.497  27.291  27.296  1.00  0.00     0.167 HD
ATOM     71  C   UNL A   1      47.915  28.712  26.827  1.00  0.00     0.074 A 
ATOM     72  C   UNL A   1      48.897  29.777  26.795  1.00  0.00     0.031 C 
ATOM     73  C   UNL A   1      48.145  27.449  26.390  1.00  0.00     0.037 A 
BRANCH  60  74
ATOM     74  C   UNL A   1      43.324  23.626  26.996  1.00  0.00     0.058 A 
ATOM     75  C   UNL A   1      42.875  23.193  25.738  1.00  0.00     0.135 A 
ATOM     76  C   UNL A   1      43.268  22.714  28.062  1.00  0.00     0.135 A 
ATOM     77  F   UNL A   1      42.889  24.030  24.690  1.00  0.00    -0.206 F 
ATOM     78  C   UNL A   1      42.368  21.911  25.549  1.00  0.00     0.059 A 
ATOM     79  C   UNL A   1      42.788  21.418  27.890  1.00  0.00     0.059 A 
ATOM     80  F   UNL A   1      43.682  23.078  29.286  1.00  0.00    -0.206 F 
ATOM     81  C   UNL A   1      42.330  21.031  26.631  1.00  0.00     0.060 A 
BRANCH  81  82
ATOM     82  S   UNL A   1      41.679  19.369  26.363  1.00  0.00     0.124 S 
ATOM     83  O   UNL A   1      42.690  18.799  25.478  1.00  0.00    -0.237 OA
ATOM     84  O   UNL A   1      41.642  18.826  27.717  1.00  0.00    -0.237 OA
ATOM     85  O   UNL A   1      40.374  19.608  25.753  1.00  0.00    -0.744 OA
ENDBRANCH  81  82
ENDBRANCH  60  74
BRANCH  61  86
ATOM     86  C   UNL A   1      46.637  32.952  28.430  1.00  0.00     0.058 A 
ATOM     87  C   UNL A   1      46.499  33.911  27.416  1.00  0.00     0.135 A 
ATOM     88  C   UNL A   1      47.225  33.357  29.638  1.00  0.00     0.135 A 
ATOM     89  F   UNL A   1      45.950  33.568  26.241  1.00  0.00    -0.206 F 
ATOM     90  C   UNL A   1      46.930  35.222  27.588  1.00  0.00     0.059 A 
ATOM     91  C   UNL A   1      47.646  34.668  29.843  1.00  0.00     0.059 A 
ATOM     92  F   UNL A   1      47.368  32.480  30.645  1.00  0.00    -0.206 F 
ATOM     93  C   UNL A   1      47.498  35.592  28.809  1.00  0.00     0.060 A 
BRANCH  93  94
ATOM     94  S   UNL A   1      47.996  37.313  29.043  1.00  0.00     0.124 S 
ATOM     95  O   UNL A   1      49.409  37.167  29.375  1.00  0.00    -0.237 OA
ATOM     96  O   UNL A   1      47.704  37.895  27.737  1.00  0.00    -0.237 OA
ATOM     97  O   UNL A   1      47.135  37.767  30.130  1.00  0.00    -0.744 OA
ENDBRANCH  93  94
ENDBRANCH  61  86
BRANCH  73  98
ATOM     98  C   UNL A   1      49.505  27.145  25.830  1.00  0.00     0.058 A 
ATOM     99  C   UNL A   1      50.545  26.678  26.647  1.00  0.00     0.135 A 
ATOM    100  C   UNL A   1      49.747  27.246  24.450  1.00  0.00     0.135 A 
ATOM    101  F   UNL A   1      50.366  26.570  27.972  1.00  0.00    -0.206 F 
ATOM    102  C   UNL A   1      51.783  26.328  26.116  1.00  0.00     0.059 A 
ATOM    103  C   UNL A   1      50.968  26.881  23.895  1.00  0.00     0.059 A 
ATOM    104  F   UNL A   1      48.780  27.679  23.624  1.00  0.00    -0.206 F 
ATOM    105  C   UNL A   1      51.983  26.428  24.738  1.00  0.00     0.060 A 
BRANCH 105 106
ATOM    106  S   UNL A   1      53.577  25.921  24.058  1.00  0.00     0.124 S 
ATOM    107  O   UNL A   1      54.463  26.954  24.583  1.00  0.00    -0.237 OA
ATOM    108  O   UNL A   1      53.748  24.589  24.629  1.00  0.00    -0.237 OA
ATOM    109  O   UNL A   1      53.359  25.955  22.615  1.00  0.00    -0.744 OA
ENDBRANCH 105 106
ENDBRANCH  73  98
ENDBRANCH  47  48
ENDBRANCH  39  42
ENDBRANCH  37  38
ENDBRANCH  36  37
ENDBRANCH  35  36
ENDBRANCH   1  35
TORSDOF 20
ENDMDL
MODEL 3
REMARK VINA RESULT:     -11.5      5.506     11.788
REMARK SMILES Nc1c(N2CCC(C(=O)NCCCCCCNC(=O)c3ccc(-c4c5nc(c(-c6c(F)cc(S(=O)(=O)[O-])cc6F)c6ccc([nH]6)c(-c6c(F)cc(S(=O)(=O)[O-])cc6F)c6nc(c(-c7c(F)cc(S(=O)(=O)[O-])cc7F)c7ccc4[nH]7)C=C6)C=C5)cc3)CC2)ncnc1N1CCN(c2ccccc2)CC1
REMARK SMILES IDX 13 1 12 2 11 3 10 4 8 5 9 6 7 8 4 9 5 10 87 11 6 12 86 13
REMARK SMILES IDX 3 14 2 15 91 16 88 17 90 18 89 19 1 20 92 23 93 24 103 25
REMARK SMILES IDX 94 26 102 27 95 28 96 29 97 30 101 31 98 32 100 33 99 34
REMARK SMILES IDX 14 35 15 36 16 37 17 38 18 39 19 41 20 42 21 43 85 44 22 45
REMARK SMILES IDX 84 46 23 47 24 48 25 49 78 50 26 51 83 52 77 53 79 54 27 55
REMARK SMILES IDX 82 56 76 57 75 58 28 60 62 61 41 62 61 63 42 64 45 65 60 66
REMARK SMILES IDX 80 67 43 68 44 69 59 71 81 72 46 73 29 74 30 75 39 76 31 77
REMARK SMILES IDX 32 78 38 79 40 80 33 81 34 82 35 83 36 84 37 85 63 86 64 87
REMARK SMILES IDX 73 88 65 89 66 90 72 91 74 92 67 93 68 94 69 95 70 96 71 97
REMARK SMILES IDX 47 98 48 99 57 100 49 101 50 102 56 103 58 104 51 105 52 106
REMARK SMILES IDX 53 107 54 108 55 109
REMARK H PARENT 10 7 1 21 1 22 17 40 79 59 45 70
REMARK Flexibility Score: inf
ROOT
ATOM      1  C   UNL A   1      40.147  33.885  29.933  1.00  0.00     0.002 C 
ENDROOT
BRANCH   1   2
ATOM      2  C   UNL A   1      40.916  35.120  30.412  1.00  0.00     0.021 C 
BRANCH   2   3
ATOM      3  C   UNL A   1      42.351  35.188  29.898  1.00  0.00     0.116 C 
BRANCH   3   4
ATOM      4  N   UNL A   1      42.379  35.268  28.445  1.00  0.00    -0.356 N 
ATOM      5  C   UNL A   1      42.593  36.327  27.618  1.00  0.00     0.223 C 
ATOM      6  O   UNL A   1      42.516  36.144  26.401  1.00  0.00    -0.275 OA
ATOM      7  H   UNL A   1      42.217  34.414  27.984  1.00  0.00     0.163 HD
BRANCH   5   8
ATOM      8  C   UNL A   1      42.961  37.694  28.168  1.00  0.00     0.082 C 
ATOM      9  N   UNL A   1      43.693  40.322  27.483  1.00  0.00    -0.355 N 
ATOM     10  C   UNL A   1      44.754  39.533  28.072  1.00  0.00     0.119 C 
ATOM     11  C   UNL A   1      42.342  40.137  27.987  1.00  0.00     0.119 C 
ATOM     12  C   UNL A   1      44.435  38.050  27.901  1.00  0.00     0.035 C 
ATOM     13  C   UNL A   1      41.910  38.716  27.708  1.00  0.00     0.035 C 
BRANCH   9  14
ATOM     14  C   UNL A   1      44.013  41.603  27.044  1.00  0.00     0.157 A 
ATOM     15  C   UNL A   1      43.727  42.010  25.735  1.00  0.00     0.118 A 
ATOM     16  C   UNL A   1      44.349  43.193  25.307  1.00  0.00     0.157 A 
ATOM     17  N   UNL A   1      44.757  42.348  27.878  1.00  0.00    -0.217 NA
ATOM     18  N   UNL A   1      45.148  43.915  26.106  1.00  0.00    -0.217 NA
ATOM     19  C   UNL A   1      45.280  43.470  27.364  1.00  0.00     0.226 A 
BRANCH  15  20
ATOM     20  N   UNL A   1      42.889  41.275  24.878  1.00  0.00    -0.393 N 
ATOM     21  H   UNL A   1      42.469  40.443  25.195  1.00  0.00     0.156 HD
ATOM     22  H   UNL A   1      42.724  41.592  23.961  1.00  0.00     0.156 HD
ENDBRANCH  15  20
BRANCH  16  23
ATOM     23  N   UNL A   1      44.224  43.558  23.981  1.00  0.00    -0.351 N 
ATOM     24  C   UNL A   1      45.407  43.619  23.124  1.00  0.00     0.139 C 
ATOM     25  C   UNL A   1      43.068  44.330  23.533  1.00  0.00     0.139 C 
ATOM     26  C   UNL A   1      45.015  43.097  21.717  1.00  0.00     0.138 C 
ATOM     27  C   UNL A   1      42.651  43.841  22.130  1.00  0.00     0.138 C 
ATOM     28  N   UNL A   1      43.814  43.800  21.224  1.00  0.00    -0.368 N 
BRANCH  28  29
ATOM     29  C   UNL A   1      43.613  44.031  19.881  1.00  0.00     0.037 A 
ATOM     30  C   UNL A   1      44.181  45.115  19.205  1.00  0.00     0.026 A 
ATOM     31  C   UNL A   1      42.786  43.164  19.154  1.00  0.00     0.026 A 
ATOM     32  C   UNL A   1      43.933  45.322  17.844  1.00  0.00     0.002 A 
ATOM     33  C   UNL A   1      42.520  43.374  17.802  1.00  0.00     0.002 A 
ATOM     34  C   UNL A   1      43.097  44.455  17.145  1.00  0.00     0.000 A 
ENDBRANCH  28  29
ENDBRANCH  16  23
ENDBRANCH   9  14
ENDBRANCH   5   8
ENDBRANCH   3   4
ENDBRANCH   2   3
ENDBRANCH   1   2
BRANCH   1  35
ATOM     35  C   UNL A   1      38.845  34.184  29.182  1.00  0.00     0.002 C 
BRANCH  35  36
ATOM     36  C   UNL A   1      37.566  34.017  30.006  1.00  0.00     0.021 C 
BRANCH  36  37
ATOM     37  C   UNL A   1      37.763  33.350  31.363  1.00  0.00     0.116 C 
BRANCH  37  38
ATOM     38  N   UNL A   1      36.810  32.276  31.587  1.00  0.00    -0.352 N 
ATOM     39  C   UNL A   1      36.892  30.958  31.213  1.00  0.00     0.251 C 
ATOM     40  H   UNL A   1      35.994  32.528  32.077  1.00  0.00     0.163 HD
ATOM     41  O   UNL A   1      35.912  30.225  31.319  1.00  0.00    -0.269 OA
BRANCH  39  42
ATOM     42  C   UNL A   1      38.158  30.435  30.662  1.00  0.00     0.039 A 
ATOM     43  C   UNL A   1      38.339  30.422  29.277  1.00  0.00     0.014 A 
ATOM     44  C   UNL A   1      39.165  29.965  31.512  1.00  0.00     0.014 A 
ATOM     45  C   UNL A   1      39.554  29.984  28.745  1.00  0.00     0.010 A 
ATOM     46  C   UNL A   1      40.396  29.589  30.983  1.00  0.00     0.010 A 
ATOM     47  C   UNL A   1      40.600  29.590  29.595  1.00  0.00    -0.014 A 
BRANCH  47  48
ATOM     48  C   UNL A   1      41.909  29.159  29.045  1.00  0.00     0.031 A 
ATOM     49  C   UNL A   1      43.042  30.143  28.946  1.00  0.00     0.074 A 
ATOM     50  C   UNL A   1      42.064  27.897  28.600  1.00  0.00     0.049 A 
ATOM     51  N   UNL A   1      44.241  29.973  28.455  1.00  0.00    -0.248 NA
ATOM     52  C   UNL A   1      42.785  31.503  29.447  1.00  0.00     0.031 C 
ATOM     53  C   UNL A   1      41.028  26.862  28.615  1.00  0.00     0.029 A 
ATOM     54  N   UNL A   1      43.152  27.269  28.048  1.00  0.00    -0.354 N 
ATOM     55  C   UNL A   1      44.882  31.199  28.585  1.00  0.00     0.074 A 
ATOM     56  C   UNL A   1      43.920  32.121  29.149  1.00  0.00     0.031 C 
ATOM     57  C   UNL A   1      41.539  25.721  28.124  1.00  0.00     0.029 A 
ATOM     58  C   UNL A   1      42.926  25.951  27.729  1.00  0.00     0.049 A 
ATOM     59  H   UNL A   1      44.014  27.719  27.895  1.00  0.00     0.167 HD
ATOM     60  C   UNL A   1      46.162  31.521  28.288  1.00  0.00     0.037 A 
ATOM     61  C   UNL A   1      43.744  25.032  27.182  1.00  0.00     0.037 A 
ATOM     62  C   UNL A   1      47.121  30.595  27.746  1.00  0.00     0.049 A 
ATOM     63  C   UNL A   1      45.158  25.418  26.839  1.00  0.00     0.074 A 
ATOM     64  C   UNL A   1      48.454  30.814  27.445  1.00  0.00     0.029 A 
ATOM     65  N   UNL A   1      46.851  29.271  27.428  1.00  0.00    -0.354 N 
ATOM     66  N   UNL A   1      45.757  26.573  27.004  1.00  0.00    -0.248 NA
ATOM     67  C   UNL A   1      46.004  24.380  26.236  1.00  0.00     0.031 C 
ATOM     68  C   UNL A   1      48.981  29.632  26.913  1.00  0.00     0.029 A 
ATOM     69  C   UNL A   1      47.988  28.666  26.920  1.00  0.00     0.049 A 
ATOM     70  H   UNL A   1      45.980  28.829  27.547  1.00  0.00     0.167 HD
ATOM     71  C   UNL A   1      47.056  26.396  26.543  1.00  0.00     0.074 A 
ATOM     72  C   UNL A   1      47.160  25.019  26.104  1.00  0.00     0.031 C 
ATOM     73  C   UNL A   1      48.072  27.292  26.489  1.00  0.00     0.037 A 
BRANCH  60  74
ATOM     74  C   UNL A   1      46.605  32.931  28.559  1.00  0.00     0.058 A 
ATOM     75  C   UNL A   1      47.136  33.302  29.805  1.00  0.00     0.135 A 
ATOM     76  C   UNL A   1      46.536  33.913  27.557  1.00  0.00     0.135 A 
ATOM     77  F   UNL A   1      47.208  32.407  30.803  1.00  0.00    -0.206 F 
ATOM     78  C   UNL A   1      47.561  34.602  30.057  1.00  0.00     0.059 A 
ATOM     79  C   UNL A   1      46.979  35.214  27.779  1.00  0.00     0.059 A 
ATOM     80  F   UNL A   1      46.034  33.612  26.350  1.00  0.00    -0.206 F 
ATOM     81  C   UNL A   1      47.479  35.552  29.036  1.00  0.00     0.060 A 
BRANCH  81  82
ATOM     82  S   UNL A   1      48.045  37.231  29.379  1.00  0.00     0.124 S 
ATOM     83  O   UNL A   1      49.390  36.987  29.890  1.00  0.00    -0.237 OA
ATOM     84  O   UNL A   1      47.971  37.859  28.064  1.00  0.00    -0.237 OA
ATOM     85  O   UNL A   1      47.081  37.722  30.359  1.00  0.00    -0.744 OA
ENDBRANCH  81  82
ENDBRANCH  60  74
BRANCH  61  86
ATOM     86  C   UNL A   1      43.256  23.645  26.957  1.00  0.00     0.058 A 
ATOM     87  C   UNL A   1      42.922  23.204  25.668  1.00  0.00     0.135 A 
ATOM     88  C   UNL A   1      43.140  22.730  28.014  1.00  0.00     0.135 A 
ATOM     89  F   UNL A   1      43.008  24.046  24.628  1.00  0.00    -0.206 F 
ATOM     90  C   UNL A   1      42.486  21.904  25.434  1.00  0.00     0.059 A 
ATOM     91  C   UNL A   1      42.726  21.417  27.801  1.00  0.00     0.059 A 
ATOM     92  F   UNL A   1      43.461  23.100  29.264  1.00  0.00    -0.206 F 
ATOM     93  C   UNL A   1      42.397  21.016  26.507  1.00  0.00     0.060 A 
BRANCH  93  94
ATOM     94  S   UNL A   1      41.890  19.313  26.180  1.00  0.00     0.124 S 
ATOM     95  O   UNL A   1      42.242  18.655  27.432  1.00  0.00    -0.237 OA
ATOM     96  O   UNL A   1      40.462  19.465  25.917  1.00  0.00    -0.237 OA
ATOM     97  O   UNL A   1      42.696  18.940  25.022  1.00  0.00    -0.744 OA
ENDBRANCH  93  94
ENDBRANCH  61  86
BRANCH  73  98
ATOM     98  C   UNL A   1      49.390  26.818  25.947  1.00  0.00     0.058 A 
ATOM     99  C   UNL A   1      49.747  27.024  24.607  1.00  0.00     0.135 A 
ATOM    100  C   UNL A   1      50.336  26.221  26.796  1.00  0.00     0.135 A 
ATOM    101  F   UNL A   1      48.875  27.583  23.754  1.00  0.00    -0.206 F 
ATOM    102  C   UNL A   1      50.996  26.648  24.123  1.00  0.00     0.059 A 
ATOM    103  C   UNL A   1      51.599  25.858  26.340  1.00  0.00     0.059 A 
ATOM    104  F   UNL A   1      50.046  26.011  28.090  1.00  0.00    -0.206 F 
ATOM    105  C   UNL A   1      51.917  26.070  24.998  1.00  0.00     0.060 A 
BRANCH 105 106
ATOM    106  S   UNL A   1      53.552  25.636  24.368  1.00  0.00     0.124 S 
ATOM    107  O   UNL A   1      53.597  24.201  24.628  1.00  0.00    -0.237 OA
ATOM    108  O   UNL A   1      53.457  26.023  22.964  1.00  0.00    -0.237 OA
ATOM    109  O   UNL A   1      54.456  26.449  25.176  1.00  0.00    -0.744 OA
ENDBRANCH 105 106
ENDBRANCH  73  98
ENDBRANCH  47  48
ENDBRANCH  39  42
ENDBRANCH  37  38
ENDBRANCH  36  37
ENDBRANCH  35  36
ENDBRANCH   1  35
TORSDOF 20
ENDMDL
