MODEL 1
REMARK VINA RESULT:     -12.2      0.000      0.000
REMARK SMILES CCOc1ccc(-c2cc(Cl)cc3c2O[C@H](C(F)(F)F)C(C(=O)NCCCCCCNC(=O)c2ccc(-c4c5nc(c(-c6c(F)cc(S(=O)(=O)[O-])cc6F)c6ccc([nH]6)c(-c6c(F)cc(S(=O)(=O)[O-])cc6F)c6nc(c(-c7c(F)cc(S(=O)(=O)[O-])cc7F)c7ccc4[nH]7)C=C6)C=C5)cc2)=C3)cc1
REMARK SMILES IDX 27 1 26 2 25 3 24 4 22 5 23 6 21 8 8 9 9 10 14 11 10 12
REMARK SMILES IDX 13 13 15 14 11 15 12 16 100 17 16 18 7 19 4 20 5 21 102 22
REMARK SMILES IDX 6 23 101 24 3 25 2 26 1 27 17 28 18 29 19 30 20 31 28 32
REMARK SMILES IDX 29 33 30 34 31 35 32 36 33 38 34 39 35 40 99 41 36 42 98 43
REMARK SMILES IDX 37 44 38 45 39 46 92 47 40 48 97 49 91 50 93 51 41 52 96 53
REMARK SMILES IDX 90 54 89 55 42 57 76 58 55 59 75 60 56 61 59 62 74 63 94 64
REMARK SMILES IDX 57 65 58 66 73 68 95 69 60 70 43 71 44 72 53 73 45 74 46 75
REMARK SMILES IDX 52 76 54 77 47 78 48 79 49 80 50 81 51 82 77 83 78 84 87 85
REMARK SMILES IDX 79 86 80 87 86 88 88 89 81 90 82 91 83 92 84 93 85 94 61 95
REMARK SMILES IDX 62 96 71 97 63 98 64 99 70 100 72 101 65 102 66 103 67 104
REMARK SMILES IDX 68 105 69 106
REMARK H PARENT 24 7 31 37 93 56 59 67
REMARK Flexibility Score: inf
ROOT
ATOM      1  C   UNL A   1      32.216  30.322  26.061  1.00  0.00     0.002 C 
ENDROOT
BRANCH   1   2
ATOM      2  C   UNL A   1      32.988  29.554  24.974  1.00  0.00     0.021 C 
BRANCH   2   3
ATOM      3  C   UNL A   1      32.551  28.093  24.788  1.00  0.00     0.116 C 
BRANCH   3   4
ATOM      4  N   UNL A   1      33.693  27.217  24.963  1.00  0.00    -0.352 N 
ATOM      5  C   UNL A   1      33.628  25.862  24.967  1.00  0.00     0.251 C 
ATOM      6  O   UNL A   1      34.131  25.217  25.880  1.00  0.00    -0.270 OA
ATOM      7  H   UNL A   1      34.576  27.634  25.087  1.00  0.00     0.163 HD
BRANCH   5   8
ATOM      8  C   UNL A   1      33.069  25.227  23.736  1.00  0.00     0.067 C 
ATOM      9  C   UNL A   1      33.969  21.354  24.586  1.00  0.00     0.026 A 
ATOM     10  C   UNL A   1      35.312  21.295  25.033  1.00  0.00     0.033 A 
ATOM     11  C   UNL A   1      33.560  22.549  23.974  1.00  0.00     0.135 A 
ATOM     12  C   UNL A   1      36.233  22.301  24.748  1.00  0.00     0.042 A 
ATOM     13  C   UNL A   1      34.530  23.507  23.596  1.00  0.00     0.019 A 
ATOM     14  O   UNL A   1      32.225  22.852  23.752  1.00  0.00    -0.475 OA
ATOM     15  Cl  UNL A   1      37.845  22.170  25.334  1.00  0.00    -0.084 Cl
ATOM     16  C   UNL A   1      35.865  23.385  23.971  1.00  0.00     0.032 A 
ATOM     17  C   UNL A   1      34.050  24.746  22.945  1.00  0.00     0.025 C 
ATOM     18  C   UNL A   1      31.902  24.283  24.006  1.00  0.00     0.314 C 
BRANCH   9  19
ATOM     19  C   UNL A   1      33.222  20.074  24.612  1.00  0.00    -0.014 A 
ATOM     20  C   UNL A   1      32.719  17.297  24.492  1.00  0.00     0.119 A 
ATOM     21  C   UNL A   1      32.889  17.920  25.725  1.00  0.00     0.047 A 
ATOM     22  C   UNL A   1      32.662  18.068  23.335  1.00  0.00     0.047 A 
ATOM     23  C   UNL A   1      33.133  19.299  25.786  1.00  0.00     0.013 A 
ATOM     24  C   UNL A   1      32.908  19.445  23.395  1.00  0.00     0.013 A 
BRANCH  20  25
ATOM     25  O   UNL A   1      32.544  15.942  24.469  1.00  0.00    -0.494 OA
BRANCH  25  26
ATOM     26  C   UNL A   1      32.476  15.347  25.775  1.00  0.00     0.226 C 
ATOM     27  C   UNL A   1      32.930  13.897  25.743  1.00  0.00     0.049 C 
ENDBRANCH  25  26
ENDBRANCH  20  25
ENDBRANCH   9  19
BRANCH  18  28
ATOM     28  C   UNL A   1      30.686  24.745  23.177  1.00  0.00     0.429 C 
ATOM     29  F   UNL A   1      31.046  25.386  22.041  1.00  0.00    -0.167 F 
ATOM     30  F   UNL A   1      29.907  23.693  22.825  1.00  0.00    -0.167 F 
ATOM     31  F   UNL A   1      29.886  25.599  23.866  1.00  0.00    -0.167 F 
ENDBRANCH  18  28
ENDBRANCH   5   8
ENDBRANCH   3   4
ENDBRANCH   2   3
ENDBRANCH   1   2
BRANCH   1  32
ATOM     32  C   UNL A   1      33.034  30.683  27.303  1.00  0.00     0.002 C 
BRANCH  32  33
ATOM     33  C   UNL A   1      34.469  30.156  27.292  1.00  0.00     0.021 C 
BRANCH  33  34
ATOM     34  C   UNL A   1      35.496  31.108  27.893  1.00  0.00     0.116 C 
BRANCH  34  35
ATOM     35  N   UNL A   1      35.346  31.260  29.333  1.00  0.00    -0.352 N 
ATOM     36  C   UNL A   1      36.184  30.805  30.323  1.00  0.00     0.251 C 
ATOM     37  H   UNL A   1      34.547  31.749  29.634  1.00  0.00     0.163 HD
ATOM     38  O   UNL A   1      35.860  30.884  31.504  1.00  0.00    -0.269 OA
BRANCH  36  39
ATOM     39  C   UNL A   1      37.467  30.188  29.935  1.00  0.00     0.039 A 
ATOM     40  C   UNL A   1      37.842  30.181  28.590  1.00  0.00     0.014 A 
ATOM     41  C   UNL A   1      38.324  29.682  30.917  1.00  0.00     0.014 A 
ATOM     42  C   UNL A   1      39.116  29.730  28.235  1.00  0.00     0.010 A 
ATOM     43  C   UNL A   1      39.614  29.298  30.569  1.00  0.00     0.010 A 
ATOM     44  C   UNL A   1      40.024  29.323  29.226  1.00  0.00    -0.014 A 
BRANCH  44  45
ATOM     45  C   UNL A   1      41.413  28.916  28.899  1.00  0.00     0.031 A 
ATOM     46  C   UNL A   1      42.499  29.955  28.848  1.00  0.00     0.074 A 
ATOM     47  C   UNL A   1      41.677  27.641  28.549  1.00  0.00     0.049 A 
ATOM     48  N   UNL A   1      43.730  29.846  28.421  1.00  0.00    -0.248 NA
ATOM     49  C   UNL A   1      42.138  31.306  29.307  1.00  0.00     0.031 C 
ATOM     50  C   UNL A   1      40.701  26.549  28.524  1.00  0.00     0.029 A 
ATOM     51  N   UNL A   1      42.841  27.053  28.120  1.00  0.00    -0.354 N 
ATOM     52  C   UNL A   1      44.283  31.115  28.540  1.00  0.00     0.074 A 
ATOM     53  C   UNL A   1      43.239  31.988  29.032  1.00  0.00     0.031 C 
ATOM     54  C   UNL A   1      41.307  25.426  28.107  1.00  0.00     0.029 A 
ATOM     55  C   UNL A   1      42.701  25.725  27.792  1.00  0.00     0.049 A 
ATOM     56  H   UNL A   1      43.695  27.537  28.053  1.00  0.00     0.167 HD
ATOM     57  C   UNL A   1      45.551  31.513  28.279  1.00  0.00     0.037 A 
ATOM     58  C   UNL A   1      43.588  24.853  27.276  1.00  0.00     0.037 A 
ATOM     59  C   UNL A   1      46.590  30.632  27.813  1.00  0.00     0.049 A 
ATOM     60  C   UNL A   1      44.992  25.316  26.993  1.00  0.00     0.074 A 
ATOM     61  C   UNL A   1      47.918  30.927  27.558  1.00  0.00     0.029 A 
ATOM     62  N   UNL A   1      46.420  29.283  27.537  1.00  0.00    -0.354 N 
ATOM     63  N   UNL A   1      45.512  26.511  27.144  1.00  0.00    -0.248 NA
ATOM     64  C   UNL A   1      45.935  24.313  26.477  1.00  0.00     0.031 C 
ATOM     65  C   UNL A   1      48.542  29.764  27.094  1.00  0.00     0.029 A 
ATOM     66  C   UNL A   1      47.614  28.734  27.106  1.00  0.00     0.049 A 
ATOM     67  H   UNL A   1      45.573  28.789  27.634  1.00  0.00     0.167 HD
ATOM     68  C   UNL A   1      46.846  26.397  26.772  1.00  0.00     0.074 A 
ATOM     69  C   UNL A   1      47.057  25.016  26.392  1.00  0.00     0.031 C 
ATOM     70  C   UNL A   1      47.811  27.350  26.750  1.00  0.00     0.037 A 
BRANCH  57  71
ATOM     71  C   UNL A   1      45.881  32.964  28.496  1.00  0.00     0.058 A 
ATOM     72  C   UNL A   1      45.738  33.913  27.471  1.00  0.00     0.135 A 
ATOM     73  C   UNL A   1      46.332  33.415  29.747  1.00  0.00     0.135 A 
ATOM     74  F   UNL A   1      45.327  33.534  26.251  1.00  0.00    -0.206 F 
ATOM     75  C   UNL A   1      46.063  35.250  27.667  1.00  0.00     0.059 A 
ATOM     76  C   UNL A   1      46.635  34.755  29.974  1.00  0.00     0.059 A 
ATOM     77  F   UNL A   1      46.488  32.552  30.762  1.00  0.00    -0.206 F 
ATOM     78  C   UNL A   1      46.514  35.662  28.922  1.00  0.00     0.060 A 
BRANCH  78  79
ATOM     79  S   UNL A   1      46.939  37.400  29.158  1.00  0.00     0.124 S 
ATOM     80  O   UNL A   1      48.207  37.489  28.439  1.00  0.00    -0.237 OA
ATOM     81  O   UNL A   1      45.810  38.086  28.539  1.00  0.00    -0.237 OA
ATOM     82  O   UNL A   1      47.031  37.533  30.609  1.00  0.00    -0.744 OA
ENDBRANCH  78  79
ENDBRANCH  57  71
BRANCH  58  83
ATOM     83  C   UNL A   1      43.178  23.449  27.005  1.00  0.00     0.058 A 
ATOM     84  C   UNL A   1      42.927  23.012  25.696  1.00  0.00     0.135 A 
ATOM     85  C   UNL A   1      43.048  22.513  28.043  1.00  0.00     0.135 A 
ATOM     86  F   UNL A   1      43.033  23.871  24.671  1.00  0.00    -0.206 F 
ATOM     87  C   UNL A   1      42.547  21.701  25.425  1.00  0.00     0.059 A 
ATOM     88  C   UNL A   1      42.693  21.192  27.795  1.00  0.00     0.059 A 
ATOM     89  F   UNL A   1      43.294  22.877  29.311  1.00  0.00    -0.206 F 
ATOM     90  C   UNL A   1      42.435  20.797  26.482  1.00  0.00     0.060 A 
BRANCH  90  91
ATOM     91  S   UNL A   1      41.995  19.084  26.115  1.00  0.00     0.124 S 
ATOM     92  O   UNL A   1      42.283  18.429  27.386  1.00  0.00    -0.237 OA
ATOM     93  O   UNL A   1      40.584  19.198  25.761  1.00  0.00    -0.237 OA
ATOM     94  O   UNL A   1      42.884  18.739  25.010  1.00  0.00    -0.744 OA
ENDBRANCH  90  91
ENDBRANCH  58  83
BRANCH  70  95
ATOM     95  C   UNL A   1      49.197  26.927  26.351  1.00  0.00     0.058 A 
ATOM     96  C   UNL A   1      50.116  26.429  27.287  1.00  0.00     0.135 A 
ATOM     97  C   UNL A   1      49.583  26.957  25.002  1.00  0.00     0.135 A 
ATOM     98  F   UNL A   1      49.799  26.385  28.590  1.00  0.00    -0.206 F 
ATOM     99  C   UNL A   1      51.377  25.988  26.899  1.00  0.00     0.059 A 
ATOM    100  C   UNL A   1      50.829  26.498  24.589  1.00  0.00     0.059 A 
ATOM    101  F   UNL A   1      48.736  27.417  24.066  1.00  0.00    -0.206 F 
ATOM    102  C   UNL A   1      51.724  26.022  25.546  1.00  0.00     0.060 A 
BRANCH 102 103
ATOM    103  S   UNL A   1      53.344  25.400  25.049  1.00  0.00     0.124 S 
ATOM    104  O   UNL A   1      54.232  26.167  25.917  1.00  0.00    -0.237 OA
ATOM    105  O   UNL A   1      53.237  23.976  25.350  1.00  0.00    -0.237 OA
ATOM    106  O   UNL A   1      53.414  25.731  23.629  1.00  0.00    -0.744 OA
ENDBRANCH 102 103
ENDBRANCH  70  95
ENDBRANCH  44  45
ENDBRANCH  36  39
ENDBRANCH  34  35
ENDBRANCH  33  34
ENDBRANCH  32  33
ENDBRANCH   1  32
TORSDOF 20
ENDMDL
MODEL 2
REMARK VINA RESULT:     -12.1      0.689      7.861
REMARK SMILES CCOc1ccc(-c2cc(Cl)cc3c2O[C@H](C(F)(F)F)C(C(=O)NCCCCCCNC(=O)c2ccc(-c4c5nc(c(-c6c(F)cc(S(=O)(=O)[O-])cc6F)c6ccc([nH]6)c(-c6c(F)cc(S(=O)(=O)[O-])cc6F)c6nc(c(-c7c(F)cc(S(=O)(=O)[O-])cc7F)c7ccc4[nH]7)C=C6)C=C5)cc2)=C3)cc1
REMARK SMILES IDX 27 1 26 2 25 3 24 4 22 5 23 6 21 8 8 9 9 10 14 11 10 12
REMARK SMILES IDX 13 13 15 14 11 15 12 16 100 17 16 18 7 19 4 20 5 21 102 22
REMARK SMILES IDX 6 23 101 24 3 25 2 26 1 27 17 28 18 29 19 30 20 31 28 32
REMARK SMILES IDX 29 33 30 34 31 35 32 36 33 38 34 39 35 40 99 41 36 42 98 43
REMARK SMILES IDX 37 44 38 45 39 46 92 47 40 48 97 49 91 50 93 51 41 52 96 53
REMARK SMILES IDX 90 54 89 55 42 57 76 58 55 59 75 60 56 61 59 62 74 63 94 64
REMARK SMILES IDX 57 65 58 66 73 68 95 69 60 70 43 71 44 72 53 73 45 74 46 75
REMARK SMILES IDX 52 76 54 77 47 78 48 79 49 80 50 81 51 82 77 83 78 84 87 85
REMARK SMILES IDX 79 86 80 87 86 88 88 89 81 90 82 91 83 92 84 93 85 94 61 95
REMARK SMILES IDX 62 96 71 97 63 98 64 99 70 100 72 101 65 102 66 103 67 104
REMARK SMILES IDX 68 105 69 106
REMARK H PARENT 24 7 31 37 93 56 59 67
REMARK Flexibility Score: inf
ROOT
ATOM      1  C   UNL A   1      32.215  30.666  26.384  1.00  0.00     0.002 C 
ENDROOT
BRANCH   1   2
ATOM      2  C   UNL A   1      32.134  29.132  26.305  1.00  0.00     0.021 C 
BRANCH   2   3
ATOM      3  C   UNL A   1      32.687  28.527  25.006  1.00  0.00     0.116 C 
BRANCH   3   4
ATOM      4  N   UNL A   1      33.712  27.551  25.320  1.00  0.00    -0.352 N 
ATOM      5  C   UNL A   1      33.522  26.208  25.317  1.00  0.00     0.251 C 
ATOM      6  O   UNL A   1      33.847  25.530  26.285  1.00  0.00    -0.270 OA
ATOM      7  H   UNL A   1      34.609  27.887  25.552  1.00  0.00     0.163 HD
BRANCH   5   8
ATOM      8  C   UNL A   1      33.062  25.612  24.027  1.00  0.00     0.067 C 
ATOM      9  C   UNL A   1      33.919  21.716  24.815  1.00  0.00     0.026 A 
ATOM     10  C   UNL A   1      35.225  21.648  25.360  1.00  0.00     0.033 A 
ATOM     11  C   UNL A   1      33.550  22.930  24.213  1.00  0.00     0.135 A 
ATOM     12  C   UNL A   1      36.159  22.666  25.180  1.00  0.00     0.042 A 
ATOM     13  C   UNL A   1      34.540  23.904  23.942  1.00  0.00     0.019 A 
ATOM     14  O   UNL A   1      32.234  23.235  23.901  1.00  0.00    -0.475 OA
ATOM     15  Cl  UNL A   1      37.722  22.522  25.881  1.00  0.00    -0.084 Cl
ATOM     16  C   UNL A   1      35.844  23.774  24.412  1.00  0.00     0.032 A 
ATOM     17  C   UNL A   1      34.103  25.161  23.298  1.00  0.00     0.025 C 
ATOM     18  C   UNL A   1      31.883  24.656  24.176  1.00  0.00     0.314 C 
BRANCH   9  19
ATOM     19  C   UNL A   1      33.181  20.434  24.741  1.00  0.00    -0.014 A 
ATOM     20  C   UNL A   1      32.708  17.656  24.543  1.00  0.00     0.119 A 
ATOM     21  C   UNL A   1      32.724  18.270  25.792  1.00  0.00     0.047 A 
ATOM     22  C   UNL A   1      32.788  18.435  23.393  1.00  0.00     0.047 A 
ATOM     23  C   UNL A   1      32.953  19.650  25.891  1.00  0.00     0.013 A 
ATOM     24  C   UNL A   1      33.019  19.812  23.492  1.00  0.00     0.013 A 
BRANCH  20  25
ATOM     25  O   UNL A   1      32.543  16.301  24.491  1.00  0.00    -0.494 OA
BRANCH  25  26
ATOM     26  C   UNL A   1      33.376  15.581  25.415  1.00  0.00     0.226 C 
ATOM     27  C   UNL A   1      34.850  15.803  25.114  1.00  0.00     0.049 C 
ENDBRANCH  25  26
ENDBRANCH  20  25
ENDBRANCH   9  19
BRANCH  18  28
ATOM     28  C   UNL A   1      30.731  25.140  23.273  1.00  0.00     0.429 C 
ATOM     29  F   UNL A   1      29.783  24.192  23.088  1.00  0.00    -0.167 F 
ATOM     30  F   UNL A   1      30.123  26.231  23.798  1.00  0.00    -0.167 F 
ATOM     31  F   UNL A   1      31.162  25.502  22.037  1.00  0.00    -0.167 F 
ENDBRANCH  18  28
ENDBRANCH   5   8
ENDBRANCH   3   4
ENDBRANCH   2   3
ENDBRANCH   1   2
BRANCH   1  32
ATOM     32  C   UNL A   1      33.309  31.209  27.308  1.00  0.00     0.002 C 
BRANCH  32  33
ATOM     33  C   UNL A   1      34.602  30.395  27.306  1.00  0.00     0.021 C 
BRANCH  33  34
ATOM     34  C   UNL A   1      35.704  30.957  28.195  1.00  0.00     0.116 C 
BRANCH  34  35
ATOM     35  N   UNL A   1      35.582  30.527  29.581  1.00  0.00    -0.352 N 
ATOM     36  C   UNL A   1      36.553  29.979  30.385  1.00  0.00     0.251 C 
ATOM     37  H   UNL A   1      34.695  30.642  29.993  1.00  0.00     0.163 HD
ATOM     38  O   UNL A   1      36.273  29.532  31.493  1.00  0.00    -0.269 OA
BRANCH  36  39
ATOM     39  C   UNL A   1      37.936  29.909  29.874  1.00  0.00     0.039 A 
ATOM     40  C   UNL A   1      39.000  29.924  30.778  1.00  0.00     0.014 A 
ATOM     41  C   UNL A   1      38.167  29.755  28.504  1.00  0.00     0.014 A 
ATOM     42  C   UNL A   1      40.300  29.712  30.312  1.00  0.00     0.010 A 
ATOM     43  C   UNL A   1      39.452  29.477  28.053  1.00  0.00     0.010 A 
ATOM     44  C   UNL A   1      40.530  29.447  28.953  1.00  0.00    -0.014 A 
BRANCH  44  45
ATOM     45  C   UNL A   1      41.884  29.136  28.432  1.00  0.00     0.031 A 
ATOM     46  C   UNL A   1      42.217  27.726  28.026  1.00  0.00     0.074 A 
ATOM     47  C   UNL A   1      42.837  30.089  28.420  1.00  0.00     0.049 A 
ATOM     48  N   UNL A   1      43.375  27.207  27.711  1.00  0.00    -0.248 NA
ATOM     49  C   UNL A   1      41.102  26.766  28.009  1.00  0.00     0.031 C 
ATOM     50  C   UNL A   1      42.647  31.484  28.822  1.00  0.00     0.029 A 
ATOM     51  N   UNL A   1      44.166  30.022  28.080  1.00  0.00    -0.354 N 
ATOM     52  C   UNL A   1      43.131  25.859  27.478  1.00  0.00     0.074 A 
ATOM     53  C   UNL A   1      41.726  25.631  27.737  1.00  0.00     0.031 C 
ATOM     54  C   UNL A   1      43.812  32.140  28.703  1.00  0.00     0.029 A 
ATOM     55  C   UNL A   1      44.843  31.205  28.259  1.00  0.00     0.049 A 
ATOM     56  H   UNL A   1      44.594  29.202  27.741  1.00  0.00     0.167 HD
ATOM     57  C   UNL A   1      43.998  24.901  27.070  1.00  0.00     0.037 A 
ATOM     58  C   UNL A   1      46.148  31.499  28.104  1.00  0.00     0.037 A 
ATOM     59  C   UNL A   1      45.390  25.143  26.791  1.00  0.00     0.049 A 
ATOM     60  C   UNL A   1      47.094  30.420  27.649  1.00  0.00     0.074 A 
ATOM     61  C   UNL A   1      46.343  24.250  26.332  1.00  0.00     0.029 A 
ATOM     62  N   UNL A   1      46.026  26.367  26.940  1.00  0.00    -0.354 N 
ATOM     63  N   UNL A   1      46.843  29.157  27.398  1.00  0.00    -0.248 NA
ATOM     64  C   UNL A   1      48.498  30.804  27.448  1.00  0.00     0.031 C 
ATOM     65  C   UNL A   1      47.564  24.926  26.236  1.00  0.00     0.029 A 
ATOM     66  C   UNL A   1      47.361  26.251  26.591  1.00  0.00     0.049 A 
ATOM     67  H   UNL A   1      45.593  27.195  27.248  1.00  0.00     0.167 HD
ATOM     68  C   UNL A   1      48.048  28.604  26.981  1.00  0.00     0.074 A 
ATOM     69  C   UNL A   1      49.028  29.670  27.009  1.00  0.00     0.031 C 
ATOM     70  C   UNL A   1      48.318  27.329  26.606  1.00  0.00     0.037 A 
BRANCH  57  71
ATOM     71  C   UNL A   1      43.460  23.507  26.898  1.00  0.00     0.058 A 
ATOM     72  C   UNL A   1      43.267  22.652  27.994  1.00  0.00     0.135 A 
ATOM     73  C   UNL A   1      43.119  23.025  25.624  1.00  0.00     0.135 A 
ATOM     74  F   UNL A   1      43.593  23.056  29.232  1.00  0.00    -0.206 F 
ATOM     75  C   UNL A   1      42.790  21.357  27.832  1.00  0.00     0.059 A 
ATOM     76  C   UNL A   1      42.611  21.741  25.441  1.00  0.00     0.059 A 
ATOM     77  F   UNL A   1      43.284  23.800  24.540  1.00  0.00    -0.206 F 
ATOM     78  C   UNL A   1      42.467  20.909  26.550  1.00  0.00     0.060 A 
BRANCH  78  79
ATOM     79  S   UNL A   1      41.856  19.222  26.354  1.00  0.00     0.124 S 
ATOM     80  O   UNL A   1      42.807  18.679  25.389  1.00  0.00    -0.237 OA
ATOM     81  O   UNL A   1      41.957  18.693  27.710  1.00  0.00    -0.237 OA
ATOM     82  O   UNL A   1      40.496  19.409  25.858  1.00  0.00    -0.744 OA
ENDBRANCH  78  79
ENDBRANCH  57  71
BRANCH  58  83
ATOM     83  C   UNL A   1      46.636  32.879  28.370  1.00  0.00     0.058 A 
ATOM     84  C   UNL A   1      46.655  33.844  27.353  1.00  0.00     0.135 A 
ATOM     85  C   UNL A   1      47.071  33.265  29.647  1.00  0.00     0.135 A 
ATOM     86  F   UNL A   1      46.254  33.521  26.114  1.00  0.00    -0.206 F 
ATOM     87  C   UNL A   1      47.104  35.140  27.586  1.00  0.00     0.059 A 
ATOM     88  C   UNL A   1      47.502  34.562  29.911  1.00  0.00     0.059 A 
ATOM     89  F   UNL A   1      47.056  32.384  30.659  1.00  0.00    -0.206 F 
ATOM     90  C   UNL A   1      47.523  35.491  28.870  1.00  0.00     0.060 A 
BRANCH  90  91
ATOM     91  S   UNL A   1      48.052  37.190  29.176  1.00  0.00     0.124 S 
ATOM     92  O   UNL A   1      49.205  37.302  28.290  1.00  0.00    -0.237 OA
ATOM     93  O   UNL A   1      46.871  37.954  28.787  1.00  0.00    -0.237 OA
ATOM     94  O   UNL A   1      48.350  37.196  30.605  1.00  0.00    -0.744 OA
ENDBRANCH  90  91
ENDBRANCH  58  83
BRANCH  70  95
ATOM     95  C   UNL A   1      49.716  27.021  26.144  1.00  0.00     0.058 A 
ATOM     96  C   UNL A   1      50.697  26.542  27.024  1.00  0.00     0.135 A 
ATOM     97  C   UNL A   1      50.052  27.143  24.786  1.00  0.00     0.135 A 
ATOM     98  F   UNL A   1      50.428  26.413  28.332  1.00  0.00    -0.206 F 
ATOM     99  C   UNL A   1      51.970  26.207  26.575  1.00  0.00     0.059 A 
ATOM    100  C   UNL A   1      51.311  26.790  24.311  1.00  0.00     0.059 A 
ATOM    101  F   UNL A   1      49.145  27.589  23.902  1.00  0.00    -0.206 F 
ATOM    102  C   UNL A   1      52.267  26.330  25.215  1.00  0.00     0.060 A 
BRANCH 102 103
ATOM    103  S   UNL A   1      53.907  25.844  24.637  1.00  0.00     0.124 S 
ATOM    104  O   UNL A   1      53.874  24.400  24.841  1.00  0.00    -0.237 OA
ATOM    105  O   UNL A   1      53.892  26.290  23.247  1.00  0.00    -0.237 OA
ATOM    106  O   UNL A   1      54.809  26.583  25.517  1.00  0.00    -0.744 OA
ENDBRANCH 102 103
ENDBRANCH  70  95
ENDBRANCH  44  45
ENDBRANCH  36  39
ENDBRANCH  34  35
ENDBRANCH  33  34
ENDBRANCH  32  33
ENDBRANCH   1  32
TORSDOF 20
ENDMDL
MODEL 3
REMARK VINA RESULT:     -11.7      5.587      8.959
REMARK SMILES CCOc1ccc(-c2cc(Cl)cc3c2O[C@H](C(F)(F)F)C(C(=O)NCCCCCCNC(=O)c2ccc(-c4c5nc(c(-c6c(F)cc(S(=O)(=O)[O-])cc6F)c6ccc([nH]6)c(-c6c(F)cc(S(=O)(=O)[O-])cc6F)c6nc(c(-c7c(F)cc(S(=O)(=O)[O-])cc7F)c7ccc4[nH]7)C=C6)C=C5)cc2)=C3)cc1
REMARK SMILES IDX 27 1 26 2 25 3 24 4 22 5 23 6 21 8 8 9 9 10 14 11 10 12
REMARK SMILES IDX 13 13 15 14 11 15 12 16 100 17 16 18 7 19 4 20 5 21 102 22
REMARK SMILES IDX 6 23 101 24 3 25 2 26 1 27 17 28 18 29 19 30 20 31 28 32
REMARK SMILES IDX 29 33 30 34 31 35 32 36 33 38 34 39 35 40 99 41 36 42 98 43
REMARK SMILES IDX 37 44 38 45 39 46 92 47 40 48 97 49 91 50 93 51 41 52 96 53
REMARK SMILES IDX 90 54 89 55 42 57 76 58 55 59 75 60 56 61 59 62 74 63 94 64
REMARK SMILES IDX 57 65 58 66 73 68 95 69 60 70 43 71 44 72 53 73 45 74 46 75
REMARK SMILES IDX 52 76 54 77 47 78 48 79 49 80 50 81 51 82 77 83 78 84 87 85
REMARK SMILES IDX 79 86 80 87 86 88 88 89 81 90 82 91 83 92 84 93 85 94 61 95
REMARK SMILES IDX 62 96 71 97 63 98 64 99 70 100 72 101 65 102 66 103 67 104
REMARK SMILES IDX 68 105 69 106
REMARK H PARENT 24 7 31 37 93 56 59 67
REMARK Flexibility Score: inf
ROOT
ATOM      1  C   UNL A   1      34.798  33.134  33.418  1.00  0.00     0.002 C 
ENDROOT
BRANCH   1   2
ATOM      2  C   UNL A   1      35.357  34.390  34.109  1.00  0.00     0.021 C 
BRANCH   2   3
ATOM      3  C   UNL A   1      36.857  34.632  33.885  1.00  0.00     0.116 C 
BRANCH   3   4
ATOM      4  N   UNL A   1      37.611  34.076  34.992  1.00  0.00    -0.352 N 
ATOM      5  C   UNL A   1      37.854  32.753  35.167  1.00  0.00     0.251 C 
ATOM      6  O   UNL A   1      37.605  32.210  36.238  1.00  0.00    -0.270 OA
ATOM      7  H   UNL A   1      37.970  34.701  35.662  1.00  0.00     0.163 HD
BRANCH   5   8
ATOM      8  C   UNL A   1      38.582  32.065  34.059  1.00  0.00     0.067 C 
ATOM      9  C   UNL A   1      41.731  30.630  36.193  1.00  0.00     0.026 A 
ATOM     10  C   UNL A   1      42.229  31.674  37.011  1.00  0.00     0.033 A 
ATOM     11  C   UNL A   1      40.836  30.999  35.177  1.00  0.00     0.135 A 
ATOM     12  C   UNL A   1      41.975  33.017  36.737  1.00  0.00     0.042 A 
ATOM     13  C   UNL A   1      40.680  32.365  34.845  1.00  0.00     0.019 A 
ATOM     14  O   UNL A   1      40.060  30.072  34.497  1.00  0.00    -0.475 OA
ATOM     15  Cl  UNL A   1      42.601  34.231  37.781  1.00  0.00    -0.084 Cl
ATOM     16  C   UNL A   1      41.253  33.375  35.613  1.00  0.00     0.032 A 
ATOM     17  C   UNL A   1      39.733  32.702  33.760  1.00  0.00     0.025 C 
ATOM     18  C   UNL A   1      38.676  30.553  34.229  1.00  0.00     0.314 C 
BRANCH   9  19
ATOM     19  C   UNL A   1      42.384  29.311  36.359  1.00  0.00    -0.014 A 
ATOM     20  C   UNL A   1      43.687  26.896  35.688  1.00  0.00     0.119 A 
ATOM     21  C   UNL A   1      44.433  27.994  36.108  1.00  0.00     0.047 A 
ATOM     22  C   UNL A   1      42.298  26.951  35.732  1.00  0.00     0.047 A 
ATOM     23  C   UNL A   1      43.786  29.191  36.446  1.00  0.00     0.013 A 
ATOM     24  C   UNL A   1      41.652  28.147  36.068  1.00  0.00     0.013 A 
BRANCH  20  25
ATOM     25  O   UNL A   1      44.356  25.766  35.309  1.00  0.00    -0.494 OA
BRANCH  25  26
ATOM     26  C   UNL A   1      44.055  24.618  36.117  1.00  0.00     0.226 C 
ATOM     27  C   UNL A   1      43.842  23.381  35.259  1.00  0.00     0.049 C 
ENDBRANCH  25  26
ENDBRANCH  20  25
ENDBRANCH   9  19
BRANCH  18  28
ATOM     28  C   UNL A   1      38.070  29.872  32.985  1.00  0.00     0.429 C 
ATOM     29  F   UNL A   1      38.168  30.639  31.875  1.00  0.00    -0.167 F 
ATOM     30  F   UNL A   1      38.685  28.693  32.725  1.00  0.00    -0.167 F 
ATOM     31  F   UNL A   1      36.752  29.588  33.144  1.00  0.00    -0.167 F 
ENDBRANCH  18  28
ENDBRANCH   5   8
ENDBRANCH   3   4
ENDBRANCH   2   3
ENDBRANCH   1   2
BRANCH   1  32
ATOM     32  C   UNL A   1      34.535  33.285  31.918  1.00  0.00     0.002 C 
BRANCH  32  33
ATOM     33  C   UNL A   1      35.158  32.190  31.052  1.00  0.00     0.021 C 
BRANCH  33  34
ATOM     34  C   UNL A   1      35.253  32.534  29.571  1.00  0.00     0.116 C 
BRANCH  34  35
ATOM     35  N   UNL A   1      34.392  31.701  28.744  1.00  0.00    -0.352 N 
ATOM     36  C   UNL A   1      34.724  30.551  28.068  1.00  0.00     0.251 C 
ATOM     37  H   UNL A   1      33.458  31.998  28.657  1.00  0.00     0.163 HD
ATOM     38  O   UNL A   1      33.930  30.026  27.293  1.00  0.00    -0.269 OA
BRANCH  36  39
ATOM     39  C   UNL A   1      36.069  29.977  28.269  1.00  0.00     0.039 A 
ATOM     40  C   UNL A   1      37.071  30.241  27.333  1.00  0.00     0.014 A 
ATOM     41  C   UNL A   1      36.348  29.238  29.423  1.00  0.00     0.014 A 
ATOM     42  C   UNL A   1      38.379  29.823  27.591  1.00  0.00     0.010 A 
ATOM     43  C   UNL A   1      37.661  28.884  29.709  1.00  0.00     0.010 A 
ATOM     44  C   UNL A   1      38.690  29.177  28.799  1.00  0.00    -0.014 A 
BRANCH  44  45
ATOM     45  C   UNL A   1      40.080  28.791  29.147  1.00  0.00     0.031 A 
ATOM     46  C   UNL A   1      40.999  29.806  29.768  1.00  0.00     0.074 A 
ATOM     47  C   UNL A   1      40.543  27.570  28.814  1.00  0.00     0.049 A 
ATOM     48  N   UNL A   1      42.285  29.732  29.991  1.00  0.00    -0.248 NA
ATOM     49  C   UNL A   1      40.393  31.090  30.157  1.00  0.00     0.031 C 
ATOM     50  C   UNL A   1      39.760  26.510  28.175  1.00  0.00     0.029 A 
ATOM     51  N   UNL A   1      41.796  27.022  28.941  1.00  0.00    -0.354 N 
ATOM     52  C   UNL A   1      42.645  30.963  30.526  1.00  0.00     0.074 A 
ATOM     53  C   UNL A   1      41.453  31.781  30.548  1.00  0.00     0.031 C 
ATOM     54  C   UNL A   1      40.547  25.442  27.971  1.00  0.00     0.029 A 
ATOM     55  C   UNL A   1      41.901  25.754  28.422  1.00  0.00     0.049 A 
ATOM     56  H   UNL A   1      42.549  27.495  29.365  1.00  0.00     0.167 HD
ATOM     57  C   UNL A   1      43.858  31.368  30.974  1.00  0.00     0.037 A 
ATOM     58  C   UNL A   1      42.969  24.942  28.302  1.00  0.00     0.037 A 
ATOM     59  C   UNL A   1      45.034  30.537  30.971  1.00  0.00     0.049 A 
ATOM     60  C   UNL A   1      44.307  25.412  28.807  1.00  0.00     0.074 A 
ATOM     61  C   UNL A   1      46.301  30.839  31.441  1.00  0.00     0.029 A 
ATOM     62  N   UNL A   1      45.087  29.242  30.479  1.00  0.00    -0.354 N 
ATOM     63  N   UNL A   1      44.626  26.566  29.344  1.00  0.00    -0.248 NA
ATOM     64  C   UNL A   1      45.430  24.470  28.698  1.00  0.00     0.031 C 
ATOM     65  C   UNL A   1      47.129  29.736  31.200  1.00  0.00     0.029 A 
ATOM     66  C   UNL A   1      46.366  28.732  30.624  1.00  0.00     0.049 A 
ATOM     67  H   UNL A   1      44.328  28.756  30.084  1.00  0.00     0.167 HD
ATOM     68  C   UNL A   1      45.975  26.477  29.664  1.00  0.00     0.074 A 
ATOM     69  C   UNL A   1      46.414  25.156  29.264  1.00  0.00     0.031 C 
ATOM     70  C   UNL A   1      46.779  27.406  30.239  1.00  0.00     0.037 A 
BRANCH  57  71
ATOM     71  C   UNL A   1      43.967  32.770  31.507  1.00  0.00     0.058 A 
ATOM     72  C   UNL A   1      44.136  33.871  30.653  1.00  0.00     0.135 A 
ATOM     73  C   UNL A   1      43.887  33.018  32.886  1.00  0.00     0.135 A 
ATOM     74  F   UNL A   1      44.237  33.689  29.327  1.00  0.00    -0.206 F 
ATOM     75  C   UNL A   1      44.259  35.164  31.148  1.00  0.00     0.059 A 
ATOM     76  C   UNL A   1      43.977  34.309  33.402  1.00  0.00     0.059 A 
ATOM     77  F   UNL A   1      43.726  32.003  33.749  1.00  0.00    -0.206 F 
ATOM     78  C   UNL A   1      44.180  35.373  32.526  1.00  0.00     0.060 A 
BRANCH  78  79
ATOM     79  S   UNL A   1      44.348  37.057  33.153  1.00  0.00     0.124 S 
ATOM     80  O   UNL A   1      42.964  37.379  33.492  1.00  0.00    -0.237 OA
ATOM     81  O   UNL A   1      45.252  36.881  34.285  1.00  0.00    -0.237 OA
ATOM     82  O   UNL A   1      44.903  37.788  32.019  1.00  0.00    -0.744 OA
ENDBRANCH  78  79
ENDBRANCH  57  71
BRANCH  58  83
ATOM     83  C   UNL A   1      42.814  23.595  27.689  1.00  0.00     0.058 A 
ATOM     84  C   UNL A   1      42.956  23.413  26.306  1.00  0.00     0.135 A 
ATOM     85  C   UNL A   1      42.541  22.464  28.474  1.00  0.00     0.135 A 
ATOM     86  F   UNL A   1      43.211  24.465  25.514  1.00  0.00    -0.206 F 
ATOM     87  C   UNL A   1      42.818  22.160  25.718  1.00  0.00     0.059 A 
ATOM     88  C   UNL A   1      42.423  21.197  27.912  1.00  0.00     0.059 A 
ATOM     89  F   UNL A   1      42.413  22.583  29.804  1.00  0.00    -0.206 F 
ATOM     90  C   UNL A   1      42.554  21.056  26.530  1.00  0.00     0.060 A 
BRANCH  90  91
ATOM     91  S   UNL A   1      42.432  19.425  25.765  1.00  0.00     0.124 S 
ATOM     92  O   UNL A   1      41.022  19.382  25.392  1.00  0.00    -0.237 OA
ATOM     93  O   UNL A   1      43.381  19.531  24.662  1.00  0.00    -0.237 OA
ATOM     94  O   UNL A   1      42.829  18.520  26.839  1.00  0.00    -0.744 OA
ENDBRANCH  90  91
ENDBRANCH  58  83
BRANCH  70  95
ATOM     95  C   UNL A   1      48.203  27.014  30.523  1.00  0.00     0.058 A 
ATOM     96  C   UNL A   1      49.244  27.312  29.631  1.00  0.00     0.135 A 
ATOM     97  C   UNL A   1      48.535  26.393  31.738  1.00  0.00     0.135 A 
ATOM     98  F   UNL A   1      48.979  27.899  28.454  1.00  0.00    -0.206 F 
ATOM     99  C   UNL A   1      50.565  26.995  29.929  1.00  0.00     0.059 A 
ATOM    100  C   UNL A   1      49.852  26.090  32.067  1.00  0.00     0.059 A 
ATOM    101  F   UNL A   1      47.575  26.095  32.629  1.00  0.00    -0.206 F 
ATOM    102  C   UNL A   1      50.861  26.388  31.152  1.00  0.00     0.060 A 
BRANCH 102 103
ATOM    103  S   UNL A   1      52.584  26.027  31.548  1.00  0.00     0.124 S 
ATOM    104  O   UNL A   1      52.900  27.097  32.489  1.00  0.00    -0.237 OA
ATOM    105  O   UNL A   1      52.500  24.686  32.118  1.00  0.00    -0.237 OA
ATOM    106  O   UNL A   1      53.255  26.111  30.254  1.00  0.00    -0.744 OA
ENDBRANCH 102 103
ENDBRANCH  70  95
ENDBRANCH  44  45
ENDBRANCH  36  39
ENDBRANCH  34  35
ENDBRANCH  33  34
ENDBRANCH  32  33
ENDBRANCH   1  32
TORSDOF 20
ENDMDL
