MODEL 1
REMARK VINA RESULT:     -13.6      0.000      0.000
REMARK SMILES Cc1ccc(-c2ccc(C(=O)Nc3ccc(C(=O)NCCCCCCNC(=O)c4ccc(-c5c6nc(c(-c7c(F)cc(S(=O)(=O)[O-])cc7F)c7ccc([nH]7)c(-c7c(F)cc(S(=O)(=O)[O-])cc7F)c7nc(c(-c8c(F)cc(S(=O)(=O)[O-])cc8F)c8ccc5[nH]8)C=C7)C=C6)cc4)c(O)c3)o2)c([N+](=O)[O-])c1
REMARK SMILES IDX 22 1 21 2 20 3 19 4 17 5 18 6 16 8 13 9 14 10 97 11 15 12
REMARK SMILES IDX 95 13 12 14 10 15 11 16 9 18 6 19 7 20 98 21 8 22 5 23 1 24
REMARK SMILES IDX 2 25 3 26 103 27 4 28 99 29 100 30 101 31 102 32 96 33 23 35
REMARK SMILES IDX 24 36 25 37 26 38 27 39 28 41 29 42 30 43 94 44 31 45 93 46
REMARK SMILES IDX 32 47 33 48 34 49 87 50 35 51 92 52 86 53 88 54 36 55 91 56
REMARK SMILES IDX 85 57 84 58 37 60 71 61 50 62 70 63 51 64 54 65 69 66 89 67
REMARK SMILES IDX 52 68 53 69 68 71 90 72 55 73 38 74 39 75 48 76 40 77 41 78
REMARK SMILES IDX 47 79 49 80 42 81 43 82 44 83 45 84 46 85 72 86 73 87 82 88
REMARK SMILES IDX 74 89 75 90 81 91 83 92 76 93 77 94 78 95 79 96 80 97 56 98
REMARK SMILES IDX 57 99 66 100 58 101 59 102 65 103 67 104 60 105 61 106
REMARK SMILES IDX 62 107 63 108 64 109
REMARK H PARENT 19 7 12 17 96 34 26 40 88 59 54 70
REMARK Flexibility Score: inf
ROOT
ATOM      1  C   UNL A   1      37.313  20.702  24.556  1.00  0.00     0.002 C 
ENDROOT
BRANCH   1   2
ATOM      2  C   UNL A   1      36.175  20.002  25.316  1.00  0.00     0.021 C 
BRANCH   2   3
ATOM      3  C   UNL A   1      35.607  18.768  24.614  1.00  0.00     0.116 C 
BRANCH   3   4
ATOM      4  N   UNL A   1      34.258  18.473  25.074  1.00  0.00    -0.352 N 
ATOM      5  C   UNL A   1      33.050  19.093  24.876  1.00  0.00     0.255 C 
ATOM      6  O   UNL A   1      32.024  18.522  25.255  1.00  0.00    -0.269 OA
ATOM      7  H   UNL A   1      34.200  17.670  25.641  1.00  0.00     0.163 HD
BRANCH   5   8
ATOM      8  C   UNL A   1      32.893  20.368  24.127  1.00  0.00     0.081 A 
ATOM      9  C   UNL A   1      32.913  22.619  22.465  1.00  0.00     0.045 A 
ATOM     10  C   UNL A   1      33.386  22.712  23.777  1.00  0.00     0.027 A 
ATOM     11  C   UNL A   1      32.260  21.466  22.037  1.00  0.00     0.073 A 
ATOM     12  C   UNL A   1      33.342  21.596  24.619  1.00  0.00     0.020 A 
ATOM     13  C   UNL A   1      32.282  20.337  22.858  1.00  0.00     0.130 A 
BRANCH   9  14
ATOM     14  N   UNL A   1      33.178  23.625  21.531  1.00  0.00    -0.319 N 
ATOM     15  C   UNL A   1      32.530  24.850  21.403  1.00  0.00     0.291 C 
ATOM     16  O   UNL A   1      32.763  25.503  20.382  1.00  0.00    -0.265 OA
ATOM     17  H   UNL A   1      33.904  23.446  20.889  1.00  0.00     0.170 HD
BRANCH  15  18
ATOM     18  C   UNL A   1      31.738  25.377  22.516  1.00  0.00     0.192 A 
ATOM     19  C   UNL A   1      31.358  26.743  24.218  1.00  0.00     0.142 A 
ATOM     20  C   UNL A   1      30.343  25.818  24.238  1.00  0.00     0.052 A 
ATOM     21  O   UNL A   1      32.181  26.521  23.154  1.00  0.00    -0.451 OA
ATOM     22  C   UNL A   1      30.628  24.909  23.204  1.00  0.00     0.057 A 
BRANCH  19  23
ATOM     23  C   UNL A   1      31.709  27.822  25.128  1.00  0.00     0.095 A 
ATOM     24  C   UNL A   1      33.278  31.024  27.599  1.00  0.00     0.044 C 
ATOM     25  C   UNL A   1      32.696  29.925  26.759  1.00  0.00    -0.044 A 
ATOM     26  C   UNL A   1      32.851  28.584  27.139  1.00  0.00     0.004 A 
ATOM     27  C   UNL A   1      32.003  30.221  25.585  1.00  0.00     0.089 A 
ATOM     28  C   UNL A   1      32.363  27.543  26.334  1.00  0.00     0.019 A 
ATOM     29  C   UNL A   1      31.512  29.172  24.795  1.00  0.00     0.280 A 
BRANCH  29  30
ATOM     30  N   UNL A   1      30.771  29.541  23.604  1.00  0.00     0.063 N 
ATOM     31  O   UNL A   1      31.370  29.497  22.520  1.00  0.00    -0.258 OA
ATOM     32  O   UNL A   1      29.578  29.838  23.755  1.00  0.00    -0.258 OA
ENDBRANCH  29  30
ENDBRANCH  19  23
ENDBRANCH  15  18
ENDBRANCH   9  14
BRANCH  13  33
ATOM     33  O   UNL A   1      31.733  19.200  22.321  1.00  0.00    -0.507 OA
ATOM     34  H   UNL A   1      31.484  18.490  22.880  1.00  0.00     0.293 HD
ENDBRANCH  13  33
ENDBRANCH   5   8
ENDBRANCH   3   4
ENDBRANCH   2   3
ENDBRANCH   1   2
BRANCH   1  35
ATOM     35  C   UNL A   1      37.020  22.118  24.030  1.00  0.00     0.002 C 
BRANCH  35  36
ATOM     36  C   UNL A   1      37.728  23.267  24.750  1.00  0.00     0.021 C 
BRANCH  36  37
ATOM     37  C   UNL A   1      37.764  23.115  26.267  1.00  0.00     0.116 C 
BRANCH  37  38
ATOM     38  N   UNL A   1      39.084  22.812  26.791  1.00  0.00    -0.352 N 
ATOM     39  C   UNL A   1      40.134  23.704  26.987  1.00  0.00     0.251 C 
ATOM     40  H   UNL A   1      39.255  21.873  27.033  1.00  0.00     0.163 HD
ATOM     41  O   UNL A   1      41.285  23.355  27.033  1.00  0.00    -0.269 OA
BRANCH  39  42
ATOM     42  C   UNL A   1      39.743  25.098  27.305  1.00  0.00     0.039 A 
ATOM     43  C   UNL A   1      40.252  26.105  26.476  1.00  0.00     0.014 A 
ATOM     44  C   UNL A   1      39.130  25.407  28.514  1.00  0.00     0.014 A 
ATOM     45  C   UNL A   1      40.282  27.423  26.932  1.00  0.00     0.010 A 
ATOM     46  C   UNL A   1      39.237  26.697  28.996  1.00  0.00     0.010 A 
ATOM     47  C   UNL A   1      39.842  27.704  28.224  1.00  0.00    -0.014 A 
BRANCH  47  48
ATOM     48  C   UNL A   1      40.058  28.981  28.904  1.00  0.00     0.031 A 
ATOM     49  C   UNL A   1      39.007  30.033  28.902  1.00  0.00     0.074 A 
ATOM     50  C   UNL A   1      41.161  29.174  29.661  1.00  0.00     0.049 A 
ATOM     51  N   UNL A   1      39.212  31.267  29.231  1.00  0.00    -0.248 NA
ATOM     52  C   UNL A   1      37.630  29.777  28.493  1.00  0.00     0.031 C 
ATOM     53  C   UNL A   1      41.322  30.158  30.729  1.00  0.00     0.029 A 
ATOM     54  N   UNL A   1      42.436  28.645  29.494  1.00  0.00    -0.354 N 
ATOM     55  C   UNL A   1      37.985  31.878  29.365  1.00  0.00     0.074 A 
ATOM     56  C   UNL A   1      37.035  30.922  28.843  1.00  0.00     0.031 C 
ATOM     57  C   UNL A   1      42.627  30.337  30.970  1.00  0.00     0.029 A 
ATOM     58  C   UNL A   1      43.360  29.592  29.965  1.00  0.00     0.049 A 
ATOM     59  H   UNL A   1      42.653  27.763  29.112  1.00  0.00     0.167 HD
ATOM     60  C   UNL A   1      37.889  33.070  30.024  1.00  0.00     0.037 A 
ATOM     61  C   UNL A   1      44.322  30.130  29.159  1.00  0.00     0.037 A 
ATOM     62  C   UNL A   1      39.197  33.571  30.434  1.00  0.00     0.049 A 
ATOM     63  C   UNL A   1      44.250  31.632  29.005  1.00  0.00     0.074 A 
ATOM     64  C   UNL A   1      39.888  33.536  31.635  1.00  0.00     0.029 A 
ATOM     65  N   UNL A   1      40.112  33.980  29.470  1.00  0.00    -0.354 N 
ATOM     66  N   UNL A   1      43.221  32.354  29.352  1.00  0.00    -0.248 NA
ATOM     67  C   UNL A   1      45.320  32.443  28.431  1.00  0.00     0.031 C 
ATOM     68  C   UNL A   1      41.229  33.913  31.388  1.00  0.00     0.029 A 
ATOM     69  C   UNL A   1      41.356  34.176  30.036  1.00  0.00     0.049 A 
ATOM     70  H   UNL A   1      39.901  34.111  28.517  1.00  0.00     0.167 HD
ATOM     71  C   UNL A   1      43.442  33.672  29.030  1.00  0.00     0.074 A 
ATOM     72  C   UNL A   1      44.789  33.678  28.493  1.00  0.00     0.031 C 
ATOM     73  C   UNL A   1      42.482  34.627  29.228  1.00  0.00     0.037 A 
BRANCH  60  74
ATOM     74  C   UNL A   1      36.576  33.619  30.546  1.00  0.00     0.058 A 
ATOM     75  C   UNL A   1      35.579  34.093  29.664  1.00  0.00     0.135 A 
ATOM     76  C   UNL A   1      36.267  33.762  31.913  1.00  0.00     0.135 A 
ATOM     77  F   UNL A   1      35.675  33.930  28.338  1.00  0.00    -0.206 F 
ATOM     78  C   UNL A   1      34.442  34.775  30.097  1.00  0.00     0.059 A 
ATOM     79  C   UNL A   1      35.164  34.491  32.371  1.00  0.00     0.059 A 
ATOM     80  F   UNL A   1      37.012  33.167  32.855  1.00  0.00    -0.206 F 
ATOM     81  C   UNL A   1      34.263  35.011  31.451  1.00  0.00     0.060 A 
BRANCH  81  82
ATOM     82  S   UNL A   1      32.864  36.017  31.978  1.00  0.00     0.124 S 
ATOM     83  O   UNL A   1      31.890  35.006  32.383  1.00  0.00    -0.237 OA
ATOM     84  O   UNL A   1      33.445  36.806  33.057  1.00  0.00    -0.237 OA
ATOM     85  O   UNL A   1      32.510  36.763  30.772  1.00  0.00    -0.744 OA
ENDBRANCH  81  82
ENDBRANCH  60  74
BRANCH  61  86
ATOM     86  C   UNL A   1      44.830  29.172  28.141  1.00  0.00     0.058 A 
ATOM     87  C   UNL A   1      45.824  28.267  28.558  1.00  0.00     0.135 A 
ATOM     88  C   UNL A   1      44.050  28.821  27.030  1.00  0.00     0.135 A 
ATOM     89  F   UNL A   1      46.613  28.572  29.602  1.00  0.00    -0.206 F 
ATOM     90  C   UNL A   1      45.907  26.986  28.030  1.00  0.00     0.059 A 
ATOM     91  C   UNL A   1      44.125  27.542  26.476  1.00  0.00     0.059 A 
ATOM     92  F   UNL A   1      43.097  29.653  26.583  1.00  0.00    -0.206 F 
ATOM     93  C   UNL A   1      44.995  26.610  27.044  1.00  0.00     0.060 A 
BRANCH  93  94
ATOM     94  S   UNL A   1      44.835  24.847  26.676  1.00  0.00     0.124 S 
ATOM     95  O   UNL A   1      44.138  24.347  27.858  1.00  0.00    -0.237 OA
ATOM     96  O   UNL A   1      44.046  24.876  25.445  1.00  0.00    -0.237 OA
ATOM     97  O   UNL A   1      46.217  24.409  26.525  1.00  0.00    -0.744 OA
ENDBRANCH  93  94
ENDBRANCH  61  86
BRANCH  73  98
ATOM     98  C   UNL A   1      42.507  36.076  28.775  1.00  0.00     0.058 A 
ATOM     99  C   UNL A   1      43.102  37.130  29.488  1.00  0.00     0.135 A 
ATOM    100  C   UNL A   1      42.016  36.429  27.489  1.00  0.00     0.135 A 
ATOM    101  F   UNL A   1      43.711  36.924  30.663  1.00  0.00    -0.206 F 
ATOM    102  C   UNL A   1      43.152  38.440  28.998  1.00  0.00     0.059 A 
ATOM    103  C   UNL A   1      42.106  37.715  26.958  1.00  0.00     0.059 A 
ATOM    104  F   UNL A   1      41.439  35.525  26.682  1.00  0.00    -0.206 F 
ATOM    105  C   UNL A   1      42.654  38.725  27.730  1.00  0.00     0.060 A 
BRANCH 105 106
ATOM    106  S   UNL A   1      42.791  40.390  27.057  1.00  0.00     0.124 S 
ATOM    107  O   UNL A   1      43.986  40.273  26.226  1.00  0.00    -0.237 OA
ATOM    108  O   UNL A   1      41.535  40.552  26.330  1.00  0.00    -0.237 OA
ATOM    109  O   UNL A   1      42.927  41.221  28.248  1.00  0.00    -0.744 OA
ENDBRANCH 105 106
ENDBRANCH  73  98
ENDBRANCH  47  48
ENDBRANCH  39  42
ENDBRANCH  37  38
ENDBRANCH  36  37
ENDBRANCH  35  36
ENDBRANCH   1  35
TORSDOF 21
ENDMDL
MODEL 2
REMARK VINA RESULT:     -12.8      4.176     10.653
REMARK SMILES Cc1ccc(-c2ccc(C(=O)Nc3ccc(C(=O)NCCCCCCNC(=O)c4ccc(-c5c6nc(c(-c7c(F)cc(S(=O)(=O)[O-])cc7F)c7ccc([nH]7)c(-c7c(F)cc(S(=O)(=O)[O-])cc7F)c7nc(c(-c8c(F)cc(S(=O)(=O)[O-])cc8F)c8ccc5[nH]8)C=C7)C=C6)cc4)c(O)c3)o2)c([N+](=O)[O-])c1
REMARK SMILES IDX 22 1 21 2 20 3 19 4 17 5 18 6 16 8 13 9 14 10 97 11 15 12
REMARK SMILES IDX 95 13 12 14 10 15 11 16 9 18 6 19 7 20 98 21 8 22 5 23 1 24
REMARK SMILES IDX 2 25 3 26 103 27 4 28 99 29 100 30 101 31 102 32 96 33 23 35
REMARK SMILES IDX 24 36 25 37 26 38 27 39 28 41 29 42 30 43 94 44 31 45 93 46
REMARK SMILES IDX 32 47 33 48 34 49 87 50 35 51 92 52 86 53 88 54 36 55 91 56
REMARK SMILES IDX 85 57 84 58 37 60 71 61 50 62 70 63 51 64 54 65 69 66 89 67
REMARK SMILES IDX 52 68 53 69 68 71 90 72 55 73 38 74 39 75 48 76 40 77 41 78
REMARK SMILES IDX 47 79 49 80 42 81 43 82 44 83 45 84 46 85 72 86 73 87 82 88
REMARK SMILES IDX 74 89 75 90 81 91 83 92 76 93 77 94 78 95 79 96 80 97 56 98
REMARK SMILES IDX 57 99 66 100 58 101 59 102 65 103 67 104 60 105 61 106
REMARK SMILES IDX 62 107 63 108 64 109
REMARK H PARENT 19 7 12 17 96 34 26 40 88 59 54 70
REMARK Flexibility Score: inf
ROOT
ATOM      1  C   UNL A   1      34.707  31.335  27.496  1.00  0.00     0.002 C 
ENDROOT
BRANCH   1   2
ATOM      2  C   UNL A   1      35.005  29.851  27.765  1.00  0.00     0.021 C 
BRANCH   2   3
ATOM      3  C   UNL A   1      34.284  28.880  26.829  1.00  0.00     0.116 C 
BRANCH   3   4
ATOM      4  N   UNL A   1      33.026  28.426  27.407  1.00  0.00    -0.352 N 
ATOM      5  C   UNL A   1      31.896  27.873  26.859  1.00  0.00     0.255 C 
ATOM      6  O   UNL A   1      31.033  27.422  27.616  1.00  0.00    -0.269 OA
ATOM      7  H   UNL A   1      32.977  28.537  28.383  1.00  0.00     0.163 HD
BRANCH   5   8
ATOM      8  C   UNL A   1      31.699  27.683  25.398  1.00  0.00     0.081 A 
ATOM      9  C   UNL A   1      31.677  27.076  22.667  1.00  0.00     0.045 A 
ATOM     10  C   UNL A   1      32.011  28.364  23.096  1.00  0.00     0.027 A 
ATOM     11  C   UNL A   1      31.174  26.146  23.571  1.00  0.00     0.073 A 
ATOM     12  C   UNL A   1      31.986  28.677  24.459  1.00  0.00     0.020 A 
ATOM     13  C   UNL A   1      31.218  26.442  24.935  1.00  0.00     0.130 A 
BRANCH   9  14
ATOM     14  N   UNL A   1      31.939  26.663  21.356  1.00  0.00    -0.319 N 
ATOM     15  C   UNL A   1      32.675  25.553  20.952  1.00  0.00     0.291 C 
ATOM     16  O   UNL A   1      32.974  25.485  19.757  1.00  0.00    -0.265 OA
ATOM     17  H   UNL A   1      31.561  27.222  20.638  1.00  0.00     0.170 HD
BRANCH  15  18
ATOM     18  C   UNL A   1      32.931  24.464  21.895  1.00  0.00     0.192 A 
ATOM     19  C   UNL A   1      34.130  23.387  23.416  1.00  0.00     0.142 A 
ATOM     20  C   UNL A   1      33.070  22.565  23.114  1.00  0.00     0.052 A 
ATOM     21  O   UNL A   1      34.032  24.559  22.725  1.00  0.00    -0.451 OA
ATOM     22  C   UNL A   1      32.353  23.218  22.095  1.00  0.00     0.057 A 
BRANCH  19  23
ATOM     23  C   UNL A   1      35.299  23.196  24.259  1.00  0.00     0.095 A 
ATOM     24  C   UNL A   1      39.039  23.034  26.451  1.00  0.00     0.044 C 
ATOM     25  C   UNL A   1      37.727  23.065  25.724  1.00  0.00    -0.044 A 
ATOM     26  C   UNL A   1      37.539  22.293  24.567  1.00  0.00     0.004 A 
ATOM     27  C   UNL A   1      36.682  23.869  26.179  1.00  0.00     0.089 A 
ATOM     28  C   UNL A   1      36.339  22.356  23.843  1.00  0.00     0.019 A 
ATOM     29  C   UNL A   1      35.485  23.915  25.451  1.00  0.00     0.280 A 
BRANCH  29  30
ATOM     30  N   UNL A   1      34.422  24.743  25.990  1.00  0.00     0.063 N 
ATOM     31  O   UNL A   1      34.499  25.965  25.808  1.00  0.00    -0.258 OA
ATOM     32  O   UNL A   1      33.492  24.158  26.563  1.00  0.00    -0.258 OA
ENDBRANCH  29  30
ENDBRANCH  19  23
ENDBRANCH  15  18
ENDBRANCH   9  14
BRANCH  13  33
ATOM     33  O   UNL A   1      30.828  25.432  25.777  1.00  0.00    -0.507 OA
ATOM     34  H   UNL A   1      30.270  24.747  25.462  1.00  0.00     0.293 HD
ENDBRANCH  13  33
ENDBRANCH   5   8
ENDBRANCH   3   4
ENDBRANCH   2   3
ENDBRANCH   1   2
BRANCH   1  35
ATOM     35  C   UNL A   1      33.290  31.825  27.842  1.00  0.00     0.002 C 
BRANCH  35  36
ATOM     36  C   UNL A   1      33.054  33.334  27.750  1.00  0.00     0.021 C 
BRANCH  36  37
ATOM     37  C   UNL A   1      34.281  34.172  28.096  1.00  0.00     0.116 C 
BRANCH  37  38
ATOM     38  N   UNL A   1      34.328  34.589  29.485  1.00  0.00    -0.352 N 
ATOM     39  C   UNL A   1      34.772  33.840  30.571  1.00  0.00     0.251 C 
ATOM     40  H   UNL A   1      34.011  35.499  29.681  1.00  0.00     0.163 HD
ATOM     41  O   UNL A   1      34.427  34.064  31.702  1.00  0.00    -0.269 OA
BRANCH  39  42
ATOM     42  C   UNL A   1      35.833  32.847  30.277  1.00  0.00     0.039 A 
ATOM     43  C   UNL A   1      35.815  31.660  31.019  1.00  0.00     0.014 A 
ATOM     44  C   UNL A   1      36.936  33.191  29.503  1.00  0.00     0.014 A 
ATOM     45  C   UNL A   1      36.971  30.884  31.107  1.00  0.00     0.010 A 
ATOM     46  C   UNL A   1      38.102  32.466  29.660  1.00  0.00     0.010 A 
ATOM     47  C   UNL A   1      38.136  31.331  30.487  1.00  0.00    -0.014 A 
BRANCH  47  48
ATOM     48  C   UNL A   1      39.459  30.751  30.714  1.00  0.00     0.031 A 
ATOM     49  C   UNL A   1      39.837  29.449  30.105  1.00  0.00     0.074 A 
ATOM     50  C   UNL A   1      40.410  31.455  31.369  1.00  0.00     0.049 A 
ATOM     51  N   UNL A   1      40.859  28.744  30.468  1.00  0.00    -0.248 NA
ATOM     52  C   UNL A   1      39.062  28.815  29.044  1.00  0.00     0.031 C 
ATOM     53  C   UNL A   1      41.853  31.244  31.298  1.00  0.00     0.029 A 
ATOM     54  N   UNL A   1      40.255  32.390  32.387  1.00  0.00    -0.354 N 
ATOM     55  C   UNL A   1      41.046  27.755  29.529  1.00  0.00     0.074 A 
ATOM     56  C   UNL A   1      39.869  27.810  28.692  1.00  0.00     0.031 C 
ATOM     57  C   UNL A   1      42.437  31.829  32.351  1.00  0.00     0.029 A 
ATOM     58  C   UNL A   1      41.381  32.307  33.222  1.00  0.00     0.049 A 
ATOM     59  H   UNL A   1      39.491  33.001  32.503  1.00  0.00     0.167 HD
ATOM     60  C   UNL A   1      42.235  27.085  29.476  1.00  0.00     0.037 A 
ATOM     61  C   UNL A   1      41.280  31.997  34.549  1.00  0.00     0.037 A 
ATOM     62  C   UNL A   1      43.139  27.498  30.545  1.00  0.00     0.049 A 
ATOM     63  C   UNL A   1      42.019  30.746  34.964  1.00  0.00     0.074 A 
ATOM     64  C   UNL A   1      44.211  28.375  30.588  1.00  0.00     0.029 A 
ATOM     65  N   UNL A   1      42.829  27.196  31.867  1.00  0.00    -0.354 N 
ATOM     66  N   UNL A   1      42.482  29.859  34.128  1.00  0.00    -0.248 NA
ATOM     67  C   UNL A   1      42.282  30.381  36.353  1.00  0.00     0.031 C 
ATOM     68  C   UNL A   1      44.537  28.613  31.945  1.00  0.00     0.029 A 
ATOM     69  C   UNL A   1      43.663  27.881  32.728  1.00  0.00     0.049 A 
ATOM     70  H   UNL A   1      42.114  26.581  32.148  1.00  0.00     0.167 HD
ATOM     71  C   UNL A   1      43.048  28.814  34.818  1.00  0.00     0.074 A 
ATOM     72  C   UNL A   1      42.932  29.212  36.208  1.00  0.00     0.031 C 
ATOM     73  C   UNL A   1      43.545  27.715  34.171  1.00  0.00     0.037 A 
BRANCH  60  74
ATOM     74  C   UNL A   1      42.670  26.272  28.273  1.00  0.00     0.058 A 
ATOM     75  C   UNL A   1      42.439  24.880  28.209  1.00  0.00     0.135 A 
ATOM     76  C   UNL A   1      43.377  26.801  27.176  1.00  0.00     0.135 A 
ATOM     77  F   UNL A   1      41.689  24.246  29.119  1.00  0.00    -0.206 F 
ATOM     78  C   UNL A   1      42.983  24.063  27.218  1.00  0.00     0.059 A 
ATOM     79  C   UNL A   1      43.981  25.999  26.201  1.00  0.00     0.059 A 
ATOM     80  F   UNL A   1      43.480  28.125  26.994  1.00  0.00    -0.206 F 
ATOM     81  C   UNL A   1      43.792  24.623  26.241  1.00  0.00     0.060 A 
BRANCH  81  82
ATOM     82  S   UNL A   1      44.601  23.533  25.055  1.00  0.00     0.124 S 
ATOM     83  O   UNL A   1      45.489  24.451  24.346  1.00  0.00    -0.237 OA
ATOM     84  O   UNL A   1      45.254  22.565  25.928  1.00  0.00    -0.237 OA
ATOM     85  O   UNL A   1      43.490  23.015  24.260  1.00  0.00    -0.744 OA
ENDBRANCH  81  82
ENDBRANCH  60  74
BRANCH  61  86
ATOM     86  C   UNL A   1      40.039  32.526  35.175  1.00  0.00     0.058 A 
ATOM     87  C   UNL A   1      38.962  31.630  35.310  1.00  0.00     0.135 A 
ATOM     88  C   UNL A   1      40.083  33.632  36.036  1.00  0.00     0.135 A 
ATOM     89  F   UNL A   1      38.864  30.571  34.489  1.00  0.00    -0.206 F 
ATOM     90  C   UNL A   1      38.079  31.712  36.379  1.00  0.00     0.059 A 
ATOM     91  C   UNL A   1      39.199  33.739  37.111  1.00  0.00     0.059 A 
ATOM     92  F   UNL A   1      41.081  34.522  35.943  1.00  0.00    -0.206 F 
ATOM     93  C   UNL A   1      38.261  32.725  37.319  1.00  0.00     0.060 A 
BRANCH  93  94
ATOM     94  S   UNL A   1      37.396  32.571  38.900  1.00  0.00     0.124 S 
ATOM     95  O   UNL A   1      37.992  33.650  39.683  1.00  0.00    -0.237 OA
ATOM     96  O   UNL A   1      36.007  32.780  38.494  1.00  0.00    -0.237 OA
ATOM     97  O   UNL A   1      37.727  31.219  39.332  1.00  0.00    -0.744 OA
ENDBRANCH  93  94
ENDBRANCH  61  86
BRANCH  73  98
ATOM     98  C   UNL A   1      44.042  26.420  34.788  1.00  0.00     0.058 A 
ATOM     99  C   UNL A   1      43.238  25.304  35.070  1.00  0.00     0.135 A 
ATOM    100  C   UNL A   1      45.433  26.221  35.002  1.00  0.00     0.135 A 
ATOM    101  F   UNL A   1      41.924  25.303  34.809  1.00  0.00    -0.206 F 
ATOM    102  C   UNL A   1      43.756  24.109  35.584  1.00  0.00     0.059 A 
ATOM    103  C   UNL A   1      45.978  25.022  35.458  1.00  0.00     0.059 A 
ATOM    104  F   UNL A   1      46.330  27.189  34.756  1.00  0.00    -0.206 F 
ATOM    105  C   UNL A   1      45.128  23.975  35.773  1.00  0.00     0.060 A 
BRANCH 105 106
ATOM    106  S   UNL A   1      45.814  22.412  36.351  1.00  0.00     0.124 S 
ATOM    107  O   UNL A   1      44.953  21.446  35.674  1.00  0.00    -0.237 OA
ATOM    108  O   UNL A   1      47.194  22.466  35.876  1.00  0.00    -0.237 OA
ATOM    109  O   UNL A   1      45.656  22.495  37.800  1.00  0.00    -0.744 OA
ENDBRANCH 105 106
ENDBRANCH  73  98
ENDBRANCH  47  48
ENDBRANCH  39  42
ENDBRANCH  37  38
ENDBRANCH  36  37
ENDBRANCH  35  36
ENDBRANCH   1  35
TORSDOF 21
ENDMDL
MODEL 3
REMARK VINA RESULT:     -12.0      4.223     11.091
REMARK SMILES Cc1ccc(-c2ccc(C(=O)Nc3ccc(C(=O)NCCCCCCNC(=O)c4ccc(-c5c6nc(c(-c7c(F)cc(S(=O)(=O)[O-])cc7F)c7ccc([nH]7)c(-c7c(F)cc(S(=O)(=O)[O-])cc7F)c7nc(c(-c8c(F)cc(S(=O)(=O)[O-])cc8F)c8ccc5[nH]8)C=C7)C=C6)cc4)c(O)c3)o2)c([N+](=O)[O-])c1
REMARK SMILES IDX 22 1 21 2 20 3 19 4 17 5 18 6 16 8 13 9 14 10 97 11 15 12
REMARK SMILES IDX 95 13 12 14 10 15 11 16 9 18 6 19 7 20 98 21 8 22 5 23 1 24
REMARK SMILES IDX 2 25 3 26 103 27 4 28 99 29 100 30 101 31 102 32 96 33 23 35
REMARK SMILES IDX 24 36 25 37 26 38 27 39 28 41 29 42 30 43 94 44 31 45 93 46
REMARK SMILES IDX 32 47 33 48 34 49 87 50 35 51 92 52 86 53 88 54 36 55 91 56
REMARK SMILES IDX 85 57 84 58 37 60 71 61 50 62 70 63 51 64 54 65 69 66 89 67
REMARK SMILES IDX 52 68 53 69 68 71 90 72 55 73 38 74 39 75 48 76 40 77 41 78
REMARK SMILES IDX 47 79 49 80 42 81 43 82 44 83 45 84 46 85 72 86 73 87 82 88
REMARK SMILES IDX 74 89 75 90 81 91 83 92 76 93 77 94 78 95 79 96 80 97 56 98
REMARK SMILES IDX 57 99 66 100 58 101 59 102 65 103 67 104 60 105 61 106
REMARK SMILES IDX 62 107 63 108 64 109
REMARK H PARENT 19 7 12 17 96 34 26 40 88 59 54 70
REMARK Flexibility Score: inf
ROOT
ATOM      1  C   UNL A   1      34.608  30.013  27.444  1.00  0.00     0.002 C 
ENDROOT
BRANCH   1   2
ATOM      2  C   UNL A   1      33.101  30.241  27.244  1.00  0.00     0.021 C 
BRANCH   2   3
ATOM      3  C   UNL A   1      32.414  29.198  26.362  1.00  0.00     0.116 C 
BRANCH   3   4
ATOM      4  N   UNL A   1      31.418  29.814  25.495  1.00  0.00    -0.352 N 
ATOM      5  C   UNL A   1      30.876  29.443  24.290  1.00  0.00     0.255 C 
ATOM      6  O   UNL A   1      29.914  30.081  23.855  1.00  0.00    -0.269 OA
ATOM      7  H   UNL A   1      31.063  30.664  25.842  1.00  0.00     0.163 HD
BRANCH   5   8
ATOM      8  C   UNL A   1      31.311  28.244  23.527  1.00  0.00     0.081 A 
ATOM      9  C   UNL A   1      32.056  26.224  21.740  1.00  0.00     0.045 A 
ATOM     10  C   UNL A   1      30.871  26.110  22.473  1.00  0.00     0.027 A 
ATOM     11  C   UNL A   1      32.961  27.242  22.028  1.00  0.00     0.073 A 
ATOM     12  C   UNL A   1      30.518  27.102  23.393  1.00  0.00     0.020 A 
ATOM     13  C   UNL A   1      32.571  28.263  22.896  1.00  0.00     0.130 A 
BRANCH   9  14
ATOM     14  N   UNL A   1      32.306  25.396  20.641  1.00  0.00    -0.319 N 
ATOM     15  C   UNL A   1      33.002  24.190  20.634  1.00  0.00     0.291 C 
ATOM     16  O   UNL A   1      33.302  23.724  19.531  1.00  0.00    -0.265 OA
ATOM     17  H   UNL A   1      31.951  25.700  19.774  1.00  0.00     0.170 HD
BRANCH  15  18
ATOM     18  C   UNL A   1      33.215  23.462  21.886  1.00  0.00     0.192 A 
ATOM     19  C   UNL A   1      34.375  22.893  23.685  1.00  0.00     0.142 A 
ATOM     20  C   UNL A   1      33.276  22.068  23.664  1.00  0.00     0.052 A 
ATOM     21  O   UNL A   1      34.327  23.774  22.646  1.00  0.00    -0.451 OA
ATOM     22  C   UNL A   1      32.581  22.381  22.481  1.00  0.00     0.057 A 
BRANCH  19  23
ATOM     23  C   UNL A   1      35.541  22.936  24.552  1.00  0.00     0.095 A 
ATOM     24  C   UNL A   1      39.249  23.425  26.750  1.00  0.00     0.044 C 
ATOM     25  C   UNL A   1      37.950  23.235  26.025  1.00  0.00    -0.044 A 
ATOM     26  C   UNL A   1      37.833  22.259  25.023  1.00  0.00     0.004 A 
ATOM     27  C   UNL A   1      36.846  24.033  26.326  1.00  0.00     0.089 A 
ATOM     28  C   UNL A   1      36.642  22.110  24.296  1.00  0.00     0.019 A 
ATOM     29  C   UNL A   1      35.660  23.866  25.598  1.00  0.00     0.280 A 
BRANCH  29  30
ATOM     30  N   UNL A   1      34.536  24.701  25.977  1.00  0.00     0.063 N 
ATOM     31  O   UNL A   1      34.575  25.896  25.657  1.00  0.00    -0.258 OA
ATOM     32  O   UNL A   1      33.598  24.144  26.564  1.00  0.00    -0.258 OA
ENDBRANCH  29  30
ENDBRANCH  19  23
ENDBRANCH  15  18
ENDBRANCH   9  14
BRANCH  13  33
ATOM     33  O   UNL A   1      33.459  29.299  23.034  1.00  0.00    -0.507 OA
ATOM     34  H   UNL A   1      34.137  29.424  22.398  1.00  0.00     0.293 HD
ENDBRANCH  13  33
ENDBRANCH   5   8
ENDBRANCH   3   4
ENDBRANCH   2   3
ENDBRANCH   1   2
BRANCH   1  35
ATOM     35  C   UNL A   1      35.489  31.273  27.522  1.00  0.00     0.002 C 
BRANCH  35  36
ATOM     36  C   UNL A   1      34.809  32.544  28.036  1.00  0.00     0.021 C 
BRANCH  36  37
ATOM     37  C   UNL A   1      35.761  33.515  28.727  1.00  0.00     0.116 C 
BRANCH  37  38
ATOM     38  N   UNL A   1      35.671  33.488  30.175  1.00  0.00    -0.352 N 
ATOM     39  C   UNL A   1      36.041  32.446  31.019  1.00  0.00     0.251 C 
ATOM     40  H   UNL A   1      35.308  34.294  30.607  1.00  0.00     0.163 HD
ATOM     41  O   UNL A   1      35.589  32.313  32.127  1.00  0.00    -0.269 OA
BRANCH  39  42
ATOM     42  C   UNL A   1      37.156  31.594  30.540  1.00  0.00     0.039 A 
ATOM     43  C   UNL A   1      37.068  30.223  30.806  1.00  0.00     0.014 A 
ATOM     44  C   UNL A   1      38.344  32.163  30.094  1.00  0.00     0.014 A 
ATOM     45  C   UNL A   1      38.220  29.438  30.770  1.00  0.00     0.010 A 
ATOM     46  C   UNL A   1      39.496  31.401  30.140  1.00  0.00     0.010 A 
ATOM     47  C   UNL A   1      39.447  30.046  30.510  1.00  0.00    -0.014 A 
BRANCH  47  48
ATOM     48  C   UNL A   1      40.742  29.392  30.694  1.00  0.00     0.031 A 
ATOM     49  C   UNL A   1      41.101  28.178  29.914  1.00  0.00     0.074 A 
ATOM     50  C   UNL A   1      41.687  29.958  31.477  1.00  0.00     0.049 A 
ATOM     51  N   UNL A   1      42.085  27.391  30.205  1.00  0.00    -0.248 NA
ATOM     52  C   UNL A   1      40.348  27.734  28.747  1.00  0.00     0.031 C 
ATOM     53  C   UNL A   1      43.126  29.706  31.424  1.00  0.00     0.029 A 
ATOM     54  N   UNL A   1      41.523  30.740  32.615  1.00  0.00    -0.354 N 
ATOM     55  C   UNL A   1      42.278  26.542  29.138  1.00  0.00     0.074 A 
ATOM     56  C   UNL A   1      41.136  26.761  28.279  1.00  0.00     0.031 C 
ATOM     57  C   UNL A   1      43.686  30.110  32.571  1.00  0.00     0.029 A 
ATOM     58  C   UNL A   1      42.614  30.496  33.466  1.00  0.00     0.049 A 
ATOM     59  H   UNL A   1      40.775  31.356  32.792  1.00  0.00     0.167 HD
ATOM     60  C   UNL A   1      43.446  25.843  29.028  1.00  0.00     0.037 A 
ATOM     61  C   UNL A   1      42.451  30.001  34.729  1.00  0.00     0.037 A 
ATOM     62  C   UNL A   1      44.320  26.064  30.176  1.00  0.00     0.049 A 
ATOM     63  C   UNL A   1      43.134  28.677  34.981  1.00  0.00     0.074 A 
ATOM     64  C   UNL A   1      45.417  26.886  30.382  1.00  0.00     0.029 A 
ATOM     65  N   UNL A   1      43.950  25.586  31.428  1.00  0.00    -0.354 N 
ATOM     66  N   UNL A   1      43.600  27.903  34.040  1.00  0.00    -0.248 NA
ATOM     67  C   UNL A   1      43.332  28.105  36.310  1.00  0.00     0.031 C 
ATOM     68  C   UNL A   1      45.698  26.912  31.769  1.00  0.00     0.029 A 
ATOM     69  C   UNL A   1      44.772  26.107  32.407  1.00  0.00     0.049 A 
ATOM     70  H   UNL A   1      43.206  24.962  31.592  1.00  0.00     0.167 HD
ATOM     71  C   UNL A   1      44.106  26.749  34.590  1.00  0.00     0.074 A 
ATOM     72  C   UNL A   1      43.950  26.946  36.018  1.00  0.00     0.031 C 
ATOM     73  C   UNL A   1      44.593  25.739  33.806  1.00  0.00     0.037 A 
BRANCH  60  74
ATOM     74  C   UNL A   1      43.901  25.198  27.734  1.00  0.00     0.058 A 
ATOM     75  C   UNL A   1      43.362  23.965  27.303  1.00  0.00     0.135 A 
ATOM     76  C   UNL A   1      44.914  25.718  26.906  1.00  0.00     0.135 A 
ATOM     77  F   UNL A   1      42.319  23.396  27.921  1.00  0.00    -0.206 F 
ATOM     78  C   UNL A   1      43.879  23.244  26.227  1.00  0.00     0.059 A 
ATOM     79  C   UNL A   1      45.488  24.990  25.857  1.00  0.00     0.059 A 
ATOM     80  F   UNL A   1      45.363  26.970  27.067  1.00  0.00    -0.206 F 
ATOM     81  C   UNL A   1      44.973  23.741  25.535  1.00  0.00     0.060 A 
BRANCH  81  82
ATOM     82  S   UNL A   1      45.714  22.729  24.241  1.00  0.00     0.124 S 
ATOM     83  O   UNL A   1      46.571  23.688  23.550  1.00  0.00    -0.237 OA
ATOM     84  O   UNL A   1      46.404  21.704  25.015  1.00  0.00    -0.237 OA
ATOM     85  O   UNL A   1      44.561  22.267  23.471  1.00  0.00    -0.744 OA
ENDBRANCH  81  82
ENDBRANCH  60  74
BRANCH  61  86
ATOM     86  C   UNL A   1      41.205  30.479  35.384  1.00  0.00     0.058 A 
ATOM     87  C   UNL A   1      41.309  31.631  36.187  1.00  0.00     0.135 A 
ATOM     88  C   UNL A   1      39.946  30.162  34.856  1.00  0.00     0.135 A 
ATOM     89  F   UNL A   1      42.490  31.961  36.737  1.00  0.00    -0.206 F 
ATOM     90  C   UNL A   1      40.263  32.538  36.294  1.00  0.00     0.059 A 
ATOM     91  C   UNL A   1      38.877  31.054  34.962  1.00  0.00     0.059 A 
ATOM     92  F   UNL A   1      39.789  29.069  34.094  1.00  0.00    -0.206 F 
ATOM     93  C   UNL A   1      39.078  32.275  35.607  1.00  0.00     0.060 A 
BRANCH  93  94
ATOM     94  S   UNL A   1      37.903  33.635  35.406  1.00  0.00     0.124 S 
ATOM     95  O   UNL A   1      38.627  34.758  35.995  1.00  0.00    -0.237 OA
ATOM     96  O   UNL A   1      37.751  33.676  33.952  1.00  0.00    -0.237 OA
ATOM     97  O   UNL A   1      36.733  33.179  36.146  1.00  0.00    -0.744 OA
ENDBRANCH  93  94
ENDBRANCH  61  86
BRANCH  73  98
ATOM     98  C   UNL A   1      45.025  24.350  34.243  1.00  0.00     0.058 A 
ATOM     99  C   UNL A   1      46.357  23.931  34.384  1.00  0.00     0.135 A 
ATOM    100  C   UNL A   1      44.054  23.405  34.673  1.00  0.00     0.135 A 
ATOM    101  F   UNL A   1      47.382  24.756  34.129  1.00  0.00    -0.206 F 
ATOM    102  C   UNL A   1      46.704  22.657  34.850  1.00  0.00     0.059 A 
ATOM    103  C   UNL A   1      44.378  22.153  35.194  1.00  0.00     0.059 A 
ATOM    104  F   UNL A   1      42.740  23.670  34.619  1.00  0.00    -0.206 F 
ATOM    105  C   UNL A   1      45.708  21.774  35.256  1.00  0.00     0.060 A 
BRANCH 105 106
ATOM    106  S   UNL A   1      46.148  20.165  35.938  1.00  0.00     0.124 S 
ATOM    107  O   UNL A   1      45.784  20.333  37.342  1.00  0.00    -0.237 OA
ATOM    108  O   UNL A   1      45.306  19.247  35.175  1.00  0.00    -0.237 OA
ATOM    109  O   UNL A   1      47.577  20.066  35.661  1.00  0.00    -0.744 OA
ENDBRANCH 105 106
ENDBRANCH  73  98
ENDBRANCH  47  48
ENDBRANCH  39  42
ENDBRANCH  37  38
ENDBRANCH  36  37
ENDBRANCH  35  36
ENDBRANCH   1  35
TORSDOF 21
ENDMDL
