MODEL 1
REMARK VINA RESULT:     -12.2      0.000      0.000
REMARK SMILES Cc1oc(C)c(C(=O)Nc2cc(C(=O)NCCCCCCNC(=O)c3ccc(-c4c5nc(c(-c6c(F)cc(S(=O)(=O)[O-])cc6F)c6ccc([nH]6)c(-c6c(F)cc(S(=O)(=O)[O-])cc6F)c6nc(c(-c7c(F)cc(S(=O)(=O)[O-])cc7F)c7ccc4[nH]7)C=C6)C=C5)cc3)ccc2Cl)c1C
REMARK SMILES IDX 19 1 18 2 17 3 16 4 15 5 13 6 14 7 12 9 10 10 11 11 93 12
REMARK SMILES IDX 92 13 94 14 91 15 9 16 7 17 8 18 6 20 1 21 2 22 3 23 95 24
REMARK SMILES IDX 4 25 96 26 5 27 20 28 21 29 22 30 23 31 24 33 25 34 26 35
REMARK SMILES IDX 90 36 27 37 89 38 28 39 29 40 30 41 83 42 31 43 88 44 82 45
REMARK SMILES IDX 84 46 32 47 87 48 81 49 80 50 33 52 67 53 46 54 66 55 47 56
REMARK SMILES IDX 50 57 65 58 85 59 48 60 49 61 64 63 86 64 51 65 34 66 35 67
REMARK SMILES IDX 44 68 36 69 37 70 43 71 45 72 38 73 39 74 40 75 41 76 42 77
REMARK SMILES IDX 68 78 69 79 78 80 70 81 71 82 77 83 79 84 72 85 73 86 74 87
REMARK SMILES IDX 75 88 76 89 52 90 53 91 62 92 54 93 55 94 61 95 63 96 56 97
REMARK SMILES IDX 57 98 58 99 59 100 60 101
REMARK H PARENT 15 8 9 19 22 32 84 51 50 62
REMARK Flexibility Score: inf
ROOT
ATOM      1  C   UNL A   1      42.120  19.414  27.491  1.00  0.00     0.002 C 
ENDROOT
BRANCH   1   2
ATOM      2  C   UNL A   1      41.644  20.875  27.414  1.00  0.00     0.002 C 
BRANCH   2   3
ATOM      3  C   UNL A   1      40.998  21.302  26.087  1.00  0.00     0.021 C 
BRANCH   3   4
ATOM      4  C   UNL A   1      39.469  21.297  26.114  1.00  0.00     0.116 C 
BRANCH   4   5
ATOM      5  N   UNL A   1      38.946  22.636  26.272  1.00  0.00    -0.352 N 
ATOM      6  C   UNL A   1      37.728  23.226  26.082  1.00  0.00     0.251 C 
ATOM      7  O   UNL A   1      37.667  24.423  26.378  1.00  0.00    -0.269 OA
ATOM      8  H   UNL A   1      39.627  23.272  26.589  1.00  0.00     0.163 HD
BRANCH   6   9
ATOM      9  C   UNL A   1      36.474  22.540  25.633  1.00  0.00     0.041 A 
ATOM     10  C   UNL A   1      34.036  22.516  25.922  1.00  0.00     0.061 A 
ATOM     11  C   UNL A   1      35.275  23.161  26.040  1.00  0.00     0.041 A 
ATOM     12  C   UNL A   1      33.954  21.321  25.198  1.00  0.00     0.064 A 
ATOM     13  C   UNL A   1      35.125  20.727  24.722  1.00  0.00     0.023 A 
ATOM     14  Cl  UNL A   1      32.448  20.590  24.775  1.00  0.00    -0.082 Cl
ATOM     15  C   UNL A   1      36.377  21.323  24.953  1.00  0.00     0.015 A 
BRANCH  10  16
ATOM     16  N   UNL A   1      32.986  23.090  26.662  1.00  0.00    -0.320 N 
ATOM     17  C   UNL A   1      32.252  24.234  26.398  1.00  0.00     0.259 C 
ATOM     18  O   UNL A   1      31.436  24.602  27.246  1.00  0.00    -0.269 OA
ATOM     19  H   UNL A   1      32.739  22.612  27.486  1.00  0.00     0.170 HD
BRANCH  17  20
ATOM     20  C   UNL A   1      32.406  24.939  25.125  1.00  0.00     0.084 A 
ATOM     21  C   UNL A   1      32.745  25.512  21.486  1.00  0.00     0.088 C 
ATOM     22  C   UNL A   1      32.592  25.480  22.954  1.00  0.00     0.104 A 
ATOM     23  O   UNL A   1      33.305  26.396  23.655  1.00  0.00    -0.466 OA
ATOM     24  C   UNL A   1      31.838  24.708  23.817  1.00  0.00     0.003 A 
ATOM     25  C   UNL A   1      33.113  26.123  24.975  1.00  0.00     0.114 A 
ATOM     26  C   UNL A   1      30.707  23.835  23.418  1.00  0.00     0.049 C 
ATOM     27  C   UNL A   1      33.686  27.113  25.910  1.00  0.00     0.088 C 
ENDBRANCH  17  20
ENDBRANCH  10  16
ENDBRANCH   6   9
ENDBRANCH   4   5
ENDBRANCH   3   4
ENDBRANCH   2   3
ENDBRANCH   1   2
BRANCH   1  28
ATOM     28  C   UNL A   1      42.631  18.793  26.183  1.00  0.00     0.021 C 
BRANCH  28  29
ATOM     29  C   UNL A   1      44.147  18.770  26.072  1.00  0.00     0.116 C 
BRANCH  29  30
ATOM     30  N   UNL A   1      44.595  18.920  24.691  1.00  0.00    -0.352 N 
ATOM     31  C   UNL A   1      44.629  20.060  23.913  1.00  0.00     0.251 C 
ATOM     32  H   UNL A   1      44.917  18.097  24.257  1.00  0.00     0.163 HD
ATOM     33  O   UNL A   1      44.668  19.976  22.697  1.00  0.00    -0.269 OA
BRANCH  31  34
ATOM     34  C   UNL A   1      44.617  21.377  24.578  1.00  0.00     0.039 A 
ATOM     35  C   UNL A   1      43.728  22.377  24.174  1.00  0.00     0.014 A 
ATOM     36  C   UNL A   1      45.517  21.603  25.616  1.00  0.00     0.014 A 
ATOM     37  C   UNL A   1      43.706  23.581  24.873  1.00  0.00     0.010 A 
ATOM     38  C   UNL A   1      45.397  22.727  26.393  1.00  0.00     0.010 A 
ATOM     39  C   UNL A   1      44.535  23.740  25.994  1.00  0.00    -0.014 A 
BRANCH  39  40
ATOM     40  C   UNL A   1      44.426  24.917  26.848  1.00  0.00     0.031 A 
ATOM     41  C   UNL A   1      45.469  25.948  26.598  1.00  0.00     0.074 A 
ATOM     42  C   UNL A   1      43.336  25.155  27.612  1.00  0.00     0.049 A 
ATOM     43  N   UNL A   1      46.413  26.318  27.397  1.00  0.00    -0.248 NA
ATOM     44  C   UNL A   1      45.585  26.522  25.246  1.00  0.00     0.031 C 
ATOM     45  C   UNL A   1      42.101  24.367  27.700  1.00  0.00     0.029 A 
ATOM     46  N   UNL A   1      43.047  26.233  28.387  1.00  0.00    -0.354 N 
ATOM     47  C   UNL A   1      47.097  27.340  26.741  1.00  0.00     0.074 A 
ATOM     48  C   UNL A   1      46.682  27.274  25.365  1.00  0.00     0.031 C 
ATOM     49  C   UNL A   1      41.129  25.112  28.268  1.00  0.00     0.029 A 
ATOM     50  C   UNL A   1      41.702  26.365  28.722  1.00  0.00     0.049 A 
ATOM     51  H   UNL A   1      43.735  26.871  28.687  1.00  0.00     0.167 HD
ATOM     52  C   UNL A   1      47.765  28.302  27.439  1.00  0.00     0.037 A 
ATOM     53  C   UNL A   1      41.108  27.452  29.284  1.00  0.00     0.037 A 
ATOM     54  C   UNL A   1      47.912  27.922  28.822  1.00  0.00     0.049 A 
ATOM     55  C   UNL A   1      42.195  28.256  29.911  1.00  0.00     0.074 A 
ATOM     56  C   UNL A   1      48.492  26.848  29.468  1.00  0.00     0.029 A 
ATOM     57  N   UNL A   1      47.052  28.491  29.732  1.00  0.00    -0.354 N 
ATOM     58  N   UNL A   1      42.890  27.849  30.941  1.00  0.00    -0.248 NA
ATOM     59  C   UNL A   1      42.841  29.271  29.091  1.00  0.00     0.031 C 
ATOM     60  C   UNL A   1      47.591  26.529  30.525  1.00  0.00     0.029 A 
ATOM     61  C   UNL A   1      46.571  27.481  30.526  1.00  0.00     0.049 A 
ATOM     62  H   UNL A   1      46.824  29.447  29.801  1.00  0.00     0.167 HD
ATOM     63  C   UNL A   1      44.199  28.208  30.650  1.00  0.00     0.074 A 
ATOM     64  C   UNL A   1      44.096  29.148  29.534  1.00  0.00     0.031 C 
ATOM     65  C   UNL A   1      45.257  27.488  31.130  1.00  0.00     0.037 A 
BRANCH  52  66
ATOM     66  C   UNL A   1      47.974  29.727  26.982  1.00  0.00     0.058 A 
ATOM     67  C   UNL A   1      49.270  30.281  27.033  1.00  0.00     0.135 A 
ATOM     68  C   UNL A   1      46.929  30.648  26.758  1.00  0.00     0.135 A 
ATOM     69  F   UNL A   1      50.341  29.499  27.246  1.00  0.00    -0.206 F 
ATOM     70  C   UNL A   1      49.503  31.653  26.941  1.00  0.00     0.059 A 
ATOM     71  C   UNL A   1      47.143  32.014  26.608  1.00  0.00     0.059 A 
ATOM     72  F   UNL A   1      45.640  30.287  26.770  1.00  0.00    -0.206 F 
ATOM     73  C   UNL A   1      48.430  32.513  26.740  1.00  0.00     0.060 A 
BRANCH  73  74
ATOM     74  S   UNL A   1      48.717  34.290  26.701  1.00  0.00     0.124 S 
ATOM     75  O   UNL A   1      49.300  34.520  28.018  1.00  0.00    -0.237 OA
ATOM     76  O   UNL A   1      49.623  34.423  25.566  1.00  0.00    -0.237 OA
ATOM     77  O   UNL A   1      47.380  34.840  26.496  1.00  0.00    -0.744 OA
ENDBRANCH  73  74
ENDBRANCH  52  66
BRANCH  53  78
ATOM     78  C   UNL A   1      39.743  27.999  29.030  1.00  0.00     0.058 A 
ATOM     79  C   UNL A   1      38.767  28.030  30.045  1.00  0.00     0.135 A 
ATOM     80  C   UNL A   1      39.453  28.758  27.878  1.00  0.00     0.135 A 
ATOM     81  F   UNL A   1      38.958  27.350  31.185  1.00  0.00    -0.206 F 
ATOM     82  C   UNL A   1      37.608  28.814  29.949  1.00  0.00     0.059 A 
ATOM     83  C   UNL A   1      38.301  29.535  27.755  1.00  0.00     0.059 A 
ATOM     84  F   UNL A   1      40.327  28.849  26.865  1.00  0.00    -0.206 F 
ATOM     85  C   UNL A   1      37.397  29.586  28.807  1.00  0.00     0.060 A 
BRANCH  85  86
ATOM     86  S   UNL A   1      36.020  30.760  28.758  1.00  0.00     0.124 S 
ATOM     87  O   UNL A   1      34.998  29.999  28.050  1.00  0.00    -0.237 OA
ATOM     88  O   UNL A   1      35.772  31.002  30.175  1.00  0.00    -0.237 OA
ATOM     89  O   UNL A   1      36.574  31.896  28.026  1.00  0.00    -0.744 OA
ENDBRANCH  85  86
ENDBRANCH  53  78
BRANCH  65  90
ATOM     90  C   UNL A   1      45.017  26.471  32.218  1.00  0.00     0.058 A 
ATOM     91  C   UNL A   1      44.895  26.765  33.587  1.00  0.00     0.135 A 
ATOM     92  C   UNL A   1      44.729  25.155  31.821  1.00  0.00     0.135 A 
ATOM     93  F   UNL A   1      45.040  28.017  34.042  1.00  0.00    -0.206 F 
ATOM     94  C   UNL A   1      44.549  25.785  34.522  1.00  0.00     0.059 A 
ATOM     95  C   UNL A   1      44.346  24.173  32.729  1.00  0.00     0.059 A 
ATOM     96  F   UNL A   1      44.764  24.822  30.520  1.00  0.00    -0.206 F 
ATOM     97  C   UNL A   1      44.276  24.491  34.082  1.00  0.00     0.060 A 
BRANCH  97  98
ATOM     98  S   UNL A   1      43.779  23.235  35.280  1.00  0.00     0.124 S 
ATOM     99  O   UNL A   1      42.338  23.448  35.364  1.00  0.00    -0.237 OA
ATOM    100  O   UNL A   1      44.202  21.995  34.636  1.00  0.00    -0.237 OA
ATOM    101  O   UNL A   1      44.532  23.592  36.480  1.00  0.00    -0.744 OA
ENDBRANCH  97  98
ENDBRANCH  65  90
ENDBRANCH  39  40
ENDBRANCH  31  34
ENDBRANCH  29  30
ENDBRANCH  28  29
ENDBRANCH   1  28
TORSDOF 18
ENDMDL
MODEL 2
REMARK VINA RESULT:     -12.0      3.047      9.530
REMARK SMILES Cc1oc(C)c(C(=O)Nc2cc(C(=O)NCCCCCCNC(=O)c3ccc(-c4c5nc(c(-c6c(F)cc(S(=O)(=O)[O-])cc6F)c6ccc([nH]6)c(-c6c(F)cc(S(=O)(=O)[O-])cc6F)c6nc(c(-c7c(F)cc(S(=O)(=O)[O-])cc7F)c7ccc4[nH]7)C=C6)C=C5)cc3)ccc2Cl)c1C
REMARK SMILES IDX 19 1 18 2 17 3 16 4 15 5 13 6 14 7 12 9 10 10 11 11 93 12
REMARK SMILES IDX 92 13 94 14 91 15 9 16 7 17 8 18 6 20 1 21 2 22 3 23 95 24
REMARK SMILES IDX 4 25 96 26 5 27 20 28 21 29 22 30 23 31 24 33 25 34 26 35
REMARK SMILES IDX 90 36 27 37 89 38 28 39 29 40 30 41 83 42 31 43 88 44 82 45
REMARK SMILES IDX 84 46 32 47 87 48 81 49 80 50 33 52 67 53 46 54 66 55 47 56
REMARK SMILES IDX 50 57 65 58 85 59 48 60 49 61 64 63 86 64 51 65 34 66 35 67
REMARK SMILES IDX 44 68 36 69 37 70 43 71 45 72 38 73 39 74 40 75 41 76 42 77
REMARK SMILES IDX 68 78 69 79 78 80 70 81 71 82 77 83 79 84 72 85 73 86 74 87
REMARK SMILES IDX 75 88 76 89 52 90 53 91 62 92 54 93 55 94 61 95 63 96 56 97
REMARK SMILES IDX 57 98 58 99 59 100 60 101
REMARK H PARENT 15 8 9 19 22 32 84 51 50 62
REMARK Flexibility Score: inf
ROOT
ATOM      1  C   UNL A   1      33.362  29.265  25.021  1.00  0.00     0.002 C 
ENDROOT
BRANCH   1   2
ATOM      2  C   UNL A   1      32.818  28.672  23.709  1.00  0.00     0.002 C 
BRANCH   2   3
ATOM      3  C   UNL A   1      31.374  29.050  23.349  1.00  0.00     0.021 C 
BRANCH   3   4
ATOM      4  C   UNL A   1      30.703  28.075  22.380  1.00  0.00     0.116 C 
BRANCH   4   5
ATOM      5  N   UNL A   1      29.502  27.511  22.954  1.00  0.00    -0.352 N 
ATOM      6  C   UNL A   1      29.235  26.584  23.921  1.00  0.00     0.251 C 
ATOM      7  O   UNL A   1      28.039  26.399  24.164  1.00  0.00    -0.269 OA
ATOM      8  H   UNL A   1      28.682  27.882  22.552  1.00  0.00     0.163 HD
BRANCH   6   9
ATOM      9  C   UNL A   1      30.249  25.852  24.746  1.00  0.00     0.041 A 
ATOM     10  C   UNL A   1      31.344  23.673  25.036  1.00  0.00     0.061 A 
ATOM     11  C   UNL A   1      30.610  24.579  24.257  1.00  0.00     0.041 A 
ATOM     12  C   UNL A   1      31.910  24.109  26.239  1.00  0.00     0.064 A 
ATOM     13  C   UNL A   1      31.624  25.394  26.704  1.00  0.00     0.023 A 
ATOM     14  Cl  UNL A   1      33.037  23.157  27.136  1.00  0.00    -0.082 Cl
ATOM     15  C   UNL A   1      30.787  26.253  25.972  1.00  0.00     0.015 A 
BRANCH  10  16
ATOM     16  N   UNL A   1      31.340  22.343  24.575  1.00  0.00    -0.320 N 
ATOM     17  C   UNL A   1      32.329  21.650  23.896  1.00  0.00     0.259 C 
ATOM     18  O   UNL A   1      32.065  20.511  23.503  1.00  0.00    -0.269 OA
ATOM     19  H   UNL A   1      30.519  21.834  24.759  1.00  0.00     0.170 HD
BRANCH  17  20
ATOM     20  C   UNL A   1      33.656  22.238  23.711  1.00  0.00     0.084 A 
ATOM     21  C   UNL A   1      37.054  23.471  24.497  1.00  0.00     0.088 C 
ATOM     22  C   UNL A   1      35.746  23.007  23.993  1.00  0.00     0.104 A 
ATOM     23  O   UNL A   1      35.174  23.756  23.018  1.00  0.00    -0.466 OA
ATOM     24  C   UNL A   1      34.942  21.922  24.287  1.00  0.00     0.003 A 
ATOM     25  C   UNL A   1      33.942  23.227  22.781  1.00  0.00     0.114 A 
ATOM     26  C   UNL A   1      35.368  20.724  25.051  1.00  0.00     0.049 C 
ATOM     27  C   UNL A   1      33.218  23.812  21.634  1.00  0.00     0.088 C 
ENDBRANCH  17  20
ENDBRANCH  10  16
ENDBRANCH   6   9
ENDBRANCH   4   5
ENDBRANCH   3   4
ENDBRANCH   2   3
ENDBRANCH   1   2
BRANCH   1  28
ATOM     28  C   UNL A   1      33.927  28.264  26.039  1.00  0.00     0.021 C 
BRANCH  28  29
ATOM     29  C   UNL A   1      33.866  28.759  27.476  1.00  0.00     0.116 C 
BRANCH  29  30
ATOM     30  N   UNL A   1      33.678  30.204  27.548  1.00  0.00    -0.352 N 
ATOM     31  C   UNL A   1      34.530  31.161  28.064  1.00  0.00     0.251 C 
ATOM     32  H   UNL A   1      32.831  30.542  27.176  1.00  0.00     0.163 HD
ATOM     33  O   UNL A   1      34.101  32.254  28.393  1.00  0.00    -0.269 OA
BRANCH  31  34
ATOM     34  C   UNL A   1      35.962  30.837  28.208  1.00  0.00     0.039 A 
ATOM     35  C   UNL A   1      36.836  31.721  28.847  1.00  0.00     0.014 A 
ATOM     36  C   UNL A   1      36.424  29.631  27.686  1.00  0.00     0.014 A 
ATOM     37  C   UNL A   1      38.166  31.344  29.018  1.00  0.00     0.010 A 
ATOM     38  C   UNL A   1      37.692  29.200  27.982  1.00  0.00     0.010 A 
ATOM     39  C   UNL A   1      38.581  30.072  28.597  1.00  0.00    -0.014 A 
BRANCH  39  40
ATOM     40  C   UNL A   1      39.918  29.578  28.904  1.00  0.00     0.031 A 
ATOM     41  C   UNL A   1      40.191  29.426  30.359  1.00  0.00     0.074 A 
ATOM     42  C   UNL A   1      40.735  29.071  27.953  1.00  0.00     0.049 A 
ATOM     43  N   UNL A   1      41.033  30.095  31.073  1.00  0.00    -0.248 NA
ATOM     44  C   UNL A   1      39.316  28.545  31.153  1.00  0.00     0.031 C 
ATOM     45  C   UNL A   1      40.453  28.875  26.526  1.00  0.00     0.029 A 
ATOM     46  N   UNL A   1      41.961  28.500  28.088  1.00  0.00    -0.354 N 
ATOM     47  C   UNL A   1      40.964  29.557  32.357  1.00  0.00     0.074 A 
ATOM     48  C   UNL A   1      39.762  28.767  32.392  1.00  0.00     0.031 C 
ATOM     49  C   UNL A   1      41.356  28.020  26.001  1.00  0.00     0.029 A 
ATOM     50  C   UNL A   1      42.364  27.726  27.002  1.00  0.00     0.049 A 
ATOM     51  H   UNL A   1      42.519  28.623  28.890  1.00  0.00     0.167 HD
ATOM     52  C   UNL A   1      42.030  29.618  33.205  1.00  0.00     0.037 A 
ATOM     53  C   UNL A   1      43.422  26.872  26.963  1.00  0.00     0.037 A 
ATOM     54  C   UNL A   1      43.021  30.544  32.714  1.00  0.00     0.049 A 
ATOM     55  C   UNL A   1      44.331  27.267  28.075  1.00  0.00     0.074 A 
ATOM     56  C   UNL A   1      43.010  31.889  32.401  1.00  0.00     0.029 A 
ATOM     57  N   UNL A   1      44.124  30.018  32.083  1.00  0.00    -0.354 N 
ATOM     58  N   UNL A   1      44.985  28.398  28.104  1.00  0.00    -0.248 NA
ATOM     59  C   UNL A   1      44.120  26.641  29.373  1.00  0.00     0.031 C 
ATOM     60  C   UNL A   1      43.788  31.993  31.213  1.00  0.00     0.029 A 
ATOM     61  C   UNL A   1      44.311  30.731  30.926  1.00  0.00     0.049 A 
ATOM     62  H   UNL A   1      44.678  29.269  32.402  1.00  0.00     0.167 HD
ATOM     63  C   UNL A   1      44.871  28.841  29.415  1.00  0.00     0.074 A 
ATOM     64  C   UNL A   1      44.393  27.680  30.167  1.00  0.00     0.031 C 
ATOM     65  C   UNL A   1      44.880  30.173  29.719  1.00  0.00     0.037 A 
BRANCH  52  66
ATOM     66  C   UNL A   1      42.355  28.603  34.275  1.00  0.00     0.058 A 
ATOM     67  C   UNL A   1      42.414  29.021  35.622  1.00  0.00     0.135 A 
ATOM     68  C   UNL A   1      42.872  27.316  34.016  1.00  0.00     0.135 A 
ATOM     69  F   UNL A   1      41.956  30.230  35.985  1.00  0.00    -0.206 F 
ATOM     70  C   UNL A   1      43.008  28.249  36.620  1.00  0.00     0.059 A 
ATOM     71  C   UNL A   1      43.418  26.506  35.006  1.00  0.00     0.059 A 
ATOM     72  F   UNL A   1      42.964  26.816  32.778  1.00  0.00    -0.206 F 
ATOM     73  C   UNL A   1      43.518  26.996  36.299  1.00  0.00     0.060 A 
BRANCH  73  74
ATOM     74  S   UNL A   1      44.355  26.032  37.567  1.00  0.00     0.124 S 
ATOM     75  O   UNL A   1      43.891  24.683  37.262  1.00  0.00    -0.237 OA
ATOM     76  O   UNL A   1      45.758  26.308  37.278  1.00  0.00    -0.237 OA
ATOM     77  O   UNL A   1      43.853  26.608  38.811  1.00  0.00    -0.744 OA
ENDBRANCH  73  74
ENDBRANCH  52  66
BRANCH  53  78
ATOM     78  C   UNL A   1      43.530  25.561  26.257  1.00  0.00     0.058 A 
ATOM     79  C   UNL A   1      44.553  25.317  25.321  1.00  0.00     0.135 A 
ATOM     80  C   UNL A   1      42.811  24.427  26.688  1.00  0.00     0.135 A 
ATOM     81  F   UNL A   1      45.302  26.331  24.861  1.00  0.00    -0.206 F 
ATOM     82  C   UNL A   1      44.883  24.025  24.888  1.00  0.00     0.059 A 
ATOM     83  C   UNL A   1      43.113  23.134  26.261  1.00  0.00     0.059 A 
ATOM     84  F   UNL A   1      41.847  24.525  27.616  1.00  0.00    -0.206 F 
ATOM     85  C   UNL A   1      44.171  22.934  25.387  1.00  0.00     0.060 A 
BRANCH  85  86
ATOM     86  S   UNL A   1      44.720  21.252  25.003  1.00  0.00     0.124 S 
ATOM     87  O   UNL A   1      44.619  21.224  23.549  1.00  0.00    -0.237 OA
ATOM     88  O   UNL A   1      46.071  21.237  25.552  1.00  0.00    -0.237 OA
ATOM     89  O   UNL A   1      43.756  20.415  25.714  1.00  0.00    -0.744 OA
ENDBRANCH  85  86
ENDBRANCH  53  78
BRANCH  65  90
ATOM     90  C   UNL A   1      45.306  31.162  28.663  1.00  0.00     0.058 A 
ATOM     91  C   UNL A   1      44.480  31.660  27.641  1.00  0.00     0.135 A 
ATOM     92  C   UNL A   1      46.571  31.757  28.805  1.00  0.00     0.135 A 
ATOM     93  F   UNL A   1      43.217  31.233  27.501  1.00  0.00    -0.206 F 
ATOM     94  C   UNL A   1      44.908  32.668  26.773  1.00  0.00     0.059 A 
ATOM     95  C   UNL A   1      47.004  32.787  27.978  1.00  0.00     0.059 A 
ATOM     96  F   UNL A   1      47.386  31.372  29.802  1.00  0.00    -0.206 F 
ATOM     97  C   UNL A   1      46.174  33.226  26.951  1.00  0.00     0.060 A 
BRANCH  97  98
ATOM     98  S   UNL A   1      46.712  34.564  25.865  1.00  0.00     0.124 S 
ATOM     99  O   UNL A   1      45.771  34.452  24.755  1.00  0.00    -0.237 OA
ATOM    100  O   UNL A   1      46.557  35.743  26.712  1.00  0.00    -0.237 OA
ATOM    101  O   UNL A   1      48.094  34.211  25.547  1.00  0.00    -0.744 OA
ENDBRANCH  97  98
ENDBRANCH  65  90
ENDBRANCH  39  40
ENDBRANCH  31  34
ENDBRANCH  29  30
ENDBRANCH  28  29
ENDBRANCH   1  28
TORSDOF 18
ENDMDL
MODEL 3
REMARK VINA RESULT:     -11.9      1.785      2.258
REMARK SMILES Cc1oc(C)c(C(=O)Nc2cc(C(=O)NCCCCCCNC(=O)c3ccc(-c4c5nc(c(-c6c(F)cc(S(=O)(=O)[O-])cc6F)c6ccc([nH]6)c(-c6c(F)cc(S(=O)(=O)[O-])cc6F)c6nc(c(-c7c(F)cc(S(=O)(=O)[O-])cc7F)c7ccc4[nH]7)C=C6)C=C5)cc3)ccc2Cl)c1C
REMARK SMILES IDX 19 1 18 2 17 3 16 4 15 5 13 6 14 7 12 9 10 10 11 11 93 12
REMARK SMILES IDX 92 13 94 14 91 15 9 16 7 17 8 18 6 20 1 21 2 22 3 23 95 24
REMARK SMILES IDX 4 25 96 26 5 27 20 28 21 29 22 30 23 31 24 33 25 34 26 35
REMARK SMILES IDX 90 36 27 37 89 38 28 39 29 40 30 41 83 42 31 43 88 44 82 45
REMARK SMILES IDX 84 46 32 47 87 48 81 49 80 50 33 52 67 53 46 54 66 55 47 56
REMARK SMILES IDX 50 57 65 58 85 59 48 60 49 61 64 63 86 64 51 65 34 66 35 67
REMARK SMILES IDX 44 68 36 69 37 70 43 71 45 72 38 73 39 74 40 75 41 76 42 77
REMARK SMILES IDX 68 78 69 79 78 80 70 81 71 82 77 83 79 84 72 85 73 86 74 87
REMARK SMILES IDX 75 88 76 89 52 90 53 91 62 92 54 93 55 94 61 95 63 96 56 97
REMARK SMILES IDX 57 98 58 99 59 100 60 101
REMARK H PARENT 15 8 9 19 22 32 84 51 50 62
REMARK Flexibility Score: inf
ROOT
ATOM      1  C   UNL A   1      40.259  21.397  26.840  1.00  0.00     0.002 C 
ENDROOT
BRANCH   1   2
ATOM      2  C   UNL A   1      39.150  21.981  25.948  1.00  0.00     0.002 C 
BRANCH   2   3
ATOM      3  C   UNL A   1      38.862  23.479  26.129  1.00  0.00     0.021 C 
BRANCH   3   4
ATOM      4  C   UNL A   1      37.375  23.812  26.256  1.00  0.00     0.116 C 
BRANCH   4   5
ATOM      5  N   UNL A   1      36.583  22.612  26.416  1.00  0.00    -0.352 N 
ATOM      6  C   UNL A   1      35.386  22.171  25.925  1.00  0.00     0.251 C 
ATOM      7  O   UNL A   1      35.058  21.033  26.275  1.00  0.00    -0.269 OA
ATOM      8  H   UNL A   1      37.006  21.960  27.022  1.00  0.00     0.163 HD
BRANCH   6   9
ATOM      9  C   UNL A   1      34.504  22.902  24.962  1.00  0.00     0.041 A 
ATOM     10  C   UNL A   1      32.317  23.998  24.741  1.00  0.00     0.061 A 
ATOM     11  C   UNL A   1      33.362  23.502  25.533  1.00  0.00     0.041 A 
ATOM     12  C   UNL A   1      32.496  24.092  23.356  1.00  0.00     0.064 A 
ATOM     13  C   UNL A   1      33.655  23.571  22.778  1.00  0.00     0.023 A 
ATOM     14  Cl  UNL A   1      31.384  24.923  22.329  1.00  0.00    -0.082 Cl
ATOM     15  C   UNL A   1      34.643  22.965  23.572  1.00  0.00     0.015 A 
BRANCH  10  16
ATOM     16  N   UNL A   1      31.113  24.251  25.424  1.00  0.00    -0.320 N 
ATOM     17  C   UNL A   1      30.480  25.459  25.663  1.00  0.00     0.259 C 
ATOM     18  O   UNL A   1      29.472  25.448  26.374  1.00  0.00    -0.269 OA
ATOM     19  H   UNL A   1      30.656  23.457  25.784  1.00  0.00     0.170 HD
BRANCH  17  20
ATOM     20  C   UNL A   1      30.965  26.690  25.038  1.00  0.00     0.084 A 
ATOM     21  C   UNL A   1      31.636  29.245  22.449  1.00  0.00     0.088 C 
ATOM     22  C   UNL A   1      31.438  28.358  23.612  1.00  0.00     0.104 A 
ATOM     23  O   UNL A   1      32.455  28.298  24.506  1.00  0.00    -0.466 OA
ATOM     24  C   UNL A   1      30.396  27.551  24.029  1.00  0.00     0.003 A 
ATOM     25  C   UNL A   1      32.122  27.351  25.426  1.00  0.00     0.114 A 
ATOM     26  C   UNL A   1      29.011  27.601  23.499  1.00  0.00     0.049 C 
ATOM     27  C   UNL A   1      33.039  27.246  26.580  1.00  0.00     0.088 C 
ENDBRANCH  17  20
ENDBRANCH  10  16
ENDBRANCH   6   9
ENDBRANCH   4   5
ENDBRANCH   3   4
ENDBRANCH   2   3
ENDBRANCH   1   2
BRANCH   1  28
ATOM     28  C   UNL A   1      40.850  20.049  26.399  1.00  0.00     0.021 C 
BRANCH  28  29
ATOM     29  C   UNL A   1      42.207  19.749  27.016  1.00  0.00     0.116 C 
BRANCH  29  30
ATOM     30  N   UNL A   1      43.251  19.626  26.004  1.00  0.00    -0.352 N 
ATOM     31  C   UNL A   1      43.852  20.621  25.259  1.00  0.00     0.251 C 
ATOM     32  H   UNL A   1      43.570  18.711  25.831  1.00  0.00     0.163 HD
ATOM     33  O   UNL A   1      44.421  20.351  24.215  1.00  0.00    -0.269 OA
BRANCH  31  34
ATOM     34  C   UNL A   1      43.794  22.012  25.748  1.00  0.00     0.039 A 
ATOM     35  C   UNL A   1      42.927  22.941  25.167  1.00  0.00     0.014 A 
ATOM     36  C   UNL A   1      44.629  22.379  26.801  1.00  0.00     0.014 A 
ATOM     37  C   UNL A   1      42.858  24.225  25.704  1.00  0.00     0.010 A 
ATOM     38  C   UNL A   1      44.457  23.591  27.419  1.00  0.00     0.010 A 
ATOM     39  C   UNL A   1      43.616  24.535  26.843  1.00  0.00    -0.014 A 
BRANCH  39  40
ATOM     40  C   UNL A   1      43.450  25.809  27.531  1.00  0.00     0.031 A 
ATOM     41  C   UNL A   1      44.480  26.827  27.184  1.00  0.00     0.074 A 
ATOM     42  C   UNL A   1      42.327  26.116  28.219  1.00  0.00     0.049 A 
ATOM     43  N   UNL A   1      45.385  27.321  27.960  1.00  0.00    -0.248 NA
ATOM     44  C   UNL A   1      44.633  27.223  25.773  1.00  0.00     0.031 C 
ATOM     45  C   UNL A   1      41.107  25.315  28.367  1.00  0.00     0.029 A 
ATOM     46  N   UNL A   1      41.987  27.278  28.837  1.00  0.00    -0.354 N 
ATOM     47  C   UNL A   1      46.071  28.266  27.199  1.00  0.00     0.074 A 
ATOM     48  C   UNL A   1      45.709  28.012  25.830  1.00  0.00     0.031 C 
ATOM     49  C   UNL A   1      40.098  26.102  28.800  1.00  0.00     0.029 A 
ATOM     50  C   UNL A   1      40.628  27.417  29.106  1.00  0.00     0.049 A 
ATOM     51  H   UNL A   1      42.650  27.967  29.074  1.00  0.00     0.167 HD
ATOM     52  C   UNL A   1      46.691  29.329  27.787  1.00  0.00     0.037 A 
ATOM     53  C   UNL A   1      39.990  28.553  29.500  1.00  0.00     0.037 A 
ATOM     54  C   UNL A   1      46.795  29.135  29.212  1.00  0.00     0.049 A 
ATOM     55  C   UNL A   1      41.036  29.459  30.053  1.00  0.00     0.074 A 
ATOM     56  C   UNL A   1      47.373  28.170  30.013  1.00  0.00     0.029 A 
ATOM     57  N   UNL A   1      45.889  29.796  30.010  1.00  0.00    -0.354 N 
ATOM     58  N   UNL A   1      41.700  29.208  31.150  1.00  0.00    -0.248 NA
ATOM     59  C   UNL A   1      41.690  30.376  29.130  1.00  0.00     0.031 C 
ATOM     60  C   UNL A   1      46.441  27.968  31.071  1.00  0.00     0.029 A 
ATOM     61  C   UNL A   1      45.401  28.886  30.913  1.00  0.00     0.049 A 
ATOM     62  H   UNL A   1      45.639  30.746  29.946  1.00  0.00     0.167 HD
ATOM     63  C   UNL A   1      43.011  29.560  30.860  1.00  0.00     0.074 A 
ATOM     64  C   UNL A   1      42.930  30.344  29.627  1.00  0.00     0.031 C 
ATOM     65  C   UNL A   1      44.066  28.936  31.466  1.00  0.00     0.037 A 
BRANCH  52  66
ATOM     66  C   UNL A   1      46.886  30.687  27.155  1.00  0.00     0.058 A 
ATOM     67  C   UNL A   1      48.176  31.260  27.144  1.00  0.00     0.135 A 
ATOM     68  C   UNL A   1      45.832  31.559  26.810  1.00  0.00     0.135 A 
ATOM     69  F   UNL A   1      49.254  30.526  27.462  1.00  0.00    -0.206 F 
ATOM     70  C   UNL A   1      48.393  32.612  26.881  1.00  0.00     0.059 A 
ATOM     71  C   UNL A   1      46.031  32.898  26.490  1.00  0.00     0.059 A 
ATOM     72  F   UNL A   1      44.548  31.186  26.859  1.00  0.00    -0.206 F 
ATOM     73  C   UNL A   1      47.310  33.426  26.566  1.00  0.00     0.060 A 
BRANCH  73  74
ATOM     74  S   UNL A   1      47.576  35.187  26.305  1.00  0.00     0.124 S 
ATOM     75  O   UNL A   1      48.846  35.187  25.587  1.00  0.00    -0.237 OA
ATOM     76  O   UNL A   1      46.399  35.556  25.526  1.00  0.00    -0.237 OA
ATOM     77  O   UNL A   1      47.616  35.724  27.661  1.00  0.00    -0.744 OA
ENDBRANCH  73  74
ENDBRANCH  52  66
BRANCH  53  78
ATOM     78  C   UNL A   1      38.624  29.026  29.130  1.00  0.00     0.058 A 
ATOM     79  C   UNL A   1      37.640  29.258  30.110  1.00  0.00     0.135 A 
ATOM     80  C   UNL A   1      38.339  29.530  27.844  1.00  0.00     0.135 A 
ATOM     81  F   UNL A   1      37.826  28.828  31.367  1.00  0.00    -0.206 F 
ATOM     82  C   UNL A   1      36.478  29.997  29.848  1.00  0.00     0.059 A 
ATOM     83  C   UNL A   1      37.183  30.257  27.557  1.00  0.00     0.059 A 
ATOM     84  F   UNL A   1      39.220  29.417  26.840  1.00  0.00    -0.206 F 
ATOM     85  C   UNL A   1      36.271  30.517  28.571  1.00  0.00     0.060 A 
BRANCH  85  86
ATOM     86  S   UNL A   1      34.888  31.646  28.272  1.00  0.00     0.124 S 
ATOM     87  O   UNL A   1      34.480  31.992  29.628  1.00  0.00    -0.237 OA
ATOM     88  O   UNL A   1      35.522  32.711  27.503  1.00  0.00    -0.237 OA
ATOM     89  O   UNL A   1      33.940  30.824  27.524  1.00  0.00    -0.744 OA
ENDBRANCH  85  86
ENDBRANCH  53  78
BRANCH  65  90
ATOM     90  C   UNL A   1      43.807  28.063  32.669  1.00  0.00     0.058 A 
ATOM     91  C   UNL A   1      43.568  28.533  33.972  1.00  0.00     0.135 A 
ATOM     92  C   UNL A   1      43.627  26.689  32.444  1.00  0.00     0.135 A 
ATOM     93  F   UNL A   1      43.606  29.843  34.254  1.00  0.00    -0.206 F 
ATOM     94  C   UNL A   1      43.214  27.669  35.012  1.00  0.00     0.059 A 
ATOM     95  C   UNL A   1      43.237  25.816  33.454  1.00  0.00     0.059 A 
ATOM     96  F   UNL A   1      43.776  26.184  31.207  1.00  0.00    -0.206 F 
ATOM     97  C   UNL A   1      43.050  26.310  34.742  1.00  0.00     0.060 A 
BRANCH  97  98
ATOM     98  S   UNL A   1      42.541  25.200  36.070  1.00  0.00     0.124 S 
ATOM     99  O   UNL A   1      42.764  23.887  35.473  1.00  0.00    -0.237 OA
ATOM    100  O   UNL A   1      43.447  25.565  37.156  1.00  0.00    -0.237 OA
ATOM    101  O   UNL A   1      41.141  25.553  36.293  1.00  0.00    -0.744 OA
ENDBRANCH  97  98
ENDBRANCH  65  90
ENDBRANCH  39  40
ENDBRANCH  31  34
ENDBRANCH  29  30
ENDBRANCH  28  29
ENDBRANCH   1  28
TORSDOF 18
ENDMDL
