MODEL 1
REMARK VINA RESULT:      -9.7      0.000      0.000
REMARK SMILES O=C(NCCCCCCNC(=O)[C@@H](CCOC(F)(F)F)Cc1ccccc1Cl)c1ccc(-c2c3nc(c(-c4c(F)cc(S(=O)(=O)[O-])cc4F)c4ccc([nH]4)c(-c4c(F)cc(S(=O)(=O)[O-])cc4F)c4nc(c(-c5c(F)cc(S(=O)(=O)[O-])cc5F)c5ccc2[nH]5)C=C4)C=C3)cc1
REMARK SMILES IDX 7 1 6 2 5 3 4 4 3 5 1 6 2 7 29 9 30 10 94 11 31 12 93 13
REMARK SMILES IDX 32 14 33 15 34 16 87 17 35 18 92 19 86 20 88 21 36 22 91 23
REMARK SMILES IDX 85 24 84 25 37 27 71 28 50 29 70 30 51 31 54 32 69 33 89 34
REMARK SMILES IDX 52 35 53 36 68 38 90 39 55 40 38 41 39 42 48 43 40 44 41 45
REMARK SMILES IDX 47 46 49 47 42 48 43 49 44 50 45 51 46 52 72 53 73 54 82 55
REMARK SMILES IDX 74 56 75 57 81 58 83 59 76 60 77 61 78 62 79 63 80 64 56 65
REMARK SMILES IDX 57 66 66 67 58 68 59 69 65 70 67 71 60 72 61 73 62 74 63 75
REMARK SMILES IDX 64 76 8 77 9 78 10 79 11 80 12 82 13 83 14 84 15 85 16 86
REMARK SMILES IDX 17 87 18 88 19 89 20 90 21 91 22 92 23 93 27 94 24 95 26 96
REMARK SMILES IDX 28 97 25 98
REMARK H PARENT 3 8 88 26 54 37 10 81
REMARK Flexibility Score: inf
ROOT
ATOM      1  C   UNL A   1      33.619  25.303  26.128  1.00  0.00     0.002 C 
ENDROOT
BRANCH   1   2
ATOM      2  C   UNL A   1      32.502  26.354  26.113  1.00  0.00     0.002 C 
BRANCH   2   3
ATOM      3  C   UNL A   1      32.891  27.692  25.478  1.00  0.00     0.021 C 
BRANCH   3   4
ATOM      4  C   UNL A   1      34.090  28.365  26.136  1.00  0.00     0.116 C 
BRANCH   4   5
ATOM      5  N   UNL A   1      33.836  29.778  26.378  1.00  0.00    -0.352 N 
ATOM      6  O   UNL A   1      33.877  31.689  27.573  1.00  0.00    -0.269 OA
ATOM      7  C   UNL A   1      34.407  30.606  27.304  1.00  0.00     0.251 C 
ATOM      8  H   UNL A   1      33.161  30.192  25.795  1.00  0.00     0.163 HD
BRANCH   7   9
ATOM      9  C   UNL A   1      35.656  30.203  27.972  1.00  0.00     0.039 A 
ATOM     10  C   UNL A   1      36.883  30.363  27.319  1.00  0.00     0.014 A 
ATOM     11  C   UNL A   1      35.607  29.692  29.271  1.00  0.00     0.014 A 
ATOM     12  C   UNL A   1      38.051  29.915  27.922  1.00  0.00     0.010 A 
ATOM     13  C   UNL A   1      36.792  29.317  29.906  1.00  0.00     0.010 A 
ATOM     14  C   UNL A   1      38.020  29.414  29.231  1.00  0.00    -0.014 A 
BRANCH  14  15
ATOM     15  C   UNL A   1      39.289  29.079  29.919  1.00  0.00     0.031 A 
ATOM     16  C   UNL A   1      39.760  29.875  31.100  1.00  0.00     0.074 A 
ATOM     17  C   UNL A   1      40.030  28.062  29.439  1.00  0.00     0.049 A 
ATOM     18  N   UNL A   1      40.875  29.765  31.774  1.00  0.00    -0.248 NA
ATOM     19  C   UNL A   1      38.869  30.942  31.579  1.00  0.00     0.031 C 
ATOM     20  C   UNL A   1      39.671  27.234  28.284  1.00  0.00     0.029 A 
ATOM     21  N   UNL A   1      41.238  27.560  29.845  1.00  0.00    -0.354 N 
ATOM     22  C   UNL A   1      40.834  30.761  32.742  1.00  0.00     0.074 A 
ATOM     23  C   UNL A   1      39.593  31.481  32.550  1.00  0.00     0.031 C 
ATOM     24  C   UNL A   1      40.634  26.325  28.079  1.00  0.00     0.029 A 
ATOM     25  C   UNL A   1      41.705  26.548  29.041  1.00  0.00     0.049 A 
ATOM     26  H   UNL A   1      41.724  27.891  30.634  1.00  0.00     0.167 HD
ATOM     27  C   UNL A   1      41.751  31.041  33.699  1.00  0.00     0.037 A 
ATOM     28  C   UNL A   1      42.884  25.898  29.047  1.00  0.00     0.037 A 
ATOM     29  C   UNL A   1      42.983  30.312  33.868  1.00  0.00     0.049 A 
ATOM     30  C   UNL A   1      43.899  26.243  30.095  1.00  0.00     0.074 A 
ATOM     31  C   UNL A   1      43.958  30.482  34.834  1.00  0.00     0.029 A 
ATOM     32  N   UNL A   1      43.420  29.286  33.038  1.00  0.00    -0.354 N 
ATOM     33  N   UNL A   1      43.825  27.151  31.040  1.00  0.00    -0.248 NA
ATOM     34  C   UNL A   1      45.154  25.482  30.085  1.00  0.00     0.031 C 
ATOM     35  C   UNL A   1      45.010  29.605  34.553  1.00  0.00     0.029 A 
ATOM     36  C   UNL A   1      44.664  28.838  33.450  1.00  0.00     0.049 A 
ATOM     37  H   UNL A   1      42.918  28.931  32.270  1.00  0.00     0.167 HD
ATOM     38  C   UNL A   1      45.013  27.057  31.751  1.00  0.00     0.074 A 
ATOM     39  C   UNL A   1      45.787  26.000  31.131  1.00  0.00     0.031 C 
ATOM     40  C   UNL A   1      45.422  27.780  32.823  1.00  0.00     0.037 A 
BRANCH  27  41
ATOM     41  C   UNL A   1      41.474  32.210  34.608  1.00  0.00     0.058 A 
ATOM     42  C   UNL A   1      40.744  32.072  35.800  1.00  0.00     0.135 A 
ATOM     43  C   UNL A   1      41.951  33.491  34.282  1.00  0.00     0.135 A 
ATOM     44  F   UNL A   1      40.256  30.874  36.160  1.00  0.00    -0.206 F 
ATOM     45  C   UNL A   1      40.453  33.168  36.607  1.00  0.00     0.059 A 
ATOM     46  C   UNL A   1      41.699  34.596  35.091  1.00  0.00     0.059 A 
ATOM     47  F   UNL A   1      42.661  33.683  33.159  1.00  0.00    -0.206 F 
ATOM     48  C   UNL A   1      40.927  34.428  36.239  1.00  0.00     0.060 A 
BRANCH  48  49
ATOM     49  S   UNL A   1      40.502  35.845  37.273  1.00  0.00     0.124 S 
ATOM     50  O   UNL A   1      41.822  36.291  37.708  1.00  0.00    -0.237 OA
ATOM     51  O   UNL A   1      39.816  36.725  36.332  1.00  0.00    -0.237 OA
ATOM     52  O   UNL A   1      39.661  35.267  38.316  1.00  0.00    -0.744 OA
ENDBRANCH  48  49
ENDBRANCH  27  41
BRANCH  28  53
ATOM     53  C   UNL A   1      43.147  24.875  28.000  1.00  0.00     0.058 A 
ATOM     54  C   UNL A   1      43.805  25.206  26.809  1.00  0.00     0.135 A 
ATOM     55  C   UNL A   1      42.823  23.524  28.218  1.00  0.00     0.135 A 
ATOM     56  F   UNL A   1      44.131  26.483  26.555  1.00  0.00    -0.206 F 
ATOM     57  C   UNL A   1      44.140  24.235  25.871  1.00  0.00     0.059 A 
ATOM     58  C   UNL A   1      43.172  22.533  27.309  1.00  0.00     0.059 A 
ATOM     59  F   UNL A   1      42.212  23.155  29.355  1.00  0.00    -0.206 F 
ATOM     60  C   UNL A   1      43.830  22.899  26.136  1.00  0.00     0.060 A 
BRANCH  60  61
ATOM     61  S   UNL A   1      44.356  21.638  24.955  1.00  0.00     0.124 S 
ATOM     62  O   UNL A   1      45.730  21.395  25.378  1.00  0.00    -0.237 OA
ATOM     63  O   UNL A   1      43.406  20.560  25.217  1.00  0.00    -0.237 OA
ATOM     64  O   UNL A   1      44.199  22.299  23.664  1.00  0.00    -0.744 OA
ENDBRANCH  60  61
ENDBRANCH  28  53
BRANCH  40  65
ATOM     65  C   UNL A   1      46.755  27.435  33.428  1.00  0.00     0.058 A 
ATOM     66  C   UNL A   1      47.933  28.091  33.043  1.00  0.00     0.135 A 
ATOM     67  C   UNL A   1      46.833  26.499  34.473  1.00  0.00     0.135 A 
ATOM     68  F   UNL A   1      47.915  28.984  32.041  1.00  0.00    -0.206 F 
ATOM     69  C   UNL A   1      49.146  27.830  33.673  1.00  0.00     0.059 A 
ATOM     70  C   UNL A   1      48.029  26.243  35.134  1.00  0.00     0.059 A 
ATOM     71  F   UNL A   1      45.734  25.847  34.880  1.00  0.00    -0.206 F 
ATOM     72  C   UNL A   1      49.182  26.913  34.726  1.00  0.00     0.060 A 
BRANCH  72  73
ATOM     73  S   UNL A   1      50.746  26.642  35.585  1.00  0.00     0.124 S 
ATOM     74  O   UNL A   1      50.553  25.305  36.138  1.00  0.00    -0.237 OA
ATOM     75  O   UNL A   1      51.718  26.746  34.501  1.00  0.00    -0.237 OA
ATOM     76  O   UNL A   1      50.789  27.725  36.563  1.00  0.00    -0.744 OA
ENDBRANCH  72  73
ENDBRANCH  40  65
ENDBRANCH  14  15
ENDBRANCH   7   9
ENDBRANCH   4   5
ENDBRANCH   3   4
ENDBRANCH   2   3
ENDBRANCH   1   2
BRANCH   1  77
ATOM     77  C   UNL A   1      33.146  23.902  26.524  1.00  0.00     0.021 C 
BRANCH  77  78
ATOM     78  C   UNL A   1      34.271  23.052  27.122  1.00  0.00     0.116 C 
BRANCH  78  79
ATOM     79  N   UNL A   1      34.360  21.796  26.424  1.00  0.00    -0.356 N 
ATOM     80  C   UNL A   1      34.691  21.506  25.146  1.00  0.00     0.223 C 
ATOM     81  H   UNL A   1      34.141  21.010  26.974  1.00  0.00     0.163 HD
ATOM     82  O   UNL A   1      34.329  20.394  24.741  1.00  0.00    -0.275 OA
BRANCH  80  83
ATOM     83  C   UNL A   1      35.450  22.445  24.204  1.00  0.00     0.085 C 
BRANCH  83  84
ATOM     84  C   UNL A   1      36.961  22.137  24.010  1.00  0.00     0.042 C 
BRANCH  84  85
ATOM     85  C   UNL A   1      37.931  21.758  25.142  1.00  0.00     0.171 C 
BRANCH  85  86
ATOM     86  O   UNL A   1      37.980  22.591  26.277  1.00  0.00    -0.292 OA
BRANCH  86  87
ATOM     87  C   UNL A   1      39.190  23.269  26.524  1.00  0.00     0.522 C 
ATOM     88  F   UNL A   1      39.067  24.519  26.030  1.00  0.00    -0.144 F 
ATOM     89  F   UNL A   1      39.452  23.350  27.840  1.00  0.00    -0.144 F 
ATOM     90  F   UNL A   1      40.200  22.649  25.894  1.00  0.00    -0.144 F 
ENDBRANCH  86  87
ENDBRANCH  85  86
ENDBRANCH  84  85
ENDBRANCH  83  84
BRANCH  83  91
ATOM     91  C   UNL A   1      34.748  22.881  22.908  1.00  0.00     0.050 C 
BRANCH  91  92
ATOM     92  C   UNL A   1      33.525  23.777  22.804  1.00  0.00    -0.029 A 
ATOM     93  C   UNL A   1      33.823  25.116  22.445  1.00  0.00     0.005 A 
ATOM     94  C   UNL A   1      32.188  23.487  23.106  1.00  0.00     0.044 A 
ATOM     95  C   UNL A   1      32.839  26.099  22.333  1.00  0.00     0.000 A 
ATOM     96  C   UNL A   1      31.193  24.471  22.958  1.00  0.00     0.021 A 
ATOM     97  Cl  UNL A   1      31.642  21.988  23.752  1.00  0.00    -0.084 Cl
ATOM     98  C   UNL A   1      31.514  25.770  22.569  1.00  0.00     0.002 A 
ENDBRANCH  91  92
ENDBRANCH  83  91
ENDBRANCH  80  83
ENDBRANCH  78  79
ENDBRANCH  77  78
ENDBRANCH   1  77
TORSDOF 22
ENDMDL
MODEL 2
REMARK VINA RESULT:      -9.7      3.880      9.473
REMARK SMILES O=C(NCCCCCCNC(=O)[C@@H](CCOC(F)(F)F)Cc1ccccc1Cl)c1ccc(-c2c3nc(c(-c4c(F)cc(S(=O)(=O)[O-])cc4F)c4ccc([nH]4)c(-c4c(F)cc(S(=O)(=O)[O-])cc4F)c4nc(c(-c5c(F)cc(S(=O)(=O)[O-])cc5F)c5ccc2[nH]5)C=C4)C=C3)cc1
REMARK SMILES IDX 7 1 6 2 5 3 4 4 3 5 1 6 2 7 29 9 30 10 94 11 31 12 93 13
REMARK SMILES IDX 32 14 33 15 34 16 87 17 35 18 92 19 86 20 88 21 36 22 91 23
REMARK SMILES IDX 85 24 84 25 37 27 71 28 50 29 70 30 51 31 54 32 69 33 89 34
REMARK SMILES IDX 52 35 53 36 68 38 90 39 55 40 38 41 39 42 48 43 40 44 41 45
REMARK SMILES IDX 47 46 49 47 42 48 43 49 44 50 45 51 46 52 72 53 73 54 82 55
REMARK SMILES IDX 74 56 75 57 81 58 83 59 76 60 77 61 78 62 79 63 80 64 56 65
REMARK SMILES IDX 57 66 66 67 58 68 59 69 65 70 67 71 60 72 61 73 62 74 63 75
REMARK SMILES IDX 64 76 8 77 9 78 10 79 11 80 12 82 13 83 14 84 15 85 16 86
REMARK SMILES IDX 17 87 18 88 19 89 20 90 21 91 22 92 23 93 27 94 24 95 26 96
REMARK SMILES IDX 28 97 25 98
REMARK H PARENT 3 8 88 26 54 37 10 81
REMARK Flexibility Score: inf
ROOT
ATOM      1  C   UNL A   1      32.828  23.528  25.660  1.00  0.00     0.002 C 
ENDROOT
BRANCH   1   2
ATOM      2  C   UNL A   1      34.183  24.243  25.732  1.00  0.00     0.002 C 
BRANCH   2   3
ATOM      3  C   UNL A   1      35.348  23.472  25.105  1.00  0.00     0.021 C 
BRANCH   3   4
ATOM      4  C   UNL A   1      36.719  24.060  25.418  1.00  0.00     0.116 C 
BRANCH   4   5
ATOM      5  N   UNL A   1      37.709  23.012  25.622  1.00  0.00    -0.352 N 
ATOM      6  O   UNL A   1      39.781  22.192  25.959  1.00  0.00    -0.269 OA
ATOM      7  C   UNL A   1      38.976  23.113  26.124  1.00  0.00     0.251 C 
ATOM      8  H   UNL A   1      37.426  22.106  25.362  1.00  0.00     0.163 HD
BRANCH   7   9
ATOM      9  C   UNL A   1      39.372  24.323  26.866  1.00  0.00     0.039 A 
ATOM     10  C   UNL A   1      39.000  24.476  28.205  1.00  0.00     0.014 A 
ATOM     11  C   UNL A   1      40.148  25.296  26.231  1.00  0.00     0.014 A 
ATOM     12  C   UNL A   1      39.311  25.650  28.880  1.00  0.00     0.010 A 
ATOM     13  C   UNL A   1      40.528  26.438  26.936  1.00  0.00     0.010 A 
ATOM     14  C   UNL A   1      40.102  26.628  28.261  1.00  0.00    -0.014 A 
BRANCH  14  15
ATOM     15  C   UNL A   1      40.554  27.807  29.039  1.00  0.00     0.031 A 
ATOM     16  C   UNL A   1      41.873  27.799  29.753  1.00  0.00     0.074 A 
ATOM     17  C   UNL A   1      39.737  28.874  29.119  1.00  0.00     0.049 A 
ATOM     18  N   UNL A   1      42.390  28.713  30.533  1.00  0.00    -0.248 NA
ATOM     19  C   UNL A   1      42.715  26.607  29.579  1.00  0.00     0.031 C 
ATOM     20  C   UNL A   1      38.424  28.977  28.475  1.00  0.00     0.029 A 
ATOM     21  N   UNL A   1      39.877  30.065  29.781  1.00  0.00    -0.354 N 
ATOM     22  C   UNL A   1      43.607  28.199  30.964  1.00  0.00     0.074 A 
ATOM     23  C   UNL A   1      43.739  26.883  30.376  1.00  0.00     0.031 C 
ATOM     24  C   UNL A   1      37.882  30.167  28.769  1.00  0.00     0.029 A 
ATOM     25  C   UNL A   1      38.775  30.881  29.672  1.00  0.00     0.049 A 
ATOM     26  H   UNL A   1      40.685  30.313  30.284  1.00  0.00     0.167 HD
ATOM     27  C   UNL A   1      44.525  28.780  31.774  1.00  0.00     0.037 A 
ATOM     28  C   UNL A   1      38.493  32.055  30.268  1.00  0.00     0.037 A 
ATOM     29  C   UNL A   1      44.370  30.092  32.352  1.00  0.00     0.049 A 
ATOM     30  C   UNL A   1      39.508  32.667  31.186  1.00  0.00     0.074 A 
ATOM     31  C   UNL A   1      45.259  30.792  33.146  1.00  0.00     0.029 A 
ATOM     32  N   UNL A   1      43.243  30.893  32.213  1.00  0.00    -0.354 N 
ATOM     33  N   UNL A   1      40.680  32.196  31.541  1.00  0.00    -0.248 NA
ATOM     34  C   UNL A   1      39.172  33.965  31.782  1.00  0.00     0.031 C 
ATOM     35  C   UNL A   1      44.647  31.987  33.539  1.00  0.00     0.029 A 
ATOM     36  C   UNL A   1      43.401  32.065  32.935  1.00  0.00     0.049 A 
ATOM     37  H   UNL A   1      42.448  30.660  31.681  1.00  0.00     0.167 HD
ATOM     38  C   UNL A   1      41.232  33.148  32.388  1.00  0.00     0.074 A 
ATOM     39  C   UNL A   1      40.267  34.226  32.485  1.00  0.00     0.031 C 
ATOM     40  C   UNL A   1      42.431  33.131  33.020  1.00  0.00     0.037 A 
BRANCH  27  41
ATOM     41  C   UNL A   1      45.757  27.982  32.116  1.00  0.00     0.058 A 
ATOM     42  C   UNL A   1      45.803  27.117  33.222  1.00  0.00     0.135 A 
ATOM     43  C   UNL A   1      46.911  28.081  31.320  1.00  0.00     0.135 A 
ATOM     44  F   UNL A   1      44.733  26.987  34.023  1.00  0.00    -0.206 F 
ATOM     45  C   UNL A   1      46.961  26.422  33.555  1.00  0.00     0.059 A 
ATOM     46  C   UNL A   1      48.070  27.371  31.617  1.00  0.00     0.059 A 
ATOM     47  F   UNL A   1      46.924  28.887  30.246  1.00  0.00    -0.206 F 
ATOM     48  C   UNL A   1      48.093  26.562  32.752  1.00  0.00     0.060 A 
BRANCH  48  49
ATOM     49  S   UNL A   1      49.600  25.689  33.224  1.00  0.00     0.124 S 
ATOM     50  O   UNL A   1      49.144  24.935  34.388  1.00  0.00    -0.237 OA
ATOM     51  O   UNL A   1      49.891  24.899  32.032  1.00  0.00    -0.237 OA
ATOM     52  O   UNL A   1      50.545  26.765  33.506  1.00  0.00    -0.744 OA
ENDBRANCH  48  49
ENDBRANCH  27  41
BRANCH  28  53
ATOM     53  C   UNL A   1      37.174  32.692  30.012  1.00  0.00     0.058 A 
ATOM     54  C   UNL A   1      36.080  32.463  30.854  1.00  0.00     0.135 A 
ATOM     55  C   UNL A   1      37.015  33.618  28.965  1.00  0.00     0.135 A 
ATOM     56  F   UNL A   1      36.183  31.586  31.865  1.00  0.00    -0.206 F 
ATOM     57  C   UNL A   1      34.874  33.134  30.676  1.00  0.00     0.059 A 
ATOM     58  C   UNL A   1      35.830  34.319  28.784  1.00  0.00     0.059 A 
ATOM     59  F   UNL A   1      38.043  33.887  28.144  1.00  0.00    -0.206 F 
ATOM     60  C   UNL A   1      34.763  34.069  29.645  1.00  0.00     0.060 A 
BRANCH  60  61
ATOM     61  S   UNL A   1      33.224  35.001  29.483  1.00  0.00     0.124 S 
ATOM     62  O   UNL A   1      33.719  36.321  29.114  1.00  0.00    -0.237 OA
ATOM     63  O   UNL A   1      32.529  34.262  28.434  1.00  0.00    -0.237 OA
ATOM     64  O   UNL A   1      32.627  34.898  30.811  1.00  0.00    -0.744 OA
ENDBRANCH  60  61
ENDBRANCH  28  53
BRANCH  40  65
ATOM     65  C   UNL A   1      42.796  34.330  33.853  1.00  0.00     0.058 A 
ATOM     66  C   UNL A   1      42.574  34.362  35.238  1.00  0.00     0.135 A 
ATOM     67  C   UNL A   1      43.460  35.420  33.266  1.00  0.00     0.135 A 
ATOM     68  F   UNL A   1      41.932  33.353  35.845  1.00  0.00    -0.206 F 
ATOM     69  C   UNL A   1      42.998  35.437  36.013  1.00  0.00     0.059 A 
ATOM     70  C   UNL A   1      43.916  36.490  34.026  1.00  0.00     0.059 A 
ATOM     71  F   UNL A   1      43.699  35.434  31.946  1.00  0.00    -0.206 F 
ATOM     72  C   UNL A   1      43.679  36.491  35.400  1.00  0.00     0.060 A 
BRANCH  72  73
ATOM     73  S   UNL A   1      44.292  37.841  36.430  1.00  0.00     0.124 S 
ATOM     74  O   UNL A   1      44.171  38.981  35.527  1.00  0.00    -0.237 OA
ATOM     75  O   UNL A   1      43.362  37.820  37.555  1.00  0.00    -0.237 OA
ATOM     76  O   UNL A   1      45.658  37.434  36.747  1.00  0.00    -0.744 OA
ENDBRANCH  72  73
ENDBRANCH  40  65
ENDBRANCH  14  15
ENDBRANCH   7   9
ENDBRANCH   4   5
ENDBRANCH   3   4
ENDBRANCH   2   3
ENDBRANCH   1   2
BRANCH   1  77
ATOM     77  C   UNL A   1      31.647  24.461  25.380  1.00  0.00     0.021 C 
BRANCH  77  78
ATOM     78  C   UNL A   1      31.175  24.388  23.925  1.00  0.00     0.116 C 
BRANCH  78  79
ATOM     79  N   UNL A   1      29.876  24.996  23.800  1.00  0.00    -0.356 N 
ATOM     80  C   UNL A   1      29.489  26.291  23.833  1.00  0.00     0.223 C 
ATOM     81  H   UNL A   1      29.140  24.357  23.667  1.00  0.00     0.163 HD
ATOM     82  O   UNL A   1      28.288  26.482  24.065  1.00  0.00    -0.275 OA
BRANCH  80  83
ATOM     83  C   UNL A   1      30.420  27.488  23.621  1.00  0.00     0.085 C 
BRANCH  83  84
ATOM     84  C   UNL A   1      30.238  28.261  22.285  1.00  0.00     0.042 C 
BRANCH  84  85
ATOM     85  C   UNL A   1      30.101  29.788  22.166  1.00  0.00     0.171 C 
BRANCH  85  86
ATOM     86  O   UNL A   1      28.815  30.323  21.960  1.00  0.00    -0.292 OA
BRANCH  86  87
ATOM     87  C   UNL A   1      28.106  30.747  23.101  1.00  0.00     0.522 C 
ATOM     88  F   UNL A   1      27.351  31.807  22.745  1.00  0.00    -0.144 F 
ATOM     89  F   UNL A   1      27.297  29.780  23.568  1.00  0.00    -0.144 F 
ATOM     90  F   UNL A   1      28.965  31.127  24.061  1.00  0.00    -0.144 F 
ENDBRANCH  86  87
ENDBRANCH  85  86
ENDBRANCH  84  85
ENDBRANCH  83  84
BRANCH  83  91
ATOM     91  C   UNL A   1      30.689  28.408  24.822  1.00  0.00     0.050 C 
BRANCH  91  92
ATOM     92  C   UNL A   1      32.023  28.607  25.523  1.00  0.00    -0.029 A 
ATOM     93  C   UNL A   1      31.972  29.517  26.609  1.00  0.00     0.005 A 
ATOM     94  C   UNL A   1      33.285  28.100  25.184  1.00  0.00     0.044 A 
ATOM     95  C   UNL A   1      33.100  29.858  27.356  1.00  0.00     0.000 A 
ATOM     96  C   UNL A   1      34.414  28.418  25.959  1.00  0.00     0.021 A 
ATOM     97  Cl  UNL A   1      33.603  27.145  23.787  1.00  0.00    -0.084 Cl
ATOM     98  C   UNL A   1      34.324  29.289  27.043  1.00  0.00     0.002 A 
ENDBRANCH  91  92
ENDBRANCH  83  91
ENDBRANCH  80  83
ENDBRANCH  78  79
ENDBRANCH  77  78
ENDBRANCH   1  77
TORSDOF 22
ENDMDL
MODEL 3
REMARK VINA RESULT:      -9.7      2.861      3.578
REMARK SMILES O=C(NCCCCCCNC(=O)[C@@H](CCOC(F)(F)F)Cc1ccccc1Cl)c1ccc(-c2c3nc(c(-c4c(F)cc(S(=O)(=O)[O-])cc4F)c4ccc([nH]4)c(-c4c(F)cc(S(=O)(=O)[O-])cc4F)c4nc(c(-c5c(F)cc(S(=O)(=O)[O-])cc5F)c5ccc2[nH]5)C=C4)C=C3)cc1
REMARK SMILES IDX 7 1 6 2 5 3 4 4 3 5 1 6 2 7 29 9 30 10 94 11 31 12 93 13
REMARK SMILES IDX 32 14 33 15 34 16 87 17 35 18 92 19 86 20 88 21 36 22 91 23
REMARK SMILES IDX 85 24 84 25 37 27 71 28 50 29 70 30 51 31 54 32 69 33 89 34
REMARK SMILES IDX 52 35 53 36 68 38 90 39 55 40 38 41 39 42 48 43 40 44 41 45
REMARK SMILES IDX 47 46 49 47 42 48 43 49 44 50 45 51 46 52 72 53 73 54 82 55
REMARK SMILES IDX 74 56 75 57 81 58 83 59 76 60 77 61 78 62 79 63 80 64 56 65
REMARK SMILES IDX 57 66 66 67 58 68 59 69 65 70 67 71 60 72 61 73 62 74 63 75
REMARK SMILES IDX 64 76 8 77 9 78 10 79 11 80 12 82 13 83 14 84 15 85 16 86
REMARK SMILES IDX 17 87 18 88 19 89 20 90 21 91 22 92 23 93 27 94 24 95 26 96
REMARK SMILES IDX 28 97 25 98
REMARK H PARENT 3 8 88 26 54 37 10 81
REMARK Flexibility Score: inf
ROOT
ATOM      1  C   UNL A   1      31.017  25.705  26.408  1.00  0.00     0.002 C 
ENDROOT
BRANCH   1   2
ATOM      2  C   UNL A   1      32.478  26.169  26.436  1.00  0.00     0.002 C 
BRANCH   2   3
ATOM      3  C   UNL A   1      32.673  27.680  26.290  1.00  0.00     0.021 C 
BRANCH   3   4
ATOM      4  C   UNL A   1      33.879  28.226  27.046  1.00  0.00     0.116 C 
BRANCH   4   5
ATOM      5  N   UNL A   1      33.716  29.639  27.351  1.00  0.00    -0.352 N 
ATOM      6  O   UNL A   1      34.116  31.548  28.482  1.00  0.00    -0.269 OA
ATOM      7  C   UNL A   1      34.538  30.463  28.070  1.00  0.00     0.251 C 
ATOM      8  H   UNL A   1      32.902  30.059  26.992  1.00  0.00     0.163 HD
BRANCH   7   9
ATOM      9  C   UNL A   1      35.926  30.051  28.343  1.00  0.00     0.039 A 
ATOM     10  C   UNL A   1      36.895  30.146  27.339  1.00  0.00     0.014 A 
ATOM     11  C   UNL A   1      36.270  29.598  29.618  1.00  0.00     0.014 A 
ATOM     12  C   UNL A   1      38.184  29.689  27.576  1.00  0.00     0.010 A 
ATOM     13  C   UNL A   1      37.586  29.215  29.878  1.00  0.00     0.010 A 
ATOM     14  C   UNL A   1      38.549  29.246  28.856  1.00  0.00    -0.014 A 
BRANCH  14  15
ATOM     15  C   UNL A   1      39.963  28.902  29.138  1.00  0.00     0.031 A 
ATOM     16  C   UNL A   1      40.911  29.927  29.686  1.00  0.00     0.074 A 
ATOM     17  C   UNL A   1      40.388  27.655  28.860  1.00  0.00     0.049 A 
ATOM     18  N   UNL A   1      42.192  29.817  29.924  1.00  0.00    -0.248 NA
ATOM     19  C   UNL A   1      40.351  31.251  29.996  1.00  0.00     0.031 C 
ATOM     20  C   UNL A   1      39.550  26.586  28.308  1.00  0.00     0.029 A 
ATOM     21  N   UNL A   1      41.624  27.078  28.985  1.00  0.00    -0.354 N 
ATOM     22  C   UNL A   1      42.600  31.062  30.388  1.00  0.00     0.074 A 
ATOM     23  C   UNL A   1      41.433  31.917  30.376  1.00  0.00     0.031 C 
ATOM     24  C   UNL A   1      40.294  25.483  28.148  1.00  0.00     0.029 A 
ATOM     25  C   UNL A   1      41.670  25.784  28.521  1.00  0.00     0.049 A 
ATOM     26  H   UNL A   1      42.402  27.542  29.369  1.00  0.00     0.167 HD
ATOM     27  C   UNL A   1      43.837  31.446  30.788  1.00  0.00     0.037 A 
ATOM     28  C   UNL A   1      42.712  24.945  28.369  1.00  0.00     0.037 A 
ATOM     29  C   UNL A   1      44.986  30.576  30.788  1.00  0.00     0.049 A 
ATOM     30  C   UNL A   1      44.078  25.399  28.788  1.00  0.00     0.074 A 
ATOM     31  C   UNL A   1      46.272  30.851  31.217  1.00  0.00     0.029 A 
ATOM     32  N   UNL A   1      44.994  29.269  30.318  1.00  0.00    -0.354 N 
ATOM     33  N   UNL A   1      44.440  26.561  29.278  1.00  0.00    -0.248 NA
ATOM     34  C   UNL A   1      45.176  24.437  28.640  1.00  0.00     0.031 C 
ATOM     35  C   UNL A   1      47.070  29.734  30.949  1.00  0.00     0.029 A 
ATOM     36  C   UNL A   1      46.269  28.736  30.415  1.00  0.00     0.049 A 
ATOM     37  H   UNL A   1      44.207  28.792  29.966  1.00  0.00     0.167 HD
ATOM     38  C   UNL A   1      45.805  26.465  29.516  1.00  0.00     0.074 A 
ATOM     39  C   UNL A   1      46.202  25.128  29.122  1.00  0.00     0.031 C 
ATOM     40  C   UNL A   1      46.648  27.399  30.020  1.00  0.00     0.037 A 
BRANCH  27  41
ATOM     41  C   UNL A   1      44.016  32.879  31.217  1.00  0.00     0.058 A 
ATOM     42  C   UNL A   1      44.337  33.897  30.304  1.00  0.00     0.135 A 
ATOM     43  C   UNL A   1      43.860  33.241  32.566  1.00  0.00     0.135 A 
ATOM     44  F   UNL A   1      44.506  33.610  29.004  1.00  0.00    -0.206 F 
ATOM     45  C   UNL A   1      44.547  35.209  30.720  1.00  0.00     0.059 A 
ATOM     46  C   UNL A   1      44.034  34.553  32.999  1.00  0.00     0.059 A 
ATOM     47  F   UNL A   1      43.546  32.312  33.483  1.00  0.00    -0.206 F 
ATOM     48  C   UNL A   1      44.402  35.525  32.071  1.00  0.00     0.060 A 
BRANCH  48  49
ATOM     49  S   UNL A   1      44.723  37.221  32.599  1.00  0.00     0.124 S 
ATOM     50  O   UNL A   1      45.200  37.013  33.963  1.00  0.00    -0.237 OA
ATOM     51  O   UNL A   1      45.726  37.664  31.637  1.00  0.00    -0.237 OA
ATOM     52  O   UNL A   1      43.418  37.866  32.484  1.00  0.00    -0.744 OA
ENDBRANCH  48  49
ENDBRANCH  27  41
BRANCH  28  53
ATOM     53  C   UNL A   1      42.474  23.605  27.771  1.00  0.00     0.058 A 
ATOM     54  C   UNL A   1      42.487  23.415  26.384  1.00  0.00     0.135 A 
ATOM     55  C   UNL A   1      42.322  22.470  28.587  1.00  0.00     0.135 A 
ATOM     56  F   UNL A   1      42.626  24.468  25.564  1.00  0.00    -0.206 F 
ATOM     57  C   UNL A   1      42.364  22.148  25.823  1.00  0.00     0.059 A 
ATOM     58  C   UNL A   1      42.225  21.192  28.052  1.00  0.00     0.059 A 
ATOM     59  F   UNL A   1      42.326  22.599  29.924  1.00  0.00    -0.206 F 
ATOM     60  C   UNL A   1      42.245  21.041  26.667  1.00  0.00     0.060 A 
BRANCH  60  61
ATOM     61  S   UNL A   1      42.182  19.393  25.929  1.00  0.00     0.124 S 
ATOM     62  O   UNL A   1      42.737  18.573  26.998  1.00  0.00    -0.237 OA
ATOM     63  O   UNL A   1      40.754  19.229  25.672  1.00  0.00    -0.237 OA
ATOM     64  O   UNL A   1      43.014  19.526  24.737  1.00  0.00    -0.744 OA
ENDBRANCH  60  61
ENDBRANCH  28  53
BRANCH  40  65
ATOM     65  C   UNL A   1      48.087  27.006  30.213  1.00  0.00     0.058 A 
ATOM     66  C   UNL A   1      49.055  27.234  29.223  1.00  0.00     0.135 A 
ATOM     67  C   UNL A   1      48.515  26.479  31.444  1.00  0.00     0.135 A 
ATOM     68  F   UNL A   1      48.697  27.722  28.026  1.00  0.00    -0.206 F 
ATOM     69  C   UNL A   1      50.398  26.951  29.447  1.00  0.00     0.059 A 
ATOM     70  C   UNL A   1      49.856  26.216  31.697  1.00  0.00     0.059 A 
ATOM     71  F   UNL A   1      47.628  26.247  32.424  1.00  0.00    -0.206 F 
ATOM     72  C   UNL A   1      50.791  26.453  30.691  1.00  0.00     0.060 A 
BRANCH  72  73
ATOM     73  S   UNL A   1      52.547  26.165  30.993  1.00  0.00     0.124 S 
ATOM     74  O   UNL A   1      53.085  26.163  29.636  1.00  0.00    -0.237 OA
ATOM     75  O   UNL A   1      52.913  27.311  31.819  1.00  0.00    -0.237 OA
ATOM     76  O   UNL A   1      52.568  24.875  31.678  1.00  0.00    -0.744 OA
ENDBRANCH  72  73
ENDBRANCH  40  65
ENDBRANCH  14  15
ENDBRANCH   7   9
ENDBRANCH   4   5
ENDBRANCH   3   4
ENDBRANCH   2   3
ENDBRANCH   1   2
BRANCH   1  77
ATOM     77  C   UNL A   1      30.849  24.183  26.390  1.00  0.00     0.021 C 
BRANCH  77  78
ATOM     78  C   UNL A   1      32.190  23.445  26.438  1.00  0.00     0.116 C 
BRANCH  78  79
ATOM     79  N   UNL A   1      32.330  22.610  25.274  1.00  0.00    -0.356 N 
ATOM     80  C   UNL A   1      32.688  22.900  24.003  1.00  0.00     0.223 C 
ATOM     81  H   UNL A   1      32.131  21.659  25.431  1.00  0.00     0.163 HD
ATOM     82  O   UNL A   1      32.368  22.058  23.154  1.00  0.00    -0.275 OA
BRANCH  80  83
ATOM     83  C   UNL A   1      33.426  24.171  23.571  1.00  0.00     0.085 C 
BRANCH  83  84
ATOM     84  C   UNL A   1      34.963  24.031  23.382  1.00  0.00     0.042 C 
BRANCH  84  85
ATOM     85  C   UNL A   1      35.913  23.367  24.392  1.00  0.00     0.171 C 
BRANCH  85  86
ATOM     86  O   UNL A   1      36.424  22.092  24.081  1.00  0.00    -0.292 OA
BRANCH  86  87
ATOM     87  C   UNL A   1      36.146  21.050  24.987  1.00  0.00     0.522 C 
ATOM     88  F   UNL A   1      37.172  20.177  24.936  1.00  0.00    -0.144 F 
ATOM     89  F   UNL A   1      36.032  21.508  26.246  1.00  0.00    -0.144 F 
ATOM     90  F   UNL A   1      35.017  20.418  24.627  1.00  0.00    -0.144 F 
ENDBRANCH  86  87
ENDBRANCH  85  86
ENDBRANCH  84  85
ENDBRANCH  83  84
BRANCH  83  91
ATOM     91  C   UNL A   1      32.761  25.059  22.507  1.00  0.00     0.050 C 
BRANCH  91  92
ATOM     92  C   UNL A   1      32.016  26.359  22.757  1.00  0.00    -0.029 A 
ATOM     93  C   UNL A   1      30.629  26.190  22.998  1.00  0.00     0.005 A 
ATOM     94  C   UNL A   1      32.488  27.677  22.684  1.00  0.00     0.044 A 
ATOM     95  C   UNL A   1      29.769  27.267  23.214  1.00  0.00     0.000 A 
ATOM     96  C   UNL A   1      31.625  28.759  22.936  1.00  0.00     0.021 A 
ATOM     97  Cl  UNL A   1      34.083  28.111  22.206  1.00  0.00    -0.084 Cl
ATOM     98  C   UNL A   1      30.273  28.557  23.205  1.00  0.00     0.002 A 
ENDBRANCH  91  92
ENDBRANCH  83  91
ENDBRANCH  80  83
ENDBRANCH  78  79
ENDBRANCH  77  78
ENDBRANCH   1  77
TORSDOF 22
ENDMDL
