MODEL 1
REMARK VINA RESULT:     -11.8      0.000      0.000
REMARK SMILES O=C(NCCCCCCNC(=O)c1cc2n[nH]cc2cc1[N+](=O)[O-])c1ccc(-c2c3nc(c(-c4c(F)cc(S(=O)(=O)[O-])cc4F)c4ccc([nH]4)c(-c4c(F)cc(S(=O)(=O)[O-])cc4F)c4nc(c(-c5c(F)cc(S(=O)(=O)[O-])cc5F)c5ccc2[nH]5)C=C4)C=C3)cc1
REMARK SMILES IDX 5 1 4 2 3 3 1 4 2 5 25 7 26 8 90 9 27 10 89 11 28 12 29 13
REMARK SMILES IDX 30 14 83 15 31 16 88 17 82 18 84 19 32 20 87 21 81 22 80 23
REMARK SMILES IDX 33 25 67 26 46 27 66 28 47 29 50 30 65 31 85 32 48 33 49 34
REMARK SMILES IDX 64 36 86 37 51 38 34 39 35 40 44 41 36 42 37 43 43 44 45 45
REMARK SMILES IDX 38 46 39 47 40 48 41 49 42 50 68 51 69 52 78 53 70 54 71 55
REMARK SMILES IDX 77 56 79 57 72 58 73 59 74 60 75 61 76 62 52 63 53 64 62 65
REMARK SMILES IDX 54 66 55 67 61 68 63 69 56 70 57 71 58 72 59 73 60 74 6 75
REMARK SMILES IDX 7 76 8 77 9 78 10 79 11 80 12 82 13 83 14 84 21 85 15 86
REMARK SMILES IDX 20 87 16 88 19 89 17 90 18 91 22 93 23 94 24 95
REMARK H PARENT 3 6 84 24 50 35 10 81 17 92
REMARK Flexibility Score: inf
ROOT
ATOM      1  C   UNL A   1      38.449  22.780  26.305  1.00  0.00     0.021 C 
ENDROOT
BRANCH   1   2
ATOM      2  C   UNL A   1      39.660  23.336  27.046  1.00  0.00     0.116 C 
BRANCH   2   3
ATOM      3  N   UNL A   1      40.709  23.798  26.154  1.00  0.00    -0.352 N 
ATOM      4  O   UNL A   1      42.216  25.242  25.302  1.00  0.00    -0.269 OA
ATOM      5  C   UNL A   1      41.452  24.954  26.218  1.00  0.00     0.251 C 
ATOM      6  H   UNL A   1      40.918  23.202  25.399  1.00  0.00     0.163 HD
BRANCH   5   7
ATOM      7  C   UNL A   1      41.307  25.862  27.379  1.00  0.00     0.039 A 
ATOM      8  C   UNL A   1      40.313  25.649  28.337  1.00  0.00     0.014 A 
ATOM      9  C   UNL A   1      42.187  26.940  27.511  1.00  0.00     0.014 A 
ATOM     10  C   UNL A   1      40.117  26.583  29.350  1.00  0.00     0.010 A 
ATOM     11  C   UNL A   1      42.035  27.837  28.574  1.00  0.00     0.010 A 
ATOM     12  C   UNL A   1      40.981  27.681  29.487  1.00  0.00    -0.014 A 
BRANCH  12  13
ATOM     13  C   UNL A   1      40.803  28.612  30.631  1.00  0.00     0.031 A 
ATOM     14  C   UNL A   1      41.687  28.535  31.846  1.00  0.00     0.074 A 
ATOM     15  C   UNL A   1      39.840  29.552  30.553  1.00  0.00     0.049 A 
ATOM     16  N   UNL A   1      41.674  29.285  32.919  1.00  0.00    -0.248 NA
ATOM     17  C   UNL A   1      42.710  27.479  31.866  1.00  0.00     0.031 C 
ATOM     18  C   UNL A   1      38.908  29.706  29.433  1.00  0.00     0.029 A 
ATOM     19  N   UNL A   1      39.492  30.557  31.416  1.00  0.00    -0.354 N 
ATOM     20  C   UNL A   1      42.670  28.784  33.749  1.00  0.00     0.074 A 
ATOM     21  C   UNL A   1      43.256  27.651  33.064  1.00  0.00     0.031 C 
ATOM     22  C   UNL A   1      38.121  30.769  29.660  1.00  0.00     0.029 A 
ATOM     23  C   UNL A   1      38.456  31.338  30.960  1.00  0.00     0.049 A 
ATOM     24  H   UNL A   1      39.940  30.707  32.280  1.00  0.00     0.167 HD
ATOM     25  C   UNL A   1      43.062  29.232  34.966  1.00  0.00     0.037 A 
ATOM     26  C   UNL A   1      37.835  32.388  31.528  1.00  0.00     0.037 A 
ATOM     27  C   UNL A   1      42.485  30.372  35.635  1.00  0.00     0.049 A 
ATOM     28  C   UNL A   1      38.292  32.867  32.874  1.00  0.00     0.074 A 
ATOM     29  C   UNL A   1      42.841  30.927  36.853  1.00  0.00     0.029 A 
ATOM     30  N   UNL A   1      41.431  31.130  35.145  1.00  0.00    -0.354 N 
ATOM     31  N   UNL A   1      39.258  32.400  33.628  1.00  0.00    -0.248 NA
ATOM     32  C   UNL A   1      37.577  34.015  33.448  1.00  0.00     0.031 C 
ATOM     33  C   UNL A   1      41.980  31.999  37.116  1.00  0.00     0.029 A 
ATOM     34  C   UNL A   1      41.114  32.137  36.043  1.00  0.00     0.049 A 
ATOM     35  H   UNL A   1      40.977  30.977  34.286  1.00  0.00     0.167 HD
ATOM     36  C   UNL A   1      39.272  33.200  34.763  1.00  0.00     0.074 A 
ATOM     37  C   UNL A   1      38.233  34.194  34.587  1.00  0.00     0.031 C 
ATOM     38  C   UNL A   1      40.072  33.116  35.855  1.00  0.00     0.037 A 
BRANCH  25  39
ATOM     39  C   UNL A   1      44.162  28.484  35.669  1.00  0.00     0.058 A 
ATOM     40  C   UNL A   1      45.512  28.835  35.507  1.00  0.00     0.135 A 
ATOM     41  C   UNL A   1      43.859  27.438  36.555  1.00  0.00     0.135 A 
ATOM     42  F   UNL A   1      45.858  29.820  34.663  1.00  0.00    -0.206 F 
ATOM     43  C   UNL A   1      46.524  28.162  36.185  1.00  0.00     0.059 A 
ATOM     44  C   UNL A   1      44.854  26.765  37.260  1.00  0.00     0.059 A 
ATOM     45  F   UNL A   1      42.586  27.063  36.747  1.00  0.00    -0.206 F 
ATOM     46  C   UNL A   1      46.186  27.126  37.058  1.00  0.00     0.060 A 
BRANCH  46  47
ATOM     47  S   UNL A   1      47.508  26.269  37.939  1.00  0.00     0.124 S 
ATOM     48  O   UNL A   1      48.679  26.668  37.163  1.00  0.00    -0.237 OA
ATOM     49  O   UNL A   1      47.415  26.839  39.279  1.00  0.00    -0.237 OA
ATOM     50  O   UNL A   1      47.133  24.863  37.831  1.00  0.00    -0.744 OA
ENDBRANCH  46  47
ENDBRANCH  25  39
BRANCH  26  51
ATOM     51  C   UNL A   1      36.712  33.048  30.812  1.00  0.00     0.058 A 
ATOM     52  C   UNL A   1      35.380  32.748  31.125  1.00  0.00     0.135 A 
ATOM     53  C   UNL A   1      36.955  34.024  29.833  1.00  0.00     0.135 A 
ATOM     54  F   UNL A   1      35.101  31.818  32.052  1.00  0.00    -0.206 F 
ATOM     55  C   UNL A   1      34.322  33.389  30.488  1.00  0.00     0.059 A 
ATOM     56  C   UNL A   1      35.915  34.696  29.201  1.00  0.00     0.059 A 
ATOM     57  F   UNL A   1      38.214  34.359  29.514  1.00  0.00    -0.206 F 
ATOM     58  C   UNL A   1      34.601  34.366  29.531  1.00  0.00     0.060 A 
BRANCH  58  59
ATOM     59  S   UNL A   1      33.224  35.244  28.758  1.00  0.00     0.124 S 
ATOM     60  O   UNL A   1      33.926  36.244  27.962  1.00  0.00    -0.237 OA
ATOM     61  O   UNL A   1      32.561  34.182  28.009  1.00  0.00    -0.237 OA
ATOM     62  O   UNL A   1      32.474  35.757  29.900  1.00  0.00    -0.744 OA
ENDBRANCH  58  59
ENDBRANCH  26  51
BRANCH  38  63
ATOM     63  C   UNL A   1      39.861  34.138  36.935  1.00  0.00     0.058 A 
ATOM     64  C   UNL A   1      39.060  33.867  38.054  1.00  0.00     0.135 A 
ATOM     65  C   UNL A   1      40.491  35.390  36.863  1.00  0.00     0.135 A 
ATOM     66  F   UNL A   1      38.431  32.687  38.165  1.00  0.00    -0.206 F 
ATOM     67  C   UNL A   1      38.870  34.813  39.056  1.00  0.00     0.059 A 
ATOM     68  C   UNL A   1      40.333  36.343  37.864  1.00  0.00     0.059 A 
ATOM     69  F   UNL A   1      41.274  35.695  35.815  1.00  0.00    -0.206 F 
ATOM     70  C   UNL A   1      39.510  36.050  38.950  1.00  0.00     0.060 A 
BRANCH  70  71
ATOM     71  S   UNL A   1      39.275  37.264  40.265  1.00  0.00     0.124 S 
ATOM     72  O   UNL A   1      40.653  37.620  40.585  1.00  0.00    -0.237 OA
ATOM     73  O   UNL A   1      38.490  38.301  39.601  1.00  0.00    -0.237 OA
ATOM     74  O   UNL A   1      38.564  36.513  41.296  1.00  0.00    -0.744 OA
ENDBRANCH  70  71
ENDBRANCH  38  63
ENDBRANCH  12  13
ENDBRANCH   5   7
ENDBRANCH   2   3
ENDBRANCH   1   2
BRANCH   1  75
ATOM     75  C   UNL A   1      37.493  23.823  25.726  1.00  0.00     0.002 C 
BRANCH  75  76
ATOM     76  C   UNL A   1      36.004  23.475  25.779  1.00  0.00     0.002 C 
BRANCH  76  77
ATOM     77  C   UNL A   1      35.658  22.012  26.077  1.00  0.00     0.021 C 
BRANCH  77  78
ATOM     78  C   UNL A   1      34.428  21.788  26.955  1.00  0.00     0.116 C 
BRANCH  78  79
ATOM     79  N   UNL A   1      33.578  20.714  26.467  1.00  0.00    -0.352 N 
ATOM     80  C   UNL A   1      32.627  20.729  25.484  1.00  0.00     0.258 C 
ATOM     81  H   UNL A   1      33.707  19.845  26.912  1.00  0.00     0.163 HD
ATOM     82  O   UNL A   1      31.931  19.745  25.259  1.00  0.00    -0.269 OA
BRANCH  80  83
ATOM     83  C   UNL A   1      32.385  21.966  24.720  1.00  0.00     0.119 A 
ATOM     84  C   UNL A   1      33.144  22.097  23.530  1.00  0.00     0.052 A 
ATOM     85  C   UNL A   1      31.446  22.955  25.160  1.00  0.00     0.282 A 
ATOM     86  C   UNL A   1      32.848  23.260  22.803  1.00  0.00     0.093 A 
ATOM     87  C   UNL A   1      31.112  24.130  24.444  1.00  0.00     0.098 A 
ATOM     88  N   UNL A   1      33.350  23.702  21.641  1.00  0.00    -0.176 NA
ATOM     89  C   UNL A   1      31.861  24.202  23.277  1.00  0.00     0.026 A 
ATOM     90  N   UNL A   1      32.697  24.856  21.395  1.00  0.00    -0.285 N 
ATOM     91  C   UNL A   1      31.788  25.203  22.352  1.00  0.00     0.114 A 
ATOM     92  H   UNL A   1      32.863  25.402  20.592  1.00  0.00     0.189 HD
BRANCH  85  93
ATOM     93  N   UNL A   1      30.780  22.775  26.439  1.00  0.00     0.063 N 
ATOM     94  O   UNL A   1      29.759  22.075  26.439  1.00  0.00    -0.258 OA
ATOM     95  O   UNL A   1      31.258  23.356  27.419  1.00  0.00    -0.258 OA
ENDBRANCH  85  93
ENDBRANCH  80  83
ENDBRANCH  78  79
ENDBRANCH  77  78
ENDBRANCH  76  77
ENDBRANCH  75  76
ENDBRANCH   1  75
TORSDOF 17
ENDMDL
MODEL 2
REMARK VINA RESULT:     -11.6      4.342      5.427
REMARK SMILES O=C(NCCCCCCNC(=O)c1cc2n[nH]cc2cc1[N+](=O)[O-])c1ccc(-c2c3nc(c(-c4c(F)cc(S(=O)(=O)[O-])cc4F)c4ccc([nH]4)c(-c4c(F)cc(S(=O)(=O)[O-])cc4F)c4nc(c(-c5c(F)cc(S(=O)(=O)[O-])cc5F)c5ccc2[nH]5)C=C4)C=C3)cc1
REMARK SMILES IDX 5 1 4 2 3 3 1 4 2 5 25 7 26 8 90 9 27 10 89 11 28 12 29 13
REMARK SMILES IDX 30 14 83 15 31 16 88 17 82 18 84 19 32 20 87 21 81 22 80 23
REMARK SMILES IDX 33 25 67 26 46 27 66 28 47 29 50 30 65 31 85 32 48 33 49 34
REMARK SMILES IDX 64 36 86 37 51 38 34 39 35 40 44 41 36 42 37 43 43 44 45 45
REMARK SMILES IDX 38 46 39 47 40 48 41 49 42 50 68 51 69 52 78 53 70 54 71 55
REMARK SMILES IDX 77 56 79 57 72 58 73 59 74 60 75 61 76 62 52 63 53 64 62 65
REMARK SMILES IDX 54 66 55 67 61 68 63 69 56 70 57 71 58 72 59 73 60 74 6 75
REMARK SMILES IDX 7 76 8 77 9 78 10 79 11 80 12 82 13 83 14 84 21 85 15 86
REMARK SMILES IDX 20 87 16 88 19 89 17 90 18 91 22 93 23 94 24 95
REMARK H PARENT 3 6 84 24 50 35 10 81 17 92
REMARK Flexibility Score: inf
ROOT
ATOM      1  C   UNL A   1      45.842  25.121  26.774  1.00  0.00     0.021 C 
ENDROOT
BRANCH   1   2
ATOM      2  C   UNL A   1      45.303  26.257  25.913  1.00  0.00     0.116 C 
BRANCH   2   3
ATOM      3  N   UNL A   1      44.112  25.889  25.166  1.00  0.00    -0.352 N 
ATOM      4  O   UNL A   1      41.910  25.574  24.803  1.00  0.00    -0.269 OA
ATOM      5  C   UNL A   1      42.791  26.062  25.504  1.00  0.00     0.251 C 
ATOM      6  H   UNL A   1      44.274  25.455  24.297  1.00  0.00     0.163 HD
BRANCH   5   7
ATOM      7  C   UNL A   1      42.434  26.814  26.730  1.00  0.00     0.039 A 
ATOM      8  C   UNL A   1      42.835  28.141  26.900  1.00  0.00     0.014 A 
ATOM      9  C   UNL A   1      41.680  26.178  27.721  1.00  0.00     0.014 A 
ATOM     10  C   UNL A   1      42.596  28.787  28.110  1.00  0.00     0.010 A 
ATOM     11  C   UNL A   1      41.376  26.855  28.907  1.00  0.00     0.010 A 
ATOM     12  C   UNL A   1      41.854  28.156  29.122  1.00  0.00    -0.014 A 
BRANCH  12  13
ATOM     13  C   UNL A   1      41.537  28.903  30.367  1.00  0.00     0.031 A 
ATOM     14  C   UNL A   1      42.384  28.760  31.601  1.00  0.00     0.074 A 
ATOM     15  C   UNL A   1      40.479  29.737  30.365  1.00  0.00     0.049 A 
ATOM     16  N   UNL A   1      42.254  29.355  32.760  1.00  0.00    -0.248 NA
ATOM     17  C   UNL A   1      43.517  27.824  31.533  1.00  0.00     0.031 C 
ATOM     18  C   UNL A   1      39.572  29.940  29.232  1.00  0.00     0.029 A 
ATOM     19  N   UNL A   1      39.994  30.577  31.333  1.00  0.00    -0.354 N 
ATOM     20  C   UNL A   1      43.272  28.857  33.564  1.00  0.00     0.074 A 
ATOM     21  C   UNL A   1      44.002  27.893  32.767  1.00  0.00     0.031 C 
ATOM     22  C   UNL A   1      38.666  30.874  29.556  1.00  0.00     0.029 A 
ATOM     23  C   UNL A   1      38.893  31.298  30.932  1.00  0.00     0.049 A 
ATOM     24  H   UNL A   1      40.394  30.658  32.229  1.00  0.00     0.167 HD
ATOM     25  C   UNL A   1      43.573  29.178  34.846  1.00  0.00     0.037 A 
ATOM     26  C   UNL A   1      38.141  32.192  31.601  1.00  0.00     0.037 A 
ATOM     27  C   UNL A   1      42.852  30.152  35.627  1.00  0.00     0.049 A 
ATOM     28  C   UNL A   1      38.499  32.535  33.017  1.00  0.00     0.074 A 
ATOM     29  C   UNL A   1      43.104  30.576  36.922  1.00  0.00     0.029 A 
ATOM     30  N   UNL A   1      41.737  30.853  35.190  1.00  0.00    -0.354 N 
ATOM     31  N   UNL A   1      39.486  32.076  33.749  1.00  0.00    -0.248 NA
ATOM     32  C   UNL A   1      37.643  33.514  33.699  1.00  0.00     0.031 C 
ATOM     33  C   UNL A   1      42.122  31.506  37.279  1.00  0.00     0.029 A 
ATOM     34  C   UNL A   1      41.281  31.693  36.194  1.00  0.00     0.049 A 
ATOM     35  H   UNL A   1      41.330  30.768  34.298  1.00  0.00     0.167 HD
ATOM     36  C   UNL A   1      39.375  32.716  34.977  1.00  0.00     0.074 A 
ATOM     37  C   UNL A   1      38.238  33.609  34.881  1.00  0.00     0.031 C 
ATOM     38  C   UNL A   1      40.144  32.573  36.084  1.00  0.00     0.037 A 
BRANCH  25  39
ATOM     39  C   UNL A   1      44.725  28.464  35.497  1.00  0.00     0.058 A 
ATOM     40  C   UNL A   1      46.031  28.977  35.451  1.00  0.00     0.135 A 
ATOM     41  C   UNL A   1      44.513  27.280  36.221  1.00  0.00     0.135 A 
ATOM     42  F   UNL A   1      46.293  30.100  34.762  1.00  0.00    -0.206 F 
ATOM     43  C   UNL A   1      47.090  28.331  36.083  1.00  0.00     0.059 A 
ATOM     44  C   UNL A   1      45.553  26.628  36.879  1.00  0.00     0.059 A 
ATOM     45  F   UNL A   1      43.285  26.747  36.298  1.00  0.00    -0.206 F 
ATOM     46  C   UNL A   1      46.841  27.155  36.793  1.00  0.00     0.060 A 
BRANCH  46  47
ATOM     47  S   UNL A   1      48.221  26.333  37.617  1.00  0.00     0.124 S 
ATOM     48  O   UNL A   1      49.318  27.255  37.335  1.00  0.00    -0.237 OA
ATOM     49  O   UNL A   1      47.775  26.287  39.006  1.00  0.00    -0.237 OA
ATOM     50  O   UNL A   1      48.299  25.041  36.944  1.00  0.00    -0.744 OA
ENDBRANCH  46  47
ENDBRANCH  25  39
BRANCH  26  51
ATOM     51  C   UNL A   1      36.977  32.819  30.924  1.00  0.00     0.058 A 
ATOM     52  C   UNL A   1      35.679  32.327  31.116  1.00  0.00     0.135 A 
ATOM     53  C   UNL A   1      37.138  33.950  30.109  1.00  0.00     0.135 A 
ATOM     54  F   UNL A   1      35.478  31.245  31.885  1.00  0.00    -0.206 F 
ATOM     55  C   UNL A   1      34.578  32.930  30.519  1.00  0.00     0.059 A 
ATOM     56  C   UNL A   1      36.050  34.585  29.521  1.00  0.00     0.059 A 
ATOM     57  F   UNL A   1      38.359  34.468  29.912  1.00  0.00    -0.206 F 
ATOM     58  C   UNL A   1      34.774  34.063  29.726  1.00  0.00     0.060 A 
BRANCH  58  59
ATOM     59  S   UNL A   1      33.332  34.884  29.010  1.00  0.00     0.124 S 
ATOM     60  O   UNL A   1      32.523  35.140  30.196  1.00  0.00    -0.237 OA
ATOM     61  O   UNL A   1      33.928  36.057  28.377  1.00  0.00    -0.237 OA
ATOM     62  O   UNL A   1      32.804  33.885  28.087  1.00  0.00    -0.744 OA
ENDBRANCH  58  59
ENDBRANCH  26  51
BRANCH  38  63
ATOM     63  C   UNL A   1      39.786  33.415  37.276  1.00  0.00     0.058 A 
ATOM     64  C   UNL A   1      40.410  34.649  37.515  1.00  0.00     0.135 A 
ATOM     65  C   UNL A   1      38.788  32.997  38.169  1.00  0.00     0.135 A 
ATOM     66  F   UNL A   1      41.377  35.088  36.694  1.00  0.00    -0.206 F 
ATOM     67  C   UNL A   1      40.074  35.429  38.615  1.00  0.00     0.059 A 
ATOM     68  C   UNL A   1      38.420  33.772  39.263  1.00  0.00     0.059 A 
ATOM     69  F   UNL A   1      38.156  31.827  37.979  1.00  0.00    -0.206 F 
ATOM     70  C   UNL A   1      39.078  34.981  39.486  1.00  0.00     0.060 A 
BRANCH  70  71
ATOM     71  S   UNL A   1      38.632  36.011  40.900  1.00  0.00     0.124 S 
ATOM     72  O   UNL A   1      39.852  35.957  41.698  1.00  0.00    -0.237 OA
ATOM     73  O   UNL A   1      38.340  37.298  40.275  1.00  0.00    -0.237 OA
ATOM     74  O   UNL A   1      37.478  35.322  41.470  1.00  0.00    -0.744 OA
ENDBRANCH  70  71
ENDBRANCH  38  63
ENDBRANCH  12  13
ENDBRANCH   5   7
ENDBRANCH   2   3
ENDBRANCH   1   2
BRANCH   1  75
ATOM     75  C   UNL A   1      45.369  25.111  28.227  1.00  0.00     0.002 C 
BRANCH  75  76
ATOM     76  C   UNL A   1      44.950  23.751  28.790  1.00  0.00     0.002 C 
BRANCH  76  77
ATOM     77  C   UNL A   1      43.578  23.691  29.472  1.00  0.00     0.021 C 
BRANCH  77  78
ATOM     78  C   UNL A   1      42.710  22.489  29.107  1.00  0.00     0.116 C 
BRANCH  78  79
ATOM     79  N   UNL A   1      41.664  22.820  28.153  1.00  0.00    -0.352 N 
ATOM     80  C   UNL A   1      41.548  22.486  26.832  1.00  0.00     0.258 C 
ATOM     81  H   UNL A   1      40.929  23.367  28.513  1.00  0.00     0.163 HD
ATOM     82  O   UNL A   1      40.635  22.929  26.143  1.00  0.00    -0.269 OA
BRANCH  80  83
ATOM     83  C   UNL A   1      42.568  21.628  26.202  1.00  0.00     0.119 A 
ATOM     84  C   UNL A   1      43.695  22.314  25.682  1.00  0.00     0.052 A 
ATOM     85  C   UNL A   1      42.417  20.205  26.127  1.00  0.00     0.282 A 
ATOM     86  C   UNL A   1      44.667  21.460  25.139  1.00  0.00     0.093 A 
ATOM     87  C   UNL A   1      43.384  19.315  25.600  1.00  0.00     0.098 A 
ATOM     88  N   UNL A   1      45.852  21.748  24.580  1.00  0.00    -0.176 NA
ATOM     89  C   UNL A   1      44.478  20.029  25.129  1.00  0.00     0.026 A 
ATOM     90  N   UNL A   1      46.381  20.553  24.250  1.00  0.00    -0.285 N 
ATOM     91  C   UNL A   1      45.592  19.483  24.559  1.00  0.00     0.114 A 
ATOM     92  H   UNL A   1      47.263  20.460  23.822  1.00  0.00     0.189 HD
BRANCH  85  93
ATOM     93  N   UNL A   1      41.186  19.600  26.606  1.00  0.00     0.063 N 
ATOM     94  O   UNL A   1      40.395  19.194  25.745  1.00  0.00    -0.258 OA
ATOM     95  O   UNL A   1      41.004  19.565  27.828  1.00  0.00    -0.258 OA
ENDBRANCH  85  93
ENDBRANCH  80  83
ENDBRANCH  78  79
ENDBRANCH  77  78
ENDBRANCH  76  77
ENDBRANCH  75  76
ENDBRANCH   1  75
TORSDOF 17
ENDMDL
MODEL 3
REMARK VINA RESULT:     -11.6      6.218      8.414
REMARK SMILES O=C(NCCCCCCNC(=O)c1cc2n[nH]cc2cc1[N+](=O)[O-])c1ccc(-c2c3nc(c(-c4c(F)cc(S(=O)(=O)[O-])cc4F)c4ccc([nH]4)c(-c4c(F)cc(S(=O)(=O)[O-])cc4F)c4nc(c(-c5c(F)cc(S(=O)(=O)[O-])cc5F)c5ccc2[nH]5)C=C4)C=C3)cc1
REMARK SMILES IDX 5 1 4 2 3 3 1 4 2 5 25 7 26 8 90 9 27 10 89 11 28 12 29 13
REMARK SMILES IDX 30 14 83 15 31 16 88 17 82 18 84 19 32 20 87 21 81 22 80 23
REMARK SMILES IDX 33 25 67 26 46 27 66 28 47 29 50 30 65 31 85 32 48 33 49 34
REMARK SMILES IDX 64 36 86 37 51 38 34 39 35 40 44 41 36 42 37 43 43 44 45 45
REMARK SMILES IDX 38 46 39 47 40 48 41 49 42 50 68 51 69 52 78 53 70 54 71 55
REMARK SMILES IDX 77 56 79 57 72 58 73 59 74 60 75 61 76 62 52 63 53 64 62 65
REMARK SMILES IDX 54 66 55 67 61 68 63 69 56 70 57 71 58 72 59 73 60 74 6 75
REMARK SMILES IDX 7 76 8 77 9 78 10 79 11 80 12 82 13 83 14 84 21 85 15 86
REMARK SMILES IDX 20 87 16 88 19 89 17 90 18 91 22 93 23 94 24 95
REMARK H PARENT 3 6 84 24 50 35 10 81 17 92
REMARK Flexibility Score: inf
ROOT
ATOM      1  C   UNL A   1      38.462  19.977  25.018  1.00  0.00     0.021 C 
ENDROOT
BRANCH   1   2
ATOM      2  C   UNL A   1      39.548  20.369  26.013  1.00  0.00     0.116 C 
BRANCH   2   3
ATOM      3  N   UNL A   1      40.570  19.348  26.170  1.00  0.00    -0.352 N 
ATOM      4  O   UNL A   1      42.657  18.521  26.376  1.00  0.00    -0.269 OA
ATOM      5  C   UNL A   1      41.919  19.501  26.393  1.00  0.00     0.251 C 
ATOM      6  H   UNL A   1      40.254  18.418  26.108  1.00  0.00     0.163 HD
BRANCH   5   7
ATOM      7  C   UNL A   1      42.481  20.852  26.626  1.00  0.00     0.039 A 
ATOM      8  C   UNL A   1      42.613  21.361  27.920  1.00  0.00     0.014 A 
ATOM      9  C   UNL A   1      42.887  21.616  25.528  1.00  0.00     0.014 A 
ATOM     10  C   UNL A   1      43.027  22.676  28.107  1.00  0.00     0.010 A 
ATOM     11  C   UNL A   1      43.374  22.913  25.724  1.00  0.00     0.010 A 
ATOM     12  C   UNL A   1      43.423  23.463  27.013  1.00  0.00    -0.014 A 
BRANCH  12  13
ATOM     13  C   UNL A   1      43.947  24.833  27.252  1.00  0.00     0.031 A 
ATOM     14  C   UNL A   1      45.394  25.169  27.016  1.00  0.00     0.074 A 
ATOM     15  C   UNL A   1      43.089  25.787  27.667  1.00  0.00     0.049 A 
ATOM     16  N   UNL A   1      46.003  26.319  27.157  1.00  0.00    -0.248 NA
ATOM     17  C   UNL A   1      46.272  24.076  26.572  1.00  0.00     0.031 C 
ATOM     18  C   UNL A   1      41.668  25.572  27.951  1.00  0.00     0.029 A 
ATOM     19  N   UNL A   1      43.278  27.122  27.910  1.00  0.00    -0.354 N 
ATOM     20  C   UNL A   1      47.337  26.088  26.839  1.00  0.00     0.074 A 
ATOM     21  C   UNL A   1      47.453  24.681  26.516  1.00  0.00     0.031 C 
ATOM     22  C   UNL A   1      41.106  26.741  28.290  1.00  0.00     0.029 A 
ATOM     23  C   UNL A   1      42.133  27.776  28.299  1.00  0.00     0.049 A 
ATOM     24  H   UNL A   1      44.149  27.572  27.814  1.00  0.00     0.167 HD
ATOM     25  C   UNL A   1      48.366  26.969  26.814  1.00  0.00     0.037 A 
ATOM     26  C   UNL A   1      41.931  29.063  28.638  1.00  0.00     0.037 A 
ATOM     27  C   UNL A   1      48.238  28.373  27.120  1.00  0.00     0.049 A 
ATOM     28  C   UNL A   1      43.086  30.020  28.596  1.00  0.00     0.074 A 
ATOM     29  C   UNL A   1      49.215  29.354  27.085  1.00  0.00     0.029 A 
ATOM     30  N   UNL A   1      47.064  28.995  27.521  1.00  0.00    -0.354 N 
ATOM     31  N   UNL A   1      44.333  29.788  28.261  1.00  0.00    -0.248 NA
ATOM     32  C   UNL A   1      42.810  31.410  28.979  1.00  0.00     0.031 C 
ATOM     33  C   UNL A   1      48.640  30.562  27.497  1.00  0.00     0.029 A 
ATOM     34  C   UNL A   1      47.296  30.342  27.751  1.00  0.00     0.049 A 
ATOM     35  H   UNL A   1      46.195  28.546  27.625  1.00  0.00     0.167 HD
ATOM     36  C   UNL A   1      44.990  31.005  28.385  1.00  0.00     0.074 A 
ATOM     37  C   UNL A   1      43.998  31.975  28.805  1.00  0.00     0.031 C 
ATOM     38  C   UNL A   1      46.298  31.292  28.173  1.00  0.00     0.037 A 
BRANCH  25  39
ATOM     39  C   UNL A   1      49.729  26.446  26.455  1.00  0.00     0.058 A 
ATOM     40  C   UNL A   1      50.550  25.815  27.403  1.00  0.00     0.135 A 
ATOM     41  C   UNL A   1      50.200  26.530  25.135  1.00  0.00     0.135 A 
ATOM     42  F   UNL A   1      50.154  25.718  28.683  1.00  0.00    -0.206 F 
ATOM     43  C   UNL A   1      51.797  25.302  27.059  1.00  0.00     0.059 A 
ATOM     44  C   UNL A   1      51.435  26.005  24.763  1.00  0.00     0.059 A 
ATOM     45  F   UNL A   1      49.455  27.122  24.189  1.00  0.00    -0.206 F 
ATOM     46  C   UNL A   1      52.232  25.404  25.736  1.00  0.00     0.060 A 
BRANCH  46  47
ATOM     47  S   UNL A   1      53.848  24.725  25.302  1.00  0.00     0.124 S 
ATOM     48  O   UNL A   1      54.614  24.999  26.514  1.00  0.00    -0.237 OA
ATOM     49  O   UNL A   1      53.542  23.320  25.052  1.00  0.00    -0.237 OA
ATOM     50  O   UNL A   1      54.237  25.498  24.127  1.00  0.00    -0.744 OA
ENDBRANCH  46  47
ENDBRANCH  25  39
BRANCH  26  51
ATOM     51  C   UNL A   1      40.573  29.508  29.045  1.00  0.00     0.058 A 
ATOM     52  C   UNL A   1      39.540  29.623  28.106  1.00  0.00     0.135 A 
ATOM     53  C   UNL A   1      40.275  29.782  30.389  1.00  0.00     0.135 A 
ATOM     54  F   UNL A   1      39.779  29.374  26.809  1.00  0.00    -0.206 F 
ATOM     55  C   UNL A   1      38.255  30.000  28.483  1.00  0.00     0.059 A 
ATOM     56  C   UNL A   1      38.993  30.137  30.793  1.00  0.00     0.059 A 
ATOM     57  F   UNL A   1      41.228  29.667  31.325  1.00  0.00    -0.206 F 
ATOM     58  C   UNL A   1      37.991  30.250  29.831  1.00  0.00     0.060 A 
BRANCH  58  59
ATOM     59  S   UNL A   1      36.305  30.671  30.324  1.00  0.00     0.124 S 
ATOM     60  O   UNL A   1      35.634  30.751  29.032  1.00  0.00    -0.237 OA
ATOM     61  O   UNL A   1      35.937  29.536  31.166  1.00  0.00    -0.237 OA
ATOM     62  O   UNL A   1      36.470  31.937  31.031  1.00  0.00    -0.744 OA
ENDBRANCH  58  59
ENDBRANCH  26  51
BRANCH  38  63
ATOM     63  C   UNL A   1      46.725  32.718  28.379  1.00  0.00     0.058 A 
ATOM     64  C   UNL A   1      46.642  33.664  27.346  1.00  0.00     0.135 A 
ATOM     65  C   UNL A   1      47.191  33.148  29.631  1.00  0.00     0.135 A 
ATOM     66  F   UNL A   1      46.209  33.300  26.129  1.00  0.00    -0.206 F 
ATOM     67  C   UNL A   1      47.032  34.985  27.540  1.00  0.00     0.059 A 
ATOM     68  C   UNL A   1      47.566  34.468  29.853  1.00  0.00     0.059 A 
ATOM     69  F   UNL A   1      47.282  32.282  30.654  1.00  0.00    -0.206 F 
ATOM     70  C   UNL A   1      47.495  35.377  28.798  1.00  0.00     0.060 A 
BRANCH  70  71
ATOM     71  S   UNL A   1      47.980  37.098  29.048  1.00  0.00     0.124 S 
ATOM     72  O   UNL A   1      49.006  37.265  28.025  1.00  0.00    -0.237 OA
ATOM     73  O   UNL A   1      46.730  37.816  28.813  1.00  0.00    -0.237 OA
ATOM     74  O   UNL A   1      48.457  37.119  30.427  1.00  0.00    -0.744 OA
ENDBRANCH  70  71
ENDBRANCH  38  63
ENDBRANCH  12  13
ENDBRANCH   5   7
ENDBRANCH   2   3
ENDBRANCH   1   2
BRANCH   1  75
ATOM     75  C   UNL A   1      37.425  21.058  24.713  1.00  0.00     0.002 C 
BRANCH  75  76
ATOM     76  C   UNL A   1      36.065  20.900  25.397  1.00  0.00     0.002 C 
BRANCH  76  77
ATOM     77  C   UNL A   1      35.588  22.087  26.242  1.00  0.00     0.021 C 
BRANCH  77  78
ATOM     78  C   UNL A   1      34.273  21.880  26.991  1.00  0.00     0.116 C 
BRANCH  78  79
ATOM     79  N   UNL A   1      33.488  20.780  26.455  1.00  0.00    -0.352 N 
ATOM     80  C   UNL A   1      32.585  20.769  25.427  1.00  0.00     0.258 C 
ATOM     81  H   UNL A   1      33.627  19.912  26.899  1.00  0.00     0.163 HD
ATOM     82  O   UNL A   1      31.938  19.762  25.161  1.00  0.00    -0.269 OA
BRANCH  80  83
ATOM     83  C   UNL A   1      32.335  22.003  24.661  1.00  0.00     0.119 A 
ATOM     84  C   UNL A   1      33.096  22.140  23.473  1.00  0.00     0.052 A 
ATOM     85  C   UNL A   1      31.386  22.984  25.098  1.00  0.00     0.282 A 
ATOM     86  C   UNL A   1      32.791  23.300  22.745  1.00  0.00     0.093 A 
ATOM     87  C   UNL A   1      31.044  24.156  24.380  1.00  0.00     0.098 A 
ATOM     88  N   UNL A   1      33.293  23.746  21.583  1.00  0.00    -0.176 NA
ATOM     89  C   UNL A   1      31.795  24.233  23.215  1.00  0.00     0.026 A 
ATOM     90  N   UNL A   1      32.631  24.893  21.335  1.00  0.00    -0.285 N 
ATOM     91  C   UNL A   1      31.716  25.233  22.289  1.00  0.00     0.114 A 
ATOM     92  H   UNL A   1      32.794  25.440  20.532  1.00  0.00     0.189 HD
BRANCH  85  93
ATOM     93  N   UNL A   1      30.718  22.800  26.375  1.00  0.00     0.063 N 
ATOM     94  O   UNL A   1      31.158  23.452  27.331  1.00  0.00    -0.258 OA
ATOM     95  O   UNL A   1      29.788  21.987  26.422  1.00  0.00    -0.258 OA
ENDBRANCH  85  93
ENDBRANCH  80  83
ENDBRANCH  78  79
ENDBRANCH  77  78
ENDBRANCH  76  77
ENDBRANCH  75  76
ENDBRANCH   1  75
TORSDOF 17
ENDMDL
