MODEL 1
REMARK VINA RESULT:     -10.1      0.000      0.000
REMARK SMILES CC(C)(C[NH2+]CCc1cccnc1)C(=O)NCCCCCCNC(=O)c1ccc(-c2c3nc(c(-c4c(F)cc(S(=O)(=O)[O-])cc4F)c4ccc([nH]4)c(-c4c(F)cc(S(=O)(=O)[O-])cc4F)c4nc(c(-c5c(F)cc(S(=O)(=O)[O-])cc5F)c5ccc2[nH]5)C=C4)C=C3)cc1
REMARK SMILES IDX 18 1 17 2 16 3 14 4 15 5 2 7 1 8 3 9 4 10 5 11 6 14 7 15
REMARK SMILES IDX 8 16 9 17 13 18 10 19 12 20 11 21 19 22 20 23 21 24 22 25
REMARK SMILES IDX 23 26 24 27 25 29 26 30 27 31 91 32 28 33 90 34 29 35 30 36
REMARK SMILES IDX 31 37 84 38 32 39 89 40 83 41 85 42 33 43 88 44 82 45 81 46
REMARK SMILES IDX 34 48 68 49 47 50 67 51 48 52 51 53 66 54 86 55 49 56 50 57
REMARK SMILES IDX 65 59 87 60 52 61 35 62 36 63 45 64 37 65 38 66 44 67 46 68
REMARK SMILES IDX 39 69 40 70 41 71 42 72 43 73 69 74 70 75 79 76 71 77 72 78
REMARK SMILES IDX 78 79 80 80 73 81 74 82 75 83 76 84 77 85 53 86 54 87 63 88
REMARK SMILES IDX 55 89 56 90 62 91 64 92 57 93 58 94 59 95 60 96 61 97
REMARK H PARENT 16 6 5 12 5 13 23 28 85 47 51 58
REMARK Flexibility Score: inf
ROOT
ATOM      1  C   UNL A   1      31.322  28.636  22.678  1.00  0.00     0.021 C 
ENDROOT
BRANCH   1   2
ATOM      2  C   UNL A   1      30.885  27.195  22.420  1.00  0.00     0.116 C 
BRANCH   2   3
ATOM      3  N   UNL A   1      31.683  26.578  21.382  1.00  0.00    -0.355 N 
ATOM      4  C   UNL A   1      32.507  25.497  21.391  1.00  0.00     0.231 C 
ATOM      5  O   UNL A   1      33.107  25.270  20.334  1.00  0.00    -0.274 OA
ATOM      6  H   UNL A   1      31.616  27.025  20.507  1.00  0.00     0.163 HD
BRANCH   4   7
ATOM      7  C   UNL A   1      32.646  24.563  22.610  1.00  0.00     0.092 C 
ATOM      8  C   UNL A   1      33.348  23.260  22.141  1.00  0.00     0.027 C 
ATOM      9  C   UNL A   1      31.245  24.144  23.096  1.00  0.00     0.027 C 
BRANCH   7  10
ATOM     10  C   UNL A   1      33.475  25.173  23.773  1.00  0.00     0.276 C 
BRANCH  10  11
ATOM     11  N   UNL A   1      32.880  24.933  25.088  1.00  0.00    -0.345 N 
ATOM     12  H   UNL A   1      32.215  24.164  25.000  1.00  0.00     0.346 HD
ATOM     13  H   UNL A   1      32.443  25.810  25.371  1.00  0.00     0.346 HD
BRANCH  11  14
ATOM     14  C   UNL A   1      33.840  24.589  26.140  1.00  0.00     0.265 C 
BRANCH  14  15
ATOM     15  C   UNL A   1      33.692  23.216  26.824  1.00  0.00     0.098 C 
BRANCH  15  16
ATOM     16  C   UNL A   1      33.512  21.994  25.958  1.00  0.00    -0.024 A 
ATOM     17  C   UNL A   1      32.286  21.547  25.459  1.00  0.00     0.007 A 
ATOM     18  C   UNL A   1      34.641  21.261  25.589  1.00  0.00     0.114 A 
ATOM     19  C   UNL A   1      32.229  20.387  24.690  1.00  0.00     0.020 A 
ATOM     20  N   UNL A   1      34.619  20.143  24.828  1.00  0.00    -0.264 NA
ATOM     21  C   UNL A   1      33.410  19.726  24.404  1.00  0.00     0.111 A 
ENDBRANCH  15  16
ENDBRANCH  14  15
ENDBRANCH  11  14
ENDBRANCH  10  11
ENDBRANCH   7  10
ENDBRANCH   4   7
ENDBRANCH   2   3
ENDBRANCH   1   2
BRANCH   1  22
ATOM     22  C   UNL A   1      30.881  29.186  24.039  1.00  0.00     0.002 C 
BRANCH  22  23
ATOM     23  C   UNL A   1      31.690  28.677  25.237  1.00  0.00     0.002 C 
BRANCH  23  24
ATOM     24  C   UNL A   1      33.193  28.532  24.987  1.00  0.00     0.021 C 
BRANCH  24  25
ATOM     25  C   UNL A   1      34.056  28.672  26.237  1.00  0.00     0.116 C 
BRANCH  25  26
ATOM     26  N   UNL A   1      33.786  29.915  26.941  1.00  0.00    -0.352 N 
ATOM     27  C   UNL A   1      34.525  30.536  27.916  1.00  0.00     0.251 C 
ATOM     28  H   UNL A   1      32.957  30.377  26.683  1.00  0.00     0.163 HD
ATOM     29  O   UNL A   1      34.038  31.463  28.558  1.00  0.00    -0.269 OA
BRANCH  27  30
ATOM     30  C   UNL A   1      35.901  30.076  28.199  1.00  0.00     0.039 A 
ATOM     31  C   UNL A   1      36.863  30.152  27.190  1.00  0.00     0.014 A 
ATOM     32  C   UNL A   1      36.239  29.566  29.457  1.00  0.00     0.014 A 
ATOM     33  C   UNL A   1      38.178  29.768  27.460  1.00  0.00     0.010 A 
ATOM     34  C   UNL A   1      37.565  29.257  29.746  1.00  0.00     0.010 A 
ATOM     35  C   UNL A   1      38.547  29.349  28.750  1.00  0.00    -0.014 A 
BRANCH  35  36
ATOM     36  C   UNL A   1      39.955  29.003  29.073  1.00  0.00     0.031 A 
ATOM     37  C   UNL A   1      40.859  30.026  29.708  1.00  0.00     0.074 A 
ATOM     38  C   UNL A   1      40.436  27.789  28.737  1.00  0.00     0.049 A 
ATOM     39  N   UNL A   1      42.128  29.933  30.008  1.00  0.00    -0.248 NA
ATOM     40  C   UNL A   1      40.263  31.334  30.025  1.00  0.00     0.031 C 
ATOM     41  C   UNL A   1      39.671  26.730  28.075  1.00  0.00     0.029 A 
ATOM     42  N   UNL A   1      41.684  27.243  28.899  1.00  0.00    -0.354 N 
ATOM     43  C   UNL A   1      42.486  31.167  30.537  1.00  0.00     0.074 A 
ATOM     44  C   UNL A   1      41.314  32.011  30.463  1.00  0.00     0.031 C 
ATOM     45  C   UNL A   1      40.458  25.655  27.910  1.00  0.00     0.029 A 
ATOM     46  C   UNL A   1      41.794  25.960  28.413  1.00  0.00     0.049 A 
ATOM     47  H   UNL A   1      42.432  27.724  29.322  1.00  0.00     0.167 HD
ATOM     48  C   UNL A   1      43.675  31.554  31.058  1.00  0.00     0.037 A 
ATOM     49  C   UNL A   1      42.852  25.128  28.368  1.00  0.00     0.037 A 
ATOM     50  C   UNL A   1      44.831  30.700  31.143  1.00  0.00     0.049 A 
ATOM     51  C   UNL A   1      44.167  25.585  28.941  1.00  0.00     0.074 A 
ATOM     52  C   UNL A   1      46.067  30.977  31.702  1.00  0.00     0.029 A 
ATOM     53  N   UNL A   1      44.899  29.404  30.651  1.00  0.00    -0.354 N 
ATOM     54  N   UNL A   1      44.469  26.734  29.496  1.00  0.00    -0.248 NA
ATOM     55  C   UNL A   1      45.283  24.631  28.887  1.00  0.00     0.031 C 
ATOM     56  C   UNL A   1      46.898  29.871  31.500  1.00  0.00     0.029 A 
ATOM     57  C   UNL A   1      46.163  28.879  30.870  1.00  0.00     0.049 A 
ATOM     58  H   UNL A   1      44.159  28.928  30.211  1.00  0.00     0.167 HD
ATOM     59  C   UNL A   1      45.800  26.630  29.886  1.00  0.00     0.074 A 
ATOM     60  C   UNL A   1      46.240  25.302  29.512  1.00  0.00     0.031 C 
ATOM     61  C   UNL A   1      46.586  27.551  30.498  1.00  0.00     0.037 A 
BRANCH  48  62
ATOM     62  C   UNL A   1      43.786  32.963  31.577  1.00  0.00     0.058 A 
ATOM     63  C   UNL A   1      44.246  34.015  30.769  1.00  0.00     0.135 A 
ATOM     64  C   UNL A   1      43.394  33.273  32.890  1.00  0.00     0.135 A 
ATOM     65  F   UNL A   1      44.648  33.776  29.510  1.00  0.00    -0.206 F 
ATOM     66  C   UNL A   1      44.345  35.316  31.252  1.00  0.00     0.059 A 
ATOM     67  C   UNL A   1      43.454  34.573  33.385  1.00  0.00     0.059 A 
ATOM     68  F   UNL A   1      42.945  32.307  33.708  1.00  0.00    -0.206 F 
ATOM     69  C   UNL A   1      43.946  35.585  32.562  1.00  0.00     0.060 A 
BRANCH  69  70
ATOM     70  S   UNL A   1      44.079  37.279  33.172  1.00  0.00     0.124 S 
ATOM     71  O   UNL A   1      44.063  38.039  31.926  1.00  0.00    -0.237 OA
ATOM     72  O   UNL A   1      42.889  37.404  34.006  1.00  0.00    -0.237 OA
ATOM     73  O   UNL A   1      45.349  37.284  33.892  1.00  0.00    -0.744 OA
ENDBRANCH  69  70
ENDBRANCH  48  62
BRANCH  49  74
ATOM     74  C   UNL A   1      42.705  23.771  27.775  1.00  0.00     0.058 A 
ATOM     75  C   UNL A   1      42.477  22.649  28.585  1.00  0.00     0.135 A 
ATOM     76  C   UNL A   1      42.775  23.570  26.388  1.00  0.00     0.135 A 
ATOM     77  F   UNL A   1      42.408  22.787  29.919  1.00  0.00    -0.206 F 
ATOM     78  C   UNL A   1      42.340  21.375  28.045  1.00  0.00     0.059 A 
ATOM     79  C   UNL A   1      42.614  22.309  25.822  1.00  0.00     0.059 A 
ATOM     80  F   UNL A   1      42.974  24.612  25.566  1.00  0.00    -0.206 F 
ATOM     81  C   UNL A   1      42.406  21.216  26.660  1.00  0.00     0.060 A 
BRANCH  81  82
ATOM     82  S   UNL A   1      42.178  19.564  25.966  1.00  0.00     0.124 S 
ATOM     83  O   UNL A   1      40.755  19.573  25.649  1.00  0.00    -0.237 OA
ATOM     84  O   UNL A   1      43.089  19.583  24.826  1.00  0.00    -0.237 OA
ATOM     85  O   UNL A   1      42.575  18.683  27.061  1.00  0.00    -0.744 OA
ENDBRANCH  81  82
ENDBRANCH  49  74
BRANCH  61  86
ATOM     86  C   UNL A   1      47.994  27.146  30.840  1.00  0.00     0.058 A 
ATOM     87  C   UNL A   1      48.287  26.373  31.975  1.00  0.00     0.135 A 
ATOM     88  C   UNL A   1      49.058  27.493  29.990  1.00  0.00     0.135 A 
ATOM     89  F   UNL A   1      47.310  26.019  32.824  1.00  0.00    -0.206 F 
ATOM     90  C   UNL A   1      49.589  25.980  32.268  1.00  0.00     0.059 A 
ATOM     91  C   UNL A   1      50.362  27.083  30.247  1.00  0.00     0.059 A 
ATOM     92  F   UNL A   1      48.831  28.221  28.887  1.00  0.00    -0.206 F 
ATOM     93  C   UNL A   1      50.620  26.336  31.395  1.00  0.00     0.060 A 
BRANCH  93  94
ATOM     94  S   UNL A   1      52.299  25.787  31.770  1.00  0.00     0.124 S 
ATOM     95  O   UNL A   1      52.956  25.947  30.476  1.00  0.00    -0.237 OA
ATOM     96  O   UNL A   1      52.708  26.726  32.810  1.00  0.00    -0.237 OA
ATOM     97  O   UNL A   1      52.115  24.409  32.213  1.00  0.00    -0.744 OA
ENDBRANCH  93  94
ENDBRANCH  61  86
ENDBRANCH  35  36
ENDBRANCH  27  30
ENDBRANCH  25  26
ENDBRANCH  24  25
ENDBRANCH  23  24
ENDBRANCH  22  23
ENDBRANCH   1  22
TORSDOF 21
ENDMDL
MODEL 2
REMARK VINA RESULT:      -9.8      0.868      2.030
REMARK SMILES CC(C)(C[NH2+]CCc1cccnc1)C(=O)NCCCCCCNC(=O)c1ccc(-c2c3nc(c(-c4c(F)cc(S(=O)(=O)[O-])cc4F)c4ccc([nH]4)c(-c4c(F)cc(S(=O)(=O)[O-])cc4F)c4nc(c(-c5c(F)cc(S(=O)(=O)[O-])cc5F)c5ccc2[nH]5)C=C4)C=C3)cc1
REMARK SMILES IDX 18 1 17 2 16 3 14 4 15 5 2 7 1 8 3 9 4 10 5 11 6 14 7 15
REMARK SMILES IDX 8 16 9 17 13 18 10 19 12 20 11 21 19 22 20 23 21 24 22 25
REMARK SMILES IDX 23 26 24 27 25 29 26 30 27 31 91 32 28 33 90 34 29 35 30 36
REMARK SMILES IDX 31 37 84 38 32 39 89 40 83 41 85 42 33 43 88 44 82 45 81 46
REMARK SMILES IDX 34 48 68 49 47 50 67 51 48 52 51 53 66 54 86 55 49 56 50 57
REMARK SMILES IDX 65 59 87 60 52 61 35 62 36 63 45 64 37 65 38 66 44 67 46 68
REMARK SMILES IDX 39 69 40 70 41 71 42 72 43 73 69 74 70 75 79 76 71 77 72 78
REMARK SMILES IDX 78 79 80 80 73 81 74 82 75 83 76 84 77 85 53 86 54 87 63 88
REMARK SMILES IDX 55 89 56 90 62 91 64 92 57 93 58 94 59 95 60 96 61 97
REMARK H PARENT 16 6 5 12 5 13 23 28 85 47 51 58
REMARK Flexibility Score: inf
ROOT
ATOM      1  C   UNL A   1      31.371  28.573  22.838  1.00  0.00     0.021 C 
ENDROOT
BRANCH   1   2
ATOM      2  C   UNL A   1      30.939  27.131  22.578  1.00  0.00     0.116 C 
BRANCH   2   3
ATOM      3  N   UNL A   1      31.807  26.484  21.617  1.00  0.00    -0.355 N 
ATOM      4  C   UNL A   1      32.480  25.303  21.652  1.00  0.00     0.231 C 
ATOM      5  O   UNL A   1      33.206  25.069  20.679  1.00  0.00    -0.274 OA
ATOM      6  H   UNL A   1      31.934  26.994  20.785  1.00  0.00     0.163 HD
BRANCH   4   7
ATOM      7  C   UNL A   1      32.310  24.278  22.791  1.00  0.00     0.092 C 
ATOM      8  C   UNL A   1      30.799  24.184  23.135  1.00  0.00     0.027 C 
ATOM      9  C   UNL A   1      33.009  24.803  24.061  1.00  0.00     0.027 C 
BRANCH   7  10
ATOM     10  C   UNL A   1      32.818  22.855  22.430  1.00  0.00     0.276 C 
BRANCH  10  11
ATOM     11  N   UNL A   1      33.494  22.188  23.544  1.00  0.00    -0.345 N 
ATOM     12  H   UNL A   1      33.704  22.890  24.254  1.00  0.00     0.346 HD
ATOM     13  H   UNL A   1      34.328  21.750  23.155  1.00  0.00     0.346 HD
BRANCH  11  14
ATOM     14  C   UNL A   1      32.719  21.118  24.177  1.00  0.00     0.265 C 
BRANCH  14  15
ATOM     15  C   UNL A   1      32.399  19.869  23.332  1.00  0.00     0.098 C 
BRANCH  15  16
ATOM     16  C   UNL A   1      32.821  18.518  23.853  1.00  0.00    -0.024 A 
ATOM     17  C   UNL A   1      33.434  17.526  23.084  1.00  0.00     0.007 A 
ATOM     18  C   UNL A   1      32.623  18.229  25.204  1.00  0.00     0.114 A 
ATOM     19  C   UNL A   1      33.757  16.299  23.660  1.00  0.00     0.020 A 
ATOM     20  N   UNL A   1      32.945  17.055  25.796  1.00  0.00    -0.264 NA
ATOM     21  C   UNL A   1      33.496  16.113  25.005  1.00  0.00     0.111 A 
ENDBRANCH  15  16
ENDBRANCH  14  15
ENDBRANCH  11  14
ENDBRANCH  10  11
ENDBRANCH   7  10
ENDBRANCH   4   7
ENDBRANCH   2   3
ENDBRANCH   1   2
BRANCH   1  22
ATOM     22  C   UNL A   1      31.275  28.996  24.308  1.00  0.00     0.002 C 
BRANCH  22  23
ATOM     23  C   UNL A   1      31.908  28.020  25.306  1.00  0.00     0.002 C 
BRANCH  23  24
ATOM     24  C   UNL A   1      33.430  27.890  25.206  1.00  0.00     0.021 C 
BRANCH  24  25
ATOM     25  C   UNL A   1      34.178  28.254  26.484  1.00  0.00     0.116 C 
BRANCH  25  26
ATOM     26  N   UNL A   1      33.777  29.557  26.991  1.00  0.00    -0.352 N 
ATOM     27  C   UNL A   1      34.441  30.393  27.851  1.00  0.00     0.251 C 
ATOM     28  H   UNL A   1      32.906  29.885  26.671  1.00  0.00     0.163 HD
ATOM     29  O   UNL A   1      33.856  31.353  28.348  1.00  0.00    -0.269 OA
BRANCH  27  30
ATOM     30  C   UNL A   1      35.855  30.126  28.190  1.00  0.00     0.039 A 
ATOM     31  C   UNL A   1      36.170  29.661  29.468  1.00  0.00     0.014 A 
ATOM     32  C   UNL A   1      36.867  30.340  27.249  1.00  0.00     0.014 A 
ATOM     33  C   UNL A   1      37.495  29.358  29.785  1.00  0.00     0.010 A 
ATOM     34  C   UNL A   1      38.174  29.964  27.541  1.00  0.00     0.010 A 
ATOM     35  C   UNL A   1      38.505  29.475  28.813  1.00  0.00    -0.014 A 
BRANCH  35  36
ATOM     36  C   UNL A   1      39.908  29.090  29.112  1.00  0.00     0.031 A 
ATOM     37  C   UNL A   1      40.856  30.094  29.713  1.00  0.00     0.074 A 
ATOM     38  C   UNL A   1      40.343  27.856  28.786  1.00  0.00     0.049 A 
ATOM     39  N   UNL A   1      42.128  29.965  29.988  1.00  0.00    -0.248 NA
ATOM     40  C   UNL A   1      40.308  31.424  30.022  1.00  0.00     0.031 C 
ATOM     41  C   UNL A   1      39.532  26.813  28.156  1.00  0.00     0.029 A 
ATOM     42  N   UNL A   1      41.577  27.274  28.931  1.00  0.00    -0.354 N 
ATOM     43  C   UNL A   1      42.534  31.195  30.490  1.00  0.00     0.074 A 
ATOM     44  C   UNL A   1      41.388  32.075  30.427  1.00  0.00     0.031 C 
ATOM     45  C   UNL A   1      40.281  25.711  27.992  1.00  0.00     0.029 A 
ATOM     46  C   UNL A   1      41.637  25.982  28.463  1.00  0.00     0.049 A 
ATOM     47  H   UNL A   1      42.348  27.737  29.331  1.00  0.00     0.167 HD
ATOM     48  C   UNL A   1      43.746  31.553  30.981  1.00  0.00     0.037 A 
ATOM     49  C   UNL A   1      42.667  25.116  28.409  1.00  0.00     0.037 A 
ATOM     50  C   UNL A   1      44.876  30.663  31.056  1.00  0.00     0.049 A 
ATOM     51  C   UNL A   1      44.007  25.540  28.948  1.00  0.00     0.074 A 
ATOM     52  C   UNL A   1      46.131  30.910  31.585  1.00  0.00     0.029 A 
ATOM     53  N   UNL A   1      44.894  29.359  30.583  1.00  0.00    -0.354 N 
ATOM     54  N   UNL A   1      44.356  26.687  29.479  1.00  0.00    -0.248 NA
ATOM     55  C   UNL A   1      45.092  24.550  28.886  1.00  0.00     0.031 C 
ATOM     56  C   UNL A   1      46.923  29.776  31.384  1.00  0.00     0.029 A 
ATOM     57  C   UNL A   1      46.144  28.798  30.784  1.00  0.00     0.049 A 
ATOM     58  H   UNL A   1      44.129  28.900  30.166  1.00  0.00     0.167 HD
ATOM     59  C   UNL A   1      45.692  26.547  29.843  1.00  0.00     0.074 A 
ATOM     60  C   UNL A   1      46.082  25.200  29.481  1.00  0.00     0.031 C 
ATOM     61  C   UNL A   1      46.518  27.452  30.424  1.00  0.00     0.037 A 
BRANCH  48  62
ATOM     62  C   UNL A   1      43.911  32.964  31.476  1.00  0.00     0.058 A 
ATOM     63  C   UNL A   1      44.237  34.019  30.608  1.00  0.00     0.135 A 
ATOM     64  C   UNL A   1      43.707  33.275  32.831  1.00  0.00     0.135 A 
ATOM     65  F   UNL A   1      44.458  33.781  29.305  1.00  0.00    -0.206 F 
ATOM     66  C   UNL A   1      44.386  35.323  31.069  1.00  0.00     0.059 A 
ATOM     67  C   UNL A   1      43.820  34.577  33.309  1.00  0.00     0.059 A 
ATOM     68  F   UNL A   1      43.393  32.306  33.707  1.00  0.00    -0.206 F 
ATOM     69  C   UNL A   1      44.176  35.593  32.422  1.00  0.00     0.060 A 
BRANCH  69  70
ATOM     70  S   UNL A   1      44.373  37.290  33.003  1.00  0.00     0.124 S 
ATOM     71  O   UNL A   1      44.656  37.993  31.756  1.00  0.00    -0.237 OA
ATOM     72  O   UNL A   1      43.072  37.566  33.605  1.00  0.00    -0.237 OA
ATOM     73  O   UNL A   1      45.488  37.203  33.941  1.00  0.00    -0.744 OA
ENDBRANCH  69  70
ENDBRANCH  48  62
BRANCH  49  74
ATOM     74  C   UNL A   1      42.465  23.756  27.841  1.00  0.00     0.058 A 
ATOM     75  C   UNL A   1      42.412  23.552  26.453  1.00  0.00     0.135 A 
ATOM     76  C   UNL A   1      42.337  22.631  28.670  1.00  0.00     0.135 A 
ATOM     77  F   UNL A   1      42.523  24.597  25.618  1.00  0.00    -0.206 F 
ATOM     78  C   UNL A   1      42.221  22.287  25.908  1.00  0.00     0.059 A 
ATOM     79  C   UNL A   1      42.174  21.351  28.148  1.00  0.00     0.059 A 
ATOM     80  F   UNL A   1      42.399  22.767  30.003  1.00  0.00    -0.206 F 
ATOM     81  C   UNL A   1      42.107  21.191  26.765  1.00  0.00     0.060 A 
BRANCH  81  82
ATOM     82  S   UNL A   1      41.910  19.546  26.044  1.00  0.00     0.124 S 
ATOM     83  O   UNL A   1      42.758  19.641  24.862  1.00  0.00    -0.237 OA
ATOM     84  O   UNL A   1      42.397  18.683  27.115  1.00  0.00    -0.237 OA
ATOM     85  O   UNL A   1      40.475  19.464  25.787  1.00  0.00    -0.744 OA
ENDBRANCH  81  82
ENDBRANCH  49  74
BRANCH  61  86
ATOM     86  C   UNL A   1      47.920  27.008  30.744  1.00  0.00     0.058 A 
ATOM     87  C   UNL A   1      49.007  27.335  29.918  1.00  0.00     0.135 A 
ATOM     88  C   UNL A   1      48.184  26.289  31.922  1.00  0.00     0.135 A 
ATOM     89  F   UNL A   1      48.810  28.014  28.778  1.00  0.00    -0.206 F 
ATOM     90  C   UNL A   1      50.304  26.944  30.237  1.00  0.00     0.059 A 
ATOM     91  C   UNL A   1      49.477  25.916  32.276  1.00  0.00     0.059 A 
ATOM     92  F   UNL A   1      47.183  25.959  32.752  1.00  0.00    -0.206 F 
ATOM     93  C   UNL A   1      50.529  26.238  31.421  1.00  0.00     0.060 A 
BRANCH  93  94
ATOM     94  S   UNL A   1      52.222  25.770  31.839  1.00  0.00     0.124 S 
ATOM     95  O   UNL A   1      52.562  26.767  32.850  1.00  0.00    -0.237 OA
ATOM     96  O   UNL A   1      52.056  24.404  32.326  1.00  0.00    -0.237 OA
ATOM     97  O   UNL A   1      52.933  25.896  30.571  1.00  0.00    -0.744 OA
ENDBRANCH  93  94
ENDBRANCH  61  86
ENDBRANCH  35  36
ENDBRANCH  27  30
ENDBRANCH  25  26
ENDBRANCH  24  25
ENDBRANCH  23  24
ENDBRANCH  22  23
ENDBRANCH   1  22
TORSDOF 21
ENDMDL
MODEL 3
REMARK VINA RESULT:      -9.8      2.956      9.210
REMARK SMILES CC(C)(C[NH2+]CCc1cccnc1)C(=O)NCCCCCCNC(=O)c1ccc(-c2c3nc(c(-c4c(F)cc(S(=O)(=O)[O-])cc4F)c4ccc([nH]4)c(-c4c(F)cc(S(=O)(=O)[O-])cc4F)c4nc(c(-c5c(F)cc(S(=O)(=O)[O-])cc5F)c5ccc2[nH]5)C=C4)C=C3)cc1
REMARK SMILES IDX 18 1 17 2 16 3 14 4 15 5 2 7 1 8 3 9 4 10 5 11 6 14 7 15
REMARK SMILES IDX 8 16 9 17 13 18 10 19 12 20 11 21 19 22 20 23 21 24 22 25
REMARK SMILES IDX 23 26 24 27 25 29 26 30 27 31 91 32 28 33 90 34 29 35 30 36
REMARK SMILES IDX 31 37 84 38 32 39 89 40 83 41 85 42 33 43 88 44 82 45 81 46
REMARK SMILES IDX 34 48 68 49 47 50 67 51 48 52 51 53 66 54 86 55 49 56 50 57
REMARK SMILES IDX 65 59 87 60 52 61 35 62 36 63 45 64 37 65 38 66 44 67 46 68
REMARK SMILES IDX 39 69 40 70 41 71 42 72 43 73 69 74 70 75 79 76 71 77 72 78
REMARK SMILES IDX 78 79 80 80 73 81 74 82 75 83 76 84 77 85 53 86 54 87 63 88
REMARK SMILES IDX 55 89 56 90 62 91 64 92 57 93 58 94 59 95 60 96 61 97
REMARK H PARENT 16 6 5 12 5 13 23 28 85 47 51 58
REMARK Flexibility Score: inf
ROOT
ATOM      1  C   UNL A   1      33.841  21.763  25.963  1.00  0.00     0.021 C 
ENDROOT
BRANCH   1   2
ATOM      2  C   UNL A   1      32.430  21.623  25.397  1.00  0.00     0.116 C 
BRANCH   2   3
ATOM      3  N   UNL A   1      31.444  22.203  26.285  1.00  0.00    -0.355 N 
ATOM      4  C   UNL A   1      30.861  23.431  26.318  1.00  0.00     0.231 C 
ATOM      5  O   UNL A   1      30.096  23.638  27.266  1.00  0.00    -0.274 OA
ATOM      6  H   UNL A   1      31.140  21.595  26.997  1.00  0.00     0.163 HD
BRANCH   4   7
ATOM      7  C   UNL A   1      31.077  24.488  25.215  1.00  0.00     0.092 C 
ATOM      8  C   UNL A   1      30.105  25.668  25.481  1.00  0.00     0.027 C 
ATOM      9  C   UNL A   1      30.670  23.895  23.851  1.00  0.00     0.027 C 
BRANCH   7  10
ATOM     10  C   UNL A   1      32.524  25.050  25.163  1.00  0.00     0.276 C 
BRANCH  10  11
ATOM     11  N   UNL A   1      32.600  26.383  24.564  1.00  0.00    -0.345 N 
ATOM     12  H   UNL A   1      31.688  26.829  24.666  1.00  0.00     0.346 HD
ATOM     13  H   UNL A   1      32.872  26.247  23.591  1.00  0.00     0.346 HD
BRANCH  11  14
ATOM     14  C   UNL A   1      33.609  27.264  25.159  1.00  0.00     0.265 C 
BRANCH  14  15
ATOM     15  C   UNL A   1      33.425  27.671  26.634  1.00  0.00     0.098 C 
BRANCH  15  16
ATOM     16  C   UNL A   1      33.928  29.023  27.076  1.00  0.00    -0.024 A 
ATOM     17  C   UNL A   1      35.245  29.297  27.449  1.00  0.00     0.007 A 
ATOM     18  C   UNL A   1      33.037  30.097  27.091  1.00  0.00     0.114 A 
ATOM     19  C   UNL A   1      35.597  30.578  27.871  1.00  0.00     0.020 A 
ATOM     20  N   UNL A   1      33.354  31.355  27.475  1.00  0.00    -0.264 NA
ATOM     21  C   UNL A   1      34.626  31.563  27.867  1.00  0.00     0.111 A 
ENDBRANCH  15  16
ENDBRANCH  14  15
ENDBRANCH  11  14
ENDBRANCH  10  11
ENDBRANCH   7  10
ENDBRANCH   4   7
ENDBRANCH   2   3
ENDBRANCH   1   2
BRANCH   1  22
ATOM     22  C   UNL A   1      34.930  21.140  25.082  1.00  0.00     0.002 C 
BRANCH  22  23
ATOM     23  C   UNL A   1      35.841  22.147  24.371  1.00  0.00     0.002 C 
BRANCH  23  24
ATOM     24  C   UNL A   1      35.859  23.549  24.984  1.00  0.00     0.021 C 
BRANCH  24  25
ATOM     25  C   UNL A   1      36.926  23.755  26.053  1.00  0.00     0.116 C 
BRANCH  25  26
ATOM     26  N   UNL A   1      37.816  22.609  26.155  1.00  0.00    -0.352 N 
ATOM     27  C   UNL A   1      39.168  22.580  26.386  1.00  0.00     0.251 C 
ATOM     28  H   UNL A   1      37.388  21.730  26.043  1.00  0.00     0.163 HD
ATOM     29  O   UNL A   1      39.797  21.537  26.219  1.00  0.00    -0.269 OA
BRANCH  27  30
ATOM     30  C   UNL A   1      39.865  23.808  26.821  1.00  0.00     0.039 A 
ATOM     31  C   UNL A   1      39.978  24.877  25.930  1.00  0.00     0.014 A 
ATOM     32  C   UNL A   1      40.411  23.902  28.106  1.00  0.00     0.014 A 
ATOM     33  C   UNL A   1      40.589  26.061  26.345  1.00  0.00     0.010 A 
ATOM     34  C   UNL A   1      40.950  25.109  28.542  1.00  0.00     0.010 A 
ATOM     35  C   UNL A   1      41.051  26.199  27.666  1.00  0.00    -0.014 A 
BRANCH  35  36
ATOM     36  C   UNL A   1      41.641  27.475  28.144  1.00  0.00     0.031 A 
ATOM     37  C   UNL A   1      43.135  27.664  28.147  1.00  0.00     0.074 A 
ATOM     38  C   UNL A   1      40.835  28.439  28.633  1.00  0.00     0.049 A 
ATOM     39  N   UNL A   1      43.837  28.678  28.580  1.00  0.00    -0.248 NA
ATOM     40  C   UNL A   1      43.946  26.557  27.615  1.00  0.00     0.031 C 
ATOM     41  C   UNL A   1      39.376  28.354  28.726  1.00  0.00     0.029 A 
ATOM     42  N   UNL A   1      41.128  29.675  29.151  1.00  0.00    -0.354 N 
ATOM     43  C   UNL A   1      45.169  28.330  28.385  1.00  0.00     0.074 A 
ATOM     44  C   UNL A   1      45.177  26.987  27.848  1.00  0.00     0.031 C 
ATOM     45  C   UNL A   1      38.900  29.497  29.244  1.00  0.00     0.029 A 
ATOM     46  C   UNL A   1      40.020  30.380  29.561  1.00  0.00     0.049 A 
ATOM     47  H   UNL A   1      42.045  30.026  29.223  1.00  0.00     0.167 HD
ATOM     48  C   UNL A   1      46.281  29.070  28.610  1.00  0.00     0.037 A 
ATOM     49  C   UNL A   1      39.915  31.593  30.136  1.00  0.00     0.037 A 
ATOM     50  C   UNL A   1      46.260  30.413  29.128  1.00  0.00     0.049 A 
ATOM     51  C   UNL A   1      41.167  32.392  30.390  1.00  0.00     0.074 A 
ATOM     52  C   UNL A   1      47.327  31.269  29.342  1.00  0.00     0.029 A 
ATOM     53  N   UNL A   1      45.118  31.097  29.521  1.00  0.00    -0.354 N 
ATOM     54  N   UNL A   1      42.413  32.071  30.138  1.00  0.00    -0.248 NA
ATOM     55  C   UNL A   1      40.996  33.718  30.999  1.00  0.00     0.031 C 
ATOM     56  C   UNL A   1      46.837  32.447  29.914  1.00  0.00     0.029 A 
ATOM     57  C   UNL A   1      45.456  32.351  30.000  1.00  0.00     0.049 A 
ATOM     58  H   UNL A   1      44.202  30.741  29.467  1.00  0.00     0.167 HD
ATOM     59  C   UNL A   1      43.174  33.168  30.530  1.00  0.00     0.074 A 
ATOM     60  C   UNL A   1      42.244  34.163  31.023  1.00  0.00     0.031 C 
ATOM     61  C   UNL A   1      44.519  33.336  30.483  1.00  0.00     0.037 A 
BRANCH  48  62
ATOM     62  C   UNL A   1      47.613  28.444  28.297  1.00  0.00     0.058 A 
ATOM     63  C   UNL A   1      48.167  28.488  27.006  1.00  0.00     0.135 A 
ATOM     64  C   UNL A   1      48.365  27.820  29.307  1.00  0.00     0.135 A 
ATOM     65  F   UNL A   1      47.488  29.058  25.998  1.00  0.00    -0.206 F 
ATOM     66  C   UNL A   1      49.399  27.910  26.722  1.00  0.00     0.059 A 
ATOM     67  C   UNL A   1      49.614  27.262  29.052  1.00  0.00     0.059 A 
ATOM     68  F   UNL A   1      47.885  27.747  30.559  1.00  0.00    -0.206 F 
ATOM     69  C   UNL A   1      50.116  27.298  27.751  1.00  0.00     0.060 A 
BRANCH  69  70
ATOM     70  S   UNL A   1      51.715  26.555  27.364  1.00  0.00     0.124 S 
ATOM     71  O   UNL A   1      52.489  26.894  28.554  1.00  0.00    -0.237 OA
ATOM     72  O   UNL A   1      51.373  25.144  27.211  1.00  0.00    -0.237 OA
ATOM     73  O   UNL A   1      52.120  27.235  26.138  1.00  0.00    -0.744 OA
ENDBRANCH  69  70
ENDBRANCH  48  62
BRANCH  49  74
ATOM     74  C   UNL A   1      38.577  32.133  30.494  1.00  0.00     0.058 A 
ATOM     75  C   UNL A   1      37.937  31.753  31.683  1.00  0.00     0.135 A 
ATOM     76  C   UNL A   1      37.915  33.051  29.663  1.00  0.00     0.135 A 
ATOM     77  F   UNL A   1      38.525  30.873  32.509  1.00  0.00    -0.206 F 
ATOM     78  C   UNL A   1      36.684  32.248  32.029  1.00  0.00     0.059 A 
ATOM     79  C   UNL A   1      36.674  33.582  30.001  1.00  0.00     0.059 A 
ATOM     80  F   UNL A   1      38.490  33.462  28.522  1.00  0.00    -0.206 F 
ATOM     81  C   UNL A   1      36.062  33.166  31.182  1.00  0.00     0.060 A 
BRANCH  81  82
ATOM     82  S   UNL A   1      34.457  33.840  31.665  1.00  0.00     0.124 S 
ATOM     83  O   UNL A   1      33.890  32.731  32.423  1.00  0.00    -0.237 OA
ATOM     84  O   UNL A   1      34.841  35.016  32.440  1.00  0.00    -0.237 OA
ATOM     85  O   UNL A   1      33.814  34.124  30.386  1.00  0.00    -0.744 OA
ENDBRANCH  81  82
ENDBRANCH  49  74
BRANCH  61  86
ATOM     86  C   UNL A   1      45.071  34.659  30.942  1.00  0.00     0.058 A 
ATOM     87  C   UNL A   1      45.484  34.869  32.268  1.00  0.00     0.135 A 
ATOM     88  C   UNL A   1      45.238  35.713  30.029  1.00  0.00     0.135 A 
ATOM     89  F   UNL A   1      45.341  33.898  33.183  1.00  0.00    -0.206 F 
ATOM     90  C   UNL A   1      46.019  36.086  32.676  1.00  0.00     0.059 A 
ATOM     91  C   UNL A   1      45.800  36.927  30.408  1.00  0.00     0.059 A 
ATOM     92  F   UNL A   1      44.870  35.561  28.747  1.00  0.00    -0.206 F 
ATOM     93  C   UNL A   1      46.177  37.108  31.738  1.00  0.00     0.060 A 
BRANCH  93  94
ATOM     94  S   UNL A   1      46.908  38.670  32.275  1.00  0.00     0.124 S 
ATOM     95  O   UNL A   1      45.770  39.578  32.170  1.00  0.00    -0.237 OA
ATOM     96  O   UNL A   1      47.347  38.357  33.631  1.00  0.00    -0.237 OA
ATOM     97  O   UNL A   1      47.980  38.894  31.310  1.00  0.00    -0.744 OA
ENDBRANCH  93  94
ENDBRANCH  61  86
ENDBRANCH  35  36
ENDBRANCH  27  30
ENDBRANCH  25  26
ENDBRANCH  24  25
ENDBRANCH  23  24
ENDBRANCH  22  23
ENDBRANCH   1  22
TORSDOF 21
ENDMDL
