MODEL 1
REMARK VINA RESULT:     -11.8      0.000      0.000
REMARK SMILES C[C@@H]1[C@@H](C(=O)NCCCCCCNC(=O)c2ccc(-c3c4nc(c(-c5c(F)cc(S(=O)(=O)[O-])cc5F)c5ccc([nH]5)c(-c5c(F)cc(S(=O)(=O)[O-])cc5F)c5nc(c(-c6c(F)cc(S(=O)(=O)[O-])cc6F)c6ccc3[nH]6)C=C5)C=C4)cc2)CCN1C(=O)N1CCC[C@H]2CCC[C@@H]21
REMARK SMILES IDX 10 1 9 2 8 3 7 4 6 5 4 6 5 7 3 9 1 10 2 11 84 12 82 13 83 14
REMARK SMILES IDX 85 15 86 16 87 17 88 18 95 19 89 20 91 21 94 22 90 23 92 24
REMARK SMILES IDX 93 25 11 26 12 27 13 28 14 29 15 31 16 32 17 33 81 34 18 35
REMARK SMILES IDX 80 36 19 37 20 38 21 39 74 40 22 41 79 42 73 43 75 44 23 45
REMARK SMILES IDX 78 46 72 47 71 48 24 50 58 51 37 52 57 53 38 54 41 55 56 56
REMARK SMILES IDX 76 57 39 58 40 59 55 61 77 62 42 63 25 64 26 65 35 66 27 67
REMARK SMILES IDX 28 68 34 69 36 70 29 71 30 72 31 73 32 74 33 75 59 76 60 77
REMARK SMILES IDX 69 78 61 79 62 80 68 81 70 82 63 83 64 84 65 85 66 86 67 87
REMARK SMILES IDX 43 88 44 89 53 90 45 91 46 92 52 93 54 94 47 95 48 96 49 97
REMARK SMILES IDX 50 98 51 99
REMARK H PARENT 6 8 13 30 75 49 41 60
REMARK Flexibility Score: inf
ROOT
ATOM      1  C   UNL A   1      34.439  31.501  27.957  1.00  0.00     0.002 C 
ENDROOT
BRANCH   1   2
ATOM      2  C   UNL A   1      34.904  30.188  27.321  1.00  0.00     0.002 C 
BRANCH   2   3
ATOM      3  C   UNL A   1      33.800  29.245  26.831  1.00  0.00     0.021 C 
BRANCH   3   4
ATOM      4  C   UNL A   1      32.621  29.911  26.129  1.00  0.00     0.116 C 
BRANCH   4   5
ATOM      5  N   UNL A   1      32.658  29.770  24.687  1.00  0.00    -0.356 N 
ATOM      6  C   UNL A   1      32.101  28.797  23.904  1.00  0.00     0.225 C 
ATOM      7  O   UNL A   1      32.227  28.902  22.684  1.00  0.00    -0.275 OA
ATOM      8  H   UNL A   1      33.153  30.471  24.205  1.00  0.00     0.163 HD
BRANCH   6   9
ATOM      9  C   UNL A   1      31.446  27.594  24.574  1.00  0.00     0.102 C 
ATOM     10  C   UNL A   1      32.060  25.673  26.045  1.00  0.00     0.032 C 
ATOM     11  C   UNL A   1      32.429  26.412  24.751  1.00  0.00     0.096 C 
ATOM     12  N   UNL A   1      32.227  25.588  23.543  1.00  0.00    -0.321 N 
ATOM     13  C   UNL A   1      30.310  26.958  23.767  1.00  0.00     0.037 C 
ATOM     14  C   UNL A   1      31.019  25.985  22.846  1.00  0.00     0.122 C 
BRANCH  12  15
ATOM     15  C   UNL A   1      33.183  24.910  22.801  1.00  0.00     0.320 C 
ATOM     16  O   UNL A   1      33.867  25.473  21.945  1.00  0.00    -0.248 OA
BRANCH  15  17
ATOM     17  N   UNL A   1      33.417  23.608  23.162  1.00  0.00    -0.321 N 
ATOM     18  C   UNL A   1      32.826  22.502  22.423  1.00  0.00     0.121 C 
ATOM     19  C   UNL A   1      34.610  23.227  23.889  1.00  0.00     0.090 C 
ATOM     20  C   UNL A   1      32.420  21.372  23.375  1.00  0.00     0.022 C 
ATOM     21  C   UNL A   1      34.180  22.219  24.958  1.00  0.00     0.012 C 
ATOM     22  C   UNL A   1      35.360  24.259  24.726  1.00  0.00     0.025 C 
ATOM     23  C   UNL A   1      33.572  20.973  24.316  1.00  0.00     0.007 C 
ATOM     24  C   UNL A   1      35.442  22.033  25.782  1.00  0.00     0.006 C 
ATOM     25  C   UNL A   1      36.107  23.417  25.771  1.00  0.00     0.002 C 
ENDBRANCH  15  17
ENDBRANCH  12  15
ENDBRANCH   6   9
ENDBRANCH   4   5
ENDBRANCH   3   4
ENDBRANCH   2   3
ENDBRANCH   1   2
BRANCH   1  26
ATOM     26  C   UNL A   1      35.473  32.627  28.021  1.00  0.00     0.021 C 
BRANCH  26  27
ATOM     27  C   UNL A   1      36.381  32.632  29.247  1.00  0.00     0.116 C 
BRANCH  27  28
ATOM     28  N   UNL A   1      35.995  31.650  30.243  1.00  0.00    -0.352 N 
ATOM     29  C   UNL A   1      36.634  30.500  30.638  1.00  0.00     0.251 C 
ATOM     30  H   UNL A   1      35.146  31.835  30.705  1.00  0.00     0.163 HD
ATOM     31  O   UNL A   1      36.072  29.738  31.419  1.00  0.00    -0.269 OA
BRANCH  29  32
ATOM     32  C   UNL A   1      37.977  30.158  30.113  1.00  0.00     0.039 A 
ATOM     33  C   UNL A   1      39.024  29.989  31.024  1.00  0.00     0.014 A 
ATOM     34  C   UNL A   1      38.226  30.036  28.742  1.00  0.00     0.014 A 
ATOM     35  C   UNL A   1      40.301  29.650  30.568  1.00  0.00     0.010 A 
ATOM     36  C   UNL A   1      39.484  29.634  28.293  1.00  0.00     0.010 A 
ATOM     37  C   UNL A   1      40.538  29.443  29.200  1.00  0.00    -0.014 A 
BRANCH  37  38
ATOM     38  C   UNL A   1      41.883  29.039  28.711  1.00  0.00     0.031 A 
ATOM     39  C   UNL A   1      42.991  30.051  28.602  1.00  0.00     0.074 A 
ATOM     40  C   UNL A   1      42.097  27.764  28.330  1.00  0.00     0.049 A 
ATOM     41  N   UNL A   1      44.217  29.890  28.177  1.00  0.00    -0.248 NA
ATOM     42  C   UNL A   1      42.673  31.432  29.001  1.00  0.00     0.031 C 
ATOM     43  C   UNL A   1      41.092  26.698  28.342  1.00  0.00     0.029 A 
ATOM     44  N   UNL A   1      43.228  27.146  27.855  1.00  0.00    -0.354 N 
ATOM     45  C   UNL A   1      44.814  31.145  28.248  1.00  0.00     0.074 A 
ATOM     46  C   UNL A   1      43.798  32.067  28.707  1.00  0.00     0.031 C 
ATOM     47  C   UNL A   1      41.657  25.555  27.919  1.00  0.00     0.029 A 
ATOM     48  C   UNL A   1      43.054  25.811  27.578  1.00  0.00     0.049 A 
ATOM     49  H   UNL A   1      44.082  27.617  27.726  1.00  0.00     0.167 HD
ATOM     50  C   UNL A   1      46.096  31.492  27.980  1.00  0.00     0.037 A 
ATOM     51  C   UNL A   1      43.920  24.895  27.102  1.00  0.00     0.037 A 
ATOM     52  C   UNL A   1      47.111  30.566  27.549  1.00  0.00     0.049 A 
ATOM     53  C   UNL A   1      45.339  25.303  26.818  1.00  0.00     0.074 A 
ATOM     54  C   UNL A   1      48.453  30.810  27.311  1.00  0.00     0.029 A 
ATOM     55  N   UNL A   1      46.899  29.219  27.295  1.00  0.00    -0.354 N 
ATOM     56  N   UNL A   1      45.900  26.481  26.954  1.00  0.00    -0.248 NA
ATOM     57  C   UNL A   1      46.246  24.257  26.324  1.00  0.00     0.031 C 
ATOM     58  C   UNL A   1      49.044  29.620  26.873  1.00  0.00     0.029 A 
ATOM     59  C   UNL A   1      48.080  28.624  26.882  1.00  0.00     0.049 A 
ATOM     60  H   UNL A   1      46.037  28.755  27.392  1.00  0.00     0.167 HD
ATOM     61  C   UNL A   1      47.231  26.312  26.583  1.00  0.00     0.074 A 
ATOM     62  C   UNL A   1      47.393  24.916  26.232  1.00  0.00     0.031 C 
ATOM     63  C   UNL A   1      48.227  27.231  26.537  1.00  0.00     0.037 A 
BRANCH  50  64
ATOM     64  C   UNL A   1      46.476  32.937  28.154  1.00  0.00     0.058 A 
ATOM     65  C   UNL A   1      46.326  33.868  27.114  1.00  0.00     0.135 A 
ATOM     66  C   UNL A   1      46.964  33.405  29.385  1.00  0.00     0.135 A 
ATOM     67  F   UNL A   1      45.878  33.473  25.912  1.00  0.00    -0.206 F 
ATOM     68  C   UNL A   1      46.675  35.204  27.276  1.00  0.00     0.059 A 
ATOM     69  C   UNL A   1      47.294  34.744  29.579  1.00  0.00     0.059 A 
ATOM     70  F   UNL A   1      47.127  32.560  30.414  1.00  0.00    -0.206 F 
ATOM     71  C   UNL A   1      47.161  35.633  28.512  1.00  0.00     0.060 A 
BRANCH  71  72
ATOM     72  S   UNL A   1      47.610  37.371  28.708  1.00  0.00     0.124 S 
ATOM     73  O   UNL A   1      49.066  37.304  28.634  1.00  0.00    -0.237 OA
ATOM     74  O   UNL A   1      46.946  37.997  27.568  1.00  0.00    -0.237 OA
ATOM     75  O   UNL A   1      47.064  37.719  30.016  1.00  0.00    -0.744 OA
ENDBRANCH  71  72
ENDBRANCH  50  64
BRANCH  51  76
ATOM     76  C   UNL A   1      43.475  23.492  26.889  1.00  0.00     0.058 A 
ATOM     77  C   UNL A   1      43.328  22.609  27.969  1.00  0.00     0.135 A 
ATOM     78  C   UNL A   1      43.176  23.010  25.605  1.00  0.00     0.135 A 
ATOM     79  F   UNL A   1      43.608  23.023  29.215  1.00  0.00    -0.206 F 
ATOM     80  C   UNL A   1      42.919  21.294  27.784  1.00  0.00     0.059 A 
ATOM     81  C   UNL A   1      42.742  21.705  25.397  1.00  0.00     0.059 A 
ATOM     82  F   UNL A   1      43.284  23.821  24.540  1.00  0.00    -0.206 F 
ATOM     83  C   UNL A   1      42.627  20.851  26.493  1.00  0.00     0.060 A 
BRANCH  83  84
ATOM     84  S   UNL A   1      42.051  19.154  26.268  1.00  0.00     0.124 S 
ATOM     85  O   UNL A   1      42.200  18.612  27.614  1.00  0.00    -0.237 OA
ATOM     86  O   UNL A   1      40.681  19.352  25.806  1.00  0.00    -0.237 OA
ATOM     87  O   UNL A   1      42.969  18.620  25.266  1.00  0.00    -0.744 OA
ENDBRANCH  83  84
ENDBRANCH  51  76
BRANCH  63  88
ATOM     88  C   UNL A   1      49.588  26.753  26.112  1.00  0.00     0.058 A 
ATOM     89  C   UNL A   1      50.042  26.902  24.793  1.00  0.00     0.135 A 
ATOM     90  C   UNL A   1      50.464  26.177  27.047  1.00  0.00     0.135 A 
ATOM     91  F   UNL A   1      49.240  27.441  23.860  1.00  0.00    -0.206 F 
ATOM     92  C   UNL A   1      51.308  26.475  24.408  1.00  0.00     0.059 A 
ATOM     93  C   UNL A   1      51.744  25.766  26.690  1.00  0.00     0.059 A 
ATOM     94  F   UNL A   1      50.083  26.020  28.324  1.00  0.00    -0.206 F 
ATOM     95  C   UNL A   1      52.153  25.908  25.364  1.00  0.00     0.060 A 
BRANCH  95  96
ATOM     96  S   UNL A   1      53.805  25.384  24.859  1.00  0.00     0.124 S 
ATOM     97  O   UNL A   1      53.686  23.931  24.930  1.00  0.00    -0.237 OA
ATOM     98  O   UNL A   1      53.916  25.946  23.516  1.00  0.00    -0.237 OA
ATOM     99  O   UNL A   1      54.675  25.993  25.861  1.00  0.00    -0.744 OA
ENDBRANCH  95  96
ENDBRANCH  63  88
ENDBRANCH  37  38
ENDBRANCH  29  32
ENDBRANCH  27  28
ENDBRANCH  26  27
ENDBRANCH   1  26
TORSDOF 18
ENDMDL
MODEL 2
REMARK VINA RESULT:     -11.7      6.396     12.049
REMARK SMILES C[C@@H]1[C@@H](C(=O)NCCCCCCNC(=O)c2ccc(-c3c4nc(c(-c5c(F)cc(S(=O)(=O)[O-])cc5F)c5ccc([nH]5)c(-c5c(F)cc(S(=O)(=O)[O-])cc5F)c5nc(c(-c6c(F)cc(S(=O)(=O)[O-])cc6F)c6ccc3[nH]6)C=C5)C=C4)cc2)CCN1C(=O)N1CCC[C@H]2CCC[C@@H]21
REMARK SMILES IDX 10 1 9 2 8 3 7 4 6 5 4 6 5 7 3 9 1 10 2 11 84 12 82 13 83 14
REMARK SMILES IDX 85 15 86 16 87 17 88 18 95 19 89 20 91 21 94 22 90 23 92 24
REMARK SMILES IDX 93 25 11 26 12 27 13 28 14 29 15 31 16 32 17 33 81 34 18 35
REMARK SMILES IDX 80 36 19 37 20 38 21 39 74 40 22 41 79 42 73 43 75 44 23 45
REMARK SMILES IDX 78 46 72 47 71 48 24 50 58 51 37 52 57 53 38 54 41 55 56 56
REMARK SMILES IDX 76 57 39 58 40 59 55 61 77 62 42 63 25 64 26 65 35 66 27 67
REMARK SMILES IDX 28 68 34 69 36 70 29 71 30 72 31 73 32 74 33 75 59 76 60 77
REMARK SMILES IDX 69 78 61 79 62 80 68 81 70 82 63 83 64 84 65 85 66 86 67 87
REMARK SMILES IDX 43 88 44 89 53 90 45 91 46 92 52 93 54 94 47 95 48 96 49 97
REMARK SMILES IDX 50 98 51 99
REMARK H PARENT 6 8 13 30 75 49 41 60
REMARK Flexibility Score: inf
ROOT
ATOM      1  C   UNL A   1      39.660  22.237  26.248  1.00  0.00     0.002 C 
ENDROOT
BRANCH   1   2
ATOM      2  C   UNL A   1      38.405  23.107  26.142  1.00  0.00     0.002 C 
BRANCH   2   3
ATOM      3  C   UNL A   1      37.396  22.710  25.059  1.00  0.00     0.021 C 
BRANCH   3   4
ATOM      4  C   UNL A   1      36.694  21.371  25.265  1.00  0.00     0.116 C 
BRANCH   4   5
ATOM      5  N   UNL A   1      35.790  21.366  26.399  1.00  0.00    -0.356 N 
ATOM      6  C   UNL A   1      34.426  21.466  26.411  1.00  0.00     0.225 C 
ATOM      7  O   UNL A   1      33.857  21.397  27.500  1.00  0.00    -0.275 OA
ATOM      8  H   UNL A   1      36.216  21.278  27.281  1.00  0.00     0.163 HD
BRANCH   6   9
ATOM      9  C   UNL A   1      33.694  21.754  25.105  1.00  0.00     0.102 C 
ATOM     10  C   UNL A   1      33.541  23.542  23.370  1.00  0.00     0.032 C 
ATOM     11  C   UNL A   1      33.469  23.268  24.878  1.00  0.00     0.096 C 
ATOM     12  N   UNL A   1      32.129  23.523  25.444  1.00  0.00    -0.321 N 
ATOM     13  C   UNL A   1      32.269  21.196  25.038  1.00  0.00     0.037 C 
ATOM     14  C   UNL A   1      31.424  22.278  25.681  1.00  0.00     0.122 C 
BRANCH  12  15
ATOM     15  C   UNL A   1      31.702  24.630  26.163  1.00  0.00     0.320 C 
ATOM     16  O   UNL A   1      31.118  24.523  27.242  1.00  0.00    -0.248 OA
BRANCH  15  17
ATOM     17  N   UNL A   1      32.080  25.853  25.671  1.00  0.00    -0.321 N 
ATOM     18  C   UNL A   1      33.438  26.348  25.841  1.00  0.00     0.121 C 
ATOM     19  C   UNL A   1      31.392  26.464  24.552  1.00  0.00     0.090 C 
ATOM     20  C   UNL A   1      33.434  27.858  26.097  1.00  0.00     0.022 C 
ATOM     21  C   UNL A   1      31.236  27.951  24.881  1.00  0.00     0.012 C 
ATOM     22  C   UNL A   1      29.954  26.070  24.229  1.00  0.00     0.025 C 
ATOM     23  C   UNL A   1      32.601  28.616  25.047  1.00  0.00     0.007 C 
ATOM     24  C   UNL A   1      30.345  28.458  23.761  1.00  0.00     0.006 C 
ATOM     25  C   UNL A   1      29.398  27.285  23.471  1.00  0.00     0.002 C 
ENDBRANCH  15  17
ENDBRANCH  12  15
ENDBRANCH   6   9
ENDBRANCH   4   5
ENDBRANCH   3   4
ENDBRANCH   2   3
ENDBRANCH   1   2
BRANCH   1  26
ATOM     26  C   UNL A   1      40.415  22.295  27.578  1.00  0.00     0.021 C 
BRANCH  26  27
ATOM     27  C   UNL A   1      41.763  23.009  27.551  1.00  0.00     0.116 C 
BRANCH  27  28
ATOM     28  N   UNL A   1      41.986  23.753  26.325  1.00  0.00    -0.352 N 
ATOM     29  C   UNL A   1      41.921  25.104  26.091  1.00  0.00     0.251 C 
ATOM     30  H   UNL A   1      42.220  23.206  25.541  1.00  0.00     0.163 HD
ATOM     31  O   UNL A   1      42.027  25.522  24.942  1.00  0.00    -0.269 OA
BRANCH  29  32
ATOM     32  C   UNL A   1      41.696  26.058  27.204  1.00  0.00     0.039 A 
ATOM     33  C   UNL A   1      40.577  25.874  28.022  1.00  0.00     0.014 A 
ATOM     34  C   UNL A   1      42.548  27.144  27.430  1.00  0.00     0.014 A 
ATOM     35  C   UNL A   1      40.342  26.744  29.091  1.00  0.00     0.010 A 
ATOM     36  C   UNL A   1      42.349  27.971  28.536  1.00  0.00     0.010 A 
ATOM     37  C   UNL A   1      41.240  27.785  29.374  1.00  0.00    -0.014 A 
BRANCH  37  38
ATOM     38  C   UNL A   1      41.020  28.686  30.536  1.00  0.00     0.031 A 
ATOM     39  C   UNL A   1      41.872  28.561  31.771  1.00  0.00     0.074 A 
ATOM     40  C   UNL A   1      40.026  29.596  30.495  1.00  0.00     0.049 A 
ATOM     41  N   UNL A   1      41.812  29.240  32.887  1.00  0.00    -0.248 NA
ATOM     42  C   UNL A   1      42.912  27.521  31.759  1.00  0.00     0.031 C 
ATOM     43  C   UNL A   1      39.099  29.785  29.376  1.00  0.00     0.029 A 
ATOM     44  N   UNL A   1      39.626  30.531  31.417  1.00  0.00    -0.354 N 
ATOM     45  C   UNL A   1      42.797  28.706  33.712  1.00  0.00     0.074 A 
ATOM     46  C   UNL A   1      43.403  27.611  32.986  1.00  0.00     0.031 C 
ATOM     47  C   UNL A   1      38.256  30.789  29.667  1.00  0.00     0.029 A 
ATOM     48  C   UNL A   1      38.561  31.296  31.002  1.00  0.00     0.049 A 
ATOM     49  H   UNL A   1      40.061  30.643  32.292  1.00  0.00     0.167 HD
ATOM     50  C   UNL A   1      43.178  29.106  34.949  1.00  0.00     0.037 A 
ATOM     51  C   UNL A   1      37.902  32.292  31.626  1.00  0.00     0.037 A 
ATOM     52  C   UNL A   1      42.590  30.214  35.657  1.00  0.00     0.049 A 
ATOM     53  C   UNL A   1      38.347  32.723  32.997  1.00  0.00     0.074 A 
ATOM     54  C   UNL A   1      42.947  30.735  36.889  1.00  0.00     0.029 A 
ATOM     55  N   UNL A   1      41.524  30.973  35.197  1.00  0.00    -0.354 N 
ATOM     56  N   UNL A   1      39.324  32.247  33.732  1.00  0.00    -0.248 NA
ATOM     57  C   UNL A   1      37.609  33.831  33.619  1.00  0.00     0.031 C 
ATOM     58  C   UNL A   1      42.071  31.783  37.193  1.00  0.00     0.029 A 
ATOM     59  C   UNL A   1      41.197  31.944  36.130  1.00  0.00     0.049 A 
ATOM     60  H   UNL A   1      41.067  30.840  34.336  1.00  0.00     0.167 HD
ATOM     61  C   UNL A   1      39.329  33.012  34.895  1.00  0.00     0.074 A 
ATOM     62  C   UNL A   1      38.270  33.990  34.757  1.00  0.00     0.031 C 
ATOM     63  C   UNL A   1      40.140  32.913  35.978  1.00  0.00     0.037 A 
BRANCH  50  64
ATOM     64  C   UNL A   1      44.292  28.345  35.614  1.00  0.00     0.058 A 
ATOM     65  C   UNL A   1      45.636  28.720  35.456  1.00  0.00     0.135 A 
ATOM     66  C   UNL A   1      44.012  27.249  36.447  1.00  0.00     0.135 A 
ATOM     67  F   UNL A   1      45.961  29.750  34.659  1.00  0.00    -0.206 F 
ATOM     68  C   UNL A   1      46.665  28.017  36.073  1.00  0.00     0.059 A 
ATOM     69  C   UNL A   1      45.025  26.549  37.097  1.00  0.00     0.059 A 
ATOM     70  F   UNL A   1      42.746  26.848  36.636  1.00  0.00    -0.206 F 
ATOM     71  C   UNL A   1      46.350  26.931  36.891  1.00  0.00     0.060 A 
BRANCH  71  72
ATOM     72  S   UNL A   1      47.698  26.029  37.685  1.00  0.00     0.124 S 
ATOM     73  O   UNL A   1      47.767  24.827  36.861  1.00  0.00    -0.237 OA
ATOM     74  O   UNL A   1      48.817  26.955  37.550  1.00  0.00    -0.237 OA
ATOM     75  O   UNL A   1      47.215  25.828  39.048  1.00  0.00    -0.744 OA
ENDBRANCH  71  72
ENDBRANCH  50  64
BRANCH  51  76
ATOM     76  C   UNL A   1      36.765  32.970  30.948  1.00  0.00     0.058 A 
ATOM     77  C   UNL A   1      35.441  32.725  31.342  1.00  0.00     0.135 A 
ATOM     78  C   UNL A   1      36.979  33.881  29.903  1.00  0.00     0.135 A 
ATOM     79  F   UNL A   1      35.186  31.856  32.333  1.00  0.00    -0.206 F 
ATOM     80  C   UNL A   1      34.368  33.346  30.714  1.00  0.00     0.059 A 
ATOM     81  C   UNL A   1      35.923  34.534  29.275  1.00  0.00     0.059 A 
ATOM     82  F   UNL A   1      38.228  34.163  29.501  1.00  0.00    -0.206 F 
ATOM     83  C   UNL A   1      34.619  34.251  29.681  1.00  0.00     0.060 A 
BRANCH  83  84
ATOM     84  S   UNL A   1      33.221  35.088  28.901  1.00  0.00     0.124 S 
ATOM     85  O   UNL A   1      32.730  34.057  27.995  1.00  0.00    -0.237 OA
ATOM     86  O   UNL A   1      32.368  35.393  30.046  1.00  0.00    -0.237 OA
ATOM     87  O   UNL A   1      33.839  36.247  28.265  1.00  0.00    -0.744 OA
ENDBRANCH  83  84
ENDBRANCH  51  76
BRANCH  63  88
ATOM     88  C   UNL A   1      39.927  33.900  37.092  1.00  0.00     0.058 A 
ATOM     89  C   UNL A   1      40.542  35.161  37.086  1.00  0.00     0.135 A 
ATOM     90  C   UNL A   1      39.062  33.596  38.157  1.00  0.00     0.135 A 
ATOM     91  F   UNL A   1      41.383  35.497  36.095  1.00  0.00    -0.206 F 
ATOM     92  C   UNL A   1      40.328  36.078  38.109  1.00  0.00     0.059 A 
ATOM     93  C   UNL A   1      38.812  34.507  39.177  1.00  0.00     0.059 A 
ATOM     94  F   UNL A   1      38.440  32.407  38.205  1.00  0.00    -0.206 F 
ATOM     95  C   UNL A   1      39.461  35.742  39.151  1.00  0.00     0.060 A 
BRANCH  95  96
ATOM     96  S   UNL A   1      39.167  36.952  40.459  1.00  0.00     0.124 S 
ATOM     97  O   UNL A   1      40.526  37.221  40.920  1.00  0.00    -0.237 OA
ATOM     98  O   UNL A   1      38.515  38.041  39.738  1.00  0.00    -0.237 OA
ATOM     99  O   UNL A   1      38.315  36.233  41.401  1.00  0.00    -0.744 OA
ENDBRANCH  95  96
ENDBRANCH  63  88
ENDBRANCH  37  38
ENDBRANCH  29  32
ENDBRANCH  27  28
ENDBRANCH  26  27
ENDBRANCH   1  26
TORSDOF 18
ENDMDL
MODEL 3
REMARK VINA RESULT:     -11.5      0.635      8.150
REMARK SMILES C[C@@H]1[C@@H](C(=O)NCCCCCCNC(=O)c2ccc(-c3c4nc(c(-c5c(F)cc(S(=O)(=O)[O-])cc5F)c5ccc([nH]5)c(-c5c(F)cc(S(=O)(=O)[O-])cc5F)c5nc(c(-c6c(F)cc(S(=O)(=O)[O-])cc6F)c6ccc3[nH]6)C=C5)C=C4)cc2)CCN1C(=O)N1CCC[C@H]2CCC[C@@H]21
REMARK SMILES IDX 10 1 9 2 8 3 7 4 6 5 4 6 5 7 3 9 1 10 2 11 84 12 82 13 83 14
REMARK SMILES IDX 85 15 86 16 87 17 88 18 95 19 89 20 91 21 94 22 90 23 92 24
REMARK SMILES IDX 93 25 11 26 12 27 13 28 14 29 15 31 16 32 17 33 81 34 18 35
REMARK SMILES IDX 80 36 19 37 20 38 21 39 74 40 22 41 79 42 73 43 75 44 23 45
REMARK SMILES IDX 78 46 72 47 71 48 24 50 58 51 37 52 57 53 38 54 41 55 56 56
REMARK SMILES IDX 76 57 39 58 40 59 55 61 77 62 42 63 25 64 26 65 35 66 27 67
REMARK SMILES IDX 28 68 34 69 36 70 29 71 30 72 31 73 32 74 33 75 59 76 60 77
REMARK SMILES IDX 69 78 61 79 62 80 68 81 70 82 63 83 64 84 65 85 66 86 67 87
REMARK SMILES IDX 43 88 44 89 53 90 45 91 46 92 52 93 54 94 47 95 48 96 49 97
REMARK SMILES IDX 50 98 51 99
REMARK H PARENT 6 8 13 30 75 49 41 60
REMARK Flexibility Score: inf
ROOT
ATOM      1  C   UNL A   1      34.749  29.475  27.692  1.00  0.00     0.002 C 
ENDROOT
BRANCH   1   2
ATOM      2  C   UNL A   1      33.642  28.878  26.819  1.00  0.00     0.002 C 
BRANCH   2   3
ATOM      3  C   UNL A   1      33.271  29.669  25.560  1.00  0.00     0.021 C 
BRANCH   3   4
ATOM      4  C   UNL A   1      31.781  29.758  25.248  1.00  0.00     0.116 C 
BRANCH   4   5
ATOM      5  N   UNL A   1      31.452  29.336  23.901  1.00  0.00    -0.356 N 
ATOM      6  C   UNL A   1      30.904  28.156  23.479  1.00  0.00     0.225 C 
ATOM      7  O   UNL A   1      30.671  28.030  22.277  1.00  0.00    -0.275 OA
ATOM      8  H   UNL A   1      31.649  29.989  23.191  1.00  0.00     0.163 HD
BRANCH   6   9
ATOM      9  C   UNL A   1      30.705  27.032  24.490  1.00  0.00     0.102 C 
ATOM     10  C   UNL A   1      32.023  25.720  26.154  1.00  0.00     0.032 C 
ATOM     11  C   UNL A   1      31.987  26.189  24.693  1.00  0.00     0.096 C 
ATOM     12  N   UNL A   1      31.843  25.075  23.735  1.00  0.00    -0.321 N 
ATOM     13  C   UNL A   1      29.680  25.973  24.069  1.00  0.00     0.037 C 
ATOM     14  C   UNL A   1      30.485  24.999  23.232  1.00  0.00     0.122 C 
BRANCH  12  15
ATOM     15  C   UNL A   1      32.830  24.480  22.963  1.00  0.00     0.320 C 
ATOM     16  O   UNL A   1      33.393  25.078  22.046  1.00  0.00    -0.248 OA
BRANCH  15  17
ATOM     17  N   UNL A   1      33.237  23.231  23.360  1.00  0.00    -0.321 N 
ATOM     18  C   UNL A   1      32.727  22.030  22.715  1.00  0.00     0.121 C 
ATOM     19  C   UNL A   1      34.515  23.023  24.011  1.00  0.00     0.090 C 
ATOM     20  C   UNL A   1      32.522  20.912  23.741  1.00  0.00     0.022 C 
ATOM     21  C   UNL A   1      34.280  22.028  25.149  1.00  0.00     0.012 C 
ATOM     22  C   UNL A   1      35.197  24.173  24.745  1.00  0.00     0.025 C 
ATOM     23  C   UNL A   1      33.776  20.691  24.608  1.00  0.00     0.007 C 
ATOM     24  C   UNL A   1      35.609  22.026  25.883  1.00  0.00     0.006 C 
ATOM     25  C   UNL A   1      36.108  23.474  25.765  1.00  0.00     0.002 C 
ENDBRANCH  15  17
ENDBRANCH  12  15
ENDBRANCH   6   9
ENDBRANCH   4   5
ENDBRANCH   3   4
ENDBRANCH   2   3
ENDBRANCH   1   2
BRANCH   1  26
ATOM     26  C   UNL A   1      34.891  30.999  27.659  1.00  0.00     0.021 C 
BRANCH  26  27
ATOM     27  C   UNL A   1      35.854  31.602  28.676  1.00  0.00     0.116 C 
BRANCH  27  28
ATOM     28  N   UNL A   1      35.730  31.012  29.996  1.00  0.00    -0.352 N 
ATOM     29  C   UNL A   1      36.614  30.229  30.696  1.00  0.00     0.251 C 
ATOM     30  H   UNL A   1      34.882  31.200  30.460  1.00  0.00     0.163 HD
ATOM     31  O   UNL A   1      36.261  29.727  31.760  1.00  0.00    -0.269 OA
BRANCH  29  32
ATOM     32  C   UNL A   1      37.975  29.963  30.172  1.00  0.00     0.039 A 
ATOM     33  C   UNL A   1      39.016  29.778  31.087  1.00  0.00     0.014 A 
ATOM     34  C   UNL A   1      38.244  29.927  28.800  1.00  0.00     0.014 A 
ATOM     35  C   UNL A   1      40.310  29.510  30.630  1.00  0.00     0.010 A 
ATOM     36  C   UNL A   1      39.521  29.593  28.346  1.00  0.00     0.010 A 
ATOM     37  C   UNL A   1      40.569  29.388  29.256  1.00  0.00    -0.014 A 
BRANCH  37  38
ATOM     38  C   UNL A   1      41.933  29.058  28.764  1.00  0.00     0.031 A 
ATOM     39  C   UNL A   1      42.263  27.662  28.311  1.00  0.00     0.074 A 
ATOM     40  C   UNL A   1      42.888  30.010  28.761  1.00  0.00     0.049 A 
ATOM     41  N   UNL A   1      43.400  27.182  27.875  1.00  0.00    -0.248 NA
ATOM     42  C   UNL A   1      41.182  26.666  28.379  1.00  0.00     0.031 C 
ATOM     43  C   UNL A   1      42.709  31.389  29.220  1.00  0.00     0.029 A 
ATOM     44  N   UNL A   1      44.201  29.963  28.360  1.00  0.00    -0.354 N 
ATOM     45  C   UNL A   1      43.174  25.832  27.624  1.00  0.00     0.074 A 
ATOM     46  C   UNL A   1      41.806  25.558  28.009  1.00  0.00     0.031 C 
ATOM     47  C   UNL A   1      43.859  32.063  29.053  1.00  0.00     0.029 A 
ATOM     48  C   UNL A   1      44.865  31.158  28.503  1.00  0.00     0.049 A 
ATOM     49  H   UNL A   1      44.625  29.150  28.004  1.00  0.00     0.167 HD
ATOM     50  C   UNL A   1      44.019  24.913  27.101  1.00  0.00     0.037 A 
ATOM     51  C   UNL A   1      46.141  31.490  28.225  1.00  0.00     0.037 A 
ATOM     52  C   UNL A   1      45.372  25.196  26.694  1.00  0.00     0.049 A 
ATOM     53  C   UNL A   1      47.059  30.453  27.638  1.00  0.00     0.074 A 
ATOM     54  C   UNL A   1      46.287  24.347  26.097  1.00  0.00     0.029 A 
ATOM     55  N   UNL A   1      46.003  26.423  26.841  1.00  0.00    -0.354 N 
ATOM     56  N   UNL A   1      46.807  29.199  27.348  1.00  0.00    -0.248 NA
ATOM     57  C   UNL A   1      48.433  30.878  27.330  1.00  0.00     0.031 C 
ATOM     58  C   UNL A   1      47.485  25.047  25.919  1.00  0.00     0.029 A 
ATOM     59  C   UNL A   1      47.302  26.347  26.365  1.00  0.00     0.049 A 
ATOM     60  H   UNL A   1      45.590  27.227  27.227  1.00  0.00     0.167 HD
ATOM     61  C   UNL A   1      47.983  28.691  26.805  1.00  0.00     0.074 A 
ATOM     62  C   UNL A   1      48.941  29.778  26.793  1.00  0.00     0.031 C 
ATOM     63  C   UNL A   1      48.244  27.438  26.357  1.00  0.00     0.037 A 
BRANCH  50  64
ATOM     64  C   UNL A   1      43.502  23.511  26.927  1.00  0.00     0.058 A 
ATOM     65  C   UNL A   1      43.329  22.650  28.022  1.00  0.00     0.135 A 
ATOM     66  C   UNL A   1      43.142  23.033  25.656  1.00  0.00     0.135 A 
ATOM     67  F   UNL A   1      43.671  23.049  29.257  1.00  0.00    -0.206 F 
ATOM     68  C   UNL A   1      42.848  21.355  27.861  1.00  0.00     0.059 A 
ATOM     69  C   UNL A   1      42.632  21.750  25.475  1.00  0.00     0.059 A 
ATOM     70  F   UNL A   1      43.285  23.814  24.574  1.00  0.00    -0.206 F 
ATOM     71  C   UNL A   1      42.504  20.913  26.583  1.00  0.00     0.060 A 
BRANCH  71  72
ATOM     72  S   UNL A   1      41.881  19.229  26.390  1.00  0.00     0.124 S 
ATOM     73  O   UNL A   1      42.200  18.651  27.692  1.00  0.00    -0.237 OA
ATOM     74  O   UNL A   1      40.463  19.447  26.125  1.00  0.00    -0.237 OA
ATOM     75  O   UNL A   1      42.653  18.707  25.266  1.00  0.00    -0.744 OA
ENDBRANCH  71  72
ENDBRANCH  50  64
BRANCH  51  76
ATOM     76  C   UNL A   1      46.620  32.876  28.474  1.00  0.00     0.058 A 
ATOM     77  C   UNL A   1      47.208  33.226  29.699  1.00  0.00     0.135 A 
ATOM     78  C   UNL A   1      46.510  33.872  27.493  1.00  0.00     0.135 A 
ATOM     79  F   UNL A   1      47.330  32.308  30.671  1.00  0.00    -0.206 F 
ATOM     80  C   UNL A   1      47.655  34.518  29.949  1.00  0.00     0.059 A 
ATOM     81  C   UNL A   1      46.971  35.167  27.710  1.00  0.00     0.059 A 
ATOM     82  F   UNL A   1      45.970  33.584  26.298  1.00  0.00    -0.206 F 
ATOM     83  C   UNL A   1      47.533  35.482  28.947  1.00  0.00     0.060 A 
BRANCH  83  84
ATOM     84  S   UNL A   1      48.158  37.147  29.265  1.00  0.00     0.124 S 
ATOM     85  O   UNL A   1      47.928  37.278  30.699  1.00  0.00    -0.237 OA
ATOM     86  O   UNL A   1      49.552  37.037  28.848  1.00  0.00    -0.237 OA
ATOM     87  O   UNL A   1      47.322  37.986  28.411  1.00  0.00    -0.744 OA
ENDBRANCH  83  84
ENDBRANCH  51  76
BRANCH  63  88
ATOM     88  C   UNL A   1      49.615  27.178  25.797  1.00  0.00     0.058 A 
ATOM     89  C   UNL A   1      50.675  26.752  26.612  1.00  0.00     0.135 A 
ATOM     90  C   UNL A   1      49.860  27.315  24.421  1.00  0.00     0.135 A 
ATOM     91  F   UNL A   1      50.495  26.612  27.935  1.00  0.00    -0.206 F 
ATOM     92  C   UNL A   1      51.937  26.495  26.087  1.00  0.00     0.059 A 
ATOM     93  C   UNL A   1      51.106  27.039  23.869  1.00  0.00     0.059 A 
ATOM     94  F   UNL A   1      48.877  27.710  23.595  1.00  0.00    -0.206 F 
ATOM     95  C   UNL A   1      52.143  26.641  24.714  1.00  0.00     0.060 A 
BRANCH  95  96
ATOM     96  S   UNL A   1      53.777  26.276  24.038  1.00  0.00     0.124 S 
ATOM     97  O   UNL A   1      54.138  25.070  24.778  1.00  0.00    -0.237 OA
ATOM     98  O   UNL A   1      53.495  26.088  22.618  1.00  0.00    -0.237 OA
ATOM     99  O   UNL A   1      54.554  27.469  24.364  1.00  0.00    -0.744 OA
ENDBRANCH  95  96
ENDBRANCH  63  88
ENDBRANCH  37  38
ENDBRANCH  29  32
ENDBRANCH  27  28
ENDBRANCH  26  27
ENDBRANCH   1  26
TORSDOF 18
ENDMDL
