MODEL 1
REMARK VINA RESULT:     -11.9      0.000      0.000
REMARK SMILES C[C@H](Oc1ccccc1Cl)C(=O)N1CCCC[C@H]1C(=O)NCCCCCCNC(=O)c1ccc(-c2c3nc(c(-c4c(F)cc(S(=O)(=O)[O-])cc4F)c4ccc([nH]4)c(-c4c(F)cc(S(=O)(=O)[O-])cc4F)c4nc(c(-c5c(F)cc(S(=O)(=O)[O-])cc5F)c5ccc2[nH]5)C=C4)C=C3)cc1
REMARK SMILES IDX 24 1 23 2 22 3 21 4 19 5 20 6 18 8 13 9 14 10 15 11 17 12
REMARK SMILES IDX 16 13 11 14 12 15 2 16 1 17 3 18 4 19 5 20 9 21 6 22 8 23
REMARK SMILES IDX 10 24 7 25 25 26 26 27 27 28 28 29 29 30 30 32 31 33 32 34
REMARK SMILES IDX 96 35 33 36 95 37 34 38 35 39 36 40 89 41 37 42 94 43 88 44
REMARK SMILES IDX 90 45 38 46 93 47 87 48 86 49 39 51 73 52 52 53 72 54 53 55
REMARK SMILES IDX 56 56 71 57 91 58 54 59 55 60 70 62 92 63 57 64 40 65 41 66
REMARK SMILES IDX 50 67 42 68 43 69 49 70 51 71 44 72 45 73 46 74 47 75 48 76
REMARK SMILES IDX 74 77 75 78 84 79 76 80 77 81 83 82 85 83 78 84 79 85 80 86
REMARK SMILES IDX 81 87 82 88 58 89 59 90 68 91 60 92 61 93 67 94 69 95 62 96
REMARK SMILES IDX 63 97 64 98 65 99 66 100
REMARK H PARENT 21 7 28 31 90 50 56 61
REMARK Flexibility Score: inf
ROOT
ATOM      1  C   UNL A   1      37.241  21.957  24.371  1.00  0.00     0.002 C 
ENDROOT
BRANCH   1   2
ATOM      2  C   UNL A   1      36.676  22.728  23.182  1.00  0.00     0.021 C 
BRANCH   2   3
ATOM      3  C   UNL A   1      35.351  23.429  23.451  1.00  0.00     0.116 C 
BRANCH   3   4
ATOM      4  N   UNL A   1      34.215  22.553  23.387  1.00  0.00    -0.354 N 
ATOM      5  C   UNL A   1      33.029  22.695  24.049  1.00  0.00     0.242 C 
ATOM      6  O   UNL A   1      32.238  21.751  23.968  1.00  0.00    -0.273 OA
ATOM      7  H   UNL A   1      34.301  21.765  22.803  1.00  0.00     0.163 HD
BRANCH   5   8
ATOM      8  C   UNL A   1      32.762  23.951  24.949  1.00  0.00     0.174 C 
ATOM      9  N   UNL A   1      31.372  24.103  25.452  1.00  0.00    -0.327 N 
ATOM     10  C   UNL A   1      30.955  23.029  26.352  1.00  0.00     0.120 C 
ATOM     11  C   UNL A   1      31.860  22.941  27.578  1.00  0.00     0.022 C 
ATOM     12  C   UNL A   1      33.714  23.933  26.169  1.00  0.00     0.035 C 
ATOM     13  C   UNL A   1      33.331  22.846  27.182  1.00  0.00     0.004 C 
BRANCH   9  14
ATOM     14  C   UNL A   1      30.778  25.362  25.661  1.00  0.00     0.264 C 
ATOM     15  O   UNL A   1      29.701  25.462  26.260  1.00  0.00    -0.271 OA
BRANCH  14  16
ATOM     16  C   UNL A   1      31.330  26.597  24.885  1.00  0.00     0.259 C 
ATOM     17  C   UNL A   1      31.329  27.756  25.896  1.00  0.00     0.064 C 
BRANCH  16  18
ATOM     18  O   UNL A   1      30.637  26.749  23.653  1.00  0.00    -0.479 OA
BRANCH  18  19
ATOM     19  C   UNL A   1      29.781  27.756  23.322  1.00  0.00     0.139 A 
ATOM     20  C   UNL A   1      28.399  27.758  23.505  1.00  0.00     0.048 A 
ATOM     21  C   UNL A   1      30.362  28.853  22.652  1.00  0.00     0.083 A 
ATOM     22  C   UNL A   1      27.604  28.753  22.916  1.00  0.00     0.004 A 
ATOM     23  C   UNL A   1      29.573  29.860  22.090  1.00  0.00     0.024 A 
ATOM     24  Cl  UNL A   1      32.079  29.004  22.485  1.00  0.00    -0.080 Cl
ATOM     25  C   UNL A   1      28.188  29.791  22.194  1.00  0.00     0.002 A 
ENDBRANCH  18  19
ENDBRANCH  16  18
ENDBRANCH  14  16
ENDBRANCH   9  14
ENDBRANCH   5   8
ENDBRANCH   3   4
ENDBRANCH   2   3
ENDBRANCH   1   2
BRANCH   1  26
ATOM     26  C   UNL A   1      37.072  22.642  25.733  1.00  0.00     0.002 C 
BRANCH  26  27
ATOM     27  C   UNL A   1      38.010  23.822  26.016  1.00  0.00     0.021 C 
BRANCH  27  28
ATOM     28  C   UNL A   1      39.259  23.494  26.830  1.00  0.00     0.116 C 
BRANCH  28  29
ATOM     29  N   UNL A   1      40.482  23.825  26.122  1.00  0.00    -0.352 N 
ATOM     30  C   UNL A   1      41.340  24.885  26.279  1.00  0.00     0.251 C 
ATOM     31  H   UNL A   1      40.737  23.188  25.416  1.00  0.00     0.163 HD
ATOM     32  O   UNL A   1      42.219  25.075  25.444  1.00  0.00    -0.269 OA
BRANCH  30  33
ATOM     33  C   UNL A   1      41.204  25.804  27.430  1.00  0.00     0.039 A 
ATOM     34  C   UNL A   1      42.161  26.810  27.598  1.00  0.00     0.014 A 
ATOM     35  C   UNL A   1      40.173  25.661  28.363  1.00  0.00     0.014 A 
ATOM     36  C   UNL A   1      42.054  27.700  28.669  1.00  0.00     0.010 A 
ATOM     37  C   UNL A   1      40.029  26.592  29.392  1.00  0.00     0.010 A 
ATOM     38  C   UNL A   1      40.969  27.620  29.558  1.00  0.00    -0.014 A 
BRANCH  38  39
ATOM     39  C   UNL A   1      40.805  28.612  30.654  1.00  0.00     0.031 A 
ATOM     40  C   UNL A   1      41.622  28.505  31.912  1.00  0.00     0.074 A 
ATOM     41  C   UNL A   1      39.868  29.574  30.539  1.00  0.00     0.049 A 
ATOM     42  N   UNL A   1      41.580  29.249  32.989  1.00  0.00    -0.248 NA
ATOM     43  C   UNL A   1      42.592  27.402  31.982  1.00  0.00     0.031 C 
ATOM     44  C   UNL A   1      38.970  29.746  29.395  1.00  0.00     0.029 A 
ATOM     45  N   UNL A   1      39.505  30.580  31.401  1.00  0.00    -0.354 N 
ATOM     46  C   UNL A   1      42.504  28.697  33.869  1.00  0.00     0.074 A 
ATOM     47  C   UNL A   1      43.054  27.525  33.219  1.00  0.00     0.031 C 
ATOM     48  C   UNL A   1      38.168  30.797  29.621  1.00  0.00     0.029 A 
ATOM     49  C   UNL A   1      38.467  31.353  30.937  1.00  0.00     0.049 A 
ATOM     50  H   UNL A   1      39.944  30.732  32.269  1.00  0.00     0.167 HD
ATOM     51  C   UNL A   1      42.876  29.136  35.096  1.00  0.00     0.037 A 
ATOM     52  C   UNL A   1      37.818  32.386  31.509  1.00  0.00     0.037 A 
ATOM     53  C   UNL A   1      42.338  30.314  35.727  1.00  0.00     0.049 A 
ATOM     54  C   UNL A   1      38.256  32.869  32.863  1.00  0.00     0.074 A 
ATOM     55  C   UNL A   1      42.702  30.886  36.934  1.00  0.00     0.029 A 
ATOM     56  N   UNL A   1      41.311  31.093  35.212  1.00  0.00    -0.354 N 
ATOM     57  N   UNL A   1      39.194  32.388  33.645  1.00  0.00    -0.248 NA
ATOM     58  C   UNL A   1      37.558  34.041  33.411  1.00  0.00     0.031 C 
ATOM     59  C   UNL A   1      41.861  31.978  37.174  1.00  0.00     0.029 A 
ATOM     60  C   UNL A   1      41.008  32.122  36.090  1.00  0.00     0.049 A 
ATOM     61  H   UNL A   1      40.864  30.938  34.350  1.00  0.00     0.167 HD
ATOM     62  C   UNL A   1      39.211  33.208  34.768  1.00  0.00     0.074 A 
ATOM     63  C   UNL A   1      38.201  34.225  34.556  1.00  0.00     0.031 C 
ATOM     64  C   UNL A   1      39.994  33.125  35.873  1.00  0.00     0.037 A 
BRANCH  51  65
ATOM     65  C   UNL A   1      43.906  28.328  35.842  1.00  0.00     0.058 A 
ATOM     66  C   UNL A   1      45.284  28.549  35.680  1.00  0.00     0.135 A 
ATOM     67  C   UNL A   1      43.509  27.324  36.740  1.00  0.00     0.135 A 
ATOM     68  F   UNL A   1      45.722  29.489  34.827  1.00  0.00    -0.206 F 
ATOM     69  C   UNL A   1      46.230  27.774  36.342  1.00  0.00     0.059 A 
ATOM     70  C   UNL A   1      44.437  26.558  37.439  1.00  0.00     0.059 A 
ATOM     71  F   UNL A   1      42.206  27.071  36.940  1.00  0.00    -0.206 F 
ATOM     72  C   UNL A   1      45.796  26.775  37.216  1.00  0.00     0.060 A 
BRANCH  72  73
ATOM     73  S   UNL A   1      47.035  25.757  38.046  1.00  0.00     0.124 S 
ATOM     74  O   UNL A   1      46.527  25.742  39.414  1.00  0.00    -0.237 OA
ATOM     75  O   UNL A   1      46.940  24.495  37.320  1.00  0.00    -0.237 OA
ATOM     76  O   UNL A   1      48.275  26.500  37.846  1.00  0.00    -0.744 OA
ENDBRANCH  72  73
ENDBRANCH  51  65
BRANCH  52  77
ATOM     77  C   UNL A   1      36.691  33.033  30.785  1.00  0.00     0.058 A 
ATOM     78  C   UNL A   1      35.361  32.827  31.176  1.00  0.00     0.135 A 
ATOM     79  C   UNL A   1      36.931  33.914  29.718  1.00  0.00     0.135 A 
ATOM     80  F   UNL A   1      35.081  31.989  32.186  1.00  0.00    -0.206 F 
ATOM     81  C   UNL A   1      34.306  33.470  30.535  1.00  0.00     0.059 A 
ATOM     82  C   UNL A   1      35.896  34.587  29.079  1.00  0.00     0.059 A 
ATOM     83  F   UNL A   1      38.189  34.158  29.319  1.00  0.00    -0.206 F 
ATOM     84  C   UNL A   1      34.585  34.356  29.492  1.00  0.00     0.060 A 
BRANCH  84  85
ATOM     85  S   UNL A   1      33.216  35.248  28.724  1.00  0.00     0.124 S 
ATOM     86  O   UNL A   1      33.923  36.248  27.934  1.00  0.00    -0.237 OA
ATOM     87  O   UNL A   1      32.549  34.191  27.970  1.00  0.00    -0.237 OA
ATOM     88  O   UNL A   1      32.467  35.759  29.867  1.00  0.00    -0.744 OA
ENDBRANCH  84  85
ENDBRANCH  52  77
BRANCH  64  89
ATOM     89  C   UNL A   1      39.804  34.173  36.936  1.00  0.00     0.058 A 
ATOM     90  C   UNL A   1      39.029  33.933  38.082  1.00  0.00     0.135 A 
ATOM     91  C   UNL A   1      40.446  35.419  36.830  1.00  0.00     0.135 A 
ATOM     92  F   UNL A   1      38.388  32.763  38.231  1.00  0.00    -0.206 F 
ATOM     93  C   UNL A   1      38.877  34.898  39.073  1.00  0.00     0.059 A 
ATOM     94  C   UNL A   1      40.331  36.387  37.823  1.00  0.00     0.059 A 
ATOM     95  F   UNL A   1      41.208  35.698  35.760  1.00  0.00    -0.206 F 
ATOM     96  C   UNL A   1      39.534  36.122  38.934  1.00  0.00     0.060 A 
BRANCH  96  97
ATOM     97  S   UNL A   1      39.351  37.355  40.241  1.00  0.00     0.124 S 
ATOM     98  O   UNL A   1      40.740  37.732  40.485  1.00  0.00    -0.237 OA
ATOM     99  O   UNL A   1      38.522  38.370  39.600  1.00  0.00    -0.237 OA
ATOM    100  O   UNL A   1      38.704  36.613  41.319  1.00  0.00    -0.744 OA
ENDBRANCH  96  97
ENDBRANCH  64  89
ENDBRANCH  38  39
ENDBRANCH  30  33
ENDBRANCH  28  29
ENDBRANCH  27  28
ENDBRANCH  26  27
ENDBRANCH   1  26
TORSDOF 20
ENDMDL
MODEL 2
REMARK VINA RESULT:     -11.4      3.258      9.513
REMARK SMILES C[C@H](Oc1ccccc1Cl)C(=O)N1CCCC[C@H]1C(=O)NCCCCCCNC(=O)c1ccc(-c2c3nc(c(-c4c(F)cc(S(=O)(=O)[O-])cc4F)c4ccc([nH]4)c(-c4c(F)cc(S(=O)(=O)[O-])cc4F)c4nc(c(-c5c(F)cc(S(=O)(=O)[O-])cc5F)c5ccc2[nH]5)C=C4)C=C3)cc1
REMARK SMILES IDX 24 1 23 2 22 3 21 4 19 5 20 6 18 8 13 9 14 10 15 11 17 12
REMARK SMILES IDX 16 13 11 14 12 15 2 16 1 17 3 18 4 19 5 20 9 21 6 22 8 23
REMARK SMILES IDX 10 24 7 25 25 26 26 27 27 28 28 29 29 30 30 32 31 33 32 34
REMARK SMILES IDX 96 35 33 36 95 37 34 38 35 39 36 40 89 41 37 42 94 43 88 44
REMARK SMILES IDX 90 45 38 46 93 47 87 48 86 49 39 51 73 52 52 53 72 54 53 55
REMARK SMILES IDX 56 56 71 57 91 58 54 59 55 60 70 62 92 63 57 64 40 65 41 66
REMARK SMILES IDX 50 67 42 68 43 69 49 70 51 71 44 72 45 73 46 74 47 75 48 76
REMARK SMILES IDX 74 77 75 78 84 79 76 80 77 81 83 82 85 83 78 84 79 85 80 86
REMARK SMILES IDX 81 87 82 88 58 89 59 90 68 91 60 92 61 93 67 94 69 95 62 96
REMARK SMILES IDX 63 97 64 98 65 99 66 100
REMARK H PARENT 21 7 28 31 90 50 56 61
REMARK Flexibility Score: inf
ROOT
ATOM      1  C   UNL A   1      31.199  27.353  26.148  1.00  0.00     0.002 C 
ENDROOT
BRANCH   1   2
ATOM      2  C   UNL A   1      31.473  25.854  26.226  1.00  0.00     0.021 C 
BRANCH   2   3
ATOM      3  C   UNL A   1      30.724  25.017  25.197  1.00  0.00     0.116 C 
BRANCH   3   4
ATOM      4  N   UNL A   1      30.390  23.700  25.663  1.00  0.00    -0.354 N 
ATOM      5  C   UNL A   1      30.992  22.526  25.311  1.00  0.00     0.242 C 
ATOM      6  O   UNL A   1      30.456  21.490  25.713  1.00  0.00    -0.273 OA
ATOM      7  H   UNL A   1      29.646  23.638  26.305  1.00  0.00     0.163 HD
BRANCH   5   8
ATOM      8  C   UNL A   1      32.231  22.521  24.350  1.00  0.00     0.174 C 
ATOM      9  N   UNL A   1      33.563  22.506  25.011  1.00  0.00    -0.327 N 
ATOM     10  C   UNL A   1      33.815  21.295  25.789  1.00  0.00     0.120 C 
ATOM     11  C   UNL A   1      33.742  20.043  24.919  1.00  0.00     0.022 C 
ATOM     12  C   UNL A   1      32.154  21.301  23.402  1.00  0.00     0.035 C 
ATOM     13  C   UNL A   1      32.433  19.982  24.135  1.00  0.00     0.004 C 
BRANCH   9  14
ATOM     14  C   UNL A   1      34.689  23.140  24.454  1.00  0.00     0.264 C 
ATOM     15  O   UNL A   1      35.091  22.839  23.324  1.00  0.00    -0.271 OA
BRANCH  14  16
ATOM     16  C   UNL A   1      35.601  24.008  25.374  1.00  0.00     0.259 C 
ATOM     17  C   UNL A   1      35.011  25.428  25.320  1.00  0.00     0.064 C 
BRANCH  16  18
ATOM     18  O   UNL A   1      36.968  23.810  25.035  1.00  0.00    -0.479 OA
BRANCH  18  19
ATOM     19  C   UNL A   1      37.970  23.442  25.882  1.00  0.00     0.139 A 
ATOM     20  C   UNL A   1      38.648  24.277  26.768  1.00  0.00     0.048 A 
ATOM     21  C   UNL A   1      38.402  22.105  25.769  1.00  0.00     0.083 A 
ATOM     22  C   UNL A   1      39.810  23.832  27.418  1.00  0.00     0.004 A 
ATOM     23  C   UNL A   1      39.543  21.653  26.438  1.00  0.00     0.024 A 
ATOM     24  Cl  UNL A   1      37.550  20.958  24.790  1.00  0.00    -0.080 Cl
ATOM     25  C   UNL A   1      40.267  22.529  27.239  1.00  0.00     0.002 A 
ENDBRANCH  18  19
ENDBRANCH  16  18
ENDBRANCH  14  16
ENDBRANCH   9  14
ENDBRANCH   5   8
ENDBRANCH   3   4
ENDBRANCH   2   3
ENDBRANCH   1   2
BRANCH   1  26
ATOM     26  C   UNL A   1      32.036  28.219  27.097  1.00  0.00     0.002 C 
BRANCH  26  27
ATOM     27  C   UNL A   1      33.556  28.037  27.013  1.00  0.00     0.021 C 
BRANCH  27  28
ATOM     28  C   UNL A   1      34.317  29.148  26.294  1.00  0.00     0.116 C 
BRANCH  28  29
ATOM     29  N   UNL A   1      33.991  30.465  26.812  1.00  0.00    -0.352 N 
ATOM     30  C   UNL A   1      34.564  31.186  27.828  1.00  0.00     0.251 C 
ATOM     31  H   UNL A   1      33.237  30.911  26.361  1.00  0.00     0.163 HD
ATOM     32  O   UNL A   1      34.009  32.206  28.228  1.00  0.00    -0.269 OA
BRANCH  30  33
ATOM     33  C   UNL A   1      35.829  30.739  28.454  1.00  0.00     0.039 A 
ATOM     34  C   UNL A   1      37.018  31.372  28.080  1.00  0.00     0.014 A 
ATOM     35  C   UNL A   1      35.859  29.682  29.367  1.00  0.00     0.014 A 
ATOM     36  C   UNL A   1      38.227  30.981  28.660  1.00  0.00     0.010 A 
ATOM     37  C   UNL A   1      37.056  29.339  29.997  1.00  0.00     0.010 A 
ATOM     38  C   UNL A   1      38.253  29.982  29.648  1.00  0.00    -0.014 A 
BRANCH  38  39
ATOM     39  C   UNL A   1      39.523  29.614  30.328  1.00  0.00     0.031 A 
ATOM     40  C   UNL A   1      39.973  30.348  31.562  1.00  0.00     0.074 A 
ATOM     41  C   UNL A   1      40.307  28.657  29.792  1.00  0.00     0.049 A 
ATOM     42  N   UNL A   1      41.071  30.196  32.259  1.00  0.00    -0.248 NA
ATOM     43  C   UNL A   1      39.087  31.410  32.062  1.00  0.00     0.031 C 
ATOM     44  C   UNL A   1      40.011  27.915  28.565  1.00  0.00     0.029 A 
ATOM     45  N   UNL A   1      41.517  28.154  30.201  1.00  0.00    -0.354 N 
ATOM     46  C   UNL A   1      41.016  31.150  33.268  1.00  0.00     0.074 A 
ATOM     47  C   UNL A   1      39.801  31.910  33.061  1.00  0.00     0.031 C 
ATOM     48  C   UNL A   1      41.006  27.047  28.327  1.00  0.00     0.029 A 
ATOM     49  C   UNL A   1      42.026  27.193  29.360  1.00  0.00     0.049 A 
ATOM     50  H   UNL A   1      41.977  28.454  31.018  1.00  0.00     0.167 HD
ATOM     51  C   UNL A   1      41.887  31.363  34.285  1.00  0.00     0.037 A 
ATOM     52  C   UNL A   1      43.189  26.514  29.405  1.00  0.00     0.037 A 
ATOM     53  C   UNL A   1      43.085  30.589  34.494  1.00  0.00     0.049 A 
ATOM     54  C   UNL A   1      44.134  26.750  30.550  1.00  0.00     0.074 A 
ATOM     55  C   UNL A   1      43.992  30.674  35.536  1.00  0.00     0.029 A 
ATOM     56  N   UNL A   1      43.551  29.601  33.640  1.00  0.00    -0.354 N 
ATOM     57  N   UNL A   1      44.024  27.597  31.546  1.00  0.00    -0.248 NA
ATOM     58  C   UNL A   1      45.355  25.935  30.586  1.00  0.00     0.031 C 
ATOM     59  C   UNL A   1      45.034  29.775  35.284  1.00  0.00     0.029 A 
ATOM     60  C   UNL A   1      44.750  29.088  34.114  1.00  0.00     0.049 A 
ATOM     61  H   UNL A   1      43.098  29.305  32.817  1.00  0.00     0.167 HD
ATOM     62  C   UNL A   1      45.151  27.404  32.337  1.00  0.00     0.074 A 
ATOM     63  C   UNL A   1      45.922  26.348  31.711  1.00  0.00     0.031 C 
ATOM     64  C   UNL A   1      45.513  28.043  33.478  1.00  0.00     0.037 A 
BRANCH  51  65
ATOM     65  C   UNL A   1      41.581  32.486  35.241  1.00  0.00     0.058 A 
ATOM     66  C   UNL A   1      42.189  33.747  35.126  1.00  0.00     0.135 A 
ATOM     67  C   UNL A   1      40.656  32.301  36.282  1.00  0.00     0.135 A 
ATOM     68  F   UNL A   1      43.089  33.977  34.156  1.00  0.00    -0.206 F 
ATOM     69  C   UNL A   1      41.931  34.767  36.035  1.00  0.00     0.059 A 
ATOM     70  C   UNL A   1      40.357  33.319  37.184  1.00  0.00     0.059 A 
ATOM     71  F   UNL A   1      40.039  31.120  36.439  1.00  0.00    -0.206 F 
ATOM     72  C   UNL A   1      41.017  34.540  37.066  1.00  0.00     0.060 A 
BRANCH  72  73
ATOM     73  S   UNL A   1      40.715  35.864  38.257  1.00  0.00     0.124 S 
ATOM     74  O   UNL A   1      42.052  36.431  38.403  1.00  0.00    -0.237 OA
ATOM     75  O   UNL A   1      39.745  36.699  37.556  1.00  0.00    -0.237 OA
ATOM     76  O   UNL A   1      40.202  35.158  39.427  1.00  0.00    -0.744 OA
ENDBRANCH  72  73
ENDBRANCH  51  65
BRANCH  52  77
ATOM     77  C   UNL A   1      43.507  25.536  28.330  1.00  0.00     0.058 A 
ATOM     78  C   UNL A   1      43.972  25.960  27.077  1.00  0.00     0.135 A 
ATOM     79  C   UNL A   1      43.401  24.155  28.557  1.00  0.00     0.135 A 
ATOM     80  F   UNL A   1      44.084  27.270  26.810  1.00  0.00    -0.206 F 
ATOM     81  C   UNL A   1      44.319  25.048  26.084  1.00  0.00     0.059 A 
ATOM     82  C   UNL A   1      43.767  23.225  27.590  1.00  0.00     0.059 A 
ATOM     83  F   UNL A   1      42.979  23.700  29.747  1.00  0.00    -0.206 F 
ATOM     84  C   UNL A   1      44.222  23.682  26.354  1.00  0.00     0.060 A 
BRANCH  84  85
ATOM     85  S   UNL A   1      44.756  22.509  25.089  1.00  0.00     0.124 S 
ATOM     86  O   UNL A   1      45.152  23.402  24.008  1.00  0.00    -0.237 OA
ATOM     87  O   UNL A   1      45.840  21.803  25.766  1.00  0.00    -0.237 OA
ATOM     88  O   UNL A   1      43.558  21.712  24.845  1.00  0.00    -0.744 OA
ENDBRANCH  84  85
ENDBRANCH  52  77
BRANCH  64  89
ATOM     89  C   UNL A   1      46.793  27.608  34.138  1.00  0.00     0.058 A 
ATOM     90  C   UNL A   1      48.016  28.245  33.874  1.00  0.00     0.135 A 
ATOM     91  C   UNL A   1      46.789  26.569  35.085  1.00  0.00     0.135 A 
ATOM     92  F   UNL A   1      48.079  29.239  32.973  1.00  0.00    -0.206 F 
ATOM     93  C   UNL A   1      49.192  27.854  34.506  1.00  0.00     0.059 A 
ATOM     94  C   UNL A   1      47.948  26.181  35.751  1.00  0.00     0.059 A 
ATOM     95  F   UNL A   1      45.645  25.932  35.384  1.00  0.00    -0.206 F 
ATOM     96  C   UNL A   1      49.147  26.821  35.445  1.00  0.00     0.060 A 
BRANCH  96  97
ATOM     97  S   UNL A   1      50.676  26.342  36.279  1.00  0.00     0.124 S 
ATOM     98  O   UNL A   1      51.664  26.559  35.227  1.00  0.00    -0.237 OA
ATOM     99  O   UNL A   1      50.725  27.276  37.399  1.00  0.00    -0.237 OA
ATOM    100  O   UNL A   1      50.441  24.947  36.643  1.00  0.00    -0.744 OA
ENDBRANCH  96  97
ENDBRANCH  64  89
ENDBRANCH  38  39
ENDBRANCH  30  33
ENDBRANCH  28  29
ENDBRANCH  27  28
ENDBRANCH  26  27
ENDBRANCH   1  26
TORSDOF 20
ENDMDL
MODEL 3
REMARK VINA RESULT:     -11.4      6.401     12.027
REMARK SMILES C[C@H](Oc1ccccc1Cl)C(=O)N1CCCC[C@H]1C(=O)NCCCCCCNC(=O)c1ccc(-c2c3nc(c(-c4c(F)cc(S(=O)(=O)[O-])cc4F)c4ccc([nH]4)c(-c4c(F)cc(S(=O)(=O)[O-])cc4F)c4nc(c(-c5c(F)cc(S(=O)(=O)[O-])cc5F)c5ccc2[nH]5)C=C4)C=C3)cc1
REMARK SMILES IDX 24 1 23 2 22 3 21 4 19 5 20 6 18 8 13 9 14 10 15 11 17 12
REMARK SMILES IDX 16 13 11 14 12 15 2 16 1 17 3 18 4 19 5 20 9 21 6 22 8 23
REMARK SMILES IDX 10 24 7 25 25 26 26 27 27 28 28 29 29 30 30 32 31 33 32 34
REMARK SMILES IDX 96 35 33 36 95 37 34 38 35 39 36 40 89 41 37 42 94 43 88 44
REMARK SMILES IDX 90 45 38 46 93 47 87 48 86 49 39 51 73 52 52 53 72 54 53 55
REMARK SMILES IDX 56 56 71 57 91 58 54 59 55 60 70 62 92 63 57 64 40 65 41 66
REMARK SMILES IDX 50 67 42 68 43 69 49 70 51 71 44 72 45 73 46 74 47 75 48 76
REMARK SMILES IDX 74 77 75 78 84 79 76 80 77 81 83 82 85 83 78 84 79 85 80 86
REMARK SMILES IDX 81 87 82 88 58 89 59 90 68 91 60 92 61 93 67 94 69 95 62 96
REMARK SMILES IDX 63 97 64 98 65 99 66 100
REMARK H PARENT 21 7 28 31 90 50 56 61
REMARK Flexibility Score: inf
ROOT
ATOM      1  C   UNL A   1      34.126  31.496  28.121  1.00  0.00     0.002 C 
ENDROOT
BRANCH   1   2
ATOM      2  C   UNL A   1      33.351  30.895  26.953  1.00  0.00     0.021 C 
BRANCH   2   3
ATOM      3  C   UNL A   1      33.597  29.409  26.724  1.00  0.00     0.116 C 
BRANCH   3   4
ATOM      4  N   UNL A   1      32.566  28.568  27.263  1.00  0.00    -0.354 N 
ATOM      5  C   UNL A   1      31.865  27.600  26.602  1.00  0.00     0.242 C 
ATOM      6  O   UNL A   1      30.920  27.092  27.212  1.00  0.00    -0.273 OA
ATOM      7  H   UNL A   1      32.341  28.703  28.213  1.00  0.00     0.163 HD
BRANCH   5   8
ATOM      8  C   UNL A   1      32.194  27.256  25.108  1.00  0.00     0.174 C 
ATOM      9  N   UNL A   1      31.297  26.264  24.460  1.00  0.00    -0.327 N 
ATOM     10  C   UNL A   1      29.914  26.719  24.337  1.00  0.00     0.120 C 
ATOM     11  C   UNL A   1      29.817  28.003  23.516  1.00  0.00     0.022 C 
ATOM     12  C   UNL A   1      32.174  28.547  24.257  1.00  0.00     0.035 C 
ATOM     13  C   UNL A   1      30.751  29.083  24.055  1.00  0.00     0.004 C 
BRANCH   9  14
ATOM     14  C   UNL A   1      31.751  25.364  23.476  1.00  0.00     0.264 C 
ATOM     15  O   UNL A   1      32.237  25.778  22.417  1.00  0.00    -0.271 OA
BRANCH  14  16
ATOM     16  C   UNL A   1      31.374  23.856  23.598  1.00  0.00     0.259 C 
ATOM     17  C   UNL A   1      31.052  23.630  25.086  1.00  0.00     0.064 C 
BRANCH  16  18
ATOM     18  O   UNL A   1      32.365  23.052  22.972  1.00  0.00    -0.479 OA
BRANCH  18  19
ATOM     19  C   UNL A   1      32.907  21.903  23.463  1.00  0.00     0.139 A 
ATOM     20  C   UNL A   1      32.323  20.637  23.431  1.00  0.00     0.048 A 
ATOM     21  C   UNL A   1      34.135  22.048  24.140  1.00  0.00     0.083 A 
ATOM     22  C   UNL A   1      32.875  19.579  24.170  1.00  0.00     0.004 A 
ATOM     23  C   UNL A   1      34.701  20.988  24.852  1.00  0.00     0.024 A 
ATOM     24  Cl  UNL A   1      35.001  23.548  24.130  1.00  0.00    -0.080 Cl
ATOM     25  C   UNL A   1      34.051  19.759  24.894  1.00  0.00     0.002 A 
ENDBRANCH  18  19
ENDBRANCH  16  18
ENDBRANCH  14  16
ENDBRANCH   9  14
ENDBRANCH   5   8
ENDBRANCH   3   4
ENDBRANCH   2   3
ENDBRANCH   1   2
BRANCH   1  26
ATOM     26  C   UNL A   1      35.472  32.133  27.753  1.00  0.00     0.002 C 
BRANCH  26  27
ATOM     27  C   UNL A   1      35.873  33.375  28.558  1.00  0.00     0.021 C 
BRANCH  27  28
ATOM     28  C   UNL A   1      36.797  33.123  29.746  1.00  0.00     0.116 C 
BRANCH  28  29
ATOM     29  N   UNL A   1      36.242  32.161  30.682  1.00  0.00    -0.352 N 
ATOM     30  C   UNL A   1      36.671  30.903  31.021  1.00  0.00     0.251 C 
ATOM     31  H   UNL A   1      35.427  32.459  31.147  1.00  0.00     0.163 HD
ATOM     32  O   UNL A   1      35.945  30.182  31.698  1.00  0.00    -0.269 OA
BRANCH  30  33
ATOM     33  C   UNL A   1      37.989  30.405  30.566  1.00  0.00     0.039 A 
ATOM     34  C   UNL A   1      38.192  30.211  29.196  1.00  0.00     0.014 A 
ATOM     35  C   UNL A   1      39.004  30.089  31.472  1.00  0.00     0.014 A 
ATOM     36  C   UNL A   1      39.428  29.752  28.734  1.00  0.00     0.010 A 
ATOM     37  C   UNL A   1      40.260  29.698  31.005  1.00  0.00     0.010 A 
ATOM     38  C   UNL A   1      40.484  29.522  29.631  1.00  0.00    -0.014 A 
BRANCH  38  39
ATOM     39  C   UNL A   1      41.826  29.110  29.142  1.00  0.00     0.031 A 
ATOM     40  C   UNL A   1      42.940  30.114  29.024  1.00  0.00     0.074 A 
ATOM     41  C   UNL A   1      42.022  27.838  28.741  1.00  0.00     0.049 A 
ATOM     42  N   UNL A   1      44.158  29.946  28.574  1.00  0.00    -0.248 NA
ATOM     43  C   UNL A   1      42.639  31.492  29.438  1.00  0.00     0.031 C 
ATOM     44  C   UNL A   1      41.003  26.786  28.748  1.00  0.00     0.029 A 
ATOM     45  N   UNL A   1      43.137  27.218  28.235  1.00  0.00    -0.354 N 
ATOM     46  C   UNL A   1      44.763  31.196  28.636  1.00  0.00     0.074 A 
ATOM     47  C   UNL A   1      43.760  32.123  29.120  1.00  0.00     0.031 C 
ATOM     48  C   UNL A   1      41.543  25.650  28.280  1.00  0.00     0.029 A 
ATOM     49  C   UNL A   1      42.931  25.899  27.905  1.00  0.00     0.049 A 
ATOM     50  H   UNL A   1      44.002  27.674  28.118  1.00  0.00     0.167 HD
ATOM     51  C   UNL A   1      46.040  31.539  28.338  1.00  0.00     0.037 A 
ATOM     52  C   UNL A   1      43.761  24.993  27.351  1.00  0.00     0.037 A 
ATOM     53  C   UNL A   1      47.036  30.606  27.875  1.00  0.00     0.049 A 
ATOM     54  C   UNL A   1      45.178  25.386  27.043  1.00  0.00     0.074 A 
ATOM     55  C   UNL A   1      48.377  30.837  27.619  1.00  0.00     0.029 A 
ATOM     56  N   UNL A   1      46.801  29.270  27.585  1.00  0.00    -0.354 N 
ATOM     57  N   UNL A   1      45.759  26.553  27.192  1.00  0.00    -0.248 NA
ATOM     58  C   UNL A   1      46.058  24.341  26.503  1.00  0.00     0.031 C 
ATOM     59  C   UNL A   1      48.938  29.655  27.122  1.00  0.00     0.029 A 
ATOM     60  C   UNL A   1      47.963  28.671  27.122  1.00  0.00     0.049 A 
ATOM     61  H   UNL A   1      45.935  28.814  27.691  1.00  0.00     0.167 HD
ATOM     62  C   UNL A   1      47.077  26.378  26.781  1.00  0.00     0.074 A 
ATOM     63  C   UNL A   1      47.210  24.988  26.394  1.00  0.00     0.031 C 
ATOM     64  C   UNL A   1      48.082  27.287  26.731  1.00  0.00     0.037 A 
BRANCH  51  65
ATOM     65  C   UNL A   1      46.427  32.986  28.490  1.00  0.00     0.058 A 
ATOM     66  C   UNL A   1      46.304  33.904  27.434  1.00  0.00     0.135 A 
ATOM     67  C   UNL A   1      46.919  33.466  29.716  1.00  0.00     0.135 A 
ATOM     68  F   UNL A   1      45.849  33.500  26.237  1.00  0.00    -0.206 F 
ATOM     69  C   UNL A   1      46.699  35.230  27.570  1.00  0.00     0.059 A 
ATOM     70  C   UNL A   1      47.289  34.797  29.885  1.00  0.00     0.059 A 
ATOM     71  F   UNL A   1      47.053  32.637  30.762  1.00  0.00    -0.206 F 
ATOM     72  C   UNL A   1      47.197  35.666  28.799  1.00  0.00     0.060 A 
BRANCH  72  73
ATOM     73  S   UNL A   1      47.735  37.383  28.953  1.00  0.00     0.124 S 
ATOM     74  O   UNL A   1      47.534  37.871  27.591  1.00  0.00    -0.237 OA
ATOM     75  O   UNL A   1      46.817  37.910  29.957  1.00  0.00    -0.237 OA
ATOM     76  O   UNL A   1      49.126  37.268  29.378  1.00  0.00    -0.744 OA
ENDBRANCH  72  73
ENDBRANCH  51  65
BRANCH  52  77
ATOM     77  C   UNL A   1      43.260  23.621  27.068  1.00  0.00     0.058 A 
ATOM     78  C   UNL A   1      42.981  23.204  25.759  1.00  0.00     0.135 A 
ATOM     79  C   UNL A   1      43.104  22.683  28.101  1.00  0.00     0.135 A 
ATOM     80  F   UNL A   1      43.109  24.066  24.739  1.00  0.00    -0.206 F 
ATOM     81  C   UNL A   1      42.561  21.906  25.483  1.00  0.00     0.059 A 
ATOM     82  C   UNL A   1      42.711  21.374  27.847  1.00  0.00     0.059 A 
ATOM     83  F   UNL A   1      43.377  23.029  29.369  1.00  0.00    -0.206 F 
ATOM     84  C   UNL A   1      42.439  20.995  26.534  1.00  0.00     0.060 A 
BRANCH  84  85
ATOM     85  S   UNL A   1      41.976  19.291  26.154  1.00  0.00     0.124 S 
ATOM     86  O   UNL A   1      40.549  19.426  25.888  1.00  0.00    -0.237 OA
ATOM     87  O   UNL A   1      42.818  18.998  24.998  1.00  0.00    -0.237 OA
ATOM     88  O   UNL A   1      42.326  18.570  27.373  1.00  0.00    -0.744 OA
ENDBRANCH  84  85
ENDBRANCH  52  77
BRANCH  64  89
ATOM     89  C   UNL A   1      49.426  26.806  26.255  1.00  0.00     0.058 A 
ATOM     90  C   UNL A   1      49.865  27.020  24.939  1.00  0.00     0.135 A 
ATOM     91  C   UNL A   1      50.308  26.165  27.143  1.00  0.00     0.135 A 
ATOM     92  F   UNL A   1      49.061  27.621  24.048  1.00  0.00    -0.206 F 
ATOM     93  C   UNL A   1      51.119  26.593  24.512  1.00  0.00     0.059 A 
ATOM     94  C   UNL A   1      51.577  25.757  26.745  1.00  0.00     0.059 A 
ATOM     95  F   UNL A   1      49.943  25.945  28.416  1.00  0.00    -0.206 F 
ATOM     96  C   UNL A   1      51.969  25.964  25.424  1.00  0.00     0.060 A 
BRANCH  96  97
ATOM     97  S   UNL A   1      53.605  25.442  24.865  1.00  0.00     0.124 S 
ATOM     98  O   UNL A   1      53.532  25.730  23.436  1.00  0.00    -0.237 OA
ATOM     99  O   UNL A   1      54.490  26.304  25.641  1.00  0.00    -0.237 OA
ATOM    100  O   UNL A   1      53.648  24.025  25.219  1.00  0.00    -0.744 OA
ENDBRANCH  96  97
ENDBRANCH  64  89
ENDBRANCH  38  39
ENDBRANCH  30  33
ENDBRANCH  28  29
ENDBRANCH  27  28
ENDBRANCH  26  27
ENDBRANCH   1  26
TORSDOF 20
ENDMDL
