MODEL 1
REMARK VINA RESULT:     -11.8      0.000      0.000
REMARK SMILES O=C(NCCCCCCNC(=O)[C@H]1C[NH2+]CCN1c1ncc(C(F)(F)F)cc1Cl)c1ccc(-c2c3nc(c(-c4c(F)cc(S(=O)(=O)[O-])cc4F)c4ccc([nH]4)c(-c4c(F)cc(S(=O)(=O)[O-])cc4F)c4nc(c(-c5c(F)cc(S(=O)(=O)[O-])cc5F)c5ccc2[nH]5)C=C4)C=C3)cc1
REMARK SMILES IDX 6 1 5 2 4 3 3 4 1 5 2 6 30 8 31 9 95 10 32 11 94 12 33 13
REMARK SMILES IDX 34 14 35 15 88 16 36 17 93 18 87 19 89 20 37 21 92 22 86 23
REMARK SMILES IDX 85 24 38 26 72 27 51 28 71 29 52 30 55 31 70 32 90 33 53 34
REMARK SMILES IDX 54 35 69 37 91 38 56 39 39 40 40 41 49 42 41 43 42 44 48 45
REMARK SMILES IDX 50 46 43 47 44 48 45 49 46 50 47 51 73 52 74 53 83 54 75 55
REMARK SMILES IDX 76 56 82 57 84 58 77 59 78 60 79 61 80 62 81 63 57 64 58 65
REMARK SMILES IDX 67 66 59 67 60 68 66 69 68 70 61 71 62 72 63 73 64 74 65 75
REMARK SMILES IDX 7 76 8 77 9 78 10 79 11 80 12 82 13 83 14 84 18 85 15 86
REMARK SMILES IDX 17 87 16 88 19 91 20 92 28 93 21 94 27 95 29 96 22 97 23 98
REMARK SMILES IDX 24 99 25 100 26 101
REMARK H PARENT 3 7 89 25 55 36 10 81 15 89 15 90
REMARK Flexibility Score: inf
ROOT
ATOM      1  C   UNL A   1      34.599  31.931  28.089  1.00  0.00     0.002 C 
ENDROOT
BRANCH   1   2
ATOM      2  C   UNL A   1      35.791  32.887  28.033  1.00  0.00     0.021 C 
BRANCH   2   3
ATOM      3  C   UNL A   1      36.613  32.934  29.315  1.00  0.00     0.116 C 
BRANCH   3   4
ATOM      4  N   UNL A   1      36.108  32.006  30.316  1.00  0.00    -0.352 N 
ATOM      5  O   UNL A   1      35.926  30.022  31.374  1.00  0.00    -0.269 OA
ATOM      6  C   UNL A   1      36.599  30.777  30.675  1.00  0.00     0.251 C 
ATOM      7  H   UNL A   1      35.302  32.301  30.800  1.00  0.00     0.163 HD
BRANCH   6   8
ATOM      8  C   UNL A   1      37.939  30.363  30.207  1.00  0.00     0.039 A 
ATOM      9  C   UNL A   1      39.004  30.275  31.108  1.00  0.00     0.014 A 
ATOM     10  C   UNL A   1      38.130  30.051  28.858  1.00  0.00     0.014 A 
ATOM     11  C   UNL A   1      40.283  30.000  30.640  1.00  0.00     0.010 A 
ATOM     12  C   UNL A   1      39.402  29.691  28.405  1.00  0.00     0.010 A 
ATOM     13  C   UNL A   1      40.493  29.684  29.288  1.00  0.00    -0.014 A 
BRANCH  13  14
ATOM     14  C   UNL A   1      41.849  29.276  28.841  1.00  0.00     0.031 A 
ATOM     15  C   UNL A   1      42.998  30.243  28.847  1.00  0.00     0.074 A 
ATOM     16  C   UNL A   1      42.034  28.003  28.440  1.00  0.00     0.049 A 
ATOM     17  N   UNL A   1      44.244  30.041  28.503  1.00  0.00    -0.248 NA
ATOM     18  C   UNL A   1      42.714  31.616  29.290  1.00  0.00     0.031 C 
ATOM     19  C   UNL A   1      40.985  26.980  28.382  1.00  0.00     0.029 A 
ATOM     20  N   UNL A   1      43.162  27.344  28.026  1.00  0.00    -0.354 N 
ATOM     21  C   UNL A   1      44.890  31.261  28.667  1.00  0.00     0.074 A 
ATOM     22  C   UNL A   1      43.890  32.206  29.120  1.00  0.00     0.031 C 
ATOM     23  C   UNL A   1      41.526  25.815  28.000  1.00  0.00     0.029 A 
ATOM     24  C   UNL A   1      42.944  26.021  27.726  1.00  0.00     0.049 A 
ATOM     25  H   UNL A   1      44.042  27.778  27.948  1.00  0.00     0.167 HD
ATOM     26  C   UNL A   1      46.197  31.560  28.467  1.00  0.00     0.037 A 
ATOM     27  C   UNL A   1      43.786  25.077  27.266  1.00  0.00     0.037 A 
ATOM     28  C   UNL A   1      47.183  30.606  28.021  1.00  0.00     0.049 A 
ATOM     29  C   UNL A   1      45.221  25.440  27.025  1.00  0.00     0.074 A 
ATOM     30  C   UNL A   1      48.539  30.800  27.820  1.00  0.00     0.029 A 
ATOM     31  N   UNL A   1      46.918  29.282  27.696  1.00  0.00    -0.354 N 
ATOM     32  N   UNL A   1      45.822  26.589  27.219  1.00  0.00    -0.248 NA
ATOM     33  C   UNL A   1      46.093  24.382  26.499  1.00  0.00     0.031 C 
ATOM     34  C   UNL A   1      49.085  29.608  27.329  1.00  0.00     0.029 A 
ATOM     35  C   UNL A   1      48.080  28.654  27.273  1.00  0.00     0.049 A 
ATOM     36  H   UNL A   1      46.035  28.852  27.758  1.00  0.00     0.167 HD
ATOM     37  C   UNL A   1      47.148  26.390  26.854  1.00  0.00     0.074 A 
ATOM     38  C   UNL A   1      47.262  25.005  26.443  1.00  0.00     0.031 C 
ATOM     39  C   UNL A   1      48.176  27.275  26.861  1.00  0.00     0.037 A 
BRANCH  26  40
ATOM     40  C   UNL A   1      46.630  32.983  28.701  1.00  0.00     0.058 A 
ATOM     41  C   UNL A   1      46.601  33.945  27.679  1.00  0.00     0.135 A 
ATOM     42  C   UNL A   1      47.062  33.396  29.973  1.00  0.00     0.135 A 
ATOM     43  F   UNL A   1      46.206  33.606  26.442  1.00  0.00    -0.206 F 
ATOM     44  C   UNL A   1      47.021  35.253  27.898  1.00  0.00     0.059 A 
ATOM     45  C   UNL A   1      47.463  34.706  30.221  1.00  0.00     0.059 A 
ATOM     46  F   UNL A   1      47.106  32.520  30.989  1.00  0.00    -0.206 F 
ATOM     47  C   UNL A   1      47.458  35.623  29.171  1.00  0.00     0.060 A 
BRANCH  47  48
ATOM     48  S   UNL A   1      48.028  37.316  29.432  1.00  0.00     0.124 S 
ATOM     49  O   UNL A   1      49.474  37.128  29.497  1.00  0.00    -0.237 OA
ATOM     50  O   UNL A   1      47.531  38.001  28.243  1.00  0.00    -0.237 OA
ATOM     51  O   UNL A   1      47.389  37.702  30.687  1.00  0.00    -0.744 OA
ENDBRANCH  47  48
ENDBRANCH  26  40
BRANCH  27  52
ATOM     52  C   UNL A   1      43.277  23.704  27.014  1.00  0.00     0.058 A 
ATOM     53  C   UNL A   1      43.041  23.251  25.709  1.00  0.00     0.135 A 
ATOM     54  C   UNL A   1      43.076  22.800  28.070  1.00  0.00     0.135 A 
ATOM     55  F   UNL A   1      43.217  24.079  24.669  1.00  0.00    -0.206 F 
ATOM     56  C   UNL A   1      42.623  21.948  25.457  1.00  0.00     0.059 A 
ATOM     57  C   UNL A   1      42.683  21.485  27.842  1.00  0.00     0.059 A 
ATOM     58  F   UNL A   1      43.306  23.181  29.336  1.00  0.00    -0.206 F 
ATOM     59  C   UNL A   1      42.454  21.071  26.530  1.00  0.00     0.060 A 
BRANCH  59  60
ATOM     60  S   UNL A   1      41.986  19.362  26.186  1.00  0.00     0.124 S 
ATOM     61  O   UNL A   1      42.792  19.070  25.006  1.00  0.00    -0.237 OA
ATOM     62  O   UNL A   1      42.383  18.682  27.415  1.00  0.00    -0.237 OA
ATOM     63  O   UNL A   1      40.546  19.445  25.963  1.00  0.00    -0.744 OA
ENDBRANCH  59  60
ENDBRANCH  27  52
BRANCH  39  64
ATOM     64  C   UNL A   1      49.521  26.762  26.429  1.00  0.00     0.058 A 
ATOM     65  C   UNL A   1      50.339  26.016  27.293  1.00  0.00     0.135 A 
ATOM     66  C   UNL A   1      49.982  26.988  25.122  1.00  0.00     0.135 A 
ATOM     67  F   UNL A   1      49.949  25.780  28.555  1.00  0.00    -0.206 F 
ATOM     68  C   UNL A   1      51.577  25.533  26.884  1.00  0.00     0.059 A 
ATOM     69  C   UNL A   1      51.205  26.492  24.683  1.00  0.00     0.059 A 
ATOM     70  F   UNL A   1      49.235  27.689  24.254  1.00  0.00    -0.206 F 
ATOM     71  C   UNL A   1      52.001  25.776  25.576  1.00  0.00     0.060 A 
BRANCH  71  72
ATOM     72  S   UNL A   1      53.597  25.118  25.046  1.00  0.00     0.124 S 
ATOM     73  O   UNL A   1      53.429  23.693  25.311  1.00  0.00    -0.237 OA
ATOM     74  O   UNL A   1      53.642  25.501  23.639  1.00  0.00    -0.237 OA
ATOM     75  O   UNL A   1      54.552  25.808  25.908  1.00  0.00    -0.744 OA
ENDBRANCH  71  72
ENDBRANCH  39  64
ENDBRANCH  13  14
ENDBRANCH   6   8
ENDBRANCH   3   4
ENDBRANCH   2   3
ENDBRANCH   1   2
BRANCH   1  76
ATOM     76  C   UNL A   1      34.863  30.538  27.507  1.00  0.00     0.002 C 
BRANCH  76  77
ATOM     77  C   UNL A   1      33.618  29.808  26.983  1.00  0.00     0.021 C 
BRANCH  77  78
ATOM     78  C   UNL A   1      33.927  28.519  26.218  1.00  0.00     0.116 C 
BRANCH  78  79
ATOM     79  N   UNL A   1      34.034  28.779  24.799  1.00  0.00    -0.354 N 
ATOM     80  C   UNL A   1      33.724  27.986  23.736  1.00  0.00     0.248 C 
ATOM     81  H   UNL A   1      34.387  29.668  24.565  1.00  0.00     0.163 HD
ATOM     82  O   UNL A   1      34.105  28.401  22.634  1.00  0.00    -0.272 OA
BRANCH  80  83
ATOM     83  C   UNL A   1      32.867  26.692  23.878  1.00  0.00     0.228 C 
ATOM     84  C   UNL A   1      31.373  27.063  23.605  1.00  0.00     0.296 C 
ATOM     85  N   UNL A   1      33.254  25.618  22.938  1.00  0.00    -0.333 N 
ATOM     86  N   UNL A   1      31.060  27.380  22.186  1.00  0.00    -0.343 N 
ATOM     87  C   UNL A   1      33.009  25.876  21.520  1.00  0.00     0.180 C 
ATOM     88  C   UNL A   1      31.527  26.277  21.316  1.00  0.00     0.282 C 
ATOM     89  H   UNL A   1      31.530  28.245  21.918  1.00  0.00     0.346 HD
ATOM     90  H   UNL A   1      30.051  27.493  22.077  1.00  0.00     0.346 HD
BRANCH  85  91
ATOM     91  C   UNL A   1      33.715  24.383  23.329  1.00  0.00     0.148 A 
ATOM     92  N   UNL A   1      35.053  24.191  23.186  1.00  0.00    -0.237 NA
ATOM     93  C   UNL A   1      32.931  23.373  23.912  1.00  0.00     0.084 A 
ATOM     94  C   UNL A   1      35.626  23.074  23.703  1.00  0.00     0.126 A 
ATOM     95  C   UNL A   1      33.541  22.219  24.416  1.00  0.00     0.039 A 
ATOM     96  Cl  UNL A   1      31.206  23.416  23.998  1.00  0.00    -0.080 Cl
ATOM     97  C   UNL A   1      34.923  22.070  24.340  1.00  0.00     0.075 A 
BRANCH  97  98
ATOM     98  C   UNL A   1      35.644  20.907  24.948  1.00  0.00     0.417 C 
ATOM     99  F   UNL A   1      35.679  20.962  26.305  1.00  0.00    -0.166 F 
ATOM    100  F   UNL A   1      35.059  19.723  24.626  1.00  0.00    -0.166 F 
ATOM    101  F   UNL A   1      36.940  20.811  24.540  1.00  0.00    -0.166 F 
ENDBRANCH  97  98
ENDBRANCH  85  91
ENDBRANCH  80  83
ENDBRANCH  78  79
ENDBRANCH  77  78
ENDBRANCH  76  77
ENDBRANCH   1  76
TORSDOF 18
ENDMDL
MODEL 2
REMARK VINA RESULT:     -11.7      3.041      8.958
REMARK SMILES O=C(NCCCCCCNC(=O)[C@H]1C[NH2+]CCN1c1ncc(C(F)(F)F)cc1Cl)c1ccc(-c2c3nc(c(-c4c(F)cc(S(=O)(=O)[O-])cc4F)c4ccc([nH]4)c(-c4c(F)cc(S(=O)(=O)[O-])cc4F)c4nc(c(-c5c(F)cc(S(=O)(=O)[O-])cc5F)c5ccc2[nH]5)C=C4)C=C3)cc1
REMARK SMILES IDX 6 1 5 2 4 3 3 4 1 5 2 6 30 8 31 9 95 10 32 11 94 12 33 13
REMARK SMILES IDX 34 14 35 15 88 16 36 17 93 18 87 19 89 20 37 21 92 22 86 23
REMARK SMILES IDX 85 24 38 26 72 27 51 28 71 29 52 30 55 31 70 32 90 33 53 34
REMARK SMILES IDX 54 35 69 37 91 38 56 39 39 40 40 41 49 42 41 43 42 44 48 45
REMARK SMILES IDX 50 46 43 47 44 48 45 49 46 50 47 51 73 52 74 53 83 54 75 55
REMARK SMILES IDX 76 56 82 57 84 58 77 59 78 60 79 61 80 62 81 63 57 64 58 65
REMARK SMILES IDX 67 66 59 67 60 68 66 69 68 70 61 71 62 72 63 73 64 74 65 75
REMARK SMILES IDX 7 76 8 77 9 78 10 79 11 80 12 82 13 83 14 84 18 85 15 86
REMARK SMILES IDX 17 87 16 88 19 91 20 92 28 93 21 94 27 95 29 96 22 97 23 98
REMARK SMILES IDX 24 99 25 100 26 101
REMARK H PARENT 3 7 89 25 55 36 10 81 15 89 15 90
REMARK Flexibility Score: inf
ROOT
ATOM      1  C   UNL A   1      32.026  28.037  25.124  1.00  0.00     0.002 C 
ENDROOT
BRANCH   1   2
ATOM      2  C   UNL A   1      33.533  27.771  25.146  1.00  0.00     0.021 C 
BRANCH   2   3
ATOM      3  C   UNL A   1      34.195  28.046  26.490  1.00  0.00     0.116 C 
BRANCH   3   4
ATOM      4  N   UNL A   1      33.818  29.346  27.023  1.00  0.00    -0.352 N 
ATOM      5  O   UNL A   1      33.962  31.120  28.409  1.00  0.00    -0.269 OA
ATOM      6  C   UNL A   1      34.517  30.162  27.876  1.00  0.00     0.251 C 
ATOM      7  H   UNL A   1      32.941  29.686  26.732  1.00  0.00     0.163 HD
BRANCH   6   8
ATOM      8  C   UNL A   1      35.940  29.874  28.157  1.00  0.00     0.039 A 
ATOM      9  C   UNL A   1      36.908  30.081  27.171  1.00  0.00     0.014 A 
ATOM     10  C   UNL A   1      36.309  29.402  29.419  1.00  0.00     0.014 A 
ATOM     11  C   UNL A   1      38.224  29.698  27.404  1.00  0.00     0.010 A 
ATOM     12  C   UNL A   1      37.649  29.097  29.678  1.00  0.00     0.010 A 
ATOM     13  C   UNL A   1      38.613  29.222  28.666  1.00  0.00    -0.014 A 
BRANCH  13  14
ATOM     14  C   UNL A   1      40.046  28.935  28.923  1.00  0.00     0.031 A 
ATOM     15  C   UNL A   1      40.653  27.607  28.568  1.00  0.00     0.074 A 
ATOM     16  C   UNL A   1      40.805  29.904  29.470  1.00  0.00     0.049 A 
ATOM     17  N   UNL A   1      41.889  27.203  28.714  1.00  0.00    -0.248 NA
ATOM     18  C   UNL A   1      39.758  26.598  27.982  1.00  0.00     0.031 C 
ATOM     19  C   UNL A   1      40.317  31.229  29.866  1.00  0.00     0.029 A 
ATOM     20  N   UNL A   1      42.141  29.939  29.773  1.00  0.00    -0.354 N 
ATOM     21  C   UNL A   1      41.921  25.891  28.257  1.00  0.00     0.074 A 
ATOM     22  C   UNL A   1      40.570  25.557  27.852  1.00  0.00     0.031 C 
ATOM     23  C   UNL A   1      41.346  31.961  30.315  1.00  0.00     0.029 A 
ATOM     24  C   UNL A   1      42.551  31.140  30.301  1.00  0.00     0.049 A 
ATOM     25  H   UNL A   1      42.748  29.178  29.627  1.00  0.00     0.167 HD
ATOM     26  C   UNL A   1      42.979  25.048  28.176  1.00  0.00     0.037 A 
ATOM     27  C   UNL A   1      43.760  31.535  30.741  1.00  0.00     0.037 A 
ATOM     28  C   UNL A   1      44.320  25.396  28.578  1.00  0.00     0.049 A 
ATOM     29  C   UNL A   1      44.910  30.575  30.667  1.00  0.00     0.074 A 
ATOM     30  C   UNL A   1      45.468  24.627  28.505  1.00  0.00     0.029 A 
ATOM     31  N   UNL A   1      44.691  26.612  29.139  1.00  0.00    -0.354 N 
ATOM     32  N   UNL A   1      44.929  29.350  30.200  1.00  0.00    -0.248 NA
ATOM     33  C   UNL A   1      46.201  31.047  31.183  1.00  0.00     0.031 C 
ATOM     34  C   UNL A   1      46.523  25.358  29.064  1.00  0.00     0.029 A 
ATOM     35  C   UNL A   1      46.044  26.605  29.439  1.00  0.00     0.049 A 
ATOM     36  H   UNL A   1      44.082  27.368  29.299  1.00  0.00     0.167 HD
ATOM     37  C   UNL A   1      46.236  28.907  30.351  1.00  0.00     0.074 A 
ATOM     38  C   UNL A   1      46.982  30.003  30.937  1.00  0.00     0.031 C 
ATOM     39  C   UNL A   1      46.771  27.702  30.030  1.00  0.00     0.037 A 
BRANCH  26  40
ATOM     40  C   UNL A   1      42.724  23.657  27.658  1.00  0.00     0.058 A 
ATOM     41  C   UNL A   1      42.388  22.596  28.515  1.00  0.00     0.135 A 
ATOM     42  C   UNL A   1      42.798  23.385  26.282  1.00  0.00     0.135 A 
ATOM     43  F   UNL A   1      42.313  22.796  29.841  1.00  0.00    -0.206 F 
ATOM     44  C   UNL A   1      42.174  21.310  28.032  1.00  0.00     0.059 A 
ATOM     45  C   UNL A   1      42.562  22.110  25.773  1.00  0.00     0.059 A 
ATOM     46  F   UNL A   1      43.110  24.361  25.415  1.00  0.00    -0.206 F 
ATOM     47  C   UNL A   1      42.270  21.074  26.659  1.00  0.00     0.060 A 
BRANCH  47  48
ATOM     48  S   UNL A   1      42.018  19.393  26.050  1.00  0.00     0.124 S 
ATOM     49  O   UNL A   1      42.476  18.601  27.187  1.00  0.00    -0.237 OA
ATOM     50  O   UNL A   1      40.580  19.364  25.797  1.00  0.00    -0.237 OA
ATOM     51  O   UNL A   1      42.862  19.331  24.861  1.00  0.00    -0.744 OA
ENDBRANCH  47  48
ENDBRANCH  26  40
BRANCH  27  52
ATOM     52  C   UNL A   1      43.927  32.910  31.281  1.00  0.00     0.058 A 
ATOM     53  C   UNL A   1      44.273  33.977  30.441  1.00  0.00     0.135 A 
ATOM     54  C   UNL A   1      43.685  33.192  32.635  1.00  0.00     0.135 A 
ATOM     55  F   UNL A   1      44.516  33.756  29.140  1.00  0.00    -0.206 F 
ATOM     56  C   UNL A   1      44.373  35.278  30.923  1.00  0.00     0.059 A 
ATOM     57  C   UNL A   1      43.754  34.488  33.136  1.00  0.00     0.059 A 
ATOM     58  F   UNL A   1      43.333  32.206  33.475  1.00  0.00    -0.206 F 
ATOM     59  C   UNL A   1      44.104  35.524  32.271  1.00  0.00     0.060 A 
BRANCH  59  60
ATOM     60  S   UNL A   1      44.161  37.226  32.869  1.00  0.00     0.124 S 
ATOM     61  O   UNL A   1      45.453  37.257  33.544  1.00  0.00    -0.237 OA
ATOM     62  O   UNL A   1      44.069  37.990  31.629  1.00  0.00    -0.237 OA
ATOM     63  O   UNL A   1      42.992  37.317  33.738  1.00  0.00    -0.744 OA
ENDBRANCH  59  60
ENDBRANCH  27  52
BRANCH  39  64
ATOM     64  C   UNL A   1      48.240  27.516  30.288  1.00  0.00     0.058 A 
ATOM     65  C   UNL A   1      48.716  26.996  31.502  1.00  0.00     0.135 A 
ATOM     66  C   UNL A   1      49.181  27.827  29.294  1.00  0.00     0.135 A 
ATOM     67  F   UNL A   1      47.858  26.690  32.488  1.00  0.00    -0.206 F 
ATOM     68  C   UNL A   1      50.075  26.813  31.730  1.00  0.00     0.059 A 
ATOM     69  C   UNL A   1      50.544  27.628  29.490  1.00  0.00     0.059 A 
ATOM     70  F   UNL A   1      48.777  28.321  28.112  1.00  0.00    -0.206 F 
ATOM     71  C   UNL A   1      50.982  27.131  30.717  1.00  0.00     0.060 A 
BRANCH  71  72
ATOM     72  S   UNL A   1      52.742  26.861  31.013  1.00  0.00     0.124 S 
ATOM     73  O   UNL A   1      52.747  25.496  31.527  1.00  0.00    -0.237 OA
ATOM     74  O   UNL A   1      53.315  27.041  29.683  1.00  0.00    -0.237 OA
ATOM     75  O   UNL A   1      53.087  27.898  31.981  1.00  0.00    -0.744 OA
ENDBRANCH  71  72
ENDBRANCH  39  64
ENDBRANCH  13  14
ENDBRANCH   6   8
ENDBRANCH   3   4
ENDBRANCH   2   3
ENDBRANCH   1   2
BRANCH   1  76
ATOM     76  C   UNL A   1      31.152  26.781  25.046  1.00  0.00     0.002 C 
BRANCH  76  77
ATOM     77  C   UNL A   1      30.771  26.343  23.625  1.00  0.00     0.021 C 
BRANCH  77  78
ATOM     78  C   UNL A   1      30.856  24.832  23.393  1.00  0.00     0.116 C 
BRANCH  78  79
ATOM     79  N   UNL A   1      30.506  24.110  24.596  1.00  0.00    -0.354 N 
ATOM     80  C   UNL A   1      31.102  23.031  25.176  1.00  0.00     0.248 C 
ATOM     81  H   UNL A   1      29.713  24.450  25.070  1.00  0.00     0.163 HD
ATOM     82  O   UNL A   1      30.467  22.504  26.098  1.00  0.00    -0.272 OA
BRANCH  80  83
ATOM     83  C   UNL A   1      32.528  22.545  24.775  1.00  0.00     0.228 C 
ATOM     84  C   UNL A   1      33.456  23.798  24.658  1.00  0.00     0.296 C 
ATOM     85  N   UNL A   1      33.133  21.613  25.751  1.00  0.00    -0.333 N 
ATOM     86  N   UNL A   1      33.798  24.442  25.955  1.00  0.00    -0.343 N 
ATOM     87  C   UNL A   1      33.463  22.169  27.062  1.00  0.00     0.180 C 
ATOM     88  C   UNL A   1      34.347  23.428  26.883  1.00  0.00     0.282 C 
ATOM     89  H   UNL A   1      32.959  24.856  26.362  1.00  0.00     0.346 HD
ATOM     90  H   UNL A   1      34.495  25.172  25.799  1.00  0.00     0.346 HD
BRANCH  85  91
ATOM     91  C   UNL A   1      33.493  20.320  25.457  1.00  0.00     0.148 A 
ATOM     92  N   UNL A   1      32.485  19.410  25.518  1.00  0.00    -0.237 NA
ATOM     93  C   UNL A   1      34.772  19.908  25.045  1.00  0.00     0.084 A 
ATOM     94  C   UNL A   1      32.702  18.143  25.079  1.00  0.00     0.126 A 
ATOM     95  C   UNL A   1      34.977  18.590  24.619  1.00  0.00     0.039 A 
ATOM     96  Cl  UNL A   1      36.173  20.917  25.086  1.00  0.00    -0.080 Cl
ATOM     97  C   UNL A   1      33.917  17.688  24.605  1.00  0.00     0.075 A 
BRANCH  97  98
ATOM     98  C   UNL A   1      34.050  16.296  24.070  1.00  0.00     0.417 C 
ATOM     99  F   UNL A   1      35.030  15.587  24.688  1.00  0.00    -0.166 F 
ATOM    100  F   UNL A   1      32.904  15.581  24.224  1.00  0.00    -0.166 F 
ATOM    101  F   UNL A   1      34.340  16.262  22.740  1.00  0.00    -0.166 F 
ENDBRANCH  97  98
ENDBRANCH  85  91
ENDBRANCH  80  83
ENDBRANCH  78  79
ENDBRANCH  77  78
ENDBRANCH  76  77
ENDBRANCH   1  76
TORSDOF 18
ENDMDL
MODEL 3
REMARK VINA RESULT:     -11.6      3.215      9.169
REMARK SMILES O=C(NCCCCCCNC(=O)[C@H]1C[NH2+]CCN1c1ncc(C(F)(F)F)cc1Cl)c1ccc(-c2c3nc(c(-c4c(F)cc(S(=O)(=O)[O-])cc4F)c4ccc([nH]4)c(-c4c(F)cc(S(=O)(=O)[O-])cc4F)c4nc(c(-c5c(F)cc(S(=O)(=O)[O-])cc5F)c5ccc2[nH]5)C=C4)C=C3)cc1
REMARK SMILES IDX 6 1 5 2 4 3 3 4 1 5 2 6 30 8 31 9 95 10 32 11 94 12 33 13
REMARK SMILES IDX 34 14 35 15 88 16 36 17 93 18 87 19 89 20 37 21 92 22 86 23
REMARK SMILES IDX 85 24 38 26 72 27 51 28 71 29 52 30 55 31 70 32 90 33 53 34
REMARK SMILES IDX 54 35 69 37 91 38 56 39 39 40 40 41 49 42 41 43 42 44 48 45
REMARK SMILES IDX 50 46 43 47 44 48 45 49 46 50 47 51 73 52 74 53 83 54 75 55
REMARK SMILES IDX 76 56 82 57 84 58 77 59 78 60 79 61 80 62 81 63 57 64 58 65
REMARK SMILES IDX 67 66 59 67 60 68 66 69 68 70 61 71 62 72 63 73 64 74 65 75
REMARK SMILES IDX 7 76 8 77 9 78 10 79 11 80 12 82 13 83 14 84 18 85 15 86
REMARK SMILES IDX 17 87 16 88 19 91 20 92 28 93 21 94 27 95 29 96 22 97 23 98
REMARK SMILES IDX 24 99 25 100 26 101
REMARK H PARENT 3 7 89 25 55 36 10 81 15 89 15 90
REMARK Flexibility Score: inf
ROOT
ATOM      1  C   UNL A   1      36.989  20.672  25.013  1.00  0.00     0.002 C 
ENDROOT
BRANCH   1   2
ATOM      2  C   UNL A   1      38.244  19.797  24.999  1.00  0.00     0.021 C 
BRANCH   2   3
ATOM      3  C   UNL A   1      39.282  20.178  26.047  1.00  0.00     0.116 C 
BRANCH   3   4
ATOM      4  N   UNL A   1      40.360  19.203  26.118  1.00  0.00    -0.352 N 
ATOM      5  O   UNL A   1      42.496  18.489  26.001  1.00  0.00    -0.269 OA
ATOM      6  C   UNL A   1      41.713  19.420  26.176  1.00  0.00     0.251 C 
ATOM      7  H   UNL A   1      40.079  18.259  26.125  1.00  0.00     0.163 HD
BRANCH   6   8
ATOM      8  C   UNL A   1      42.222  20.783  26.438  1.00  0.00     0.039 A 
ATOM      9  C   UNL A   1      42.513  21.642  25.375  1.00  0.00     0.014 A 
ATOM     10  C   UNL A   1      42.400  21.209  27.757  1.00  0.00     0.014 A 
ATOM     11  C   UNL A   1      43.100  22.877  25.626  1.00  0.00     0.010 A 
ATOM     12  C   UNL A   1      42.912  22.485  28.008  1.00  0.00     0.010 A 
ATOM     13  C   UNL A   1      43.286  23.320  26.945  1.00  0.00    -0.014 A 
BRANCH  13  14
ATOM     14  C   UNL A   1      43.803  24.692  27.183  1.00  0.00     0.031 A 
ATOM     15  C   UNL A   1      45.248  25.034  26.951  1.00  0.00     0.074 A 
ATOM     16  C   UNL A   1      42.939  25.638  27.599  1.00  0.00     0.049 A 
ATOM     17  N   UNL A   1      45.853  26.184  27.097  1.00  0.00    -0.248 NA
ATOM     18  C   UNL A   1      46.130  23.944  26.505  1.00  0.00     0.031 C 
ATOM     19  C   UNL A   1      41.515  25.414  27.868  1.00  0.00     0.029 A 
ATOM     20  N   UNL A   1      43.118  26.972  27.852  1.00  0.00    -0.354 N 
ATOM     21  C   UNL A   1      47.188  25.958  26.780  1.00  0.00     0.074 A 
ATOM     22  C   UNL A   1      47.308  24.551  26.458  1.00  0.00     0.031 C 
ATOM     23  C   UNL A   1      40.943  26.578  28.204  1.00  0.00     0.029 A 
ATOM     24  C   UNL A   1      41.967  27.616  28.236  1.00  0.00     0.049 A 
ATOM     25  H   UNL A   1      43.988  27.426  27.768  1.00  0.00     0.167 HD
ATOM     26  C   UNL A   1      48.213  26.844  26.754  1.00  0.00     0.037 A 
ATOM     27  C   UNL A   1      41.757  28.897  28.592  1.00  0.00     0.037 A 
ATOM     28  C   UNL A   1      48.077  28.245  27.073  1.00  0.00     0.049 A 
ATOM     29  C   UNL A   1      42.913  29.853  28.582  1.00  0.00     0.074 A 
ATOM     30  C   UNL A   1      49.046  29.233  27.043  1.00  0.00     0.029 A 
ATOM     31  N   UNL A   1      46.900  28.854  27.489  1.00  0.00    -0.354 N 
ATOM     32  N   UNL A   1      44.161  29.629  28.246  1.00  0.00    -0.248 NA
ATOM     33  C   UNL A   1      42.636  31.232  29.002  1.00  0.00     0.031 C 
ATOM     34  C   UNL A   1      48.468  30.428  27.486  1.00  0.00     0.029 A 
ATOM     35  C   UNL A   1      47.125  30.199  27.743  1.00  0.00     0.049 A 
ATOM     36  H   UNL A   1      46.034  28.399  27.589  1.00  0.00     0.167 HD
ATOM     37  C   UNL A   1      44.818  30.844  28.400  1.00  0.00     0.074 A 
ATOM     38  C   UNL A   1      43.823  31.801  28.842  1.00  0.00     0.031 C 
ATOM     39  C   UNL A   1      46.125  31.138  28.190  1.00  0.00     0.037 A 
BRANCH  26  40
ATOM     40  C   UNL A   1      49.578  26.320  26.395  1.00  0.00     0.058 A 
ATOM     41  C   UNL A   1      50.402  25.686  27.339  1.00  0.00     0.135 A 
ATOM     42  C   UNL A   1      50.063  26.436  25.081  1.00  0.00     0.135 A 
ATOM     43  F   UNL A   1      49.995  25.556  28.612  1.00  0.00    -0.206 F 
ATOM     44  C   UNL A   1      51.670  25.222  27.005  1.00  0.00     0.059 A 
ATOM     45  C   UNL A   1      51.319  25.955  24.719  1.00  0.00     0.059 A 
ATOM     46  F   UNL A   1      49.317  27.029  24.136  1.00  0.00    -0.206 F 
ATOM     47  C   UNL A   1      52.124  25.368  25.693  1.00  0.00     0.060 A 
BRANCH  47  48
ATOM     48  S   UNL A   1      53.782  24.787  25.282  1.00  0.00     0.124 S 
ATOM     49  O   UNL A   1      53.535  23.377  25.000  1.00  0.00    -0.237 OA
ATOM     50  O   UNL A   1      54.127  25.612  24.128  1.00  0.00    -0.237 OA
ATOM     51  O   UNL A   1      54.549  25.059  26.494  1.00  0.00    -0.744 OA
ENDBRANCH  47  48
ENDBRANCH  26  40
BRANCH  27  52
ATOM     52  C   UNL A   1      40.389  29.334  28.978  1.00  0.00     0.058 A 
ATOM     53  C   UNL A   1      40.068  29.596  30.317  1.00  0.00     0.135 A 
ATOM     54  C   UNL A   1      39.397  29.555  28.009  1.00  0.00     0.135 A 
ATOM     55  F   UNL A   1      40.982  29.396  31.278  1.00  0.00    -0.206 F 
ATOM     56  C   UNL A   1      38.810  30.062  30.684  1.00  0.00     0.059 A 
ATOM     57  C   UNL A   1      38.141  30.045  28.347  1.00  0.00     0.059 A 
ATOM     58  F   UNL A   1      39.663  29.336  26.711  1.00  0.00    -0.206 F 
ATOM     59  C   UNL A   1      37.856  30.291  29.690  1.00  0.00     0.060 A 
BRANCH  59  60
ATOM     60  S   UNL A   1      36.253  30.971  30.169  1.00  0.00     0.124 S 
ATOM     61  O   UNL A   1      35.469  30.751  28.959  1.00  0.00    -0.237 OA
ATOM     62  O   UNL A   1      35.900  30.143  31.318  1.00  0.00    -0.237 OA
ATOM     63  O   UNL A   1      36.557  32.364  30.481  1.00  0.00    -0.744 OA
ENDBRANCH  59  60
ENDBRANCH  27  52
BRANCH  39  64
ATOM     64  C   UNL A   1      46.550  32.562  28.418  1.00  0.00     0.058 A 
ATOM     65  C   UNL A   1      46.474  33.527  27.402  1.00  0.00     0.135 A 
ATOM     66  C   UNL A   1      47.004  32.974  29.681  1.00  0.00     0.135 A 
ATOM     67  F   UNL A   1      46.056  33.182  26.174  1.00  0.00    -0.206 F 
ATOM     68  C   UNL A   1      46.857  34.845  27.623  1.00  0.00     0.059 A 
ATOM     69  C   UNL A   1      47.366  34.294  29.933  1.00  0.00     0.059 A 
ATOM     70  F   UNL A   1      47.088  32.092  30.690  1.00  0.00    -0.206 F 
ATOM     71  C   UNL A   1      47.300  35.219  28.892  1.00  0.00     0.060 A 
BRANCH  71  72
ATOM     72  S   UNL A   1      47.765  36.941  29.176  1.00  0.00     0.124 S 
ATOM     73  O   UNL A   1      46.878  37.640  28.251  1.00  0.00    -0.237 OA
ATOM     74  O   UNL A   1      47.468  37.116  30.594  1.00  0.00    -0.237 OA
ATOM     75  O   UNL A   1      49.182  36.971  28.830  1.00  0.00    -0.744 OA
ENDBRANCH  71  72
ENDBRANCH  39  64
ENDBRANCH  13  14
ENDBRANCH   6   8
ENDBRANCH   3   4
ENDBRANCH   2   3
ENDBRANCH   1   2
BRANCH   1  76
ATOM     76  C   UNL A   1      37.234  22.154  24.712  1.00  0.00     0.002 C 
BRANCH  76  77
ATOM     77  C   UNL A   1      36.632  22.655  23.391  1.00  0.00     0.021 C 
BRANCH  77  78
ATOM     78  C   UNL A   1      35.335  23.450  23.559  1.00  0.00     0.116 C 
BRANCH  78  79
ATOM     79  N   UNL A   1      34.951  23.516  24.952  1.00  0.00    -0.354 N 
ATOM     80  C   UNL A   1      33.762  23.862  25.518  1.00  0.00     0.248 C 
ATOM     81  H   UNL A   1      35.660  23.274  25.591  1.00  0.00     0.163 HD
ATOM     82  O   UNL A   1      33.782  24.017  26.746  1.00  0.00    -0.272 OA
BRANCH  80  83
ATOM     83  C   UNL A   1      32.441  23.966  24.697  1.00  0.00     0.228 C 
ATOM     84  C   UNL A   1      31.792  22.545  24.634  1.00  0.00     0.296 C 
ATOM     85  N   UNL A   1      31.452  24.899  25.279  1.00  0.00    -0.333 N 
ATOM     86  N   UNL A   1      31.215  22.067  25.920  1.00  0.00    -0.343 N 
ATOM     87  C   UNL A   1      30.870  24.511  26.562  1.00  0.00     0.180 C 
ATOM     88  C   UNL A   1      30.280  23.083  26.453  1.00  0.00     0.282 C 
ATOM     89  H   UNL A   1      31.966  21.911  26.593  1.00  0.00     0.346 HD
ATOM     90  H   UNL A   1      30.713  21.193  25.763  1.00  0.00     0.346 HD
BRANCH  85  91
ATOM     91  C   UNL A   1      30.985  26.022  24.639  1.00  0.00     0.148 A 
ATOM     92  N   UNL A   1      29.784  25.880  24.020  1.00  0.00    -0.237 NA
ATOM     93  C   UNL A   1      31.615  27.279  24.645  1.00  0.00     0.084 A 
ATOM     94  C   UNL A   1      29.162  26.974  23.510  1.00  0.00     0.126 A 
ATOM     95  C   UNL A   1      30.964  28.388  24.092  1.00  0.00     0.039 A 
ATOM     96  Cl  UNL A   1      33.210  27.558  25.244  1.00  0.00    -0.080 Cl
ATOM     97  C   UNL A   1      29.696  28.248  23.535  1.00  0.00     0.075 A 
BRANCH  97  98
ATOM     98  C   UNL A   1      28.909  29.411  23.018  1.00  0.00     0.417 C 
ATOM     99  F   UNL A   1      27.633  29.431  23.486  1.00  0.00    -0.166 F 
ATOM    100  F   UNL A   1      29.466  30.599  23.372  1.00  0.00    -0.166 F 
ATOM    101  F   UNL A   1      28.814  29.429  21.660  1.00  0.00    -0.166 F 
ENDBRANCH  97  98
ENDBRANCH  85  91
ENDBRANCH  80  83
ENDBRANCH  78  79
ENDBRANCH  77  78
ENDBRANCH  76  77
ENDBRANCH   1  76
TORSDOF 18
ENDMDL
