MODEL 1
REMARK VINA RESULT:     -13.9      0.000      0.000
REMARK SMILES Cc1cc(C(=O)NCCCCCCNC(=O)c2ccc(-c3c4nc(c(-c5c(F)cc(S(=O)(=O)[O-])cc5F)c5ccc([nH]5)c(-c5c(F)cc(S(=O)(=O)[O-])cc5F)c5nc(c(-c6c(F)cc(S(=O)(=O)[O-])cc6F)c6ccc3[nH]6)C=C5)C=C4)cc2)ccc1NC(=O)N1C[C@@H](C)[C@H](C)C1
REMARK SMILES IDX 11 1 10 2 9 3 8 4 7 5 5 6 6 7 4 9 1 10 2 11 3 12 85 13 84 14
REMARK SMILES IDX 83 15 86 16 87 17 88 19 89 20 90 21 95 22 91 23 93 24 92 25
REMARK SMILES IDX 94 26 12 27 13 28 14 29 15 30 16 32 17 33 18 34 82 35 19 36
REMARK SMILES IDX 81 37 20 38 21 39 22 40 75 41 23 42 80 43 74 44 76 45 24 46
REMARK SMILES IDX 79 47 73 48 72 49 25 51 59 52 38 53 58 54 39 55 42 56 57 57
REMARK SMILES IDX 77 58 40 59 41 60 56 62 78 63 43 64 26 65 27 66 36 67 28 68
REMARK SMILES IDX 29 69 35 70 37 71 30 72 31 73 32 74 33 75 34 76 60 77 61 78
REMARK SMILES IDX 70 79 62 80 63 81 69 82 71 83 64 84 65 85 66 86 67 87 68 88
REMARK SMILES IDX 44 89 45 90 54 91 46 92 47 93 53 94 55 95 48 96 49 97 50 98
REMARK SMILES IDX 51 99 52 100
REMARK H PARENT 7 8 86 18 14 31 76 50 42 61
REMARK Flexibility Score: inf
ROOT
ATOM      1  C   UNL A   1      36.221  21.931  24.762  1.00  0.00     0.002 C 
ENDROOT
BRANCH   1   2
ATOM      2  C   UNL A   1      35.563  21.868  26.150  1.00  0.00     0.002 C 
BRANCH   2   3
ATOM      3  C   UNL A   1      34.619  23.023  26.508  1.00  0.00     0.021 C 
BRANCH   3   4
ATOM      4  C   UNL A   1      33.339  22.605  27.237  1.00  0.00     0.116 C 
BRANCH   4   5
ATOM      5  N   UNL A   1      32.717  21.441  26.623  1.00  0.00    -0.352 N 
ATOM      6  C   UNL A   1      32.096  21.291  25.406  1.00  0.00     0.251 C 
ATOM      7  O   UNL A   1      31.806  20.164  25.012  1.00  0.00    -0.269 OA
ATOM      8  H   UNL A   1      32.746  20.624  27.171  1.00  0.00     0.163 HD
BRANCH   6   9
ATOM      9  C   UNL A   1      31.823  22.456  24.526  1.00  0.00     0.040 A 
ATOM     10  C   UNL A   1      33.334  23.861  21.336  1.00  0.00     0.046 C 
ATOM     11  C   UNL A   1      32.483  23.791  22.575  1.00  0.00    -0.027 A 
ATOM     12  C   UNL A   1      32.633  22.654  23.399  1.00  0.00     0.019 A 
ATOM     13  C   UNL A   1      31.524  24.757  22.927  1.00  0.00     0.045 A 
ATOM     14  C   UNL A   1      30.628  24.473  23.968  1.00  0.00     0.027 A 
ATOM     15  C   UNL A   1      30.762  23.325  24.746  1.00  0.00     0.016 A 
BRANCH  13  16
ATOM     16  N   UNL A   1      31.428  25.970  22.212  1.00  0.00    -0.308 N 
ATOM     17  C   UNL A   1      31.201  27.235  22.677  1.00  0.00     0.321 C 
ATOM     18  H   UNL A   1      31.540  25.894  21.237  1.00  0.00     0.171 HD
ATOM     19  O   UNL A   1      30.590  28.028  21.962  1.00  0.00    -0.248 OA
ATOM     20  N   UNL A   1      31.701  27.591  23.903  1.00  0.00    -0.324 N 
ATOM     21  C   UNL A   1      31.091  28.651  24.686  1.00  0.00     0.125 C 
ATOM     22  C   UNL A   1      33.046  27.291  24.379  1.00  0.00     0.125 C 
ATOM     23  C   UNL A   1      32.186  29.132  25.641  1.00  0.00     0.010 C 
ATOM     24  C   UNL A   1      33.100  27.901  25.780  1.00  0.00     0.010 C 
ATOM     25  C   UNL A   1      31.638  29.629  26.969  1.00  0.00     0.010 C 
ATOM     26  C   UNL A   1      34.513  28.249  26.230  1.00  0.00     0.010 C 
ENDBRANCH  13  16
ENDBRANCH   6   9
ENDBRANCH   4   5
ENDBRANCH   3   4
ENDBRANCH   2   3
ENDBRANCH   1   2
BRANCH   1  27
ATOM     27  C   UNL A   1      37.622  22.546  24.710  1.00  0.00     0.021 C 
BRANCH  27  28
ATOM     28  C   UNL A   1      38.066  23.166  26.032  1.00  0.00     0.116 C 
BRANCH  28  29
ATOM     29  N   UNL A   1      39.455  22.883  26.355  1.00  0.00    -0.352 N 
ATOM     30  C   UNL A   1      40.454  23.798  26.634  1.00  0.00     0.251 C 
ATOM     31  H   UNL A   1      39.712  21.934  26.378  1.00  0.00     0.163 HD
ATOM     32  O   UNL A   1      41.636  23.504  26.619  1.00  0.00    -0.269 OA
BRANCH  30  33
ATOM     33  C   UNL A   1      40.016  25.133  27.092  1.00  0.00     0.039 A 
ATOM     34  C   UNL A   1      40.460  26.236  26.354  1.00  0.00     0.014 A 
ATOM     35  C   UNL A   1      39.408  25.294  28.334  1.00  0.00     0.014 A 
ATOM     36  C   UNL A   1      40.424  27.504  26.929  1.00  0.00     0.010 A 
ATOM     37  C   UNL A   1      39.435  26.544  28.928  1.00  0.00     0.010 A 
ATOM     38  C   UNL A   1      39.979  27.644  28.244  1.00  0.00    -0.014 A 
BRANCH  38  39
ATOM     39  C   UNL A   1      40.138  28.874  29.020  1.00  0.00     0.031 A 
ATOM     40  C   UNL A   1      39.097  29.932  28.996  1.00  0.00     0.074 A 
ATOM     41  C   UNL A   1      41.215  29.030  29.822  1.00  0.00     0.049 A 
ATOM     42  N   UNL A   1      39.281  31.149  29.386  1.00  0.00    -0.248 NA
ATOM     43  C   UNL A   1      37.751  29.693  28.485  1.00  0.00     0.031 C 
ATOM     44  C   UNL A   1      41.385  30.013  30.888  1.00  0.00     0.029 A 
ATOM     45  N   UNL A   1      42.480  28.456  29.674  1.00  0.00    -0.354 N 
ATOM     46  C   UNL A   1      38.061  31.785  29.397  1.00  0.00     0.074 A 
ATOM     47  C   UNL A   1      37.142  30.839  28.806  1.00  0.00     0.031 C 
ATOM     48  C   UNL A   1      42.695  30.173  31.126  1.00  0.00     0.029 A 
ATOM     49  C   UNL A   1      43.417  29.409  30.125  1.00  0.00     0.049 A 
ATOM     50  H   UNL A   1      42.679  27.559  29.323  1.00  0.00     0.167 HD
ATOM     51  C   UNL A   1      37.930  33.006  29.992  1.00  0.00     0.037 A 
ATOM     52  C   UNL A   1      44.354  29.922  29.274  1.00  0.00     0.037 A 
ATOM     53  C   UNL A   1      39.209  33.533  30.455  1.00  0.00     0.049 A 
ATOM     54  C   UNL A   1      44.230  31.410  29.017  1.00  0.00     0.074 A 
ATOM     55  C   UNL A   1      39.872  33.531  31.671  1.00  0.00     0.029 A 
ATOM     56  N   UNL A   1      40.134  33.945  29.515  1.00  0.00    -0.354 N 
ATOM     57  N   UNL A   1      43.310  32.178  29.534  1.00  0.00    -0.248 NA
ATOM     58  C   UNL A   1      45.099  32.137  28.086  1.00  0.00     0.031 C 
ATOM     59  C   UNL A   1      41.229  33.895  31.437  1.00  0.00     0.029 A 
ATOM     60  C   UNL A   1      41.381  34.119  30.082  1.00  0.00     0.049 A 
ATOM     61  H   UNL A   1      39.930  34.095  28.563  1.00  0.00     0.167 HD
ATOM     62  C   UNL A   1      43.401  33.425  28.977  1.00  0.00     0.074 A 
ATOM     63  C   UNL A   1      44.553  33.364  28.099  1.00  0.00     0.031 C 
ATOM     64  C   UNL A   1      42.507  34.421  29.221  1.00  0.00     0.037 A 
BRANCH  51  65
ATOM     65  C   UNL A   1      36.592  33.610  30.341  1.00  0.00     0.058 A 
ATOM     66  C   UNL A   1      35.709  34.041  29.328  1.00  0.00     0.135 A 
ATOM     67  C   UNL A   1      36.149  33.843  31.657  1.00  0.00     0.135 A 
ATOM     68  F   UNL A   1      35.967  33.814  28.032  1.00  0.00    -0.206 F 
ATOM     69  C   UNL A   1      34.539  34.752  29.595  1.00  0.00     0.059 A 
ATOM     70  C   UNL A   1      35.013  34.605  31.950  1.00  0.00     0.059 A 
ATOM     71  F   UNL A   1      36.797  33.317  32.706  1.00  0.00    -0.206 F 
ATOM     72  C   UNL A   1      34.220  35.068  30.908  1.00  0.00     0.060 A 
BRANCH  72  73
ATOM     73  S   UNL A   1      32.786  36.116  31.224  1.00  0.00     0.124 S 
ATOM     74  O   UNL A   1      33.398  37.317  31.784  1.00  0.00    -0.237 OA
ATOM     75  O   UNL A   1      32.216  36.258  29.890  1.00  0.00    -0.237 OA
ATOM     76  O   UNL A   1      31.995  35.331  32.167  1.00  0.00    -0.744 OA
ENDBRANCH  72  73
ENDBRANCH  51  65
BRANCH  52  77
ATOM     77  C   UNL A   1      44.852  28.916  28.297  1.00  0.00     0.058 A 
ATOM     78  C   UNL A   1      44.276  28.913  27.011  1.00  0.00     0.135 A 
ATOM     79  C   UNL A   1      46.098  28.296  28.454  1.00  0.00     0.135 A 
ATOM     80  F   UNL A   1      43.072  29.479  26.813  1.00  0.00    -0.206 F 
ATOM     81  C   UNL A   1      44.980  28.476  25.897  1.00  0.00     0.059 A 
ATOM     82  C   UNL A   1      46.817  27.836  27.351  1.00  0.00     0.059 A 
ATOM     83  F   UNL A   1      46.691  28.262  29.656  1.00  0.00    -0.206 F 
ATOM     84  C   UNL A   1      46.279  28.002  26.073  1.00  0.00     0.060 A 
BRANCH  84  85
ATOM     85  S   UNL A   1      47.300  27.776  24.598  1.00  0.00     0.124 S 
ATOM     86  O   UNL A   1      46.740  28.766  23.686  1.00  0.00    -0.237 OA
ATOM     87  O   UNL A   1      48.636  28.077  25.112  1.00  0.00    -0.237 OA
ATOM     88  O   UNL A   1      47.066  26.382  24.241  1.00  0.00    -0.744 OA
ENDBRANCH  84  85
ENDBRANCH  52  77
BRANCH  64  89
ATOM     89  C   UNL A   1      42.658  35.783  28.634  1.00  0.00     0.058 A 
ATOM     90  C   UNL A   1      43.087  36.866  29.417  1.00  0.00     0.135 A 
ATOM     91  C   UNL A   1      42.257  36.063  27.316  1.00  0.00     0.135 A 
ATOM     92  F   UNL A   1      43.464  36.675  30.692  1.00  0.00    -0.206 F 
ATOM     93  C   UNL A   1      43.129  38.163  28.914  1.00  0.00     0.059 A 
ATOM     94  C   UNL A   1      42.262  37.355  26.801  1.00  0.00     0.059 A 
ATOM     95  F   UNL A   1      41.863  35.075  26.495  1.00  0.00    -0.206 F 
ATOM     96  C   UNL A   1      42.712  38.398  27.605  1.00  0.00     0.060 A 
BRANCH  96  97
ATOM     97  S   UNL A   1      42.717  40.082  26.957  1.00  0.00     0.124 S 
ATOM     98  O   UNL A   1      43.706  40.016  25.884  1.00  0.00    -0.237 OA
ATOM     99  O   UNL A   1      41.330  40.232  26.527  1.00  0.00    -0.237 OA
ATOM    100  O   UNL A   1      43.111  40.880  28.113  1.00  0.00    -0.744 OA
ENDBRANCH  96  97
ENDBRANCH  64  89
ENDBRANCH  38  39
ENDBRANCH  30  33
ENDBRANCH  28  29
ENDBRANCH  27  28
ENDBRANCH   1  27
TORSDOF 17
ENDMDL
MODEL 2
REMARK VINA RESULT:     -13.9      0.933      1.683
REMARK SMILES Cc1cc(C(=O)NCCCCCCNC(=O)c2ccc(-c3c4nc(c(-c5c(F)cc(S(=O)(=O)[O-])cc5F)c5ccc([nH]5)c(-c5c(F)cc(S(=O)(=O)[O-])cc5F)c5nc(c(-c6c(F)cc(S(=O)(=O)[O-])cc6F)c6ccc3[nH]6)C=C5)C=C4)cc2)ccc1NC(=O)N1C[C@@H](C)[C@H](C)C1
REMARK SMILES IDX 11 1 10 2 9 3 8 4 7 5 5 6 6 7 4 9 1 10 2 11 3 12 85 13 84 14
REMARK SMILES IDX 83 15 86 16 87 17 88 19 89 20 90 21 95 22 91 23 93 24 92 25
REMARK SMILES IDX 94 26 12 27 13 28 14 29 15 30 16 32 17 33 18 34 82 35 19 36
REMARK SMILES IDX 81 37 20 38 21 39 22 40 75 41 23 42 80 43 74 44 76 45 24 46
REMARK SMILES IDX 79 47 73 48 72 49 25 51 59 52 38 53 58 54 39 55 42 56 57 57
REMARK SMILES IDX 77 58 40 59 41 60 56 62 78 63 43 64 26 65 27 66 36 67 28 68
REMARK SMILES IDX 29 69 35 70 37 71 30 72 31 73 32 74 33 75 34 76 60 77 61 78
REMARK SMILES IDX 70 79 62 80 63 81 69 82 71 83 64 84 65 85 66 86 67 87 68 88
REMARK SMILES IDX 44 89 45 90 54 91 46 92 47 93 53 94 55 95 48 96 49 97 50 98
REMARK SMILES IDX 51 99 52 100
REMARK H PARENT 7 8 86 18 14 31 76 50 42 61
REMARK Flexibility Score: inf
ROOT
ATOM      1  C   UNL A   1      35.877  22.262  24.940  1.00  0.00     0.002 C 
ENDROOT
BRANCH   1   2
ATOM      2  C   UNL A   1      35.432  22.180  26.410  1.00  0.00     0.002 C 
BRANCH   2   3
ATOM      3  C   UNL A   1      34.383  23.204  26.861  1.00  0.00     0.021 C 
BRANCH   3   4
ATOM      4  C   UNL A   1      33.101  22.598  27.438  1.00  0.00     0.116 C 
BRANCH   4   5
ATOM      5  N   UNL A   1      32.697  21.395  26.724  1.00  0.00    -0.352 N 
ATOM      6  C   UNL A   1      32.234  21.224  25.440  1.00  0.00     0.251 C 
ATOM      7  O   UNL A   1      32.129  20.088  24.984  1.00  0.00    -0.269 OA
ATOM      8  H   UNL A   1      32.766  20.565  27.248  1.00  0.00     0.163 HD
BRANCH   6   9
ATOM      9  C   UNL A   1      31.918  22.385  24.570  1.00  0.00     0.040 A 
ATOM     10  C   UNL A   1      33.283  23.788  21.315  1.00  0.00     0.046 C 
ATOM     11  C   UNL A   1      32.486  23.718  22.589  1.00  0.00    -0.027 A 
ATOM     12  C   UNL A   1      32.678  22.584  23.409  1.00  0.00     0.019 A 
ATOM     13  C   UNL A   1      31.537  24.679  22.979  1.00  0.00     0.045 A 
ATOM     14  C   UNL A   1      30.688  24.393  24.057  1.00  0.00     0.027 A 
ATOM     15  C   UNL A   1      30.862  23.248  24.833  1.00  0.00     0.016 A 
BRANCH  13  16
ATOM     16  N   UNL A   1      31.403  25.890  22.265  1.00  0.00    -0.308 N 
ATOM     17  C   UNL A   1      31.171  27.152  22.735  1.00  0.00     0.321 C 
ATOM     18  H   UNL A   1      31.490  25.813  21.287  1.00  0.00     0.171 HD
ATOM     19  O   UNL A   1      30.529  27.934  22.035  1.00  0.00    -0.248 OA
ATOM     20  N   UNL A   1      31.699  27.517  23.946  1.00  0.00    -0.324 N 
ATOM     21  C   UNL A   1      31.096  28.570  24.744  1.00  0.00     0.125 C 
ATOM     22  C   UNL A   1      33.061  27.238  24.384  1.00  0.00     0.125 C 
ATOM     23  C   UNL A   1      32.210  29.068  25.667  1.00  0.00     0.010 C 
ATOM     24  C   UNL A   1      33.145  27.851  25.782  1.00  0.00     0.010 C 
ATOM     25  C   UNL A   1      31.691  29.559  27.009  1.00  0.00     0.010 C 
ATOM     26  C   UNL A   1      34.565  28.220  26.193  1.00  0.00     0.010 C 
ENDBRANCH  13  16
ENDBRANCH   6   9
ENDBRANCH   4   5
ENDBRANCH   3   4
ENDBRANCH   2   3
ENDBRANCH   1   2
BRANCH   1  27
ATOM     27  C   UNL A   1      37.337  22.654  24.701  1.00  0.00     0.021 C 
BRANCH  27  28
ATOM     28  C   UNL A   1      37.894  23.606  25.755  1.00  0.00     0.116 C 
BRANCH  28  29
ATOM     29  N   UNL A   1      39.176  23.176  26.289  1.00  0.00    -0.352 N 
ATOM     30  C   UNL A   1      40.200  23.977  26.762  1.00  0.00     0.251 C 
ATOM     31  H   UNL A   1      39.333  22.205  26.316  1.00  0.00     0.163 HD
ATOM     32  O   UNL A   1      41.333  23.565  26.929  1.00  0.00    -0.269 OA
BRANCH  30  33
ATOM     33  C   UNL A   1      39.823  25.340  27.194  1.00  0.00     0.039 A 
ATOM     34  C   UNL A   1      40.392  26.409  26.494  1.00  0.00     0.014 A 
ATOM     35  C   UNL A   1      39.141  25.543  28.390  1.00  0.00     0.014 A 
ATOM     36  C   UNL A   1      40.403  27.677  27.070  1.00  0.00     0.010 A 
ATOM     37  C   UNL A   1      39.212  26.789  28.990  1.00  0.00     0.010 A 
ATOM     38  C   UNL A   1      39.878  27.848  28.351  1.00  0.00    -0.014 A 
BRANCH  38  39
ATOM     39  C   UNL A   1      40.066  29.065  29.142  1.00  0.00     0.031 A 
ATOM     40  C   UNL A   1      39.001  30.097  29.219  1.00  0.00     0.074 A 
ATOM     41  C   UNL A   1      41.195  29.230  29.866  1.00  0.00     0.049 A 
ATOM     42  N   UNL A   1      39.186  31.310  29.623  1.00  0.00    -0.248 NA
ATOM     43  C   UNL A   1      37.627  29.836  28.804  1.00  0.00     0.031 C 
ATOM     44  C   UNL A   1      41.421  30.194  30.939  1.00  0.00     0.029 A 
ATOM     45  N   UNL A   1      42.458  28.690  29.612  1.00  0.00    -0.354 N 
ATOM     46  C   UNL A   1      37.956  31.915  29.739  1.00  0.00     0.074 A 
ATOM     47  C   UNL A   1      37.017  30.959  29.195  1.00  0.00     0.031 C 
ATOM     48  C   UNL A   1      42.741  30.380  31.083  1.00  0.00     0.029 A 
ATOM     49  C   UNL A   1      43.404  29.656  30.014  1.00  0.00     0.049 A 
ATOM     50  H   UNL A   1      42.651  27.806  29.226  1.00  0.00     0.167 HD
ATOM     51  C   UNL A   1      37.841  33.119  30.370  1.00  0.00     0.037 A 
ATOM     52  C   UNL A   1      44.263  30.210  29.108  1.00  0.00     0.037 A 
ATOM     53  C   UNL A   1      39.138  33.668  30.749  1.00  0.00     0.049 A 
ATOM     54  C   UNL A   1      44.087  31.700  28.896  1.00  0.00     0.074 A 
ATOM     55  C   UNL A   1      39.890  33.656  31.912  1.00  0.00     0.029 A 
ATOM     56  N   UNL A   1      39.982  34.122  29.753  1.00  0.00    -0.354 N 
ATOM     57  N   UNL A   1      43.190  32.434  29.497  1.00  0.00    -0.248 NA
ATOM     58  C   UNL A   1      44.867  32.468  27.920  1.00  0.00     0.031 C 
ATOM     59  C   UNL A   1      41.217  34.058  31.588  1.00  0.00     0.029 A 
ATOM     60  C   UNL A   1      41.263  34.315  30.231  1.00  0.00     0.049 A 
ATOM     61  H   UNL A   1      39.704  34.288  28.822  1.00  0.00     0.167 HD
ATOM     62  C   UNL A   1      43.211  33.695  28.964  1.00  0.00     0.074 A 
ATOM     63  C   UNL A   1      44.295  33.681  28.003  1.00  0.00     0.031 C 
ATOM     64  C   UNL A   1      42.315  34.662  29.296  1.00  0.00     0.037 A 
BRANCH  51  65
ATOM     65  C   UNL A   1      36.519  33.682  30.831  1.00  0.00     0.058 A 
ATOM     66  C   UNL A   1      35.575  34.161  29.897  1.00  0.00     0.135 A 
ATOM     67  C   UNL A   1      36.150  33.830  32.182  1.00  0.00     0.135 A 
ATOM     68  F   UNL A   1      35.760  34.016  28.578  1.00  0.00    -0.206 F 
ATOM     69  C   UNL A   1      34.415  34.838  30.274  1.00  0.00     0.059 A 
ATOM     70  C   UNL A   1      35.025  34.557  32.584  1.00  0.00     0.059 A 
ATOM     71  F   UNL A   1      36.863  33.251  33.158  1.00  0.00    -0.206 F 
ATOM     72  C   UNL A   1      34.169  35.071  31.619  1.00  0.00     0.060 A 
BRANCH  72  73
ATOM     73  S   UNL A   1      32.745  36.078  32.079  1.00  0.00     0.124 S 
ATOM     74  O   UNL A   1      32.456  36.792  30.839  1.00  0.00    -0.237 OA
ATOM     75  O   UNL A   1      31.772  35.065  32.468  1.00  0.00    -0.237 OA
ATOM     76  O   UNL A   1      33.256  36.911  33.164  1.00  0.00    -0.744 OA
ENDBRANCH  72  73
ENDBRANCH  51  65
BRANCH  52  77
ATOM     77  C   UNL A   1      44.710  29.238  28.075  1.00  0.00     0.058 A 
ATOM     78  C   UNL A   1      45.674  28.282  28.452  1.00  0.00     0.135 A 
ATOM     79  C   UNL A   1      43.941  28.973  26.935  1.00  0.00     0.135 A 
ATOM     80  F   UNL A   1      46.452  28.499  29.527  1.00  0.00    -0.206 F 
ATOM     81  C   UNL A   1      45.750  27.040  27.835  1.00  0.00     0.059 A 
ATOM     82  C   UNL A   1      44.010  27.738  26.291  1.00  0.00     0.059 A 
ATOM     83  F   UNL A   1      43.013  29.850  26.525  1.00  0.00    -0.206 F 
ATOM     84  C   UNL A   1      44.863  26.755  26.798  1.00  0.00     0.060 A 
BRANCH  84  85
ATOM     85  S   UNL A   1      44.729  25.037  26.251  1.00  0.00     0.124 S 
ATOM     86  O   UNL A   1      43.621  25.104  25.305  1.00  0.00    -0.237 OA
ATOM     87  O   UNL A   1      46.049  24.809  25.661  1.00  0.00    -0.237 OA
ATOM     88  O   UNL A   1      44.463  24.313  27.489  1.00  0.00    -0.744 OA
ENDBRANCH  84  85
ENDBRANCH  52  77
BRANCH  64  89
ATOM     89  C   UNL A   1      42.390  36.040  28.732  1.00  0.00     0.058 A 
ATOM     90  C   UNL A   1      41.884  36.329  27.455  1.00  0.00     0.135 A 
ATOM     91  C   UNL A   1      43.081  37.069  29.396  1.00  0.00     0.135 A 
ATOM     92  F   UNL A   1      41.232  35.387  26.753  1.00  0.00    -0.206 F 
ATOM     93  C   UNL A   1      42.042  37.582  26.870  1.00  0.00     0.059 A 
ATOM     94  C   UNL A   1      43.277  38.319  28.819  1.00  0.00     0.059 A 
ATOM     95  F   UNL A   1      43.567  36.880  30.634  1.00  0.00    -0.206 F 
ATOM     96  C   UNL A   1      42.744  38.570  27.559  1.00  0.00     0.060 A 
BRANCH  96  97
ATOM     97  S   UNL A   1      42.996  40.183  26.790  1.00  0.00     0.124 S 
ATOM     98  O   UNL A   1      41.737  40.410  26.086  1.00  0.00    -0.237 OA
ATOM     99  O   UNL A   1      43.225  41.028  27.958  1.00  0.00    -0.237 OA
ATOM    100  O   UNL A   1      44.155  39.963  25.931  1.00  0.00    -0.744 OA
ENDBRANCH  96  97
ENDBRANCH  64  89
ENDBRANCH  38  39
ENDBRANCH  30  33
ENDBRANCH  28  29
ENDBRANCH  27  28
ENDBRANCH   1  27
TORSDOF 17
ENDMDL
MODEL 3
REMARK VINA RESULT:     -13.6      1.499      2.169
REMARK SMILES Cc1cc(C(=O)NCCCCCCNC(=O)c2ccc(-c3c4nc(c(-c5c(F)cc(S(=O)(=O)[O-])cc5F)c5ccc([nH]5)c(-c5c(F)cc(S(=O)(=O)[O-])cc5F)c5nc(c(-c6c(F)cc(S(=O)(=O)[O-])cc6F)c6ccc3[nH]6)C=C5)C=C4)cc2)ccc1NC(=O)N1C[C@@H](C)[C@H](C)C1
REMARK SMILES IDX 11 1 10 2 9 3 8 4 7 5 5 6 6 7 4 9 1 10 2 11 3 12 85 13 84 14
REMARK SMILES IDX 83 15 86 16 87 17 88 19 89 20 90 21 95 22 91 23 93 24 92 25
REMARK SMILES IDX 94 26 12 27 13 28 14 29 15 30 16 32 17 33 18 34 82 35 19 36
REMARK SMILES IDX 81 37 20 38 21 39 22 40 75 41 23 42 80 43 74 44 76 45 24 46
REMARK SMILES IDX 79 47 73 48 72 49 25 51 59 52 38 53 58 54 39 55 42 56 57 57
REMARK SMILES IDX 77 58 40 59 41 60 56 62 78 63 43 64 26 65 27 66 36 67 28 68
REMARK SMILES IDX 29 69 35 70 37 71 30 72 31 73 32 74 33 75 34 76 60 77 61 78
REMARK SMILES IDX 70 79 62 80 63 81 69 82 71 83 64 84 65 85 66 86 67 87 68 88
REMARK SMILES IDX 44 89 45 90 54 91 46 92 47 93 53 94 55 95 48 96 49 97 50 98
REMARK SMILES IDX 51 99 52 100
REMARK H PARENT 7 8 86 18 14 31 76 50 42 61
REMARK Flexibility Score: inf
ROOT
ATOM      1  C   UNL A   1      35.641  23.619  25.222  1.00  0.00     0.002 C 
ENDROOT
BRANCH   1   2
ATOM      2  C   UNL A   1      35.913  22.862  23.913  1.00  0.00     0.002 C 
BRANCH   2   3
ATOM      3  C   UNL A   1      36.640  21.517  24.042  1.00  0.00     0.021 C 
BRANCH   3   4
ATOM      4  C   UNL A   1      36.254  20.694  25.274  1.00  0.00     0.116 C 
BRANCH   4   5
ATOM      5  N   UNL A   1      35.402  19.565  24.930  1.00  0.00    -0.352 N 
ATOM      6  C   UNL A   1      34.062  19.509  24.627  1.00  0.00     0.251 C 
ATOM      7  O   UNL A   1      33.587  18.467  24.182  1.00  0.00    -0.269 OA
ATOM      8  H   UNL A   1      35.862  18.695  24.910  1.00  0.00     0.163 HD
BRANCH   6   9
ATOM      9  C   UNL A   1      33.186  20.701  24.767  1.00  0.00     0.040 A 
ATOM     10  C   UNL A   1      32.104  22.953  27.628  1.00  0.00     0.046 C 
ATOM     11  C   UNL A   1      32.134  22.349  26.251  1.00  0.00    -0.027 A 
ATOM     12  C   UNL A   1      33.022  21.272  26.037  1.00  0.00     0.019 A 
ATOM     13  C   UNL A   1      31.374  22.821  25.166  1.00  0.00     0.045 A 
ATOM     14  C   UNL A   1      31.657  22.339  23.881  1.00  0.00     0.027 A 
ATOM     15  C   UNL A   1      32.568  21.304  23.679  1.00  0.00     0.016 A 
BRANCH  13  16
ATOM     16  N   UNL A   1      30.379  23.804  25.359  1.00  0.00    -0.308 N 
ATOM     17  C   UNL A   1      30.497  25.069  25.862  1.00  0.00     0.321 C 
ATOM     18  H   UNL A   1      29.469  23.540  25.093  1.00  0.00     0.171 HD
ATOM     19  O   UNL A   1      29.551  25.549  26.485  1.00  0.00    -0.248 OA
ATOM     20  N   UNL A   1      31.645  25.777  25.615  1.00  0.00    -0.324 N 
ATOM     21  C   UNL A   1      32.080  26.841  26.503  1.00  0.00     0.125 C 
ATOM     22  C   UNL A   1      32.316  25.862  24.323  1.00  0.00     0.125 C 
ATOM     23  C   UNL A   1      32.997  27.727  25.657  1.00  0.00     0.010 C 
ATOM     24  C   UNL A   1      33.524  26.763  24.579  1.00  0.00     0.010 C 
ATOM     25  C   UNL A   1      34.100  28.384  26.470  1.00  0.00     0.010 C 
ATOM     26  C   UNL A   1      34.021  27.474  23.327  1.00  0.00     0.010 C 
ENDBRANCH  13  16
ENDBRANCH   6   9
ENDBRANCH   4   5
ENDBRANCH   3   4
ENDBRANCH   2   3
ENDBRANCH   1   2
BRANCH   1  27
ATOM     27  C   UNL A   1      36.849  23.837  26.137  1.00  0.00     0.021 C 
BRANCH  27  28
ATOM     28  C   UNL A   1      38.181  23.864  25.392  1.00  0.00     0.116 C 
BRANCH  28  29
ATOM     29  N   UNL A   1      39.279  23.313  26.169  1.00  0.00    -0.352 N 
ATOM     30  C   UNL A   1      40.219  24.011  26.905  1.00  0.00     0.251 C 
ATOM     31  H   UNL A   1      39.362  22.332  26.172  1.00  0.00     0.163 HD
ATOM     32  O   UNL A   1      41.256  23.505  27.293  1.00  0.00    -0.269 OA
BRANCH  30  33
ATOM     33  C   UNL A   1      39.845  25.378  27.324  1.00  0.00     0.039 A 
ATOM     34  C   UNL A   1      40.385  26.439  26.588  1.00  0.00     0.014 A 
ATOM     35  C   UNL A   1      39.198  25.598  28.537  1.00  0.00     0.014 A 
ATOM     36  C   UNL A   1      40.403  27.717  27.141  1.00  0.00     0.010 A 
ATOM     37  C   UNL A   1      39.277  26.854  29.112  1.00  0.00     0.010 A 
ATOM     38  C   UNL A   1      39.915  27.907  28.434  1.00  0.00    -0.014 A 
BRANCH  38  39
ATOM     39  C   UNL A   1      40.117  29.139  29.197  1.00  0.00     0.031 A 
ATOM     40  C   UNL A   1      39.065  30.185  29.253  1.00  0.00     0.074 A 
ATOM     41  C   UNL A   1      41.249  29.308  29.917  1.00  0.00     0.049 A 
ATOM     42  N   UNL A   1      39.264  31.404  29.628  1.00  0.00    -0.248 NA
ATOM     43  C   UNL A   1      37.687  29.930  28.843  1.00  0.00     0.031 C 
ATOM     44  C   UNL A   1      41.487  30.293  30.968  1.00  0.00     0.029 A 
ATOM     45  N   UNL A   1      42.506  28.748  29.675  1.00  0.00    -0.354 N 
ATOM     46  C   UNL A   1      38.040  32.025  29.731  1.00  0.00     0.074 A 
ATOM     47  C   UNL A   1      37.090  31.069  29.210  1.00  0.00     0.031 C 
ATOM     48  C   UNL A   1      42.809  30.468  31.108  1.00  0.00     0.029 A 
ATOM     49  C   UNL A   1      43.463  29.712  30.055  1.00  0.00     0.049 A 
ATOM     50  H   UNL A   1      42.688  27.854  29.308  1.00  0.00     0.167 HD
ATOM     51  C   UNL A   1      37.940  33.245  30.335  1.00  0.00     0.037 A 
ATOM     52  C   UNL A   1      44.328  30.236  29.136  1.00  0.00     0.037 A 
ATOM     53  C   UNL A   1      39.243  33.787  30.702  1.00  0.00     0.049 A 
ATOM     54  C   UNL A   1      44.168  31.723  28.890  1.00  0.00     0.074 A 
ATOM     55  C   UNL A   1      39.996  33.793  31.864  1.00  0.00     0.029 A 
ATOM     56  N   UNL A   1      40.091  34.210  29.695  1.00  0.00    -0.354 N 
ATOM     57  N   UNL A   1      43.280  32.480  29.475  1.00  0.00    -0.248 NA
ATOM     58  C   UNL A   1      44.956  32.459  27.897  1.00  0.00     0.031 C 
ATOM     59  C   UNL A   1      41.327  34.173  31.530  1.00  0.00     0.029 A 
ATOM     60  C   UNL A   1      41.375  34.398  30.168  1.00  0.00     0.049 A 
ATOM     61  H   UNL A   1      39.815  34.357  28.761  1.00  0.00     0.167 HD
ATOM     62  C   UNL A   1      43.315  33.728  28.914  1.00  0.00     0.074 A 
ATOM     63  C   UNL A   1      44.398  33.681  27.953  1.00  0.00     0.031 C 
ATOM     64  C   UNL A   1      42.430  34.713  29.225  1.00  0.00     0.037 A 
BRANCH  51  65
ATOM     65  C   UNL A   1      36.625  33.833  30.784  1.00  0.00     0.058 A 
ATOM     66  C   UNL A   1      35.645  34.211  29.841  1.00  0.00     0.135 A 
ATOM     67  C   UNL A   1      36.296  34.103  32.127  1.00  0.00     0.135 A 
ATOM     68  F   UNL A   1      35.791  33.946  28.535  1.00  0.00    -0.206 F 
ATOM     69  C   UNL A   1      34.488  34.907  30.190  1.00  0.00     0.059 A 
ATOM     70  C   UNL A   1      35.173  34.851  32.496  1.00  0.00     0.059 A 
ATOM     71  F   UNL A   1      37.047  33.626  33.129  1.00  0.00    -0.206 F 
ATOM     72  C   UNL A   1      34.280  35.262  31.515  1.00  0.00     0.060 A 
BRANCH  72  73
ATOM     73  S   UNL A   1      32.856  36.290  31.925  1.00  0.00     0.124 S 
ATOM     74  O   UNL A   1      33.317  36.997  33.116  1.00  0.00    -0.237 OA
ATOM     75  O   UNL A   1      32.713  37.101  30.722  1.00  0.00    -0.237 OA
ATOM     76  O   UNL A   1      31.793  35.318  32.160  1.00  0.00    -0.744 OA
ENDBRANCH  72  73
ENDBRANCH  51  65
BRANCH  52  77
ATOM     77  C   UNL A   1      44.763  29.236  28.124  1.00  0.00     0.058 A 
ATOM     78  C   UNL A   1      45.752  28.308  28.507  1.00  0.00     0.135 A 
ATOM     79  C   UNL A   1      43.968  28.920  27.016  1.00  0.00     0.135 A 
ATOM     80  F   UNL A   1      46.554  28.574  29.553  1.00  0.00    -0.206 F 
ATOM     81  C   UNL A   1      45.832  27.047  27.931  1.00  0.00     0.059 A 
ATOM     82  C   UNL A   1      44.041  27.665  26.412  1.00  0.00     0.059 A 
ATOM     83  F   UNL A   1      43.015  29.768  26.602  1.00  0.00    -0.206 F 
ATOM     84  C   UNL A   1      44.922  26.713  26.929  1.00  0.00     0.060 A 
BRANCH  84  85
ATOM     85  S   UNL A   1      44.802  24.975  26.445  1.00  0.00     0.124 S 
ATOM     86  O   UNL A   1      46.171  24.678  26.035  1.00  0.00    -0.237 OA
ATOM     87  O   UNL A   1      44.367  24.348  27.692  1.00  0.00    -0.237 OA
ATOM     88  O   UNL A   1      43.812  24.995  25.374  1.00  0.00    -0.744 OA
ENDBRANCH  84  85
ENDBRANCH  52  77
BRANCH  64  89
ATOM     89  C   UNL A   1      42.520  36.077  28.630  1.00  0.00     0.058 A 
ATOM     90  C   UNL A   1      43.068  37.148  29.352  1.00  0.00     0.135 A 
ATOM     91  C   UNL A   1      41.948  36.371  27.380  1.00  0.00     0.135 A 
ATOM     92  F   UNL A   1      43.611  36.944  30.563  1.00  0.00    -0.206 F 
ATOM     93  C   UNL A   1      43.061  38.448  28.854  1.00  0.00     0.059 A 
ATOM     94  C   UNL A   1      41.904  37.667  26.875  1.00  0.00     0.059 A 
ATOM     95  F   UNL A   1      41.432  35.395  26.614  1.00  0.00    -0.206 F 
ATOM     96  C   UNL A   1      42.474  38.698  27.615  1.00  0.00     0.060 A 
BRANCH  96  97
ATOM     97  S   UNL A   1      42.417  40.386  26.981  1.00  0.00     0.124 S 
ATOM     98  O   UNL A   1      43.401  40.363  25.901  1.00  0.00    -0.237 OA
ATOM     99  O   UNL A   1      41.024  40.490  26.559  1.00  0.00    -0.237 OA
ATOM    100  O   UNL A   1      42.789  41.189  28.140  1.00  0.00    -0.744 OA
ENDBRANCH  96  97
ENDBRANCH  64  89
ENDBRANCH  38  39
ENDBRANCH  30  33
ENDBRANCH  28  29
ENDBRANCH  27  28
ENDBRANCH   1  27
TORSDOF 17
ENDMDL
