MODEL 1
REMARK VINA RESULT:     -14.4      0.000      0.000
REMARK SMILES Cc1ccc(Oc2cc(C(=O)NCCCCCCNC(=O)c3ccc(-c4c5nc(c(-c6c(F)cc(S(=O)(=O)[O-])cc6F)c6ccc([nH]6)c(-c6c(F)cc(S(=O)(=O)[O-])cc6F)c6nc(c(-c7c(F)cc(S(=O)(=O)[O-])cc7F)c7ccc4[nH]7)C=C6)C=C5)cc3)nc3ccccc23)cc1
REMARK SMILES IDX 16 1 15 2 14 3 13 4 12 5 10 6 11 7 9 9 7 10 8 11 94 12 89 13
REMARK SMILES IDX 93 14 88 15 90 16 92 17 91 18 6 19 5 20 1 21 2 22 3 23 96 24
REMARK SMILES IDX 4 25 95 26 17 27 18 28 19 29 20 30 21 32 22 33 23 34 87 35
REMARK SMILES IDX 24 36 86 37 25 38 26 39 27 40 80 41 28 42 85 43 79 44 81 45
REMARK SMILES IDX 29 46 84 47 78 48 77 49 30 51 64 52 43 53 63 54 44 55 47 56
REMARK SMILES IDX 62 57 82 58 45 59 46 60 61 62 83 63 48 64 31 65 32 66 41 67
REMARK SMILES IDX 33 68 34 69 40 70 42 71 35 72 36 73 37 74 38 75 39 76 65 77
REMARK SMILES IDX 66 78 75 79 67 80 68 81 74 82 76 83 69 84 70 85 71 86 72 87
REMARK SMILES IDX 73 88 49 89 50 90 59 91 51 92 52 93 58 94 60 95 53 96 54 97
REMARK SMILES IDX 55 98 56 99 57 100
REMARK H PARENT 12 8 19 31 81 50 47 61
REMARK Flexibility Score: inf
ROOT
ATOM      1  C   UNL A   1      32.776  30.369  26.747  1.00  0.00     0.002 C 
ENDROOT
BRANCH   1   2
ATOM      2  C   UNL A   1      32.459  28.989  27.346  1.00  0.00     0.002 C 
BRANCH   2   3
ATOM      3  C   UNL A   1      31.390  28.152  26.630  1.00  0.00     0.021 C 
BRANCH   3   4
ATOM      4  C   UNL A   1      31.854  26.779  26.141  1.00  0.00     0.116 C 
BRANCH   4   5
ATOM      5  N   UNL A   1      31.043  25.696  26.675  1.00  0.00    -0.351 N 
ATOM      6  C   UNL A   1      31.219  24.330  26.680  1.00  0.00     0.270 C 
ATOM      7  O   UNL A   1      30.386  23.651  27.287  1.00  0.00    -0.268 OA
ATOM      8  H   UNL A   1      30.214  25.996  27.114  1.00  0.00     0.163 HD
BRANCH   6   9
ATOM      9  C   UNL A   1      32.367  23.630  26.006  1.00  0.00     0.132 A 
ATOM     10  C   UNL A   1      33.159  21.966  24.499  1.00  0.00     0.139 A 
ATOM     11  C   UNL A   1      32.089  22.620  25.101  1.00  0.00     0.082 A 
ATOM     12  C   UNL A   1      34.490  22.364  24.753  1.00  0.00     0.043 A 
ATOM     13  C   UNL A   1      34.661  23.383  25.708  1.00  0.00     0.075 A 
ATOM     14  C   UNL A   1      35.636  21.803  24.137  1.00  0.00     0.014 A 
ATOM     15  N   UNL A   1      33.632  23.996  26.311  1.00  0.00    -0.242 NA
ATOM     16  C   UNL A   1      35.948  23.767  26.057  1.00  0.00     0.029 A 
ATOM     17  C   UNL A   1      36.919  22.205  24.505  1.00  0.00     0.001 A 
ATOM     18  C   UNL A   1      37.076  23.183  25.476  1.00  0.00     0.002 A 
BRANCH  10  19
ATOM     19  O   UNL A   1      32.832  20.956  23.617  1.00  0.00    -0.457 OA
BRANCH  19  20
ATOM     20  C   UNL A   1      32.790  19.657  24.085  1.00  0.00     0.127 A 
ATOM     21  C   UNL A   1      32.925  15.485  25.157  1.00  0.00     0.044 C 
ATOM     22  C   UNL A   1      32.854  16.938  24.790  1.00  0.00    -0.051 A 
ATOM     23  C   UNL A   1      32.791  17.320  23.445  1.00  0.00     0.007 A 
ATOM     24  C   UNL A   1      32.832  17.927  25.779  1.00  0.00     0.007 A 
ATOM     25  C   UNL A   1      32.761  18.672  23.096  1.00  0.00     0.047 A 
ATOM     26  C   UNL A   1      32.787  19.280  25.430  1.00  0.00     0.047 A 
ENDBRANCH  19  20
ENDBRANCH  10  19
ENDBRANCH   6   9
ENDBRANCH   4   5
ENDBRANCH   3   4
ENDBRANCH   2   3
ENDBRANCH   1   2
BRANCH   1  27
ATOM     27  C   UNL A   1      33.611  31.316  27.612  1.00  0.00     0.021 C 
BRANCH  27  28
ATOM     28  C   UNL A   1      34.992  30.774  27.972  1.00  0.00     0.116 C 
BRANCH  28  29
ATOM     29  N   UNL A   1      35.505  31.314  29.233  1.00  0.00    -0.352 N 
ATOM     30  C   UNL A   1      36.413  30.737  30.101  1.00  0.00     0.251 C 
ATOM     31  H   UNL A   1      35.160  32.198  29.494  1.00  0.00     0.163 HD
ATOM     32  O   UNL A   1      36.741  31.224  31.176  1.00  0.00    -0.269 OA
BRANCH  30  33
ATOM     33  C   UNL A   1      37.082  29.517  29.619  1.00  0.00     0.039 A 
ATOM     34  C   UNL A   1      37.511  28.616  30.598  1.00  0.00     0.014 A 
ATOM     35  C   UNL A   1      37.602  29.509  28.327  1.00  0.00     0.014 A 
ATOM     36  C   UNL A   1      38.638  27.849  30.344  1.00  0.00     0.010 A 
ATOM     37  C   UNL A   1      38.766  28.798  28.102  1.00  0.00     0.010 A 
ATOM     38  C   UNL A   1      39.321  28.035  29.137  1.00  0.00    -0.014 A 
BRANCH  38  39
ATOM     39  C   UNL A   1      40.703  27.593  28.985  1.00  0.00     0.031 A 
ATOM     40  C   UNL A   1      40.992  26.237  28.488  1.00  0.00     0.074 A 
ATOM     41  C   UNL A   1      41.716  28.377  29.414  1.00  0.00     0.049 A 
ATOM     42  N   UNL A   1      41.920  25.479  28.966  1.00  0.00    -0.248 NA
ATOM     43  C   UNL A   1      40.206  25.612  27.432  1.00  0.00     0.031 C 
ATOM     44  C   UNL A   1      43.146  28.119  29.275  1.00  0.00     0.029 A 
ATOM     45  N   UNL A   1      41.639  29.469  30.277  1.00  0.00    -0.354 N 
ATOM     46  C   UNL A   1      42.023  24.389  28.136  1.00  0.00     0.074 A 
ATOM     47  C   UNL A   1      40.887  24.478  27.243  1.00  0.00     0.031 C 
ATOM     48  C   UNL A   1      43.803  28.839  30.199  1.00  0.00     0.029 A 
ATOM     49  C   UNL A   1      42.819  29.512  31.032  1.00  0.00     0.049 A 
ATOM     50  H   UNL A   1      40.887  30.101  30.346  1.00  0.00     0.167 HD
ATOM     51  C   UNL A   1      43.133  23.597  28.166  1.00  0.00     0.037 A 
ATOM     52  C   UNL A   1      42.787  29.467  32.394  1.00  0.00     0.037 A 
ATOM     53  C   UNL A   1      44.116  24.087  29.128  1.00  0.00     0.049 A 
ATOM     54  C   UNL A   1      43.446  28.234  32.971  1.00  0.00     0.074 A 
ATOM     55  C   UNL A   1      45.213  24.920  28.974  1.00  0.00     0.029 A 
ATOM     56  N   UNL A   1      43.859  24.031  30.496  1.00  0.00    -0.354 N 
ATOM     57  N   UNL A   1      43.724  27.162  32.279  1.00  0.00    -0.248 NA
ATOM     58  C   UNL A   1      43.840  28.107  34.371  1.00  0.00     0.031 C 
ATOM     59  C   UNL A   1      45.579  25.416  30.246  1.00  0.00     0.029 A 
ATOM     60  C   UNL A   1      44.724  24.865  31.184  1.00  0.00     0.049 A 
ATOM     61  H   UNL A   1      43.162  23.476  30.914  1.00  0.00     0.167 HD
ATOM     62  C   UNL A   1      44.301  26.221  33.096  1.00  0.00     0.074 A 
ATOM     63  C   UNL A   1      44.371  26.871  34.392  1.00  0.00     0.031 C 
ATOM     64  C   UNL A   1      44.680  24.989  32.635  1.00  0.00     0.037 A 
BRANCH  51  65
ATOM     65  C   UNL A   1      43.420  22.649  27.025  1.00  0.00     0.058 A 
ATOM     66  C   UNL A   1      42.749  21.417  26.904  1.00  0.00     0.135 A 
ATOM     67  C   UNL A   1      44.444  22.870  26.082  1.00  0.00     0.135 A 
ATOM     68  F   UNL A   1      41.685  21.120  27.660  1.00  0.00    -0.206 F 
ATOM     69  C   UNL A   1      43.164  20.417  26.026  1.00  0.00     0.059 A 
ATOM     70  C   UNL A   1      44.912  21.867  25.226  1.00  0.00     0.059 A 
ATOM     71  F   UNL A   1      45.044  24.068  25.991  1.00  0.00    -0.206 F 
ATOM     72  C   UNL A   1      44.279  20.630  25.226  1.00  0.00     0.060 A 
BRANCH  72  73
ATOM     73  S   UNL A   1      44.912  19.256  24.242  1.00  0.00     0.124 S 
ATOM     74  O   UNL A   1      44.523  19.637  22.888  1.00  0.00    -0.237 OA
ATOM     75  O   UNL A   1      46.340  19.312  24.531  1.00  0.00    -0.237 OA
ATOM     76  O   UNL A   1      44.202  18.101  24.783  1.00  0.00    -0.744 OA
ENDBRANCH  72  73
ENDBRANCH  51  65
BRANCH  52  77
ATOM     77  C   UNL A   1      41.680  30.246  33.009  1.00  0.00     0.058 A 
ATOM     78  C   UNL A   1      40.560  29.537  33.484  1.00  0.00     0.135 A 
ATOM     79  C   UNL A   1      41.826  31.572  33.436  1.00  0.00     0.135 A 
ATOM     80  F   UNL A   1      40.360  28.266  33.098  1.00  0.00    -0.206 F 
ATOM     81  C   UNL A   1      39.682  30.078  34.420  1.00  0.00     0.059 A 
ATOM     82  C   UNL A   1      40.959  32.135  34.381  1.00  0.00     0.059 A 
ATOM     83  F   UNL A   1      42.867  32.305  33.015  1.00  0.00    -0.206 F 
ATOM     84  C   UNL A   1      39.921  31.361  34.903  1.00  0.00     0.060 A 
BRANCH  84  85
ATOM     85  S   UNL A   1      38.877  31.978  36.248  1.00  0.00     0.124 S 
ATOM     86  O   UNL A   1      37.812  30.979  36.294  1.00  0.00    -0.237 OA
ATOM     87  O   UNL A   1      39.799  31.959  37.382  1.00  0.00    -0.237 OA
ATOM     88  O   UNL A   1      38.476  33.298  35.780  1.00  0.00    -0.744 OA
ENDBRANCH  84  85
ENDBRANCH  52  77
BRANCH  64  89
ATOM     89  C   UNL A   1      45.172  23.827  33.474  1.00  0.00     0.058 A 
ATOM     90  C   UNL A   1      46.494  23.680  33.927  1.00  0.00     0.135 A 
ATOM     91  C   UNL A   1      44.255  22.865  33.967  1.00  0.00     0.135 A 
ATOM     92  F   UNL A   1      47.439  24.581  33.625  1.00  0.00    -0.206 F 
ATOM     93  C   UNL A   1      46.892  22.626  34.755  1.00  0.00     0.059 A 
ATOM     94  C   UNL A   1      44.618  21.840  34.837  1.00  0.00     0.059 A 
ATOM     95  F   UNL A   1      42.956  22.893  33.630  1.00  0.00    -0.206 F 
ATOM     96  C   UNL A   1      45.946  21.712  35.208  1.00  0.00     0.060 A 
BRANCH  96  97
ATOM     97  S   UNL A   1      46.424  20.396  36.346  1.00  0.00     0.124 S 
ATOM     98  O   UNL A   1      45.775  20.828  37.580  1.00  0.00    -0.237 OA
ATOM     99  O   UNL A   1      45.860  19.203  35.723  1.00  0.00    -0.237 OA
ATOM    100  O   UNL A   1      47.881  20.468  36.336  1.00  0.00    -0.744 OA
ENDBRANCH  96  97
ENDBRANCH  64  89
ENDBRANCH  38  39
ENDBRANCH  30  33
ENDBRANCH  28  29
ENDBRANCH  27  28
ENDBRANCH   1  27
TORSDOF 18
ENDMDL
MODEL 2
REMARK VINA RESULT:     -14.0      1.741      2.541
REMARK SMILES Cc1ccc(Oc2cc(C(=O)NCCCCCCNC(=O)c3ccc(-c4c5nc(c(-c6c(F)cc(S(=O)(=O)[O-])cc6F)c6ccc([nH]6)c(-c6c(F)cc(S(=O)(=O)[O-])cc6F)c6nc(c(-c7c(F)cc(S(=O)(=O)[O-])cc7F)c7ccc4[nH]7)C=C6)C=C5)cc3)nc3ccccc23)cc1
REMARK SMILES IDX 16 1 15 2 14 3 13 4 12 5 10 6 11 7 9 9 7 10 8 11 94 12 89 13
REMARK SMILES IDX 93 14 88 15 90 16 92 17 91 18 6 19 5 20 1 21 2 22 3 23 96 24
REMARK SMILES IDX 4 25 95 26 17 27 18 28 19 29 20 30 21 32 22 33 23 34 87 35
REMARK SMILES IDX 24 36 86 37 25 38 26 39 27 40 80 41 28 42 85 43 79 44 81 45
REMARK SMILES IDX 29 46 84 47 78 48 77 49 30 51 64 52 43 53 63 54 44 55 47 56
REMARK SMILES IDX 62 57 82 58 45 59 46 60 61 62 83 63 48 64 31 65 32 66 41 67
REMARK SMILES IDX 33 68 34 69 40 70 42 71 35 72 36 73 37 74 38 75 39 76 65 77
REMARK SMILES IDX 66 78 75 79 67 80 68 81 74 82 76 83 69 84 70 85 71 86 72 87
REMARK SMILES IDX 73 88 49 89 50 90 59 91 51 92 52 93 58 94 60 95 53 96 54 97
REMARK SMILES IDX 55 98 56 99 57 100
REMARK H PARENT 12 8 19 31 81 50 47 61
REMARK Flexibility Score: inf
ROOT
ATOM      1  C   UNL A   1      32.377  30.423  26.599  1.00  0.00     0.002 C 
ENDROOT
BRANCH   1   2
ATOM      2  C   UNL A   1      32.664  29.169  25.756  1.00  0.00     0.002 C 
BRANCH   2   3
ATOM      3  C   UNL A   1      32.344  29.255  24.257  1.00  0.00     0.021 C 
BRANCH   3   4
ATOM      4  C   UNL A   1      33.489  28.862  23.322  1.00  0.00     0.116 C 
BRANCH   4   5
ATOM      5  N   UNL A   1      33.061  27.946  22.276  1.00  0.00    -0.351 N 
ATOM      6  C   UNL A   1      32.777  26.598  22.291  1.00  0.00     0.270 C 
ATOM      7  O   UNL A   1      32.355  26.094  21.247  1.00  0.00    -0.268 OA
ATOM      8  H   UNL A   1      32.956  28.369  21.392  1.00  0.00     0.163 HD
BRANCH   6   9
ATOM      9  C   UNL A   1      32.939  25.722  23.502  1.00  0.00     0.132 A 
ATOM     10  C   UNL A   1      34.351  24.691  25.119  1.00  0.00     0.139 A 
ATOM     11  C   UNL A   1      34.211  25.521  24.011  1.00  0.00     0.082 A 
ATOM     12  C   UNL A   1      33.222  24.121  25.747  1.00  0.00     0.043 A 
ATOM     13  C   UNL A   1      31.980  24.368  25.133  1.00  0.00     0.075 A 
ATOM     14  C   UNL A   1      33.261  23.322  26.916  1.00  0.00     0.014 A 
ATOM     15  N   UNL A   1      31.846  25.145  24.049  1.00  0.00    -0.242 NA
ATOM     16  C   UNL A   1      30.841  23.775  25.659  1.00  0.00     0.029 A 
ATOM     17  C   UNL A   1      32.103  22.736  27.425  1.00  0.00     0.001 A 
ATOM     18  C   UNL A   1      30.890  22.955  26.788  1.00  0.00     0.002 A 
BRANCH  10  19
ATOM     19  O   UNL A   1      35.639  24.509  25.579  1.00  0.00    -0.457 OA
BRANCH  19  20
ATOM     20  C   UNL A   1      36.270  23.308  25.323  1.00  0.00     0.127 A 
ATOM     21  C   UNL A   1      38.440  19.602  24.961  1.00  0.00     0.044 C 
ATOM     22  C   UNL A   1      37.691  20.897  25.063  1.00  0.00    -0.051 A 
ATOM     23  C   UNL A   1      38.256  21.984  25.741  1.00  0.00     0.007 A 
ATOM     24  C   UNL A   1      36.431  21.046  24.473  1.00  0.00     0.007 A 
ATOM     25  C   UNL A   1      37.548  23.180  25.871  1.00  0.00     0.047 A 
ATOM     26  C   UNL A   1      35.729  22.249  24.590  1.00  0.00     0.047 A 
ENDBRANCH  19  20
ENDBRANCH  10  19
ENDBRANCH   6   9
ENDBRANCH   4   5
ENDBRANCH   3   4
ENDBRANCH   2   3
ENDBRANCH   1   2
BRANCH   1  27
ATOM     27  C   UNL A   1      33.595  31.197  27.110  1.00  0.00     0.021 C 
BRANCH  27  28
ATOM     28  C   UNL A   1      34.572  30.354  27.924  1.00  0.00     0.116 C 
BRANCH  28  29
ATOM     29  N   UNL A   1      35.228  31.113  28.991  1.00  0.00    -0.352 N 
ATOM     30  C   UNL A   1      36.315  30.740  29.760  1.00  0.00     0.251 C 
ATOM     31  H   UNL A   1      34.848  32.001  29.183  1.00  0.00     0.163 HD
ATOM     32  O   UNL A   1      36.764  31.407  30.683  1.00  0.00    -0.269 OA
BRANCH  30  33
ATOM     33  C   UNL A   1      37.010  29.512  29.342  1.00  0.00     0.039 A 
ATOM     34  C   UNL A   1      37.446  28.665  30.365  1.00  0.00     0.014 A 
ATOM     35  C   UNL A   1      37.542  29.452  28.056  1.00  0.00     0.014 A 
ATOM     36  C   UNL A   1      38.588  27.907  30.158  1.00  0.00     0.010 A 
ATOM     37  C   UNL A   1      38.721  28.752  27.875  1.00  0.00     0.010 A 
ATOM     38  C   UNL A   1      39.279  28.049  28.950  1.00  0.00    -0.014 A 
BRANCH  38  39
ATOM     39  C   UNL A   1      40.670  27.626  28.830  1.00  0.00     0.031 A 
ATOM     40  C   UNL A   1      40.989  26.276  28.336  1.00  0.00     0.074 A 
ATOM     41  C   UNL A   1      41.662  28.421  29.288  1.00  0.00     0.049 A 
ATOM     42  N   UNL A   1      41.915  25.527  28.835  1.00  0.00    -0.248 NA
ATOM     43  C   UNL A   1      40.238  25.645  27.258  1.00  0.00     0.031 C 
ATOM     44  C   UNL A   1      43.098  28.182  29.184  1.00  0.00     0.029 A 
ATOM     45  N   UNL A   1      41.550  29.508  30.153  1.00  0.00    -0.354 N 
ATOM     46  C   UNL A   1      42.053  24.442  28.004  1.00  0.00     0.074 A 
ATOM     47  C   UNL A   1      40.938  24.520  27.083  1.00  0.00     0.031 C 
ATOM     48  C   UNL A   1      43.723  28.906  30.126  1.00  0.00     0.029 A 
ATOM     49  C   UNL A   1      42.709  29.563  30.937  1.00  0.00     0.049 A 
ATOM     50  H   UNL A   1      40.788  30.130  30.205  1.00  0.00     0.167 HD
ATOM     51  C   UNL A   1      43.171  23.665  28.058  1.00  0.00     0.037 A 
ATOM     52  C   UNL A   1      42.644  29.513  32.297  1.00  0.00     0.037 A 
ATOM     53  C   UNL A   1      44.124  24.163  29.046  1.00  0.00     0.049 A 
ATOM     54  C   UNL A   1      43.304  28.286  32.886  1.00  0.00     0.074 A 
ATOM     55  C   UNL A   1      45.214  25.010  28.923  1.00  0.00     0.029 A 
ATOM     56  N   UNL A   1      43.833  24.098  30.407  1.00  0.00    -0.354 N 
ATOM     57  N   UNL A   1      43.613  27.221  32.198  1.00  0.00    -0.248 NA
ATOM     58  C   UNL A   1      43.664  28.158  34.296  1.00  0.00     0.031 C 
ATOM     59  C   UNL A   1      45.541  25.506  30.206  1.00  0.00     0.029 A 
ATOM     60  C   UNL A   1      44.670  24.941  31.120  1.00  0.00     0.049 A 
ATOM     61  H   UNL A   1      43.133  23.533  30.806  1.00  0.00     0.167 HD
ATOM     62  C   UNL A   1      44.181  26.283  33.026  1.00  0.00     0.074 A 
ATOM     63  C   UNL A   1      44.210  26.929  34.325  1.00  0.00     0.031 C 
ATOM     64  C   UNL A   1      44.588  25.058  32.570  1.00  0.00     0.037 A 
BRANCH  51  65
ATOM     65  C   UNL A   1      43.499  22.725  26.921  1.00  0.00     0.058 A 
ATOM     66  C   UNL A   1      42.816  21.505  26.754  1.00  0.00     0.135 A 
ATOM     67  C   UNL A   1      44.571  22.940  26.031  1.00  0.00     0.135 A 
ATOM     68  F   UNL A   1      41.713  21.215  27.454  1.00  0.00    -0.206 F 
ATOM     69  C   UNL A   1      43.259  20.508  25.885  1.00  0.00     0.059 A 
ATOM     70  C   UNL A   1      45.065  21.939  25.187  1.00  0.00     0.059 A 
ATOM     71  F   UNL A   1      45.192  24.130  25.984  1.00  0.00    -0.206 F 
ATOM     72  C   UNL A   1      44.414  20.713  25.142  1.00  0.00     0.060 A 
BRANCH  72  73
ATOM     73  S   UNL A   1      45.074  19.341  24.174  1.00  0.00     0.124 S 
ATOM     74  O   UNL A   1      44.557  18.178  24.889  1.00  0.00    -0.237 OA
ATOM     75  O   UNL A   1      44.489  19.589  22.861  1.00  0.00    -0.237 OA
ATOM     76  O   UNL A   1      46.519  19.527  24.267  1.00  0.00    -0.744 OA
ENDBRANCH  72  73
ENDBRANCH  51  65
BRANCH  52  77
ATOM     77  C   UNL A   1      41.512  30.275  32.888  1.00  0.00     0.058 A 
ATOM     78  C   UNL A   1      40.347  29.563  33.234  1.00  0.00     0.135 A 
ATOM     79  C   UNL A   1      41.654  31.564  33.415  1.00  0.00     0.135 A 
ATOM     80  F   UNL A   1      40.150  28.326  32.748  1.00  0.00    -0.206 F 
ATOM     81  C   UNL A   1      39.416  30.060  34.142  1.00  0.00     0.059 A 
ATOM     82  C   UNL A   1      40.733  32.083  34.335  1.00  0.00     0.059 A 
ATOM     83  F   UNL A   1      42.736  32.299  33.119  1.00  0.00    -0.206 F 
ATOM     84  C   UNL A   1      39.646  31.301  34.729  1.00  0.00     0.060 A 
BRANCH  84  85
ATOM     85  S   UNL A   1      38.522  31.851  36.039  1.00  0.00     0.124 S 
ATOM     86  O   UNL A   1      37.360  32.302  35.278  1.00  0.00    -0.237 OA
ATOM     87  O   UNL A   1      38.325  30.622  36.806  1.00  0.00    -0.237 OA
ATOM     88  O   UNL A   1      39.278  32.901  36.708  1.00  0.00    -0.744 OA
ENDBRANCH  84  85
ENDBRANCH  52  77
BRANCH  64  89
ATOM     89  C   UNL A   1      45.074  23.899  33.416  1.00  0.00     0.058 A 
ATOM     90  C   UNL A   1      46.401  23.732  33.845  1.00  0.00     0.135 A 
ATOM     91  C   UNL A   1      44.148  22.964  33.943  1.00  0.00     0.135 A 
ATOM     92  F   UNL A   1      47.358  24.610  33.510  1.00  0.00    -0.206 F 
ATOM     93  C   UNL A   1      46.795  22.683  34.680  1.00  0.00     0.059 A 
ATOM     94  C   UNL A   1      44.508  21.945  34.822  1.00  0.00     0.059 A 
ATOM     95  F   UNL A   1      42.843  23.014  33.633  1.00  0.00    -0.206 F 
ATOM     96  C   UNL A   1      45.841  21.795  35.168  1.00  0.00     0.060 A 
BRANCH  96  97
ATOM     97  S   UNL A   1      46.315  20.488  36.315  1.00  0.00     0.124 S 
ATOM     98  O   UNL A   1      45.637  20.911  37.536  1.00  0.00    -0.237 OA
ATOM     99  O   UNL A   1      45.781  19.286  35.683  1.00  0.00    -0.237 OA
ATOM    100  O   UNL A   1      47.771  20.581  36.335  1.00  0.00    -0.744 OA
ENDBRANCH  96  97
ENDBRANCH  64  89
ENDBRANCH  38  39
ENDBRANCH  30  33
ENDBRANCH  28  29
ENDBRANCH  27  28
ENDBRANCH   1  27
TORSDOF 18
ENDMDL
MODEL 3
REMARK VINA RESULT:     -13.8      4.924     11.649
REMARK SMILES Cc1ccc(Oc2cc(C(=O)NCCCCCCNC(=O)c3ccc(-c4c5nc(c(-c6c(F)cc(S(=O)(=O)[O-])cc6F)c6ccc([nH]6)c(-c6c(F)cc(S(=O)(=O)[O-])cc6F)c6nc(c(-c7c(F)cc(S(=O)(=O)[O-])cc7F)c7ccc4[nH]7)C=C6)C=C5)cc3)nc3ccccc23)cc1
REMARK SMILES IDX 16 1 15 2 14 3 13 4 12 5 10 6 11 7 9 9 7 10 8 11 94 12 89 13
REMARK SMILES IDX 93 14 88 15 90 16 92 17 91 18 6 19 5 20 1 21 2 22 3 23 96 24
REMARK SMILES IDX 4 25 95 26 17 27 18 28 19 29 20 30 21 32 22 33 23 34 87 35
REMARK SMILES IDX 24 36 86 37 25 38 26 39 27 40 80 41 28 42 85 43 79 44 81 45
REMARK SMILES IDX 29 46 84 47 78 48 77 49 30 51 64 52 43 53 63 54 44 55 47 56
REMARK SMILES IDX 62 57 82 58 45 59 46 60 61 62 83 63 48 64 31 65 32 66 41 67
REMARK SMILES IDX 33 68 34 69 40 70 42 71 35 72 36 73 37 74 38 75 39 76 65 77
REMARK SMILES IDX 66 78 75 79 67 80 68 81 74 82 76 83 69 84 70 85 71 86 72 87
REMARK SMILES IDX 73 88 49 89 50 90 59 91 51 92 52 93 58 94 60 95 53 96 54 97
REMARK SMILES IDX 55 98 56 99 57 100
REMARK H PARENT 12 8 19 31 81 50 47 61
REMARK Flexibility Score: inf
ROOT
ATOM      1  C   UNL A   1      37.581  21.777  24.810  1.00  0.00     0.002 C 
ENDROOT
BRANCH   1   2
ATOM      2  C   UNL A   1      36.388  20.884  25.190  1.00  0.00     0.002 C 
BRANCH   2   3
ATOM      3  C   UNL A   1      35.335  21.496  26.124  1.00  0.00     0.021 C 
BRANCH   3   4
ATOM      4  C   UNL A   1      33.900  21.016  25.895  1.00  0.00     0.116 C 
BRANCH   4   5
ATOM      5  N   UNL A   1      32.965  21.584  26.853  1.00  0.00    -0.351 N 
ATOM      6  C   UNL A   1      32.117  22.668  26.780  1.00  0.00     0.270 C 
ATOM      7  O   UNL A   1      31.369  22.871  27.741  1.00  0.00    -0.268 OA
ATOM      8  H   UNL A   1      32.933  21.106  27.713  1.00  0.00     0.163 HD
BRANCH   6   9
ATOM      9  C   UNL A   1      32.044  23.597  25.600  1.00  0.00     0.132 A 
ATOM     10  C   UNL A   1      31.313  25.652  24.645  1.00  0.00     0.139 A 
ATOM     11  C   UNL A   1      31.393  24.810  25.750  1.00  0.00     0.082 A 
ATOM     12  C   UNL A   1      31.935  25.310  23.424  1.00  0.00     0.043 A 
ATOM     13  C   UNL A   1      32.547  24.044  23.373  1.00  0.00     0.075 A 
ATOM     14  C   UNL A   1      31.965  26.132  22.271  1.00  0.00     0.014 A 
ATOM     15  N   UNL A   1      32.601  23.218  24.428  1.00  0.00    -0.242 NA
ATOM     16  C   UNL A   1      33.110  23.619  22.179  1.00  0.00     0.029 A 
ATOM     17  C   UNL A   1      32.536  25.682  21.082  1.00  0.00     0.001 A 
ATOM     18  C   UNL A   1      33.102  24.417  21.032  1.00  0.00     0.002 A 
BRANCH  10  19
ATOM     19  O   UNL A   1      30.641  26.841  24.840  1.00  0.00    -0.457 OA
BRANCH  19  20
ATOM     20  C   UNL A   1      31.321  27.901  25.406  1.00  0.00     0.127 A 
ATOM     21  C   UNL A   1      33.598  30.895  27.510  1.00  0.00     0.044 C 
ATOM     22  C   UNL A   1      32.787  29.869  26.775  1.00  0.00    -0.051 A 
ATOM     23  C   UNL A   1      32.141  28.848  27.481  1.00  0.00     0.007 A 
ATOM     24  C   UNL A   1      32.649  29.926  25.384  1.00  0.00     0.007 A 
ATOM     25  C   UNL A   1      31.415  27.869  26.799  1.00  0.00     0.047 A 
ATOM     26  C   UNL A   1      31.909  28.955  24.703  1.00  0.00     0.047 A 
ENDBRANCH  19  20
ENDBRANCH  10  19
ENDBRANCH   6   9
ENDBRANCH   4   5
ENDBRANCH   3   4
ENDBRANCH   2   3
ENDBRANCH   1   2
BRANCH   1  27
ATOM     27  C   UNL A   1      38.761  21.795  25.785  1.00  0.00     0.021 C 
BRANCH  27  28
ATOM     28  C   UNL A   1      39.077  23.175  26.355  1.00  0.00     0.116 C 
BRANCH  28  29
ATOM     29  N   UNL A   1      40.515  23.428  26.470  1.00  0.00    -0.352 N 
ATOM     30  C   UNL A   1      41.153  24.631  26.704  1.00  0.00     0.251 C 
ATOM     31  H   UNL A   1      41.099  22.642  26.370  1.00  0.00     0.163 HD
ATOM     32  O   UNL A   1      42.369  24.772  26.719  1.00  0.00    -0.269 OA
BRANCH  30  33
ATOM     33  C   UNL A   1      40.284  25.765  27.057  1.00  0.00     0.039 A 
ATOM     34  C   UNL A   1      40.607  26.998  26.483  1.00  0.00     0.014 A 
ATOM     35  C   UNL A   1      39.488  25.666  28.196  1.00  0.00     0.014 A 
ATOM     36  C   UNL A   1      40.320  28.155  27.191  1.00  0.00     0.010 A 
ATOM     37  C   UNL A   1      39.268  26.814  28.935  1.00  0.00     0.010 A 
ATOM     38  C   UNL A   1      39.755  28.041  28.466  1.00  0.00    -0.014 A 
BRANCH  38  39
ATOM     39  C   UNL A   1      39.817  29.148  29.413  1.00  0.00     0.031 A 
ATOM     40  C   UNL A   1      38.747  30.160  29.434  1.00  0.00     0.074 A 
ATOM     41  C   UNL A   1      40.912  29.320  30.186  1.00  0.00     0.049 A 
ATOM     42  N   UNL A   1      38.957  31.427  29.570  1.00  0.00    -0.248 NA
ATOM     43  C   UNL A   1      37.344  29.812  29.248  1.00  0.00     0.031 C 
ATOM     44  C   UNL A   1      41.106  30.326  31.224  1.00  0.00     0.029 A 
ATOM     45  N   UNL A   1      42.171  28.745  30.015  1.00  0.00    -0.354 N 
ATOM     46  C   UNL A   1      37.733  32.026  29.742  1.00  0.00     0.074 A 
ATOM     47  C   UNL A   1      36.757  30.995  29.456  1.00  0.00     0.031 C 
ATOM     48  C   UNL A   1      42.424  30.485  31.427  1.00  0.00     0.029 A 
ATOM     49  C   UNL A   1      43.132  29.662  30.459  1.00  0.00     0.049 A 
ATOM     50  H   UNL A   1      42.354  27.850  29.646  1.00  0.00     0.167 HD
ATOM     51  C   UNL A   1      37.643  33.284  30.260  1.00  0.00     0.037 A 
ATOM     52  C   UNL A   1      44.120  30.105  29.631  1.00  0.00     0.037 A 
ATOM     53  C   UNL A   1      38.959  33.820  30.598  1.00  0.00     0.049 A 
ATOM     54  C   UNL A   1      44.044  31.588  29.344  1.00  0.00     0.074 A 
ATOM     55  C   UNL A   1      39.670  33.822  31.787  1.00  0.00     0.029 A 
ATOM     56  N   UNL A   1      39.873  34.139  29.596  1.00  0.00    -0.354 N 
ATOM     57  N   UNL A   1      42.989  32.324  29.571  1.00  0.00    -0.248 NA
ATOM     58  C   UNL A   1      45.146  32.360  28.777  1.00  0.00     0.031 C 
ATOM     59  C   UNL A   1      41.029  34.080  31.494  1.00  0.00     0.029 A 
ATOM     60  C   UNL A   1      41.146  34.264  30.127  1.00  0.00     0.049 A 
ATOM     61  H   UNL A   1      39.647  34.258  28.645  1.00  0.00     0.167 HD
ATOM     62  C   UNL A   1      43.237  33.619  29.187  1.00  0.00     0.074 A 
ATOM     63  C   UNL A   1      44.610  33.593  28.718  1.00  0.00     0.031 C 
ATOM     64  C   UNL A   1      42.294  34.605  29.298  1.00  0.00     0.037 A 
BRANCH  51  65
ATOM     65  C   UNL A   1      36.325  33.792  30.797  1.00  0.00     0.058 A 
ATOM     66  C   UNL A   1      35.286  34.195  29.936  1.00  0.00     0.135 A 
ATOM     67  C   UNL A   1      36.086  34.008  32.169  1.00  0.00     0.135 A 
ATOM     68  F   UNL A   1      35.328  33.951  28.621  1.00  0.00    -0.206 F 
ATOM     69  C   UNL A   1      34.170  34.901  30.384  1.00  0.00     0.059 A 
ATOM     70  C   UNL A   1      35.002  34.757  32.639  1.00  0.00     0.059 A 
ATOM     71  F   UNL A   1      36.928  33.519  33.094  1.00  0.00    -0.206 F 
ATOM     72  C   UNL A   1      34.060  35.223  31.730  1.00  0.00     0.060 A 
BRANCH  72  73
ATOM     73  S   UNL A   1      32.711  36.301  32.254  1.00  0.00     0.124 S 
ATOM     74  O   UNL A   1      33.272  36.952  33.434  1.00  0.00    -0.237 OA
ATOM     75  O   UNL A   1      32.534  37.153  31.084  1.00  0.00    -0.237 OA
ATOM     76  O   UNL A   1      31.621  35.368  32.526  1.00  0.00    -0.744 OA
ENDBRANCH  72  73
ENDBRANCH  51  65
BRANCH  52  77
ATOM     77  C   UNL A   1      44.688  29.062  28.737  1.00  0.00     0.058 A 
ATOM     78  C   UNL A   1      44.243  29.025  27.401  1.00  0.00     0.135 A 
ATOM     79  C   UNL A   1      45.851  28.346  29.043  1.00  0.00     0.135 A 
ATOM     80  F   UNL A   1      43.125  29.682  27.049  1.00  0.00    -0.206 F 
ATOM     81  C   UNL A   1      44.971  28.398  26.393  1.00  0.00     0.059 A 
ATOM     82  C   UNL A   1      46.604  27.712  28.046  1.00  0.00     0.059 A 
ATOM     83  F   UNL A   1      46.325  28.333  30.298  1.00  0.00    -0.206 F 
ATOM     84  C   UNL A   1      46.180  27.788  26.718  1.00  0.00     0.060 A 
BRANCH  84  85
ATOM     85  S   UNL A   1      47.199  27.136  25.370  1.00  0.00     0.124 S 
ATOM     86  O   UNL A   1      46.236  26.340  24.614  1.00  0.00    -0.237 OA
ATOM     87  O   UNL A   1      47.650  28.360  24.710  1.00  0.00    -0.237 OA
ATOM     88  O   UNL A   1      48.228  26.377  26.068  1.00  0.00    -0.744 OA
ENDBRANCH  84  85
ENDBRANCH  52  77
BRANCH  64  89
ATOM     89  C   UNL A   1      42.404  36.019  28.763  1.00  0.00     0.058 A 
ATOM     90  C   UNL A   1      43.076  37.064  29.417  1.00  0.00     0.135 A 
ATOM     91  C   UNL A   1      41.925  36.328  27.464  1.00  0.00     0.135 A 
ATOM     92  F   UNL A   1      43.672  36.876  30.603  1.00  0.00    -0.206 F 
ATOM     93  C   UNL A   1      43.210  38.338  28.857  1.00  0.00     0.059 A 
ATOM     94  C   UNL A   1      42.097  37.573  26.864  1.00  0.00     0.059 A 
ATOM     95  F   UNL A   1      41.279  35.420  26.717  1.00  0.00    -0.206 F 
ATOM     96  C   UNL A   1      42.721  38.583  27.578  1.00  0.00     0.060 A 
BRANCH  96  97
ATOM     97  S   UNL A   1      42.961  40.194  26.804  1.00  0.00     0.124 S 
ATOM     98  O   UNL A   1      43.308  41.022  27.956  1.00  0.00    -0.237 OA
ATOM     99  O   UNL A   1      44.044  39.946  25.858  1.00  0.00    -0.237 OA
ATOM    100  O   UNL A   1      41.662  40.464  26.199  1.00  0.00    -0.744 OA
ENDBRANCH  96  97
ENDBRANCH  64  89
ENDBRANCH  38  39
ENDBRANCH  30  33
ENDBRANCH  28  29
ENDBRANCH  27  28
ENDBRANCH   1  27
TORSDOF 18
ENDMDL
