MODEL 1
REMARK VINA RESULT:     -11.0      0.000      0.000
REMARK SMILES O=C(NCCCCCCNC(=O)c1ccc(-c2c3nc(c(-c4c(F)cc(S(=O)(=O)[O-])cc4F)c4ccc([nH]4)c(-c4c(F)cc(S(=O)(=O)[O-])cc4F)c4nc(c(-c5c(F)cc(S(=O)(=O)[O-])cc5F)c5ccc2[nH]5)C=C4)C=C3)cc1)c1ccc(/[NH+]=C2\S[C@@H](Cc3ccc(F)cc3)C(=O)N2Cc2ccccc2)cc1
REMARK SMILES IDX 6 1 5 2 4 3 3 4 1 5 2 6 79 8 80 9 106 10 81 11 105 12 82 13
REMARK SMILES IDX 83 14 84 15 85 17 97 18 86 19 95 20 96 21 98 22 99 23 100 24
REMARK SMILES IDX 104 25 101 26 103 27 102 28 87 29 88 30 89 31 94 32 90 33
REMARK SMILES IDX 93 34 91 35 92 36 7 37 8 38 9 39 10 40 11 41 12 43 13 44
REMARK SMILES IDX 14 45 78 46 15 47 77 48 16 49 17 50 18 51 71 52 19 53 76 54
REMARK SMILES IDX 70 55 72 56 20 57 75 58 69 59 68 60 21 62 55 63 34 64 54 65
REMARK SMILES IDX 35 66 38 67 53 68 73 69 36 70 37 71 52 73 74 74 39 75 22 76
REMARK SMILES IDX 23 77 32 78 24 79 25 80 31 81 33 82 26 83 27 84 28 85 29 86
REMARK SMILES IDX 30 87 56 88 57 89 66 90 58 91 59 92 65 93 67 94 60 95 61 96
REMARK SMILES IDX 62 97 63 98 64 99 40 100 41 101 50 102 42 103 43 104 49 105
REMARK SMILES IDX 51 106 44 107 45 108 46 109 47 110 48 111
REMARK H PARENT 3 7 83 16 10 42 72 61 38 72
REMARK Flexibility Score: inf
ROOT
ATOM      1  C   UNL A   1      43.159  18.672  25.848  1.00  0.00     0.002 C 
ENDROOT
BRANCH   1   2
ATOM      2  C   UNL A   1      42.373  19.979  25.962  1.00  0.00     0.021 C 
BRANCH   2   3
ATOM      3  C   UNL A   1      41.385  20.033  27.122  1.00  0.00     0.116 C 
BRANCH   3   4
ATOM      4  N   UNL A   1      41.619  21.177  27.991  1.00  0.00    -0.352 N 
ATOM      5  O   UNL A   1      41.502  23.340  28.640  1.00  0.00    -0.269 OA
ATOM      6  C   UNL A   1      41.058  22.429  27.945  1.00  0.00     0.251 C 
ATOM      7  H   UNL A   1      42.272  21.034  28.714  1.00  0.00     0.163 HD
BRANCH   6   8
ATOM      8  C   UNL A   1      39.913  22.682  27.047  1.00  0.00     0.040 A 
ATOM      9  C   UNL A   1      39.297  23.933  27.036  1.00  0.00     0.018 A 
ATOM     10  C   UNL A   1      39.467  21.669  26.192  1.00  0.00     0.018 A 
ATOM     11  C   UNL A   1      38.168  24.131  26.252  1.00  0.00     0.052 A 
ATOM     12  C   UNL A   1      38.355  21.892  25.370  1.00  0.00     0.052 A 
ATOM     13  C   UNL A   1      37.681  23.113  25.424  1.00  0.00     0.125 A 
BRANCH  13  14
ATOM     14  N   UNL A   1      36.605  23.434  24.597  1.00  0.00    -0.235 N 
ATOM     15  C   UNL A   1      35.541  22.713  24.521  1.00  0.00     0.320 C 
ATOM     16  H   UNL A   1      36.662  24.249  24.047  1.00  0.00     0.313 HD
ATOM     17  S   UNL A   1      35.284  21.119  25.171  1.00  0.00    -0.022 SA
ATOM     18  N   UNL A   1      34.415  23.170  23.890  1.00  0.00    -0.186 N 
ATOM     19  C   UNL A   1      33.784  20.868  24.164  1.00  0.00     0.178 C 
ATOM     20  C   UNL A   1      33.377  22.273  23.736  1.00  0.00     0.324 C 
ATOM     21  O   UNL A   1      32.299  22.547  23.219  1.00  0.00    -0.245 OA
BRANCH  18  22
ATOM     22  C   UNL A   1      34.304  24.539  23.390  1.00  0.00     0.283 C 
BRANCH  22  23
ATOM     23  C   UNL A   1      33.500  25.470  24.282  1.00  0.00    -0.006 A 
ATOM     24  C   UNL A   1      32.183  25.827  23.966  1.00  0.00     0.008 A 
ATOM     25  C   UNL A   1      34.074  26.024  25.438  1.00  0.00     0.008 A 
ATOM     26  C   UNL A   1      31.465  26.702  24.790  1.00  0.00     0.000 A 
ATOM     27  C   UNL A   1      33.345  26.861  26.284  1.00  0.00     0.000 A 
ATOM     28  C   UNL A   1      32.040  27.206  25.957  1.00  0.00     0.000 A 
ENDBRANCH  22  23
ENDBRANCH  18  22
BRANCH  19  29
ATOM     29  C   UNL A   1      32.723  20.094  24.946  1.00  0.00     0.063 C 
BRANCH  29  30
ATOM     30  C   UNL A   1      32.893  18.589  24.909  1.00  0.00    -0.046 A 
ATOM     31  C   UNL A   1      32.548  17.823  26.035  1.00  0.00     0.007 A 
ATOM     32  C   UNL A   1      33.394  17.937  23.771  1.00  0.00     0.007 A 
ATOM     33  C   UNL A   1      32.673  16.434  26.013  1.00  0.00     0.039 A 
ATOM     34  C   UNL A   1      33.514  16.546  23.751  1.00  0.00     0.039 A 
ATOM     35  C   UNL A   1      33.147  15.807  24.870  1.00  0.00     0.123 A 
ATOM     36  F   UNL A   1      33.255  14.472  24.843  1.00  0.00    -0.207 F 
ENDBRANCH  29  30
ENDBRANCH  19  29
ENDBRANCH  13  14
ENDBRANCH   6   8
ENDBRANCH   3   4
ENDBRANCH   2   3
ENDBRANCH   1   2
BRANCH   1  37
ATOM     37  C   UNL A   1      44.303  18.680  24.829  1.00  0.00     0.002 C 
BRANCH  37  38
ATOM     38  C   UNL A   1      45.692  18.981  25.398  1.00  0.00     0.021 C 
BRANCH  38  39
ATOM     39  C   UNL A   1      46.336  20.266  24.891  1.00  0.00     0.116 C 
BRANCH  39  40
ATOM     40  N   UNL A   1      45.519  20.944  23.900  1.00  0.00    -0.352 N 
ATOM     41  C   UNL A   1      44.888  22.161  23.974  1.00  0.00     0.251 C 
ATOM     42  H   UNL A   1      45.400  20.460  23.050  1.00  0.00     0.163 HD
ATOM     43  O   UNL A   1      44.098  22.494  23.095  1.00  0.00    -0.269 OA
BRANCH  41  44
ATOM     44  C   UNL A   1      45.139  23.057  25.125  1.00  0.00     0.039 A 
ATOM     45  C   UNL A   1      45.657  24.332  24.884  1.00  0.00     0.014 A 
ATOM     46  C   UNL A   1      44.873  22.644  26.433  1.00  0.00     0.014 A 
ATOM     47  C   UNL A   1      45.850  25.215  25.950  1.00  0.00     0.010 A 
ATOM     48  C   UNL A   1      44.998  23.548  27.486  1.00  0.00     0.010 A 
ATOM     49  C   UNL A   1      45.490  24.843  27.256  1.00  0.00    -0.014 A 
BRANCH  49  50
ATOM     50  C   UNL A   1      45.615  25.795  28.392  1.00  0.00     0.031 A 
ATOM     51  C   UNL A   1      46.922  25.934  29.123  1.00  0.00     0.074 A 
ATOM     52  C   UNL A   1      44.533  26.487  28.802  1.00  0.00     0.049 A 
ATOM     53  N   UNL A   1      47.207  26.657  30.176  1.00  0.00    -0.248 NA
ATOM     54  C   UNL A   1      48.054  25.139  28.621  1.00  0.00     0.031 C 
ATOM     55  C   UNL A   1      43.198  26.404  28.204  1.00  0.00     0.029 A 
ATOM     56  N   UNL A   1      44.381  27.390  29.825  1.00  0.00    -0.354 N 
ATOM     57  C   UNL A   1      48.540  26.395  30.469  1.00  0.00     0.074 A 
ATOM     58  C   UNL A   1      48.995  25.408  29.514  1.00  0.00     0.031 C 
ATOM     59  C   UNL A   1      42.370  27.234  28.859  1.00  0.00     0.029 A 
ATOM     60  C   UNL A   1      43.101  27.880  29.945  1.00  0.00     0.049 A 
ATOM     61  H   UNL A   1      45.119  27.661  30.417  1.00  0.00     0.167 HD
ATOM     62  C   UNL A   1      49.320  26.945  31.431  1.00  0.00     0.037 A 
ATOM     63  C   UNL A   1      42.572  28.742  30.834  1.00  0.00     0.037 A 
ATOM     64  C   UNL A   1      48.868  27.946  32.362  1.00  0.00     0.049 A 
ATOM     65  C   UNL A   1      43.459  29.336  31.896  1.00  0.00     0.074 A 
ATOM     66  C   UNL A   1      49.597  28.605  33.337  1.00  0.00     0.029 A 
ATOM     67  N   UNL A   1      47.570  28.432  32.438  1.00  0.00    -0.354 N 
ATOM     68  N   UNL A   1      44.734  29.122  32.119  1.00  0.00    -0.248 NA
ATOM     69  C   UNL A   1      42.838  30.292  32.824  1.00  0.00     0.031 C 
ATOM     70  C   UNL A   1      48.729  29.455  34.031  1.00  0.00     0.029 A 
ATOM     71  C   UNL A   1      47.473  29.366  33.456  1.00  0.00     0.049 A 
ATOM     72  H   UNL A   1      46.828  28.153  31.854  1.00  0.00     0.167 HD
ATOM     73  C   UNL A   1      45.073  29.939  33.192  1.00  0.00     0.074 A 
ATOM     74  C   UNL A   1      43.874  30.658  33.566  1.00  0.00     0.031 C 
ATOM     75  C   UNL A   1      46.272  30.081  33.811  1.00  0.00     0.037 A 
BRANCH  62  76
ATOM     76  C   UNL A   1      50.748  26.481  31.522  1.00  0.00     0.058 A 
ATOM     77  C   UNL A   1      51.106  25.333  32.248  1.00  0.00     0.135 A 
ATOM     78  C   UNL A   1      51.767  27.165  30.838  1.00  0.00     0.135 A 
ATOM     79  F   UNL A   1      50.176  24.649  32.932  1.00  0.00    -0.206 F 
ATOM     80  C   UNL A   1      52.426  24.896  32.316  1.00  0.00     0.059 A 
ATOM     81  C   UNL A   1      53.089  26.730  30.869  1.00  0.00     0.059 A 
ATOM     82  F   UNL A   1      51.482  28.269  30.129  1.00  0.00    -0.206 F 
ATOM     83  C   UNL A   1      53.411  25.602  31.623  1.00  0.00     0.060 A 
BRANCH  83  84
ATOM     84  S   UNL A   1      55.115  25.016  31.715  1.00  0.00     0.124 S 
ATOM     85  O   UNL A   1      55.754  26.098  32.459  1.00  0.00    -0.237 OA
ATOM     86  O   UNL A   1      54.973  23.753  32.432  1.00  0.00    -0.237 OA
ATOM     87  O   UNL A   1      55.512  24.899  30.315  1.00  0.00    -0.744 OA
ENDBRANCH  83  84
ENDBRANCH  62  76
BRANCH  63  88
ATOM     88  C   UNL A   1      41.133  29.109  30.750  1.00  0.00     0.058 A 
ATOM     89  C   UNL A   1      40.696  30.132  29.896  1.00  0.00     0.135 A 
ATOM     90  C   UNL A   1      40.164  28.443  31.519  1.00  0.00     0.135 A 
ATOM     91  F   UNL A   1      41.584  30.802  29.146  1.00  0.00    -0.206 F 
ATOM     92  C   UNL A   1      39.356  30.497  29.819  1.00  0.00     0.059 A 
ATOM     93  C   UNL A   1      38.816  28.771  31.439  1.00  0.00     0.059 A 
ATOM     94  F   UNL A   1      40.527  27.445  32.340  1.00  0.00    -0.206 F 
ATOM     95  C   UNL A   1      38.422  29.808  30.595  1.00  0.00     0.060 A 
BRANCH  95  96
ATOM     96  S   UNL A   1      36.678  30.261  30.458  1.00  0.00     0.124 S 
ATOM     97  O   UNL A   1      36.178  29.901  31.780  1.00  0.00    -0.237 OA
ATOM     98  O   UNL A   1      36.755  31.689  30.170  1.00  0.00    -0.237 OA
ATOM     99  O   UNL A   1      36.204  29.431  29.355  1.00  0.00    -0.744 OA
ENDBRANCH  95  96
ENDBRANCH  63  88
BRANCH  75 100
ATOM    100  C   UNL A   1      46.359  31.078  34.934  1.00  0.00     0.058 A 
ATOM    101  C   UNL A   1      46.622  32.436  34.698  1.00  0.00     0.135 A 
ATOM    102  C   UNL A   1      46.124  30.677  36.259  1.00  0.00     0.135 A 
ATOM    103  F   UNL A   1      46.861  32.871  33.450  1.00  0.00    -0.206 F 
ATOM    104  C   UNL A   1      46.671  33.358  35.738  1.00  0.00     0.059 A 
ATOM    105  C   UNL A   1      46.139  31.587  37.312  1.00  0.00     0.059 A 
ATOM    106  F   UNL A   1      45.857  29.391  36.540  1.00  0.00    -0.206 F 
ATOM    107  C   UNL A   1      46.425  32.924  37.043  1.00  0.00     0.060 A 
BRANCH 107 108
ATOM    108  S   UNL A   1      46.456  34.138  38.379  1.00  0.00     0.124 S 
ATOM    109  O   UNL A   1      46.365  33.280  39.556  1.00  0.00    -0.237 OA
ATOM    110  O   UNL A   1      47.741  34.796  38.173  1.00  0.00    -0.237 OA
ATOM    111  O   UNL A   1      45.283  34.965  38.113  1.00  0.00    -0.744 OA
ENDBRANCH 107 108
ENDBRANCH  75 100
ENDBRANCH  49  50
ENDBRANCH  41  44
ENDBRANCH  39  40
ENDBRANCH  38  39
ENDBRANCH  37  38
ENDBRANCH   1  37
TORSDOF 21
ENDMDL
MODEL 2
REMARK VINA RESULT:     -10.6      6.236     10.964
REMARK SMILES O=C(NCCCCCCNC(=O)c1ccc(-c2c3nc(c(-c4c(F)cc(S(=O)(=O)[O-])cc4F)c4ccc([nH]4)c(-c4c(F)cc(S(=O)(=O)[O-])cc4F)c4nc(c(-c5c(F)cc(S(=O)(=O)[O-])cc5F)c5ccc2[nH]5)C=C4)C=C3)cc1)c1ccc(/[NH+]=C2\S[C@@H](Cc3ccc(F)cc3)C(=O)N2Cc2ccccc2)cc1
REMARK SMILES IDX 6 1 5 2 4 3 3 4 1 5 2 6 79 8 80 9 106 10 81 11 105 12 82 13
REMARK SMILES IDX 83 14 84 15 85 17 97 18 86 19 95 20 96 21 98 22 99 23 100 24
REMARK SMILES IDX 104 25 101 26 103 27 102 28 87 29 88 30 89 31 94 32 90 33
REMARK SMILES IDX 93 34 91 35 92 36 7 37 8 38 9 39 10 40 11 41 12 43 13 44
REMARK SMILES IDX 14 45 78 46 15 47 77 48 16 49 17 50 18 51 71 52 19 53 76 54
REMARK SMILES IDX 70 55 72 56 20 57 75 58 69 59 68 60 21 62 55 63 34 64 54 65
REMARK SMILES IDX 35 66 38 67 53 68 73 69 36 70 37 71 52 73 74 74 39 75 22 76
REMARK SMILES IDX 23 77 32 78 24 79 25 80 31 81 33 82 26 83 27 84 28 85 29 86
REMARK SMILES IDX 30 87 56 88 57 89 66 90 58 91 59 92 65 93 67 94 60 95 61 96
REMARK SMILES IDX 62 97 63 98 64 99 40 100 41 101 50 102 42 103 43 104 49 105
REMARK SMILES IDX 51 106 44 107 45 108 46 109 47 110 48 111
REMARK H PARENT 3 7 83 16 10 42 72 61 38 72
REMARK Flexibility Score: inf
ROOT
ATOM      1  C   UNL A   1      38.005  32.541  29.801  1.00  0.00     0.002 C 
ENDROOT
BRANCH   1   2
ATOM      2  C   UNL A   1      37.167  31.971  30.947  1.00  0.00     0.021 C 
BRANCH   2   3
ATOM      3  C   UNL A   1      35.669  31.902  30.672  1.00  0.00     0.116 C 
BRANCH   3   4
ATOM      4  N   UNL A   1      35.235  32.926  29.732  1.00  0.00    -0.352 N 
ATOM      5  O   UNL A   1      34.701  33.784  27.710  1.00  0.00    -0.269 OA
ATOM      6  C   UNL A   1      34.863  32.793  28.418  1.00  0.00     0.251 C 
ATOM      7  H   UNL A   1      35.204  33.843  30.089  1.00  0.00     0.163 HD
BRANCH   6   8
ATOM      8  C   UNL A   1      34.661  31.445  27.851  1.00  0.00     0.040 A 
ATOM      9  C   UNL A   1      35.756  30.612  27.623  1.00  0.00     0.018 A 
ATOM     10  C   UNL A   1      33.365  30.999  27.565  1.00  0.00     0.018 A 
ATOM     11  C   UNL A   1      35.562  29.382  27.009  1.00  0.00     0.052 A 
ATOM     12  C   UNL A   1      33.175  29.738  26.988  1.00  0.00     0.052 A 
ATOM     13  C   UNL A   1      34.276  28.940  26.675  1.00  0.00     0.125 A 
BRANCH  13  14
ATOM     14  N   UNL A   1      34.168  27.650  26.155  1.00  0.00    -0.235 N 
ATOM     15  C   UNL A   1      33.330  27.336  25.230  1.00  0.00     0.320 C 
ATOM     16  H   UNL A   1      34.760  26.948  26.512  1.00  0.00     0.313 HD
ATOM     17  S   UNL A   1      32.014  28.295  24.613  1.00  0.00    -0.022 SA
ATOM     18  N   UNL A   1      33.406  26.135  24.578  1.00  0.00    -0.186 N 
ATOM     19  C   UNL A   1      31.257  26.858  23.783  1.00  0.00     0.178 C 
ATOM     20  C   UNL A   1      32.381  25.832  23.704  1.00  0.00     0.324 C 
ATOM     21  O   UNL A   1      32.329  24.809  23.030  1.00  0.00    -0.245 OA
BRANCH  18  22
ATOM     22  C   UNL A   1      34.512  25.203  24.790  1.00  0.00     0.283 C 
BRANCH  22  23
ATOM     23  C   UNL A   1      34.105  23.878  25.412  1.00  0.00    -0.006 A 
ATOM     24  C   UNL A   1      34.485  22.656  24.841  1.00  0.00     0.008 A 
ATOM     25  C   UNL A   1      33.305  23.846  26.566  1.00  0.00     0.008 A 
ATOM     26  C   UNL A   1      34.083  21.445  25.418  1.00  0.00     0.000 A 
ATOM     27  C   UNL A   1      32.941  22.640  27.167  1.00  0.00     0.000 A 
ATOM     28  C   UNL A   1      33.325  21.437  26.589  1.00  0.00     0.000 A 
ENDBRANCH  22  23
ENDBRANCH  18  22
BRANCH  19  29
ATOM     29  C   UNL A   1      30.647  27.260  22.441  1.00  0.00     0.063 C 
BRANCH  29  30
ATOM     30  C   UNL A   1      29.723  28.458  22.506  1.00  0.00    -0.046 A 
ATOM     31  C   UNL A   1      30.123  29.677  21.934  1.00  0.00     0.007 A 
ATOM     32  C   UNL A   1      28.469  28.381  23.133  1.00  0.00     0.007 A 
ATOM     33  C   UNL A   1      29.277  30.785  21.962  1.00  0.00     0.039 A 
ATOM     34  C   UNL A   1      27.621  29.491  23.155  1.00  0.00     0.039 A 
ATOM     35  C   UNL A   1      28.032  30.681  22.565  1.00  0.00     0.123 A 
ATOM     36  F   UNL A   1      27.212  31.741  22.580  1.00  0.00    -0.207 F 
ENDBRANCH  29  30
ENDBRANCH  19  29
ENDBRANCH  13  14
ENDBRANCH   6   8
ENDBRANCH   3   4
ENDBRANCH   2   3
ENDBRANCH   1   2
BRANCH   1  37
ATOM     37  C   UNL A   1      39.293  33.255  30.221  1.00  0.00     0.002 C 
BRANCH  37  38
ATOM     38  C   UNL A   1      39.535  34.618  29.568  1.00  0.00     0.021 C 
BRANCH  38  39
ATOM     39  C   UNL A   1      40.957  34.857  29.073  1.00  0.00     0.116 C 
BRANCH  39  40
ATOM     40  N   UNL A   1      41.036  35.941  28.109  1.00  0.00    -0.352 N 
ATOM     41  C   UNL A   1      42.066  36.291  27.272  1.00  0.00     0.251 C 
ATOM     42  H   UNL A   1      40.233  36.509  28.048  1.00  0.00     0.163 HD
ATOM     43  O   UNL A   1      42.013  37.345  26.646  1.00  0.00    -0.269 OA
BRANCH  41  44
ATOM     44  C   UNL A   1      43.248  35.410  27.144  1.00  0.00     0.039 A 
ATOM     45  C   UNL A   1      44.114  35.281  28.233  1.00  0.00     0.014 A 
ATOM     46  C   UNL A   1      43.508  34.719  25.956  1.00  0.00     0.014 A 
ATOM     47  C   UNL A   1      45.204  34.412  28.153  1.00  0.00     0.010 A 
ATOM     48  C   UNL A   1      44.553  33.800  25.903  1.00  0.00     0.010 A 
ATOM     49  C   UNL A   1      45.415  33.638  26.999  1.00  0.00    -0.014 A 
BRANCH  49  50
ATOM     50  C   UNL A   1      46.525  32.651  26.925  1.00  0.00     0.031 A 
ATOM     51  C   UNL A   1      47.924  33.106  26.612  1.00  0.00     0.074 A 
ATOM     52  C   UNL A   1      46.259  31.338  27.078  1.00  0.00     0.049 A 
ATOM     53  N   UNL A   1      49.006  32.391  26.437  1.00  0.00    -0.248 NA
ATOM     54  C   UNL A   1      48.132  34.555  26.450  1.00  0.00     0.031 C 
ATOM     55  C   UNL A   1      44.935  30.766  27.338  1.00  0.00     0.029 A 
ATOM     56  N   UNL A   1      47.086  30.243  27.025  1.00  0.00    -0.354 N 
ATOM     57  C   UNL A   1      50.015  33.297  26.134  1.00  0.00     0.074 A 
ATOM     58  C   UNL A   1      49.408  34.609  26.097  1.00  0.00     0.031 C 
ATOM     59  C   UNL A   1      45.044  29.432  27.441  1.00  0.00     0.029 A 
ATOM     60  C   UNL A   1      46.433  29.047  27.216  1.00  0.00     0.049 A 
ATOM     61  H   UNL A   1      48.055  30.309  26.867  1.00  0.00     0.167 HD
ATOM     62  C   UNL A   1      51.333  33.058  25.927  1.00  0.00     0.037 A 
ATOM     63  C   UNL A   1      46.899  27.783  27.202  1.00  0.00     0.037 A 
ATOM     64  C   UNL A   1      51.936  31.752  25.990  1.00  0.00     0.049 A 
ATOM     65  C   UNL A   1      48.366  27.544  26.966  1.00  0.00     0.074 A 
ATOM     66  C   UNL A   1      53.272  31.414  25.851  1.00  0.00     0.029 A 
ATOM     67  N   UNL A   1      51.246  30.568  26.207  1.00  0.00    -0.354 N 
ATOM     68  N   UNL A   1      49.317  28.419  26.742  1.00  0.00    -0.248 NA
ATOM     69  C   UNL A   1      48.826  26.148  26.988  1.00  0.00     0.031 C 
ATOM     70  C   UNL A   1      53.382  30.022  25.939  1.00  0.00     0.029 A 
ATOM     71  C   UNL A   1      52.124  29.497  26.184  1.00  0.00     0.049 A 
ATOM     72  H   UNL A   1      50.275  30.500  26.354  1.00  0.00     0.167 HD
ATOM     73  C   UNL A   1      50.491  27.682  26.625  1.00  0.00     0.074 A 
ATOM     74  C   UNL A   1      50.132  26.292  26.814  1.00  0.00     0.031 C 
ATOM     75  C   UNL A   1      51.753  28.118  26.384  1.00  0.00     0.037 A 
BRANCH  62  76
ATOM     76  C   UNL A   1      52.217  34.237  25.621  1.00  0.00     0.058 A 
ATOM     77  C   UNL A   1      52.464  34.651  24.302  1.00  0.00     0.135 A 
ATOM     78  C   UNL A   1      52.788  34.991  26.660  1.00  0.00     0.135 A 
ATOM     79  F   UNL A   1      51.955  33.959  23.270  1.00  0.00    -0.206 F 
ATOM     80  C   UNL A   1      53.267  35.752  24.022  1.00  0.00     0.059 A 
ATOM     81  C   UNL A   1      53.573  36.113  26.404  1.00  0.00     0.059 A 
ATOM     82  F   UNL A   1      52.586  34.641  27.940  1.00  0.00    -0.206 F 
ATOM     83  C   UNL A   1      53.818  36.477  25.080  1.00  0.00     0.060 A 
BRANCH  83  84
ATOM     84  S   UNL A   1      54.850  37.907  24.699  1.00  0.00     0.124 S 
ATOM     85  O   UNL A   1      54.929  38.563  26.001  1.00  0.00    -0.237 OA
ATOM     86  O   UNL A   1      56.082  37.286  24.226  1.00  0.00    -0.237 OA
ATOM     87  O   UNL A   1      54.081  38.621  23.684  1.00  0.00    -0.744 OA
ENDBRANCH  83  84
ENDBRANCH  62  76
BRANCH  63  88
ATOM     88  C   UNL A   1      45.969  26.645  27.432  1.00  0.00     0.058 A 
ATOM     89  C   UNL A   1      45.296  26.033  26.363  1.00  0.00     0.135 A 
ATOM     90  C   UNL A   1      45.737  26.141  28.722  1.00  0.00     0.135 A 
ATOM     91  F   UNL A   1      45.479  26.482  25.112  1.00  0.00    -0.206 F 
ATOM     92  C   UNL A   1      44.412  24.979  26.565  1.00  0.00     0.059 A 
ATOM     93  C   UNL A   1      44.879  25.071  28.946  1.00  0.00     0.059 A 
ATOM     94  F   UNL A   1      46.369  26.679  29.777  1.00  0.00    -0.206 F 
ATOM     95  C   UNL A   1      44.211  24.503  27.862  1.00  0.00     0.060 A 
BRANCH  95  96
ATOM     96  S   UNL A   1      43.093  23.106  28.109  1.00  0.00     0.124 S 
ATOM     97  O   UNL A   1      43.508  22.205  27.041  1.00  0.00    -0.237 OA
ATOM     98  O   UNL A   1      43.425  22.686  29.467  1.00  0.00    -0.237 OA
ATOM     99  O   UNL A   1      41.771  23.706  27.953  1.00  0.00    -0.744 OA
ENDBRANCH  95  96
ENDBRANCH  63  88
BRANCH  75 100
ATOM    100  C   UNL A   1      52.848  27.088  26.348  1.00  0.00     0.058 A 
ATOM    101  C   UNL A   1      53.590  26.757  27.493  1.00  0.00     0.135 A 
ATOM    102  C   UNL A   1      53.121  26.384  25.164  1.00  0.00     0.135 A 
ATOM    103  F   UNL A   1      53.373  27.405  28.649  1.00  0.00    -0.206 F 
ATOM    104  C   UNL A   1      54.581  25.782  27.459  1.00  0.00     0.059 A 
ATOM    105  C   UNL A   1      54.088  25.384  25.115  1.00  0.00     0.059 A 
ATOM    106  F   UNL A   1      52.433  26.653  24.043  1.00  0.00    -0.206 F 
ATOM    107  C   UNL A   1      54.820  25.097  26.265  1.00  0.00     0.060 A 
BRANCH 107 108
ATOM    108  S   UNL A   1      56.084  23.808  26.245  1.00  0.00     0.124 S 
ATOM    109  O   UNL A   1      56.721  24.042  24.953  1.00  0.00    -0.237 OA
ATOM    110  O   UNL A   1      56.887  24.140  27.417  1.00  0.00    -0.237 OA
ATOM    111  O   UNL A   1      55.311  22.574  26.350  1.00  0.00    -0.744 OA
ENDBRANCH 107 108
ENDBRANCH  75 100
ENDBRANCH  49  50
ENDBRANCH  41  44
ENDBRANCH  39  40
ENDBRANCH  38  39
ENDBRANCH  37  38
ENDBRANCH   1  37
TORSDOF 21
ENDMDL
MODEL 3
REMARK VINA RESULT:     -10.6      5.360      9.452
REMARK SMILES O=C(NCCCCCCNC(=O)c1ccc(-c2c3nc(c(-c4c(F)cc(S(=O)(=O)[O-])cc4F)c4ccc([nH]4)c(-c4c(F)cc(S(=O)(=O)[O-])cc4F)c4nc(c(-c5c(F)cc(S(=O)(=O)[O-])cc5F)c5ccc2[nH]5)C=C4)C=C3)cc1)c1ccc(/[NH+]=C2\S[C@@H](Cc3ccc(F)cc3)C(=O)N2Cc2ccccc2)cc1
REMARK SMILES IDX 6 1 5 2 4 3 3 4 1 5 2 6 79 8 80 9 106 10 81 11 105 12 82 13
REMARK SMILES IDX 83 14 84 15 85 17 97 18 86 19 95 20 96 21 98 22 99 23 100 24
REMARK SMILES IDX 104 25 101 26 103 27 102 28 87 29 88 30 89 31 94 32 90 33
REMARK SMILES IDX 93 34 91 35 92 36 7 37 8 38 9 39 10 40 11 41 12 43 13 44
REMARK SMILES IDX 14 45 78 46 15 47 77 48 16 49 17 50 18 51 71 52 19 53 76 54
REMARK SMILES IDX 70 55 72 56 20 57 75 58 69 59 68 60 21 62 55 63 34 64 54 65
REMARK SMILES IDX 35 66 38 67 53 68 73 69 36 70 37 71 52 73 74 74 39 75 22 76
REMARK SMILES IDX 23 77 32 78 24 79 25 80 31 81 33 82 26 83 27 84 28 85 29 86
REMARK SMILES IDX 30 87 56 88 57 89 66 90 58 91 59 92 65 93 67 94 60 95 61 96
REMARK SMILES IDX 62 97 63 98 64 99 40 100 41 101 50 102 42 103 43 104 49 105
REMARK SMILES IDX 51 106 44 107 45 108 46 109 47 110 48 111
REMARK H PARENT 3 7 83 16 10 42 72 61 38 72
REMARK Flexibility Score: inf
ROOT
ATOM      1  C   UNL A   1      48.825  26.842  24.748  1.00  0.00     0.002 C 
ENDROOT
BRANCH   1   2
ATOM      2  C   UNL A   1      49.922  27.857  25.072  1.00  0.00     0.021 C 
BRANCH   2   3
ATOM      3  C   UNL A   1      50.805  27.488  26.259  1.00  0.00     0.116 C 
BRANCH   3   4
ATOM      4  N   UNL A   1      51.329  28.664  26.940  1.00  0.00    -0.352 N 
ATOM      5  O   UNL A   1      51.331  30.356  28.440  1.00  0.00    -0.269 OA
ATOM      6  C   UNL A   1      50.894  29.260  28.097  1.00  0.00     0.251 C 
ATOM      7  H   UNL A   1      52.105  29.092  26.510  1.00  0.00     0.163 HD
BRANCH   6   8
ATOM      8  C   UNL A   1      49.888  28.577  28.935  1.00  0.00     0.040 A 
ATOM      9  C   UNL A   1      48.548  28.957  28.864  1.00  0.00     0.018 A 
ATOM     10  C   UNL A   1      50.281  27.534  29.779  1.00  0.00     0.018 A 
ATOM     11  C   UNL A   1      47.626  28.368  29.720  1.00  0.00     0.052 A 
ATOM     12  C   UNL A   1      49.336  26.913  30.606  1.00  0.00     0.052 A 
ATOM     13  C   UNL A   1      48.011  27.353  30.603  1.00  0.00     0.125 A 
BRANCH  13  14
ATOM     14  N   UNL A   1      47.000  26.750  31.351  1.00  0.00    -0.235 N 
ATOM     15  C   UNL A   1      46.260  25.802  30.893  1.00  0.00     0.320 C 
ATOM     16  H   UNL A   1      46.845  27.065  32.272  1.00  0.00     0.313 HD
ATOM     17  S   UNL A   1      46.143  25.241  29.249  1.00  0.00    -0.022 SA
ATOM     18  N   UNL A   1      45.444  25.074  31.716  1.00  0.00    -0.186 N 
ATOM     19  C   UNL A   1      44.610  24.315  29.594  1.00  0.00     0.178 C 
ATOM     20  C   UNL A   1      44.586  24.177  31.112  1.00  0.00     0.324 C 
ATOM     21  O   UNL A   1      43.821  23.438  31.721  1.00  0.00    -0.245 OA
BRANCH  18  22
ATOM     22  C   UNL A   1      45.463  25.232  33.169  1.00  0.00     0.283 C 
BRANCH  22  23
ATOM     23  C   UNL A   1      46.345  24.233  33.898  1.00  0.00    -0.006 A 
ATOM     24  C   UNL A   1      45.797  23.147  34.593  1.00  0.00     0.008 A 
ATOM     25  C   UNL A   1      47.740  24.392  33.918  1.00  0.00     0.008 A 
ATOM     26  C   UNL A   1      46.625  22.248  35.276  1.00  0.00     0.000 A 
ATOM     27  C   UNL A   1      48.570  23.472  34.561  1.00  0.00     0.000 A 
ATOM     28  C   UNL A   1      48.011  22.401  35.246  1.00  0.00     0.000 A 
ENDBRANCH  22  23
ENDBRANCH  18  22
BRANCH  19  29
ATOM     29  C   UNL A   1      44.579  22.998  28.821  1.00  0.00     0.063 C 
BRANCH  29  30
ATOM     30  C   UNL A   1      43.311  22.769  28.025  1.00  0.00    -0.046 A 
ATOM     31  C   UNL A   1      42.064  22.861  28.663  1.00  0.00     0.007 A 
ATOM     32  C   UNL A   1      43.353  22.459  26.656  1.00  0.00     0.007 A 
ATOM     33  C   UNL A   1      40.883  22.677  27.944  1.00  0.00     0.039 A 
ATOM     34  C   UNL A   1      42.169  22.279  25.937  1.00  0.00     0.039 A 
ATOM     35  C   UNL A   1      40.945  22.396  26.587  1.00  0.00     0.123 A 
ATOM     36  F   UNL A   1      39.811  22.232  25.892  1.00  0.00    -0.207 F 
ENDBRANCH  29  30
ENDBRANCH  19  29
ENDBRANCH  13  14
ENDBRANCH   6   8
ENDBRANCH   3   4
ENDBRANCH   2   3
ENDBRANCH   1   2
BRANCH   1  37
ATOM     37  C   UNL A   1      47.863  26.524  25.897  1.00  0.00     0.002 C 
BRANCH  37  38
ATOM     38  C   UNL A   1      46.572  25.805  25.498  1.00  0.00     0.021 C 
BRANCH  38  39
ATOM     39  C   UNL A   1      45.289  26.434  26.029  1.00  0.00     0.116 C 
BRANCH  39  40
ATOM     40  N   UNL A   1      44.109  25.979  25.313  1.00  0.00    -0.352 N 
ATOM     41  C   UNL A   1      42.783  26.108  25.646  1.00  0.00     0.251 C 
ATOM     42  H   UNL A   1      44.286  25.509  24.466  1.00  0.00     0.163 HD
ATOM     43  O   UNL A   1      41.931  25.508  24.999  1.00  0.00    -0.269 OA
BRANCH  41  44
ATOM     44  C   UNL A   1      42.386  26.947  26.798  1.00  0.00     0.039 A 
ATOM     45  C   UNL A   1      41.737  26.345  27.878  1.00  0.00     0.014 A 
ATOM     46  C   UNL A   1      42.646  28.321  26.814  1.00  0.00     0.014 A 
ATOM     47  C   UNL A   1      41.404  27.108  29.000  1.00  0.00     0.010 A 
ATOM     48  C   UNL A   1      42.378  29.065  27.960  1.00  0.00     0.010 A 
ATOM     49  C   UNL A   1      41.752  28.467  29.065  1.00  0.00    -0.014 A 
BRANCH  49  50
ATOM     50  C   UNL A   1      41.475  29.277  30.282  1.00  0.00     0.031 A 
ATOM     51  C   UNL A   1      42.325  29.113  31.511  1.00  0.00     0.074 A 
ATOM     52  C   UNL A   1      40.418  30.114  30.297  1.00  0.00     0.049 A 
ATOM     53  N   UNL A   1      42.197  29.676  32.686  1.00  0.00    -0.248 NA
ATOM     54  C   UNL A   1      43.455  28.173  31.419  1.00  0.00     0.031 C 
ATOM     55  C   UNL A   1      39.489  30.327  29.184  1.00  0.00     0.029 A 
ATOM     56  N   UNL A   1      39.938  30.935  31.288  1.00  0.00    -0.354 N 
ATOM     57  C   UNL A   1      43.217  29.153  33.472  1.00  0.00     0.074 A 
ATOM     58  C   UNL A   1      43.925  28.188  32.658  1.00  0.00     0.031 C 
ATOM     59  C   UNL A   1      38.566  31.231  29.547  1.00  0.00     0.029 A 
ATOM     60  C   UNL A   1      38.809  31.635  30.928  1.00  0.00     0.049 A 
ATOM     61  H   UNL A   1      40.362  31.015  32.172  1.00  0.00     0.167 HD
ATOM     62  C   UNL A   1      43.548  29.465  34.748  1.00  0.00     0.037 A 
ATOM     63  C   UNL A   1      38.051  32.496  31.633  1.00  0.00     0.037 A 
ATOM     64  C   UNL A   1      42.856  30.444  35.545  1.00  0.00     0.049 A 
ATOM     65  C   UNL A   1      38.437  32.823  33.051  1.00  0.00     0.074 A 
ATOM     66  C   UNL A   1      43.149  30.872  36.828  1.00  0.00     0.029 A 
ATOM     67  N   UNL A   1      41.731  31.148  35.137  1.00  0.00    -0.354 N 
ATOM     68  N   UNL A   1      39.442  32.364  33.757  1.00  0.00    -0.248 NA
ATOM     69  C   UNL A   1      37.591  33.790  33.765  1.00  0.00     0.031 C 
ATOM     70  C   UNL A   1      42.175  31.800  37.213  1.00  0.00     0.029 A 
ATOM     71  C   UNL A   1      41.306  31.990  36.152  1.00  0.00     0.049 A 
ATOM     72  H   UNL A   1      41.298  31.060  34.257  1.00  0.00     0.167 HD
ATOM     73  C   UNL A   1      39.366  33.008  34.988  1.00  0.00     0.074 A 
ATOM     74  C   UNL A   1      38.224  33.895  34.925  1.00  0.00     0.031 C 
ATOM     75  C   UNL A   1      40.171  32.875  36.072  1.00  0.00     0.037 A 
BRANCH  62  76
ATOM     76  C   UNL A   1      44.718  28.744  35.363  1.00  0.00     0.058 A 
ATOM     77  C   UNL A   1      44.559  27.524  36.040  1.00  0.00     0.135 A 
ATOM     78  C   UNL A   1      46.020  29.256  35.235  1.00  0.00     0.135 A 
ATOM     79  F   UNL A   1      43.336  26.996  36.204  1.00  0.00    -0.206 F 
ATOM     80  C   UNL A   1      45.645  26.851  36.592  1.00  0.00     0.059 A 
ATOM     81  C   UNL A   1      47.124  28.586  35.756  1.00  0.00     0.059 A 
ATOM     82  F   UNL A   1      46.230  30.419  34.599  1.00  0.00    -0.206 F 
ATOM     83  C   UNL A   1      46.924  27.391  36.445  1.00  0.00     0.060 A 
BRANCH  83  84
ATOM     84  S   UNL A   1      48.321  26.499  37.160  1.00  0.00     0.124 S 
ATOM     85  O   UNL A   1      48.616  27.318  38.333  1.00  0.00    -0.237 OA
ATOM     86  O   UNL A   1      47.748  25.186  37.432  1.00  0.00    -0.237 OA
ATOM     87  O   UNL A   1      49.326  26.536  36.102  1.00  0.00    -0.744 OA
ENDBRANCH  83  84
ENDBRANCH  62  76
BRANCH  63  88
ATOM     88  C   UNL A   1      36.857  33.123  31.005  1.00  0.00     0.058 A 
ATOM     89  C   UNL A   1      35.559  32.729  31.366  1.00  0.00     0.135 A 
ATOM     90  C   UNL A   1      36.986  34.130  30.035  1.00  0.00     0.135 A 
ATOM     91  F   UNL A   1      35.383  31.767  32.284  1.00  0.00    -0.206 F 
ATOM     92  C   UNL A   1      34.434  33.295  30.776  1.00  0.00     0.059 A 
ATOM     93  C   UNL A   1      35.877  34.729  29.450  1.00  0.00     0.059 A 
ATOM     94  F   UNL A   1      38.205  34.555  29.666  1.00  0.00    -0.206 F 
ATOM     95  C   UNL A   1      34.604  34.297  29.819  1.00  0.00     0.060 A 
BRANCH  95  96
ATOM     96  S   UNL A   1      33.136  35.055  29.087  1.00  0.00     0.124 S 
ATOM     97  O   UNL A   1      32.741  34.047  28.111  1.00  0.00    -0.237 OA
ATOM     98  O   UNL A   1      32.259  35.203  30.245  1.00  0.00    -0.237 OA
ATOM     99  O   UNL A   1      33.647  36.305  28.534  1.00  0.00    -0.744 OA
ENDBRANCH  95  96
ENDBRANCH  63  88
BRANCH  75 100
ATOM    100  C   UNL A   1      39.871  33.737  37.267  1.00  0.00     0.058 A 
ATOM    101  C   UNL A   1      40.472  34.993  37.444  1.00  0.00     0.135 A 
ATOM    102  C   UNL A   1      38.929  33.322  38.222  1.00  0.00     0.135 A 
ATOM    103  F   UNL A   1      41.386  35.434  36.563  1.00  0.00    -0.206 F 
ATOM    104  C   UNL A   1      40.168  35.797  38.537  1.00  0.00     0.059 A 
ATOM    105  C   UNL A   1      38.587  34.122  39.308  1.00  0.00     0.059 A 
ATOM    106  F   UNL A   1      38.316  32.134  38.096  1.00  0.00    -0.206 F 
ATOM    107  C   UNL A   1      39.220  35.354  39.463  1.00  0.00     0.060 A 
BRANCH 107 108
ATOM    108  S   UNL A   1      38.807  36.424  40.857  1.00  0.00     0.124 S 
ATOM    109  O   UNL A   1      40.113  36.612  41.479  1.00  0.00    -0.237 OA
ATOM    110  O   UNL A   1      38.245  37.597  40.196  1.00  0.00    -0.237 OA
ATOM    111  O   UNL A   1      37.854  35.628  41.625  1.00  0.00    -0.744 OA
ENDBRANCH 107 108
ENDBRANCH  75 100
ENDBRANCH  49  50
ENDBRANCH  41  44
ENDBRANCH  39  40
ENDBRANCH  38  39
ENDBRANCH  37  38
ENDBRANCH   1  37
TORSDOF 21
ENDMDL
