MODEL 1
REMARK VINA RESULT:     -10.9      0.000      0.000
REMARK SMILES O=C(CCc1cccnc1)Nc1ccsc1C(=O)NCCCCCCNC(=O)c1ccc(-c2c3nc(c(-c4c(F)cc(S(=O)(=O)[O-])cc4F)c4ccc([nH]4)c(-c4c(F)cc(S(=O)(=O)[O-])cc4F)c4nc(c(-c5c(F)cc(S(=O)(=O)[O-])cc5F)c5ccc2[nH]5)C=C4)C=C3)cc1
REMARK SMILES IDX 22 1 21 2 20 3 19 4 17 5 18 6 16 8 12 9 13 10 14 11 15 12
REMARK SMILES IDX 11 13 1 14 2 15 3 17 4 18 5 19 6 20 10 21 7 22 9 23 8 24
REMARK SMILES IDX 23 25 24 26 25 27 26 28 27 29 28 31 29 32 30 33 94 34 31 35
REMARK SMILES IDX 93 36 32 37 33 38 34 39 87 40 35 41 92 42 86 43 88 44 36 45
REMARK SMILES IDX 91 46 85 47 84 48 37 50 71 51 50 52 70 53 51 54 54 55 69 56
REMARK SMILES IDX 89 57 52 58 53 59 68 61 90 62 55 63 38 64 39 65 48 66 40 67
REMARK SMILES IDX 41 68 47 69 49 70 42 71 43 72 44 73 45 74 46 75 72 76 73 77
REMARK SMILES IDX 82 78 74 79 75 80 81 81 83 82 76 83 77 84 78 85 79 86 80 87
REMARK SMILES IDX 56 88 57 89 66 90 58 91 59 92 65 93 67 94 60 95 61 96 62 97
REMARK SMILES IDX 63 98 64 99
REMARK H PARENT 19 7 11 16 26 30 88 49 54 60
REMARK Flexibility Score: inf
ROOT
ATOM      1  C   UNL A   1      33.732  23.692  22.672  1.00  0.00     0.002 C 
ENDROOT
BRANCH   1   2
ATOM      2  C   UNL A   1      32.760  24.595  21.864  1.00  0.00     0.021 C 
BRANCH   2   3
ATOM      3  C   UNL A   1      32.836  26.094  21.498  1.00  0.00     0.116 C 
BRANCH   3   4
ATOM      4  N   UNL A   1      33.216  27.084  22.481  1.00  0.00    -0.351 N 
ATOM      5  C   UNL A   1      32.418  27.741  23.422  1.00  0.00     0.263 C 
ATOM      6  O   UNL A   1      33.013  28.556  24.134  1.00  0.00    -0.268 OA
ATOM      7  H   UNL A   1      34.170  27.329  22.489  1.00  0.00     0.163 HD
BRANCH   5   8
ATOM      8  C   UNL A   1      30.970  27.518  23.524  1.00  0.00     0.115 A 
ATOM      9  C   UNL A   1      30.195  26.483  24.028  1.00  0.00     0.065 A 
ATOM     10  C   UNL A   1      28.797  26.661  23.781  1.00  0.00     0.038 A 
ATOM     11  C   UNL A   1      28.518  27.898  23.252  1.00  0.00     0.068 A 
ATOM     12  S   UNL A   1      29.943  28.789  22.947  1.00  0.00    -0.137 S 
BRANCH   9  13
ATOM     13  N   UNL A   1      30.708  25.430  24.765  1.00  0.00    -0.325 N 
ATOM     14  O   UNL A   1      30.814  26.496  26.807  1.00  0.00    -0.275 OA
ATOM     15  C   UNL A   1      31.014  25.505  26.105  1.00  0.00     0.224 C 
ATOM     16  H   UNL A   1      30.865  24.575  24.302  1.00  0.00     0.169 HD
BRANCH  15  17
ATOM     17  C   UNL A   1      31.607  24.236  26.701  1.00  0.00     0.105 C 
BRANCH  17  18
ATOM     18  C   UNL A   1      31.163  22.922  26.060  1.00  0.00     0.047 C 
BRANCH  18  19
ATOM     19  C   UNL A   1      32.254  21.953  25.655  1.00  0.00    -0.029 A 
ATOM     20  C   UNL A   1      32.101  21.079  24.573  1.00  0.00     0.007 A 
ATOM     21  C   UNL A   1      33.447  21.852  26.348  1.00  0.00     0.114 A 
ATOM     22  C   UNL A   1      33.093  20.182  24.205  1.00  0.00     0.020 A 
ATOM     23  N   UNL A   1      34.440  20.990  26.020  1.00  0.00    -0.264 NA
ATOM     24  C   UNL A   1      34.241  20.173  24.962  1.00  0.00     0.111 A 
ENDBRANCH  18  19
ENDBRANCH  17  18
ENDBRANCH  15  17
ENDBRANCH   9  13
ENDBRANCH   5   8
ENDBRANCH   3   4
ENDBRANCH   2   3
ENDBRANCH   1   2
BRANCH   1  25
ATOM     25  C   UNL A   1      34.745  24.035  23.780  1.00  0.00     0.002 C 
BRANCH  25  26
ATOM     26  C   UNL A   1      36.093  23.322  23.949  1.00  0.00     0.021 C 
BRANCH  26  27
ATOM     27  C   UNL A   1      37.013  23.702  25.102  1.00  0.00     0.116 C 
BRANCH  27  28
ATOM     28  N   UNL A   1      38.029  22.696  25.364  1.00  0.00    -0.352 N 
ATOM     29  C   UNL A   1      39.250  22.844  25.991  1.00  0.00     0.251 C 
ATOM     30  H   UNL A   1      37.819  21.786  25.050  1.00  0.00     0.163 HD
ATOM     31  O   UNL A   1      40.080  21.943  25.926  1.00  0.00    -0.269 OA
BRANCH  29  32
ATOM     32  C   UNL A   1      39.566  24.086  26.744  1.00  0.00     0.039 A 
ATOM     33  C   UNL A   1      40.366  25.074  26.154  1.00  0.00     0.014 A 
ATOM     34  C   UNL A   1      39.118  24.255  28.056  1.00  0.00     0.014 A 
ATOM     35  C   UNL A   1      40.680  26.242  26.865  1.00  0.00     0.010 A 
ATOM     36  C   UNL A   1      39.373  25.444  28.735  1.00  0.00     0.010 A 
ATOM     37  C   UNL A   1      40.173  26.445  28.158  1.00  0.00    -0.014 A 
BRANCH  37  38
ATOM     38  C   UNL A   1      40.519  27.637  28.978  1.00  0.00     0.031 A 
ATOM     39  C   UNL A   1      41.790  27.619  29.791  1.00  0.00     0.074 A 
ATOM     40  C   UNL A   1      39.673  28.684  29.068  1.00  0.00     0.049 A 
ATOM     41  N   UNL A   1      42.188  28.435  30.731  1.00  0.00    -0.248 NA
ATOM     42  C   UNL A   1      42.720  26.505  29.532  1.00  0.00     0.031 C 
ATOM     43  C   UNL A   1      38.408  28.820  28.345  1.00  0.00     0.029 A 
ATOM     44  N   UNL A   1      39.740  29.826  29.831  1.00  0.00    -0.354 N 
ATOM     45  C   UNL A   1      43.398  27.922  31.190  1.00  0.00     0.074 A 
ATOM     46  C   UNL A   1      43.639  26.693  30.467  1.00  0.00     0.031 C 
ATOM     47  C   UNL A   1      37.821  29.978  28.696  1.00  0.00     0.029 A 
ATOM     48  C   UNL A   1      38.642  30.646  29.702  1.00  0.00     0.049 A 
ATOM     49  H   UNL A   1      40.503  30.038  30.416  1.00  0.00     0.167 HD
ATOM     50  C   UNL A   1      44.245  28.443  32.108  1.00  0.00     0.037 A 
ATOM     51  C   UNL A   1      38.327  31.793  30.337  1.00  0.00     0.037 A 
ATOM     52  C   UNL A   1      44.020  29.689  32.790  1.00  0.00     0.049 A 
ATOM     53  C   UNL A   1      39.281  32.344  31.369  1.00  0.00     0.074 A 
ATOM     54  C   UNL A   1      44.823  30.316  33.727  1.00  0.00     0.029 A 
ATOM     55  N   UNL A   1      42.921  30.510  32.590  1.00  0.00    -0.354 N 
ATOM     56  N   UNL A   1      40.424  31.850  31.782  1.00  0.00    -0.248 NA
ATOM     57  C   UNL A   1      38.908  33.610  32.018  1.00  0.00     0.031 C 
ATOM     58  C   UNL A   1      44.198  31.505  34.111  1.00  0.00     0.029 A 
ATOM     59  C   UNL A   1      43.028  31.640  33.379  1.00  0.00     0.049 A 
ATOM     60  H   UNL A   1      42.175  30.316  31.978  1.00  0.00     0.167 HD
ATOM     61  C   UNL A   1      40.928  32.769  32.697  1.00  0.00     0.074 A 
ATOM     62  C   UNL A   1      39.966  33.848  32.780  1.00  0.00     0.031 C 
ATOM     63  C   UNL A   1      42.084  32.728  33.402  1.00  0.00     0.037 A 
BRANCH  50  64
ATOM     64  C   UNL A   1      45.512  27.688  32.408  1.00  0.00     0.058 A 
ATOM     65  C   UNL A   1      45.549  26.687  33.392  1.00  0.00     0.135 A 
ATOM     66  C   UNL A   1      46.682  27.920  31.665  1.00  0.00     0.135 A 
ATOM     67  F   UNL A   1      44.465  26.438  34.144  1.00  0.00    -0.206 F 
ATOM     68  C   UNL A   1      46.704  25.955  33.641  1.00  0.00     0.059 A 
ATOM     69  C   UNL A   1      47.841  27.178  31.879  1.00  0.00     0.059 A 
ATOM     70  F   UNL A   1      46.703  28.867  30.714  1.00  0.00    -0.206 F 
ATOM     71  C   UNL A   1      47.844  26.203  32.875  1.00  0.00     0.060 A 
BRANCH  71  72
ATOM     72  S   UNL A   1      49.322  25.216  33.192  1.00  0.00     0.124 S 
ATOM     73  O   UNL A   1      48.762  24.073  33.906  1.00  0.00    -0.237 OA
ATOM     74  O   UNL A   1      49.809  24.946  31.844  1.00  0.00    -0.237 OA
ATOM     75  O   UNL A   1      50.160  26.105  33.992  1.00  0.00    -0.744 OA
ENDBRANCH  71  72
ENDBRANCH  50  64
BRANCH  51  76
ATOM     76  C   UNL A   1      37.059  32.512  30.029  1.00  0.00     0.058 A 
ATOM     77  C   UNL A   1      37.019  33.516  29.048  1.00  0.00     0.135 A 
ATOM     78  C   UNL A   1      35.876  32.250  30.737  1.00  0.00     0.135 A 
ATOM     79  F   UNL A   1      38.123  33.808  28.345  1.00  0.00    -0.206 F 
ATOM     80  C   UNL A   1      35.871  34.266  28.814  1.00  0.00     0.059 A 
ATOM     81  C   UNL A   1      34.705  32.965  30.499  1.00  0.00     0.059 A 
ATOM     82  F   UNL A   1      35.849  31.285  31.670  1.00  0.00    -0.206 F 
ATOM     83  C   UNL A   1      34.720  33.988  29.552  1.00  0.00     0.060 A 
BRANCH  83  84
ATOM     84  S   UNL A   1      33.238  34.976  29.254  1.00  0.00     0.124 S 
ATOM     85  O   UNL A   1      32.627  34.995  30.578  1.00  0.00    -0.237 OA
ATOM     86  O   UNL A   1      33.800  36.241  28.790  1.00  0.00    -0.237 OA
ATOM     87  O   UNL A   1      32.522  34.207  28.239  1.00  0.00    -0.744 OA
ENDBRANCH  83  84
ENDBRANCH  51  76
BRANCH  63  88
ATOM     88  C   UNL A   1      42.431  33.914  34.259  1.00  0.00     0.058 A 
ATOM     89  C   UNL A   1      42.171  33.935  35.636  1.00  0.00     0.135 A 
ATOM     90  C   UNL A   1      43.124  35.001  33.700  1.00  0.00     0.135 A 
ATOM     91  F   UNL A   1      41.507  32.924  36.216  1.00  0.00    -0.206 F 
ATOM     92  C   UNL A   1      42.585  34.999  36.433  1.00  0.00     0.059 A 
ATOM     93  C   UNL A   1      43.569  36.061  34.482  1.00  0.00     0.059 A 
ATOM     94  F   UNL A   1      43.403  35.022  32.387  1.00  0.00    -0.206 F 
ATOM     95  C   UNL A   1      43.292  36.052  35.848  1.00  0.00     0.060 A 
BRANCH  95  96
ATOM     96  S   UNL A   1      43.886  37.388  36.907  1.00  0.00     0.124 S 
ATOM     97  O   UNL A   1      45.103  36.803  37.464  1.00  0.00    -0.237 OA
ATOM     98  O   UNL A   1      44.085  38.476  35.954  1.00  0.00    -0.237 OA
ATOM     99  O   UNL A   1      42.794  37.584  37.854  1.00  0.00    -0.744 OA
ENDBRANCH  95  96
ENDBRANCH  63  88
ENDBRANCH  37  38
ENDBRANCH  29  32
ENDBRANCH  27  28
ENDBRANCH  26  27
ENDBRANCH  25  26
ENDBRANCH   1  25
TORSDOF 20
ENDMDL
MODEL 2
REMARK VINA RESULT:     -10.4      2.770      4.353
REMARK SMILES O=C(CCc1cccnc1)Nc1ccsc1C(=O)NCCCCCCNC(=O)c1ccc(-c2c3nc(c(-c4c(F)cc(S(=O)(=O)[O-])cc4F)c4ccc([nH]4)c(-c4c(F)cc(S(=O)(=O)[O-])cc4F)c4nc(c(-c5c(F)cc(S(=O)(=O)[O-])cc5F)c5ccc2[nH]5)C=C4)C=C3)cc1
REMARK SMILES IDX 22 1 21 2 20 3 19 4 17 5 18 6 16 8 12 9 13 10 14 11 15 12
REMARK SMILES IDX 11 13 1 14 2 15 3 17 4 18 5 19 6 20 10 21 7 22 9 23 8 24
REMARK SMILES IDX 23 25 24 26 25 27 26 28 27 29 28 31 29 32 30 33 94 34 31 35
REMARK SMILES IDX 93 36 32 37 33 38 34 39 87 40 35 41 92 42 86 43 88 44 36 45
REMARK SMILES IDX 91 46 85 47 84 48 37 50 71 51 50 52 70 53 51 54 54 55 69 56
REMARK SMILES IDX 89 57 52 58 53 59 68 61 90 62 55 63 38 64 39 65 48 66 40 67
REMARK SMILES IDX 41 68 47 69 49 70 42 71 43 72 44 73 45 74 46 75 72 76 73 77
REMARK SMILES IDX 82 78 74 79 75 80 81 81 83 82 76 83 77 84 78 85 79 86 80 87
REMARK SMILES IDX 56 88 57 89 66 90 58 91 59 92 65 93 67 94 60 95 61 96 62 97
REMARK SMILES IDX 63 98 64 99
REMARK H PARENT 19 7 11 16 26 30 88 49 54 60
REMARK Flexibility Score: inf
ROOT
ATOM      1  C   UNL A   1      35.590  23.928  24.980  1.00  0.00     0.002 C 
ENDROOT
BRANCH   1   2
ATOM      2  C   UNL A   1      35.142  23.819  23.498  1.00  0.00     0.021 C 
BRANCH   2   3
ATOM      3  C   UNL A   1      34.045  22.960  22.831  1.00  0.00     0.116 C 
BRANCH   3   4
ATOM      4  N   UNL A   1      32.654  23.350  22.887  1.00  0.00    -0.351 N 
ATOM      5  C   UNL A   1      31.786  23.356  23.983  1.00  0.00     0.263 C 
ATOM      6  O   UNL A   1      30.635  23.730  23.735  1.00  0.00    -0.268 OA
ATOM      7  H   UNL A   1      32.263  23.651  22.034  1.00  0.00     0.163 HD
BRANCH   5   8
ATOM      8  C   UNL A   1      32.196  22.906  25.319  1.00  0.00     0.115 A 
ATOM      9  C   UNL A   1      32.240  23.519  26.564  1.00  0.00     0.065 A 
ATOM     10  C   UNL A   1      32.851  22.703  27.566  1.00  0.00     0.038 A 
ATOM     11  C   UNL A   1      33.105  21.431  27.116  1.00  0.00     0.068 A 
ATOM     12  S   UNL A   1      32.717  21.259  25.462  1.00  0.00    -0.137 S 
BRANCH   9  13
ATOM     13  N   UNL A   1      31.676  24.755  26.829  1.00  0.00    -0.325 N 
ATOM     14  O   UNL A   1      33.210  26.052  25.696  1.00  0.00    -0.275 OA
ATOM     15  C   UNL A   1      32.208  25.952  26.403  1.00  0.00     0.224 C 
ATOM     16  H   UNL A   1      30.843  24.780  27.354  1.00  0.00     0.169 HD
BRANCH  15  17
ATOM     17  C   UNL A   1      31.441  27.189  26.847  1.00  0.00     0.105 C 
BRANCH  17  18
ATOM     18  C   UNL A   1      31.789  28.490  26.124  1.00  0.00     0.047 C 
BRANCH  18  19
ATOM     19  C   UNL A   1      32.842  29.370  26.764  1.00  0.00    -0.029 A 
ATOM     20  C   UNL A   1      34.061  28.852  27.216  1.00  0.00     0.007 A 
ATOM     21  C   UNL A   1      32.649  30.724  26.969  1.00  0.00     0.114 A 
ATOM     22  C   UNL A   1      35.024  29.653  27.813  1.00  0.00     0.020 A 
ATOM     23  N   UNL A   1      33.565  31.539  27.546  1.00  0.00    -0.264 NA
ATOM     24  C   UNL A   1      34.727  30.988  27.958  1.00  0.00     0.111 A 
ENDBRANCH  18  19
ENDBRANCH  17  18
ENDBRANCH  15  17
ENDBRANCH   9  13
ENDBRANCH   5   8
ENDBRANCH   3   4
ENDBRANCH   2   3
ENDBRANCH   1   2
BRANCH   1  25
ATOM     25  C   UNL A   1      36.255  22.901  25.915  1.00  0.00     0.002 C 
BRANCH  25  26
ATOM     26  C   UNL A   1      37.773  22.713  26.029  1.00  0.00     0.021 C 
BRANCH  26  27
ATOM     27  C   UNL A   1      38.657  23.893  26.410  1.00  0.00     0.116 C 
BRANCH  27  28
ATOM     28  N   UNL A   1      40.054  23.682  26.065  1.00  0.00    -0.352 N 
ATOM     29  C   UNL A   1      41.148  24.466  26.371  1.00  0.00     0.251 C 
ATOM     30  H   UNL A   1      40.245  22.870  25.542  1.00  0.00     0.163 HD
ATOM     31  O   UNL A   1      42.219  24.262  25.810  1.00  0.00    -0.269 OA
BRANCH  29  32
ATOM     32  C   UNL A   1      41.037  25.557  27.375  1.00  0.00     0.039 A 
ATOM     33  C   UNL A   1      41.895  26.662  27.301  1.00  0.00     0.014 A 
ATOM     34  C   UNL A   1      40.121  25.465  28.426  1.00  0.00     0.014 A 
ATOM     35  C   UNL A   1      41.805  27.688  28.254  1.00  0.00     0.010 A 
ATOM     36  C   UNL A   1      39.987  26.515  29.331  1.00  0.00     0.010 A 
ATOM     37  C   UNL A   1      40.839  27.631  29.270  1.00  0.00    -0.014 A 
BRANCH  37  38
ATOM     38  C   UNL A   1      40.737  28.662  30.339  1.00  0.00     0.031 A 
ATOM     39  C   UNL A   1      41.632  28.549  31.548  1.00  0.00     0.074 A 
ATOM     40  C   UNL A   1      39.801  29.631  30.278  1.00  0.00     0.049 A 
ATOM     41  N   UNL A   1      41.577  29.190  32.686  1.00  0.00    -0.248 NA
ATOM     42  C   UNL A   1      42.712  27.549  31.475  1.00  0.00     0.031 C 
ATOM     43  C   UNL A   1      38.866  29.843  29.171  1.00  0.00     0.029 A 
ATOM     44  N   UNL A   1      39.466  30.610  31.183  1.00  0.00    -0.354 N 
ATOM     45  C   UNL A   1      42.597  28.656  33.470  1.00  0.00     0.074 A 
ATOM     46  C   UNL A   1      43.214  27.600  32.700  1.00  0.00     0.031 C 
ATOM     47  C   UNL A   1      38.067  30.884  29.461  1.00  0.00     0.029 A 
ATOM     48  C   UNL A   1      38.399  31.387  30.791  1.00  0.00     0.049 A 
ATOM     49  H   UNL A   1      39.943  30.742  32.033  1.00  0.00     0.167 HD
ATOM     50  C   UNL A   1      43.001  29.033  34.706  1.00  0.00     0.037 A 
ATOM     51  C   UNL A   1      37.753  32.377  31.440  1.00  0.00     0.037 A 
ATOM     52  C   UNL A   1      42.410  30.115  35.446  1.00  0.00     0.049 A 
ATOM     53  C   UNL A   1      38.212  32.767  32.824  1.00  0.00     0.074 A 
ATOM     54  C   UNL A   1      42.755  30.590  36.699  1.00  0.00     0.029 A 
ATOM     55  N   UNL A   1      41.368  30.907  34.989  1.00  0.00    -0.354 N 
ATOM     56  N   UNL A   1      39.183  32.257  33.545  1.00  0.00    -0.248 NA
ATOM     57  C   UNL A   1      37.494  33.868  33.484  1.00  0.00     0.031 C 
ATOM     58  C   UNL A   1      41.905  31.654  37.011  1.00  0.00     0.029 A 
ATOM     59  C   UNL A   1      41.062  31.871  35.932  1.00  0.00     0.049 A 
ATOM     60  H   UNL A   1      40.913  30.798  34.123  1.00  0.00     0.167 HD
ATOM     61  C   UNL A   1      39.225  33.009  34.714  1.00  0.00     0.074 A 
ATOM     62  C   UNL A   1      38.181  34.006  34.609  1.00  0.00     0.031 C 
ATOM     63  C   UNL A   1      40.054  32.889  35.779  1.00  0.00     0.037 A 
BRANCH  50  64
ATOM     64  C   UNL A   1      44.156  28.295  35.325  1.00  0.00     0.058 A 
ATOM     65  C   UNL A   1      45.479  28.730  35.147  1.00  0.00     0.135 A 
ATOM     66  C   UNL A   1      43.940  27.182  36.154  1.00  0.00     0.135 A 
ATOM     67  F   UNL A   1      45.745  29.778  34.350  1.00  0.00    -0.206 F 
ATOM     68  C   UNL A   1      46.547  28.080  35.754  1.00  0.00     0.059 A 
ATOM     69  C   UNL A   1      44.992  26.533  36.795  1.00  0.00     0.059 A 
ATOM     70  F   UNL A   1      42.695  26.721  36.356  1.00  0.00    -0.206 F 
ATOM     71  C   UNL A   1      46.294  26.985  36.582  1.00  0.00     0.060 A 
BRANCH  71  72
ATOM     72  S   UNL A   1      47.692  26.177  37.388  1.00  0.00     0.124 S 
ATOM     73  O   UNL A   1      47.833  24.967  36.583  1.00  0.00    -0.237 OA
ATOM     74  O   UNL A   1      48.752  27.167  37.236  1.00  0.00    -0.237 OA
ATOM     75  O   UNL A   1      47.223  25.969  38.755  1.00  0.00    -0.744 OA
ENDBRANCH  71  72
ENDBRANCH  50  64
BRANCH  51  76
ATOM     76  C   UNL A   1      36.603  33.081  30.806  1.00  0.00     0.058 A 
ATOM     77  C   UNL A   1      36.803  33.983  29.750  1.00  0.00     0.135 A 
ATOM     78  C   UNL A   1      35.290  32.909  31.271  1.00  0.00     0.135 A 
ATOM     79  F   UNL A   1      38.040  34.187  29.270  1.00  0.00    -0.206 F 
ATOM     80  C   UNL A   1      35.757  34.724  29.209  1.00  0.00     0.059 A 
ATOM     81  C   UNL A   1      34.221  33.614  30.727  1.00  0.00     0.059 A 
ATOM     82  F   UNL A   1      35.035  32.042  32.264  1.00  0.00    -0.206 F 
ATOM     83  C   UNL A   1      34.468  34.538  29.712  1.00  0.00     0.060 A 
BRANCH  83  84
ATOM     84  S   UNL A   1      33.117  35.514  29.017  1.00  0.00     0.124 S 
ATOM     85  O   UNL A   1      32.349  35.844  30.213  1.00  0.00    -0.237 OA
ATOM     86  O   UNL A   1      33.829  36.622  28.388  1.00  0.00    -0.237 OA
ATOM     87  O   UNL A   1      32.475  34.585  28.091  1.00  0.00    -0.744 OA
ENDBRANCH  83  84
ENDBRANCH  51  76
BRANCH  63  88
ATOM     88  C   UNL A   1      39.940  33.906  36.881  1.00  0.00     0.058 A 
ATOM     89  C   UNL A   1      40.564  35.158  36.802  1.00  0.00     0.135 A 
ATOM     90  C   UNL A   1      39.108  33.651  37.984  1.00  0.00     0.135 A 
ATOM     91  F   UNL A   1      41.372  35.448  35.771  1.00  0.00    -0.206 F 
ATOM     92  C   UNL A   1      40.371  36.126  37.783  1.00  0.00     0.059 A 
ATOM     93  C   UNL A   1      38.881  34.612  38.963  1.00  0.00     0.059 A 
ATOM     94  F   UNL A   1      38.482  32.469  38.100  1.00  0.00    -0.206 F 
ATOM     95  C   UNL A   1      39.519  35.846  38.855  1.00  0.00     0.060 A 
BRANCH  95  96
ATOM     96  S   UNL A   1      39.220  37.137  40.081  1.00  0.00     0.124 S 
ATOM     97  O   UNL A   1      38.488  38.126  39.295  1.00  0.00    -0.237 OA
ATOM     98  O   UNL A   1      38.442  36.430  41.094  1.00  0.00    -0.237 OA
ATOM     99  O   UNL A   1      40.563  37.532  40.494  1.00  0.00    -0.744 OA
ENDBRANCH  95  96
ENDBRANCH  63  88
ENDBRANCH  37  38
ENDBRANCH  29  32
ENDBRANCH  27  28
ENDBRANCH  26  27
ENDBRANCH  25  26
ENDBRANCH   1  25
TORSDOF 20
ENDMDL
MODEL 3
REMARK VINA RESULT:     -10.3      3.053      9.244
REMARK SMILES O=C(CCc1cccnc1)Nc1ccsc1C(=O)NCCCCCCNC(=O)c1ccc(-c2c3nc(c(-c4c(F)cc(S(=O)(=O)[O-])cc4F)c4ccc([nH]4)c(-c4c(F)cc(S(=O)(=O)[O-])cc4F)c4nc(c(-c5c(F)cc(S(=O)(=O)[O-])cc5F)c5ccc2[nH]5)C=C4)C=C3)cc1
REMARK SMILES IDX 22 1 21 2 20 3 19 4 17 5 18 6 16 8 12 9 13 10 14 11 15 12
REMARK SMILES IDX 11 13 1 14 2 15 3 17 4 18 5 19 6 20 10 21 7 22 9 23 8 24
REMARK SMILES IDX 23 25 24 26 25 27 26 28 27 29 28 31 29 32 30 33 94 34 31 35
REMARK SMILES IDX 93 36 32 37 33 38 34 39 87 40 35 41 92 42 86 43 88 44 36 45
REMARK SMILES IDX 91 46 85 47 84 48 37 50 71 51 50 52 70 53 51 54 54 55 69 56
REMARK SMILES IDX 89 57 52 58 53 59 68 61 90 62 55 63 38 64 39 65 48 66 40 67
REMARK SMILES IDX 41 68 47 69 49 70 42 71 43 72 44 73 45 74 46 75 72 76 73 77
REMARK SMILES IDX 82 78 74 79 75 80 81 81 83 82 76 83 77 84 78 85 79 86 80 87
REMARK SMILES IDX 56 88 57 89 66 90 58 91 59 92 65 93 67 94 60 95 61 96 62 97
REMARK SMILES IDX 63 98 64 99
REMARK H PARENT 19 7 11 16 26 30 88 49 54 60
REMARK Flexibility Score: inf
ROOT
ATOM      1  C   UNL A   1      39.253  22.557  26.055  1.00  0.00     0.002 C 
ENDROOT
BRANCH   1   2
ATOM      2  C   UNL A   1      37.745  22.808  25.782  1.00  0.00     0.021 C 
BRANCH   2   3
ATOM      3  C   UNL A   1      36.549  21.832  25.726  1.00  0.00     0.116 C 
BRANCH   3   4
ATOM      4  N   UNL A   1      35.545  21.820  26.767  1.00  0.00    -0.351 N 
ATOM      5  C   UNL A   1      34.187  21.500  26.675  1.00  0.00     0.263 C 
ATOM      6  O   UNL A   1      33.557  21.589  27.734  1.00  0.00    -0.268 OA
ATOM      7  H   UNL A   1      35.862  22.073  27.664  1.00  0.00     0.163 HD
BRANCH   5   8
ATOM      8  C   UNL A   1      33.545  21.134  25.406  1.00  0.00     0.115 A 
ATOM      9  C   UNL A   1      33.124  21.862  24.302  1.00  0.00     0.065 A 
ATOM     10  C   UNL A   1      32.418  21.066  23.345  1.00  0.00     0.038 A 
ATOM     11  C   UNL A   1      32.462  19.728  23.651  1.00  0.00     0.068 A 
ATOM     12  S   UNL A   1      33.247  19.447  25.142  1.00  0.00    -0.137 S 
BRANCH   9  13
ATOM     13  N   UNL A   1      33.427  23.197  24.104  1.00  0.00    -0.325 N 
ATOM     14  O   UNL A   1      31.740  24.099  25.391  1.00  0.00    -0.275 OA
ATOM     15  C   UNL A   1      32.702  24.239  24.638  1.00  0.00     0.224 C 
ATOM     16  H   UNL A   1      34.209  23.416  23.548  1.00  0.00     0.169 HD
BRANCH  15  17
ATOM     17  C   UNL A   1      33.193  25.627  24.254  1.00  0.00     0.105 C 
BRANCH  17  18
ATOM     18  C   UNL A   1      34.034  26.356  25.301  1.00  0.00     0.047 C 
BRANCH  18  19
ATOM     19  C   UNL A   1      33.387  27.531  26.004  1.00  0.00    -0.029 A 
ATOM     20  C   UNL A   1      32.219  27.385  26.761  1.00  0.00     0.007 A 
ATOM     21  C   UNL A   1      33.891  28.816  25.912  1.00  0.00     0.114 A 
ATOM     22  C   UNL A   1      31.617  28.461  27.398  1.00  0.00     0.020 A 
ATOM     23  N   UNL A   1      33.333  29.890  26.520  1.00  0.00    -0.264 NA
ATOM     24  C   UNL A   1      32.209  29.692  27.244  1.00  0.00     0.111 A 
ENDBRANCH  18  19
ENDBRANCH  17  18
ENDBRANCH  15  17
ENDBRANCH   9  13
ENDBRANCH   5   8
ENDBRANCH   3   4
ENDBRANCH   2   3
ENDBRANCH   1   2
BRANCH   1  25
ATOM     25  C   UNL A   1      40.033  22.415  27.376  1.00  0.00     0.002 C 
BRANCH  25  26
ATOM     26  C   UNL A   1      41.525  22.070  27.449  1.00  0.00     0.021 C 
BRANCH  26  27
ATOM     27  C   UNL A   1      42.563  23.185  27.449  1.00  0.00     0.116 C 
BRANCH  27  28
ATOM     28  N   UNL A   1      42.511  24.000  26.247  1.00  0.00    -0.352 N 
ATOM     29  C   UNL A   1      42.077  25.303  26.103  1.00  0.00     0.251 C 
ATOM     30  H   UNL A   1      42.829  23.564  25.423  1.00  0.00     0.163 HD
ATOM     31  O   UNL A   1      41.889  25.761  24.981  1.00  0.00    -0.269 OA
BRANCH  29  32
ATOM     32  C   UNL A   1      41.835  26.153  27.299  1.00  0.00     0.039 A 
ATOM     33  C   UNL A   1      42.713  27.206  27.593  1.00  0.00     0.014 A 
ATOM     34  C   UNL A   1      40.773  25.880  28.162  1.00  0.00     0.014 A 
ATOM     35  C   UNL A   1      42.498  28.004  28.727  1.00  0.00     0.010 A 
ATOM     36  C   UNL A   1      40.522  26.714  29.249  1.00  0.00     0.010 A 
ATOM     37  C   UNL A   1      41.391  27.774  29.558  1.00  0.00    -0.014 A 
BRANCH  37  38
ATOM     38  C   UNL A   1      41.147  28.552  30.803  1.00  0.00     0.031 A 
ATOM     39  C   UNL A   1      40.060  29.598  30.807  1.00  0.00     0.074 A 
ATOM     40  C   UNL A   1      41.938  28.394  31.884  1.00  0.00     0.049 A 
ATOM     41  N   UNL A   1      39.808  30.532  31.686  1.00  0.00    -0.248 NA
ATOM     42  C   UNL A   1      39.158  29.613  29.642  1.00  0.00     0.031 C 
ATOM     43  C   UNL A   1      43.032  27.428  32.004  1.00  0.00     0.029 A 
ATOM     44  N   UNL A   1      41.959  29.065  33.084  1.00  0.00    -0.354 N 
ATOM     45  C   UNL A   1      38.738  31.259  31.170  1.00  0.00     0.074 A 
ATOM     46  C   UNL A   1      38.428  30.694  29.876  1.00  0.00     0.031 C 
ATOM     47  C   UNL A   1      43.613  27.566  33.209  1.00  0.00     0.029 A 
ATOM     48  C   UNL A   1      42.967  28.660  33.930  1.00  0.00     0.049 A 
ATOM     49  H   UNL A   1      41.313  29.771  33.317  1.00  0.00     0.167 HD
ATOM     50  C   UNL A   1      38.057  32.283  31.736  1.00  0.00     0.037 A 
ATOM     51  C   UNL A   1      43.337  29.130  35.138  1.00  0.00     0.037 A 
ATOM     52  C   UNL A   1      38.343  32.809  33.043  1.00  0.00     0.049 A 
ATOM     53  C   UNL A   1      42.572  30.284  35.740  1.00  0.00     0.074 A 
ATOM     54  C   UNL A   1      37.704  33.834  33.718  1.00  0.00     0.029 A 
ATOM     55  N   UNL A   1      39.338  32.334  33.885  1.00  0.00    -0.354 N 
ATOM     56  N   UNL A   1      41.558  30.951  35.241  1.00  0.00    -0.248 NA
ATOM     57  C   UNL A   1      42.996  30.749  37.070  1.00  0.00     0.031 C 
ATOM     58  C   UNL A   1      38.328  33.995  34.958  1.00  0.00     0.029 A 
ATOM     59  C   UNL A   1      39.325  33.039  35.073  1.00  0.00     0.049 A 
ATOM     60  H   UNL A   1      39.961  31.604  33.666  1.00  0.00     0.167 HD
ATOM     61  C   UNL A   1      41.192  31.873  36.216  1.00  0.00     0.074 A 
ATOM     62  C   UNL A   1      42.093  31.683  37.333  1.00  0.00     0.031 C 
ATOM     63  C   UNL A   1      40.198  32.793  36.193  1.00  0.00     0.037 A 
BRANCH  50  64
ATOM     64  C   UNL A   1      36.914  32.882  30.963  1.00  0.00     0.058 A 
ATOM     65  C   UNL A   1      35.581  32.565  31.270  1.00  0.00     0.135 A 
ATOM     66  C   UNL A   1      37.145  33.827  29.950  1.00  0.00     0.135 A 
ATOM     67  F   UNL A   1      35.303  31.655  32.216  1.00  0.00    -0.206 F 
ATOM     68  C   UNL A   1      34.519  33.150  30.590  1.00  0.00     0.059 A 
ATOM     69  C   UNL A   1      36.096  34.447  29.276  1.00  0.00     0.059 A 
ATOM     70  F   UNL A   1      38.400  34.164  29.613  1.00  0.00    -0.206 F 
ATOM     71  C   UNL A   1      34.786  34.095  29.598  1.00  0.00     0.060 A 
BRANCH  71  72
ATOM     72  S   UNL A   1      33.392  34.869  28.752  1.00  0.00     0.124 S 
ATOM     73  O   UNL A   1      34.035  36.013  28.115  1.00  0.00    -0.237 OA
ATOM     74  O   UNL A   1      32.948  33.809  27.853  1.00  0.00    -0.237 OA
ATOM     75  O   UNL A   1      32.471  35.192  29.838  1.00  0.00    -0.744 OA
ENDBRANCH  71  72
ENDBRANCH  50  64
BRANCH  51  76
ATOM     76  C   UNL A   1      44.482  28.525  35.874  1.00  0.00     0.058 A 
ATOM     77  C   UNL A   1      45.797  28.960  35.646  1.00  0.00     0.135 A 
ATOM     78  C   UNL A   1      44.296  27.469  36.781  1.00  0.00     0.135 A 
ATOM     79  F   UNL A   1      46.030  29.963  34.787  1.00  0.00    -0.206 F 
ATOM     80  C   UNL A   1      46.888  28.342  36.249  1.00  0.00     0.059 A 
ATOM     81  C   UNL A   1      45.369  26.856  37.421  1.00  0.00     0.059 A 
ATOM     82  F   UNL A   1      43.059  27.027  37.055  1.00  0.00    -0.206 F 
ATOM     83  C   UNL A   1      46.664  27.283  37.130  1.00  0.00     0.060 A 
BRANCH  83  84
ATOM     84  S   UNL A   1      48.085  26.476  37.897  1.00  0.00     0.124 S 
ATOM     85  O   UNL A   1      47.737  26.553  39.311  1.00  0.00    -0.237 OA
ATOM     86  O   UNL A   1      48.043  25.145  37.299  1.00  0.00    -0.237 OA
ATOM     87  O   UNL A   1      49.209  27.308  37.477  1.00  0.00    -0.744 OA
ENDBRANCH  83  84
ENDBRANCH  51  76
BRANCH  63  88
ATOM     88  C   UNL A   1      39.960  33.607  37.434  1.00  0.00     0.058 A 
ATOM     89  C   UNL A   1      40.687  34.775  37.706  1.00  0.00     0.135 A 
ATOM     90  C   UNL A   1      38.917  33.260  38.309  1.00  0.00     0.135 A 
ATOM     91  F   UNL A   1      41.696  35.146  36.904  1.00  0.00    -0.206 F 
ATOM     92  C   UNL A   1      40.391  35.570  38.809  1.00  0.00     0.059 A 
ATOM     93  C   UNL A   1      38.588  34.054  39.403  1.00  0.00     0.059 A 
ATOM     94  F   UNL A   1      38.187  32.156  38.086  1.00  0.00    -0.206 F 
ATOM     95  C   UNL A   1      39.333  35.206  39.645  1.00  0.00     0.060 A 
BRANCH  95  96
ATOM     96  S   UNL A   1      38.913  36.288  41.028  1.00  0.00     0.124 S 
ATOM     97  O   UNL A   1      37.865  35.520  41.695  1.00  0.00    -0.237 OA
ATOM     98  O   UNL A   1      40.181  36.385  41.744  1.00  0.00    -0.237 OA
ATOM     99  O   UNL A   1      38.471  37.517  40.377  1.00  0.00    -0.744 OA
ENDBRANCH  95  96
ENDBRANCH  63  88
ENDBRANCH  37  38
ENDBRANCH  29  32
ENDBRANCH  27  28
ENDBRANCH  26  27
ENDBRANCH  25  26
ENDBRANCH   1  25
TORSDOF 20
ENDMDL
