MODEL 1
REMARK VINA RESULT:     -11.7      0.000      0.000
REMARK SMILES CCc1[nH]nc(-n2cccc2)c1C(=O)NCCCCCCNC(=O)c1ccc(-c2c3nc(c(-c4c(F)cc(S(=O)(=O)[O-])cc4F)c4ccc([nH]4)c(-c4c(F)cc(S(=O)(=O)[O-])cc4F)c4nc(c(-c5c(F)cc(S(=O)(=O)[O-])cc5F)c5ccc2[nH]5)C=C4)C=C3)cc1
REMARK SMILES IDX 19 1 18 2 17 3 16 4 15 5 13 6 14 7 12 9 3 10 4 11 5 12 6 14
REMARK SMILES IDX 2 15 1 16 7 17 8 18 11 19 9 20 10 21 20 22 21 23 22 24 23 25
REMARK SMILES IDX 24 27 25 28 26 29 90 30 27 31 89 32 28 33 29 34 30 35 83 36
REMARK SMILES IDX 31 37 88 38 82 39 84 40 32 41 87 42 81 43 80 44 33 46 67 47
REMARK SMILES IDX 46 48 66 49 47 50 50 51 65 52 85 53 48 54 49 55 64 57 86 58
REMARK SMILES IDX 51 59 34 60 35 61 44 62 36 63 37 64 43 65 45 66 38 67 39 68
REMARK SMILES IDX 40 69 41 70 42 71 68 72 69 73 78 74 70 75 71 76 77 77 79 78
REMARK SMILES IDX 72 79 73 80 74 81 75 82 76 83 52 84 53 85 62 86 54 87 55 88
REMARK SMILES IDX 61 89 63 90 56 91 57 92 58 93 59 94 60 95
REMARK H PARENT 15 8 4 13 22 26 84 45 50 56
REMARK Flexibility Score: inf
ROOT
ATOM      1  C   UNL A   1      33.481  26.404  25.828  1.00  0.00     0.002 C 
ENDROOT
BRANCH   1   2
ATOM      2  C   UNL A   1      32.809  26.258  24.457  1.00  0.00     0.002 C 
BRANCH   2   3
ATOM      3  C   UNL A   1      33.544  26.912  23.294  1.00  0.00     0.021 C 
BRANCH   3   4
ATOM      4  C   UNL A   1      32.775  28.010  22.582  1.00  0.00     0.116 C 
BRANCH   4   5
ATOM      5  N   UNL A   1      32.258  29.039  23.424  1.00  0.00    -0.352 N 
ATOM      6  C   UNL A   1      31.021  29.232  23.977  1.00  0.00     0.256 C 
ATOM      7  O   UNL A   1      31.040  30.075  24.881  1.00  0.00    -0.269 OA
ATOM      8  H   UNL A   1      32.912  29.741  23.649  1.00  0.00     0.163 HD
BRANCH   6   9
ATOM      9  C   UNL A   1      29.763  28.541  23.621  1.00  0.00     0.105 A 
ATOM     10  C   UNL A   1      29.233  27.240  23.774  1.00  0.00     0.050 A 
ATOM     11  N   UNL A   1      27.940  27.307  23.314  1.00  0.00    -0.280 N 
ATOM     12  N   UNL A   1      27.515  28.529  23.018  1.00  0.00    -0.156 NA
ATOM     13  H   UNL A   1      27.372  26.509  23.212  1.00  0.00     0.190 HD
ATOM     14  C   UNL A   1      28.635  29.254  23.072  1.00  0.00     0.171 A 
BRANCH  10  15
ATOM     15  C   UNL A   1      29.723  25.918  24.298  1.00  0.00     0.053 C 
ATOM     16  C   UNL A   1      29.743  25.725  25.809  1.00  0.00     0.011 C 
ENDBRANCH  10  15
BRANCH  14  17
ATOM     17  N   UNL A   1      28.543  30.603  22.608  1.00  0.00    -0.307 N 
ATOM     18  C   UNL A   1      28.751  31.759  23.335  1.00  0.00     0.093 A 
ATOM     19  C   UNL A   1      28.289  30.985  21.301  1.00  0.00     0.093 A 
ATOM     20  C   UNL A   1      28.537  32.850  22.521  1.00  0.00     0.020 A 
ATOM     21  C   UNL A   1      28.215  32.358  21.237  1.00  0.00     0.020 A 
ENDBRANCH  14  17
ENDBRANCH   6   9
ENDBRANCH   4   5
ENDBRANCH   3   4
ENDBRANCH   2   3
ENDBRANCH   1   2
BRANCH   1  22
ATOM     22  C   UNL A   1      33.637  27.839  26.359  1.00  0.00     0.021 C 
BRANCH  22  23
ATOM     23  C   UNL A   1      35.085  28.305  26.449  1.00  0.00     0.116 C 
BRANCH  23  24
ATOM     24  N   UNL A   1      35.144  29.694  26.870  1.00  0.00    -0.352 N 
ATOM     25  C   UNL A   1      35.984  30.312  27.757  1.00  0.00     0.251 C 
ATOM     26  H   UNL A   1      34.473  30.283  26.453  1.00  0.00     0.163 HD
ATOM     27  O   UNL A   1      35.678  31.407  28.209  1.00  0.00    -0.269 OA
BRANCH  25  28
ATOM     28  C   UNL A   1      37.237  29.662  28.181  1.00  0.00     0.039 A 
ATOM     29  C   UNL A   1      37.229  28.957  29.391  1.00  0.00     0.014 A 
ATOM     30  C   UNL A   1      38.418  29.811  27.447  1.00  0.00     0.014 A 
ATOM     31  C   UNL A   1      38.401  28.366  29.843  1.00  0.00     0.010 A 
ATOM     32  C   UNL A   1      39.575  29.179  27.867  1.00  0.00     0.010 A 
ATOM     33  C   UNL A   1      39.563  28.467  29.070  1.00  0.00    -0.014 A 
BRANCH  33  34
ATOM     34  C   UNL A   1      40.773  27.742  29.497  1.00  0.00     0.031 A 
ATOM     35  C   UNL A   1      40.969  26.445  28.678  1.00  0.00     0.074 A 
ATOM     36  C   UNL A   1      41.470  28.336  30.517  1.00  0.00     0.049 A 
ATOM     37  N   UNL A   1      41.569  25.338  28.989  1.00  0.00    -0.248 NA
ATOM     38  C   UNL A   1      40.336  26.333  27.330  1.00  0.00     0.031 C 
ATOM     39  C   UNL A   1      41.112  29.637  31.140  1.00  0.00     0.029 A 
ATOM     40  N   UNL A   1      42.599  28.009  31.235  1.00  0.00    -0.354 N 
ATOM     41  C   UNL A   1      41.595  24.519  27.831  1.00  0.00     0.074 A 
ATOM     42  C   UNL A   1      40.699  25.124  26.894  1.00  0.00     0.031 C 
ATOM     43  C   UNL A   1      41.937  29.933  32.166  1.00  0.00     0.029 A 
ATOM     44  C   UNL A   1      42.918  28.882  32.317  1.00  0.00     0.049 A 
ATOM     45  H   UNL A   1      43.150  27.222  31.016  1.00  0.00     0.167 HD
ATOM     46  C   UNL A   1      42.472  23.482  27.666  1.00  0.00     0.037 A 
ATOM     47  C   UNL A   1      43.880  28.739  33.284  1.00  0.00     0.037 A 
ATOM     48  C   UNL A   1      43.311  23.390  28.815  1.00  0.00     0.049 A 
ATOM     49  C   UNL A   1      44.672  27.586  32.844  1.00  0.00     0.074 A 
ATOM     50  C   UNL A   1      43.058  22.970  30.093  1.00  0.00     0.029 A 
ATOM     51  N   UNL A   1      44.462  24.146  28.799  1.00  0.00    -0.354 N 
ATOM     52  N   UNL A   1      45.478  27.600  31.826  1.00  0.00    -0.248 NA
ATOM     53  C   UNL A   1      44.472  26.291  33.503  1.00  0.00     0.031 C 
ATOM     54  C   UNL A   1      43.763  23.904  30.874  1.00  0.00     0.029 A 
ATOM     55  C   UNL A   1      44.621  24.660  30.061  1.00  0.00     0.049 A 
ATOM     56  H   UNL A   1      45.057  24.291  28.028  1.00  0.00     0.167 HD
ATOM     57  C   UNL A   1      45.584  26.267  31.518  1.00  0.00     0.074 A 
ATOM     58  C   UNL A   1      45.238  25.537  32.720  1.00  0.00     0.031 C 
ATOM     59  C   UNL A   1      45.399  25.867  30.232  1.00  0.00     0.037 A 
BRANCH  46  60
ATOM     60  C   UNL A   1      42.876  22.634  26.485  1.00  0.00     0.058 A 
ATOM     61  C   UNL A   1      42.449  21.279  26.467  1.00  0.00     0.135 A 
ATOM     62  C   UNL A   1      43.911  22.963  25.602  1.00  0.00     0.135 A 
ATOM     63  F   UNL A   1      41.412  20.876  27.222  1.00  0.00    -0.206 F 
ATOM     64  C   UNL A   1      43.109  20.290  25.745  1.00  0.00     0.059 A 
ATOM     65  C   UNL A   1      44.563  21.990  24.833  1.00  0.00     0.059 A 
ATOM     66  F   UNL A   1      44.374  24.218  25.519  1.00  0.00    -0.206 F 
ATOM     67  C   UNL A   1      44.195  20.651  24.960  1.00  0.00     0.060 A 
BRANCH  67  68
ATOM     68  S   UNL A   1      45.139  19.336  24.157  1.00  0.00     0.124 S 
ATOM     69  O   UNL A   1      44.762  18.171  24.949  1.00  0.00    -0.237 OA
ATOM     70  O   UNL A   1      44.617  19.369  22.794  1.00  0.00    -0.237 OA
ATOM     71  O   UNL A   1      46.522  19.781  24.301  1.00  0.00    -0.744 OA
ENDBRANCH  67  68
ENDBRANCH  46  60
BRANCH  47  72
ATOM     72  C   UNL A   1      44.248  29.322  34.637  1.00  0.00     0.058 A 
ATOM     73  C   UNL A   1      43.412  29.433  35.754  1.00  0.00     0.135 A 
ATOM     74  C   UNL A   1      45.615  29.638  34.904  1.00  0.00     0.135 A 
ATOM     75  F   UNL A   1      42.084  29.315  35.640  1.00  0.00    -0.206 F 
ATOM     76  C   UNL A   1      43.915  29.649  37.053  1.00  0.00     0.059 A 
ATOM     77  C   UNL A   1      46.144  29.794  36.181  1.00  0.00     0.059 A 
ATOM     78  F   UNL A   1      46.518  29.754  33.919  1.00  0.00    -0.206 F 
ATOM     79  C   UNL A   1      45.290  29.755  37.263  1.00  0.00     0.060 A 
BRANCH  79  80
ATOM     80  S   UNL A   1      45.983  29.690  38.930  1.00  0.00     0.124 S 
ATOM     81  O   UNL A   1      45.709  31.032  39.429  1.00  0.00    -0.237 OA
ATOM     82  O   UNL A   1      45.216  28.611  39.545  1.00  0.00    -0.237 OA
ATOM     83  O   UNL A   1      47.392  29.380  38.695  1.00  0.00    -0.744 OA
ENDBRANCH  79  80
ENDBRANCH  47  72
BRANCH  59  84
ATOM     84  C   UNL A   1      45.682  26.944  29.183  1.00  0.00     0.058 A 
ATOM     85  C   UNL A   1      46.971  27.497  29.069  1.00  0.00     0.135 A 
ATOM     86  C   UNL A   1      44.705  27.533  28.359  1.00  0.00     0.135 A 
ATOM     87  F   UNL A   1      47.984  26.984  29.788  1.00  0.00    -0.206 F 
ATOM     88  C   UNL A   1      47.261  28.578  28.227  1.00  0.00     0.059 A 
ATOM     89  C   UNL A   1      44.966  28.608  27.502  1.00  0.00     0.059 A 
ATOM     90  F   UNL A   1      43.454  27.075  28.356  1.00  0.00    -0.206 F 
ATOM     91  C   UNL A   1      46.248  29.135  27.448  1.00  0.00     0.060 A 
BRANCH  91  92
ATOM     92  S   UNL A   1      46.640  30.513  26.345  1.00  0.00     0.124 S 
ATOM     93  O   UNL A   1      45.690  31.536  26.770  1.00  0.00    -0.237 OA
ATOM     94  O   UNL A   1      48.039  30.776  26.667  1.00  0.00    -0.237 OA
ATOM     95  O   UNL A   1      46.404  29.967  25.010  1.00  0.00    -0.744 OA
ENDBRANCH  91  92
ENDBRANCH  59  84
ENDBRANCH  33  34
ENDBRANCH  25  28
ENDBRANCH  23  24
ENDBRANCH  22  23
ENDBRANCH   1  22
TORSDOF 18
ENDMDL
MODEL 2
REMARK VINA RESULT:     -11.5      4.193      9.253
REMARK SMILES CCc1[nH]nc(-n2cccc2)c1C(=O)NCCCCCCNC(=O)c1ccc(-c2c3nc(c(-c4c(F)cc(S(=O)(=O)[O-])cc4F)c4ccc([nH]4)c(-c4c(F)cc(S(=O)(=O)[O-])cc4F)c4nc(c(-c5c(F)cc(S(=O)(=O)[O-])cc5F)c5ccc2[nH]5)C=C4)C=C3)cc1
REMARK SMILES IDX 19 1 18 2 17 3 16 4 15 5 13 6 14 7 12 9 3 10 4 11 5 12 6 14
REMARK SMILES IDX 2 15 1 16 7 17 8 18 11 19 9 20 10 21 20 22 21 23 22 24 23 25
REMARK SMILES IDX 24 27 25 28 26 29 90 30 27 31 89 32 28 33 29 34 30 35 83 36
REMARK SMILES IDX 31 37 88 38 82 39 84 40 32 41 87 42 81 43 80 44 33 46 67 47
REMARK SMILES IDX 46 48 66 49 47 50 50 51 65 52 85 53 48 54 49 55 64 57 86 58
REMARK SMILES IDX 51 59 34 60 35 61 44 62 36 63 37 64 43 65 45 66 38 67 39 68
REMARK SMILES IDX 40 69 41 70 42 71 68 72 69 73 78 74 70 75 71 76 77 77 79 78
REMARK SMILES IDX 72 79 73 80 74 81 75 82 76 83 52 84 53 85 62 86 54 87 55 88
REMARK SMILES IDX 61 89 63 90 56 91 57 92 58 93 59 94 60 95
REMARK H PARENT 15 8 4 13 22 26 84 45 50 56
REMARK Flexibility Score: inf
ROOT
ATOM      1  C   UNL A   1      36.636  20.498  24.852  1.00  0.00     0.002 C 
ENDROOT
BRANCH   1   2
ATOM      2  C   UNL A   1      36.927  21.881  24.254  1.00  0.00     0.002 C 
BRANCH   2   3
ATOM      3  C   UNL A   1      36.698  23.061  25.190  1.00  0.00     0.021 C 
BRANCH   3   4
ATOM      4  C   UNL A   1      35.597  24.015  24.767  1.00  0.00     0.116 C 
BRANCH   4   5
ATOM      5  N   UNL A   1      34.949  23.695  23.537  1.00  0.00    -0.352 N 
ATOM      6  C   UNL A   1      33.737  23.119  23.265  1.00  0.00     0.256 C 
ATOM      7  O   UNL A   1      33.400  23.275  22.086  1.00  0.00    -0.269 OA
ATOM      8  H   UNL A   1      35.470  23.932  22.735  1.00  0.00     0.163 HD
BRANCH   6   9
ATOM      9  C   UNL A   1      32.853  22.402  24.210  1.00  0.00     0.105 A 
ATOM     10  C   UNL A   1      32.648  21.059  24.597  1.00  0.00     0.050 A 
ATOM     11  N   UNL A   1      31.740  21.102  25.628  1.00  0.00    -0.280 N 
ATOM     12  N   UNL A   1      31.439  22.322  26.057  1.00  0.00    -0.156 NA
ATOM     13  H   UNL A   1      31.342  20.290  26.017  1.00  0.00     0.190 HD
ATOM     14  C   UNL A   1      31.997  23.107  25.132  1.00  0.00     0.171 A 
BRANCH  10  15
ATOM     15  C   UNL A   1      33.172  19.712  24.180  1.00  0.00     0.053 C 
ATOM     16  C   UNL A   1      32.517  18.483  24.795  1.00  0.00     0.011 C 
ENDBRANCH  10  15
BRANCH  14  17
ATOM     17  N   UNL A   1      31.684  24.500  25.208  1.00  0.00    -0.307 N 
ATOM     18  C   UNL A   1      30.662  25.170  24.562  1.00  0.00     0.093 A 
ATOM     19  C   UNL A   1      32.329  25.423  26.016  1.00  0.00     0.093 A 
ATOM     20  C   UNL A   1      30.725  26.508  24.884  1.00  0.00     0.020 A 
ATOM     21  C   UNL A   1      31.801  26.673  25.784  1.00  0.00     0.020 A 
ENDBRANCH  14  17
ENDBRANCH   6   9
ENDBRANCH   4   5
ENDBRANCH   3   4
ENDBRANCH   2   3
ENDBRANCH   1   2
BRANCH   1  22
ATOM     22  C   UNL A   1      37.844  19.560  25.012  1.00  0.00     0.021 C 
BRANCH  22  23
ATOM     23  C   UNL A   1      39.005  20.182  25.778  1.00  0.00     0.116 C 
BRANCH  23  24
ATOM     24  N   UNL A   1      40.082  19.219  25.932  1.00  0.00    -0.352 N 
ATOM     25  C   UNL A   1      41.430  19.418  26.072  1.00  0.00     0.251 C 
ATOM     26  H   UNL A   1      39.798  18.276  25.936  1.00  0.00     0.163 HD
ATOM     27  O   UNL A   1      42.196  18.485  25.874  1.00  0.00    -0.269 OA
BRANCH  25  28
ATOM     28  C   UNL A   1      41.958  20.745  26.437  1.00  0.00     0.039 A 
ATOM     29  C   UNL A   1      42.329  21.608  25.398  1.00  0.00     0.014 A 
ATOM     30  C   UNL A   1      42.164  21.103  27.773  1.00  0.00     0.014 A 
ATOM     31  C   UNL A   1      42.869  22.849  25.703  1.00  0.00     0.010 A 
ATOM     32  C   UNL A   1      42.653  22.360  28.082  1.00  0.00     0.010 A 
ATOM     33  C   UNL A   1      43.013  23.224  27.044  1.00  0.00    -0.014 A 
BRANCH  33  34
ATOM     34  C   UNL A   1      43.479  24.585  27.361  1.00  0.00     0.031 A 
ATOM     35  C   UNL A   1      42.290  25.548  27.589  1.00  0.00     0.074 A 
ATOM     36  C   UNL A   1      44.841  24.736  27.386  1.00  0.00     0.049 A 
ATOM     37  N   UNL A   1      42.207  26.832  27.432  1.00  0.00    -0.248 NA
ATOM     38  C   UNL A   1      40.963  24.984  27.980  1.00  0.00     0.031 C 
ATOM     39  C   UNL A   1      45.818  23.636  27.175  1.00  0.00     0.029 A 
ATOM     40  N   UNL A   1      45.693  25.799  27.593  1.00  0.00    -0.354 N 
ATOM     41  C   UNL A   1      40.942  27.248  27.920  1.00  0.00     0.074 A 
ATOM     42  C   UNL A   1      40.175  26.055  28.106  1.00  0.00     0.031 C 
ATOM     43  C   UNL A   1      47.086  24.097  27.184  1.00  0.00     0.029 A 
ATOM     44  C   UNL A   1      47.080  25.525  27.411  1.00  0.00     0.049 A 
ATOM     45  H   UNL A   1      45.364  26.691  27.851  1.00  0.00     0.167 HD
ATOM     46  C   UNL A   1      40.666  28.538  28.283  1.00  0.00     0.037 A 
ATOM     47  C   UNL A   1      48.138  26.398  27.405  1.00  0.00     0.037 A 
ATOM     48  C   UNL A   1      41.830  29.338  28.093  1.00  0.00     0.049 A 
ATOM     49  C   UNL A   1      47.561  27.672  27.848  1.00  0.00     0.074 A 
ATOM     50  C   UNL A   1      42.444  29.793  26.957  1.00  0.00     0.029 A 
ATOM     51  N   UNL A   1      42.709  29.406  29.150  1.00  0.00    -0.354 N 
ATOM     52  N   UNL A   1      47.170  27.913  29.062  1.00  0.00    -0.248 NA
ATOM     53  C   UNL A   1      47.290  28.715  26.853  1.00  0.00     0.031 C 
ATOM     54  C   UNL A   1      43.809  29.629  27.255  1.00  0.00     0.029 A 
ATOM     55  C   UNL A   1      43.975  29.360  28.621  1.00  0.00     0.049 A 
ATOM     56  H   UNL A   1      42.476  29.474  30.104  1.00  0.00     0.167 HD
ATOM     57  C   UNL A   1      46.299  28.959  28.887  1.00  0.00     0.074 A 
ATOM     58  C   UNL A   1      46.657  29.587  27.632  1.00  0.00     0.031 C 
ATOM     59  C   UNL A   1      45.064  28.895  29.452  1.00  0.00     0.037 A 
BRANCH  46  60
ATOM     60  C   UNL A   1      39.532  29.190  29.036  1.00  0.00     0.058 A 
ATOM     61  C   UNL A   1      38.572  29.918  28.285  1.00  0.00     0.135 A 
ATOM     62  C   UNL A   1      39.544  29.432  30.415  1.00  0.00     0.135 A 
ATOM     63  F   UNL A   1      38.426  29.705  26.966  1.00  0.00    -0.206 F 
ATOM     64  C   UNL A   1      37.794  30.932  28.836  1.00  0.00     0.059 A 
ATOM     65  C   UNL A   1      38.739  30.418  30.999  1.00  0.00     0.059 A 
ATOM     66  F   UNL A   1      40.393  28.780  31.222  1.00  0.00    -0.206 F 
ATOM     67  C   UNL A   1      37.915  31.202  30.192  1.00  0.00     0.060 A 
BRANCH  67  68
ATOM     68  S   UNL A   1      37.020  32.621  30.861  1.00  0.00     0.124 S 
ATOM     69  O   UNL A   1      35.662  32.365  30.395  1.00  0.00    -0.237 OA
ATOM     70  O   UNL A   1      37.233  32.473  32.297  1.00  0.00    -0.237 OA
ATOM     71  O   UNL A   1      37.695  33.762  30.249  1.00  0.00    -0.744 OA
ENDBRANCH  67  68
ENDBRANCH  46  60
BRANCH  47  72
ATOM     72  C   UNL A   1      49.596  26.438  26.985  1.00  0.00     0.058 A 
ATOM     73  C   UNL A   1      50.710  26.353  27.827  1.00  0.00     0.135 A 
ATOM     74  C   UNL A   1      49.916  26.376  25.594  1.00  0.00     0.135 A 
ATOM     75  F   UNL A   1      50.597  26.542  29.147  1.00  0.00    -0.206 F 
ATOM     76  C   UNL A   1      51.998  26.042  27.344  1.00  0.00     0.059 A 
ATOM     77  C   UNL A   1      51.163  26.012  25.096  1.00  0.00     0.059 A 
ATOM     78  F   UNL A   1      48.998  26.617  24.647  1.00  0.00    -0.206 F 
ATOM     79  C   UNL A   1      52.197  25.803  25.984  1.00  0.00     0.060 A 
BRANCH  79  80
ATOM     80  S   UNL A   1      53.739  25.078  25.385  1.00  0.00     0.124 S 
ATOM     81  O   UNL A   1      53.948  25.794  24.131  1.00  0.00    -0.237 OA
ATOM     82  O   UNL A   1      54.672  25.393  26.462  1.00  0.00    -0.237 OA
ATOM     83  O   UNL A   1      53.414  23.660  25.254  1.00  0.00    -0.744 OA
ENDBRANCH  79  80
ENDBRANCH  47  72
BRANCH  59  84
ATOM     84  C   UNL A   1      44.971  27.989  30.681  1.00  0.00     0.058 A 
ATOM     85  C   UNL A   1      45.739  28.273  31.826  1.00  0.00     0.135 A 
ATOM     86  C   UNL A   1      44.239  26.789  30.735  1.00  0.00     0.135 A 
ATOM     87  F   UNL A   1      46.448  29.412  31.889  1.00  0.00    -0.206 F 
ATOM     88  C   UNL A   1      45.804  27.411  32.928  1.00  0.00     0.059 A 
ATOM     89  C   UNL A   1      44.277  25.911  31.825  1.00  0.00     0.059 A 
ATOM     90  F   UNL A   1      43.452  26.428  29.724  1.00  0.00    -0.206 F 
ATOM     91  C   UNL A   1      45.073  26.225  32.918  1.00  0.00     0.060 A 
BRANCH  91  92
ATOM     92  S   UNL A   1      45.143  25.132  34.357  1.00  0.00     0.124 S 
ATOM     93  O   UNL A   1      43.958  24.301  34.180  1.00  0.00    -0.237 OA
ATOM     94  O   UNL A   1      46.424  24.457  34.167  1.00  0.00    -0.237 OA
ATOM     95  O   UNL A   1      45.091  26.051  35.493  1.00  0.00    -0.744 OA
ENDBRANCH  91  92
ENDBRANCH  59  84
ENDBRANCH  33  34
ENDBRANCH  25  28
ENDBRANCH  23  24
ENDBRANCH  22  23
ENDBRANCH   1  22
TORSDOF 18
ENDMDL
MODEL 3
REMARK VINA RESULT:     -11.5      3.956      7.505
REMARK SMILES CCc1[nH]nc(-n2cccc2)c1C(=O)NCCCCCCNC(=O)c1ccc(-c2c3nc(c(-c4c(F)cc(S(=O)(=O)[O-])cc4F)c4ccc([nH]4)c(-c4c(F)cc(S(=O)(=O)[O-])cc4F)c4nc(c(-c5c(F)cc(S(=O)(=O)[O-])cc5F)c5ccc2[nH]5)C=C4)C=C3)cc1
REMARK SMILES IDX 19 1 18 2 17 3 16 4 15 5 13 6 14 7 12 9 3 10 4 11 5 12 6 14
REMARK SMILES IDX 2 15 1 16 7 17 8 18 11 19 9 20 10 21 20 22 21 23 22 24 23 25
REMARK SMILES IDX 24 27 25 28 26 29 90 30 27 31 89 32 28 33 29 34 30 35 83 36
REMARK SMILES IDX 31 37 88 38 82 39 84 40 32 41 87 42 81 43 80 44 33 46 67 47
REMARK SMILES IDX 46 48 66 49 47 50 50 51 65 52 85 53 48 54 49 55 64 57 86 58
REMARK SMILES IDX 51 59 34 60 35 61 44 62 36 63 37 64 43 65 45 66 38 67 39 68
REMARK SMILES IDX 40 69 41 70 42 71 68 72 69 73 78 74 70 75 71 76 77 77 79 78
REMARK SMILES IDX 72 79 73 80 74 81 75 82 76 83 52 84 53 85 62 86 54 87 55 88
REMARK SMILES IDX 61 89 63 90 56 91 57 92 58 93 59 94 60 95
REMARK H PARENT 15 8 4 13 22 26 84 45 50 56
REMARK Flexibility Score: inf
ROOT
ATOM      1  C   UNL A   1      38.465  32.168  30.751  1.00  0.00     0.002 C 
ENDROOT
BRANCH   1   2
ATOM      2  C   UNL A   1      39.683  33.007  30.344  1.00  0.00     0.002 C 
BRANCH   2   3
ATOM      3  C   UNL A   1      40.122  34.059  31.356  1.00  0.00     0.021 C 
BRANCH   3   4
ATOM      4  C   UNL A   1      39.611  33.846  32.768  1.00  0.00     0.116 C 
BRANCH   4   5
ATOM      5  N   UNL A   1      40.610  33.546  33.741  1.00  0.00    -0.352 N 
ATOM      6  C   UNL A   1      40.655  32.620  34.749  1.00  0.00     0.256 C 
ATOM      7  O   UNL A   1      41.799  32.465  35.190  1.00  0.00    -0.269 OA
ATOM      8  H   UNL A   1      41.416  34.108  33.677  1.00  0.00     0.163 HD
BRANCH   6   9
ATOM      9  C   UNL A   1      39.528  31.830  35.291  1.00  0.00     0.105 A 
ATOM     10  C   UNL A   1      38.775  30.709  34.878  1.00  0.00     0.050 A 
ATOM     11  N   UNL A   1      37.938  30.414  35.928  1.00  0.00    -0.280 N 
ATOM     12  N   UNL A   1      38.158  31.117  37.032  1.00  0.00    -0.156 NA
ATOM     13  H   UNL A   1      37.229  29.734  35.865  1.00  0.00     0.190 HD
ATOM     14  C   UNL A   1      39.015  32.054  36.621  1.00  0.00     0.171 A 
BRANCH  10  15
ATOM     15  C   UNL A   1      38.705  29.831  33.658  1.00  0.00     0.053 C 
ATOM     16  C   UNL A   1      37.339  29.629  33.016  1.00  0.00     0.011 C 
ENDBRANCH  10  15
BRANCH  14  17
ATOM     17  N   UNL A   1      39.306  33.102  37.549  1.00  0.00    -0.307 N 
ATOM     18  C   UNL A   1      40.233  33.086  38.574  1.00  0.00     0.093 A 
ATOM     19  C   UNL A   1      38.739  34.366  37.533  1.00  0.00     0.093 A 
ATOM     20  C   UNL A   1      40.179  34.285  39.250  1.00  0.00     0.020 A 
ATOM     21  C   UNL A   1      39.210  35.086  38.607  1.00  0.00     0.020 A 
ENDBRANCH  14  17
ENDBRANCH   6   9
ENDBRANCH   4   5
ENDBRANCH   3   4
ENDBRANCH   2   3
ENDBRANCH   1   2
BRANCH   1  22
ATOM     22  C   UNL A   1      37.103  32.644  30.218  1.00  0.00     0.021 C 
BRANCH  22  23
ATOM     23  C   UNL A   1      37.024  32.691  28.697  1.00  0.00     0.116 C 
BRANCH  23  24
ATOM     24  N   UNL A   1      36.055  31.724  28.211  1.00  0.00    -0.352 N 
ATOM     25  C   UNL A   1      36.215  30.404  27.881  1.00  0.00     0.251 C 
ATOM     26  H   UNL A   1      35.140  32.071  28.102  1.00  0.00     0.163 HD
ATOM     27  O   UNL A   1      35.362  29.850  27.201  1.00  0.00    -0.269 OA
BRANCH  25  28
ATOM     28  C   UNL A   1      37.409  29.660  28.319  1.00  0.00     0.039 A 
ATOM     29  C   UNL A   1      38.551  29.723  27.510  1.00  0.00     0.014 A 
ATOM     30  C   UNL A   1      37.384  28.850  29.459  1.00  0.00     0.014 A 
ATOM     31  C   UNL A   1      39.681  29.002  27.869  1.00  0.00     0.010 A 
ATOM     32  C   UNL A   1      38.525  28.173  29.849  1.00  0.00     0.010 A 
ATOM     33  C   UNL A   1      39.666  28.244  29.046  1.00  0.00    -0.014 A 
BRANCH  33  34
ATOM     34  C   UNL A   1      40.905  27.574  29.481  1.00  0.00     0.031 A 
ATOM     35  C   UNL A   1      41.164  26.287  28.664  1.00  0.00     0.074 A 
ATOM     36  C   UNL A   1      41.568  28.199  30.505  1.00  0.00     0.049 A 
ATOM     37  N   UNL A   1      41.811  25.208  28.979  1.00  0.00    -0.248 NA
ATOM     38  C   UNL A   1      40.545  26.147  27.312  1.00  0.00     0.031 C 
ATOM     39  C   UNL A   1      41.149  29.483  31.125  1.00  0.00     0.029 A 
ATOM     40  N   UNL A   1      42.706  27.923  31.231  1.00  0.00    -0.354 N 
ATOM     41  C   UNL A   1      41.881  24.391  27.821  1.00  0.00     0.074 A 
ATOM     42  C   UNL A   1      40.965  24.955  26.879  1.00  0.00     0.031 C 
ATOM     43  C   UNL A   1      41.953  29.816  32.156  1.00  0.00     0.029 A 
ATOM     44  C   UNL A   1      42.979  28.809  32.313  1.00  0.00     0.049 A 
ATOM     45  H   UNL A   1      43.293  27.162  31.015  1.00  0.00     0.167 HD
ATOM     46  C   UNL A   1      42.805  23.394  27.663  1.00  0.00     0.037 A 
ATOM     47  C   UNL A   1      43.940  28.710  33.287  1.00  0.00     0.037 A 
ATOM     48  C   UNL A   1      43.639  23.340  28.817  1.00  0.00     0.049 A 
ATOM     49  C   UNL A   1      44.786  27.593  32.852  1.00  0.00     0.074 A 
ATOM     50  C   UNL A   1      43.398  22.909  30.094  1.00  0.00     0.029 A 
ATOM     51  N   UNL A   1      44.755  24.146  28.808  1.00  0.00    -0.354 N 
ATOM     52  N   UNL A   1      45.597  27.643  31.840  1.00  0.00    -0.248 NA
ATOM     53  C   UNL A   1      44.639  26.291  33.511  1.00  0.00     0.031 C 
ATOM     54  C   UNL A   1      44.055  23.875  30.878  1.00  0.00     0.029 A 
ATOM     55  C   UNL A   1      44.884  24.667  30.070  1.00  0.00     0.049 A 
ATOM     56  H   UNL A   1      45.348  24.318  28.040  1.00  0.00     0.167 HD
ATOM     57  C   UNL A   1      45.765  26.317  31.533  1.00  0.00     0.074 A 
ATOM     58  C   UNL A   1      45.444  25.572  32.733  1.00  0.00     0.031 C 
ATOM     59  C   UNL A   1      45.605  25.909  30.246  1.00  0.00     0.037 A 
BRANCH  46  60
ATOM     60  C   UNL A   1      43.253  22.565  26.485  1.00  0.00     0.058 A 
ATOM     61  C   UNL A   1      42.713  21.258  26.352  1.00  0.00     0.135 A 
ATOM     62  C   UNL A   1      44.400  22.834  25.728  1.00  0.00     0.135 A 
ATOM     63  F   UNL A   1      41.571  20.920  26.976  1.00  0.00    -0.206 F 
ATOM     64  C   UNL A   1      43.355  20.244  25.648  1.00  0.00     0.059 A 
ATOM     65  C   UNL A   1      45.041  21.840  24.978  1.00  0.00     0.059 A 
ATOM     66  F   UNL A   1      44.978  24.043  25.759  1.00  0.00    -0.206 F 
ATOM     67  C   UNL A   1      44.545  20.536  24.996  1.00  0.00     0.060 A 
BRANCH  67  68
ATOM     68  S   UNL A   1      45.448  19.176  24.223  1.00  0.00     0.124 S 
ATOM     69  O   UNL A   1      45.254  18.101  25.190  1.00  0.00    -0.237 OA
ATOM     70  O   UNL A   1      44.744  19.019  22.954  1.00  0.00    -0.237 OA
ATOM     71  O   UNL A   1      46.808  19.694  24.116  1.00  0.00    -0.744 OA
ENDBRANCH  67  68
ENDBRANCH  46  60
BRANCH  47  72
ATOM     72  C   UNL A   1      44.273  29.309  34.642  1.00  0.00     0.058 A 
ATOM     73  C   UNL A   1      45.359  30.138  34.944  1.00  0.00     0.135 A 
ATOM     74  C   UNL A   1      43.323  29.191  35.701  1.00  0.00     0.135 A 
ATOM     75  F   UNL A   1      46.407  30.237  34.117  1.00  0.00    -0.206 F 
ATOM     76  C   UNL A   1      45.402  30.928  36.111  1.00  0.00     0.059 A 
ATOM     77  C   UNL A   1      43.311  30.001  36.832  1.00  0.00     0.059 A 
ATOM     78  F   UNL A   1      42.317  28.305  35.652  1.00  0.00    -0.206 F 
ATOM     79  C   UNL A   1      44.337  30.904  37.012  1.00  0.00     0.060 A 
BRANCH  79  80
ATOM     80  S   UNL A   1      44.203  32.139  38.324  1.00  0.00     0.124 S 
ATOM     81  O   UNL A   1      45.588  32.275  38.760  1.00  0.00    -0.237 OA
ATOM     82  O   UNL A   1      43.641  33.286  37.618  1.00  0.00    -0.237 OA
ATOM     83  O   UNL A   1      43.299  31.511  39.284  1.00  0.00    -0.744 OA
ENDBRANCH  79  80
ENDBRANCH  47  72
BRANCH  59  84
ATOM     84  C   UNL A   1      45.846  26.996  29.198  1.00  0.00     0.058 A 
ATOM     85  C   UNL A   1      47.114  27.598  29.083  1.00  0.00     0.135 A 
ATOM     86  C   UNL A   1      44.847  27.549  28.376  1.00  0.00     0.135 A 
ATOM     87  F   UNL A   1      48.146  27.123  29.801  1.00  0.00    -0.206 F 
ATOM     88  C   UNL A   1      47.361  28.691  28.243  1.00  0.00     0.059 A 
ATOM     89  C   UNL A   1      45.066  28.635  27.520  1.00  0.00     0.059 A 
ATOM     90  F   UNL A   1      43.615  27.045  28.373  1.00  0.00    -0.206 F 
ATOM     91  C   UNL A   1      46.328  29.210  27.466  1.00  0.00     0.060 A 
BRANCH  91  92
ATOM     92  S   UNL A   1      46.666  30.603  26.365  1.00  0.00     0.124 S 
ATOM     93  O   UNL A   1      48.077  30.873  26.621  1.00  0.00    -0.237 OA
ATOM     94  O   UNL A   1      46.358  30.040  25.054  1.00  0.00    -0.237 OA
ATOM     95  O   UNL A   1      45.744  31.640  26.824  1.00  0.00    -0.744 OA
ENDBRANCH  91  92
ENDBRANCH  59  84
ENDBRANCH  33  34
ENDBRANCH  25  28
ENDBRANCH  23  24
ENDBRANCH  22  23
ENDBRANCH   1  22
TORSDOF 18
ENDMDL
