MODEL 1
REMARK VINA RESULT:     -11.6      0.000      0.000
REMARK SMILES CCOc1ccc(NC(=O)N2CC[C@@H](C(=O)NCCCCCCNC(=O)c3ccc(-c4c5nc(c(-c6c(F)cc(S(=O)(=O)[O-])cc6F)c6ccc([nH]6)c(-c6c(F)cc(S(=O)(=O)[O-])cc6F)c6nc(c(-c7c(F)cc(S(=O)(=O)[O-])cc7F)c7ccc4[nH]7)C=C6)C=C5)cc3)[C@@H]2C)cc1
REMARK SMILES IDX 20 1 19 2 18 3 17 4 15 5 16 6 14 8 11 9 12 10 93 11 13 12
REMARK SMILES IDX 94 13 9 14 8 15 10 17 7 18 4 19 5 20 96 21 6 22 95 23 3 24
REMARK SMILES IDX 2 25 1 26 21 27 22 28 23 29 24 30 25 31 26 33 27 34 28 35
REMARK SMILES IDX 92 36 29 37 91 38 30 39 31 40 32 41 85 42 33 43 90 44 84 45
REMARK SMILES IDX 86 46 34 47 89 48 83 49 82 50 35 52 69 53 48 54 68 55 49 56
REMARK SMILES IDX 52 57 67 58 87 59 50 60 51 61 66 63 88 64 53 65 36 66 37 67
REMARK SMILES IDX 46 68 38 69 39 70 45 71 47 72 40 73 41 74 42 75 43 76 44 77
REMARK SMILES IDX 70 78 71 79 80 80 72 81 73 82 79 83 81 84 74 85 75 86 76 87
REMARK SMILES IDX 77 88 78 89 54 90 55 91 64 92 56 93 57 94 63 95 65 96 58 97
REMARK SMILES IDX 59 98 60 99 61 100 62 101
REMARK H PARENT 17 7 8 16 24 32 86 51 52 62
REMARK Flexibility Score: inf
ROOT
ATOM      1  C   UNL A   1      37.680  23.039  25.993  1.00  0.00     0.002 C 
ENDROOT
BRANCH   1   2
ATOM      2  C   UNL A   1      37.884  21.628  25.439  1.00  0.00     0.021 C 
BRANCH   2   3
ATOM      3  C   UNL A   1      36.887  21.141  24.387  1.00  0.00     0.116 C 
BRANCH   3   4
ATOM      4  N   UNL A   1      35.643  20.625  24.948  1.00  0.00    -0.356 N 
ATOM      5  C   UNL A   1      34.347  21.025  24.901  1.00  0.00     0.225 C 
ATOM      6  O   UNL A   1      33.540  20.288  25.488  1.00  0.00    -0.275 OA
ATOM      7  H   UNL A   1      35.774  19.806  25.478  1.00  0.00     0.163 HD
BRANCH   5   8
ATOM      8  C   UNL A   1      33.812  22.311  24.263  1.00  0.00     0.102 C 
ATOM      9  N   UNL A   1      32.592  23.654  25.726  1.00  0.00    -0.321 N 
ATOM     10  C   UNL A   1      33.697  24.502  25.304  1.00  0.00     0.122 C 
ATOM     11  C   UNL A   1      32.377  22.650  24.693  1.00  0.00     0.096 C 
ATOM     12  C   UNL A   1      34.620  23.590  24.498  1.00  0.00     0.037 C 
ATOM     13  C   UNL A   1      31.529  23.203  23.538  1.00  0.00     0.032 C 
BRANCH   9  14
ATOM     14  C   UNL A   1      31.747  24.121  26.677  1.00  0.00     0.322 C 
ATOM     15  N   UNL A   1      31.027  25.262  26.587  1.00  0.00    -0.308 N 
ATOM     16  H   UNL A   1      30.612  25.478  27.453  1.00  0.00     0.171 HD
ATOM     17  O   UNL A   1      31.485  23.415  27.660  1.00  0.00    -0.248 OA
BRANCH  15  18
ATOM     18  C   UNL A   1      30.691  26.236  25.624  1.00  0.00     0.043 A 
ATOM     19  C   UNL A   1      30.045  27.823  23.386  1.00  0.00     0.119 A 
ATOM     20  C   UNL A   1      31.129  28.151  24.170  1.00  0.00     0.048 A 
ATOM     21  C   UNL A   1      29.215  26.770  23.748  1.00  0.00     0.048 A 
ATOM     22  C   UNL A   1      31.460  27.327  25.246  1.00  0.00     0.030 A 
ATOM     23  C   UNL A   1      29.515  26.008  24.888  1.00  0.00     0.030 A 
BRANCH  19  24
ATOM     24  O   UNL A   1      29.993  28.350  22.131  1.00  0.00    -0.494 OA
BRANCH  24  25
ATOM     25  C   UNL A   1      29.892  29.770  22.124  1.00  0.00     0.226 C 
ATOM     26  C   UNL A   1      28.509  30.117  21.614  1.00  0.00     0.049 C 
ENDBRANCH  24  25
ENDBRANCH  19  24
ENDBRANCH  15  18
ENDBRANCH   9  14
ENDBRANCH   5   8
ENDBRANCH   3   4
ENDBRANCH   2   3
ENDBRANCH   1   2
BRANCH   1  27
ATOM     27  C   UNL A   1      38.914  23.637  26.674  1.00  0.00     0.002 C 
BRANCH  27  28
ATOM     28  C   UNL A   1      40.017  22.640  27.054  1.00  0.00     0.021 C 
BRANCH  28  29
ATOM     29  C   UNL A   1      41.403  23.245  27.273  1.00  0.00     0.116 C 
BRANCH  29  30
ATOM     30  N   UNL A   1      41.818  24.071  26.149  1.00  0.00    -0.352 N 
ATOM     31  C   UNL A   1      41.871  25.442  26.058  1.00  0.00     0.251 C 
ATOM     32  H   UNL A   1      42.101  23.581  25.344  1.00  0.00     0.163 HD
ATOM     33  O   UNL A   1      42.015  25.986  24.968  1.00  0.00    -0.269 OA
BRANCH  31  34
ATOM     34  C   UNL A   1      41.736  26.261  27.284  1.00  0.00     0.039 A 
ATOM     35  C   UNL A   1      42.725  27.199  27.590  1.00  0.00     0.014 A 
ATOM     36  C   UNL A   1      40.635  26.097  28.130  1.00  0.00     0.014 A 
ATOM     37  C   UNL A   1      42.575  28.020  28.710  1.00  0.00     0.010 A 
ATOM     38  C   UNL A   1      40.458  26.959  29.210  1.00  0.00     0.010 A 
ATOM     39  C   UNL A   1      41.423  27.931  29.511  1.00  0.00    -0.014 A 
BRANCH  39  40
ATOM     40  C   UNL A   1      41.205  28.860  30.652  1.00  0.00     0.031 A 
ATOM     41  C   UNL A   1      42.014  28.721  31.913  1.00  0.00     0.074 A 
ATOM     42  C   UNL A   1      40.230  29.787  30.578  1.00  0.00     0.049 A 
ATOM     43  N   UNL A   1      41.921  29.393  33.032  1.00  0.00    -0.248 NA
ATOM     44  C   UNL A   1      43.044  27.673  31.926  1.00  0.00     0.031 C 
ATOM     45  C   UNL A   1      39.340  29.986  29.432  1.00  0.00     0.029 A 
ATOM     46  N   UNL A   1      39.810  30.724  31.489  1.00  0.00    -0.354 N 
ATOM     47  C   UNL A   1      42.876  28.849  33.882  1.00  0.00     0.074 A 
ATOM     48  C   UNL A   1      43.496  27.752  33.170  1.00  0.00     0.031 C 
ATOM     49  C   UNL A   1      38.488  30.986  29.705  1.00  0.00     0.029 A 
ATOM     50  C   UNL A   1      38.744  31.477  31.056  1.00  0.00     0.049 A 
ATOM     51  H   UNL A   1      40.232  30.845  32.371  1.00  0.00     0.167 HD
ATOM     52  C   UNL A   1      43.223  29.241  35.133  1.00  0.00     0.037 A 
ATOM     53  C   UNL A   1      38.041  32.444  31.678  1.00  0.00     0.037 A 
ATOM     54  C   UNL A   1      42.605  30.335  35.836  1.00  0.00     0.049 A 
ATOM     55  C   UNL A   1      38.435  32.860  33.068  1.00  0.00     0.074 A 
ATOM     56  C   UNL A   1      42.915  30.841  37.086  1.00  0.00     0.029 A 
ATOM     57  N   UNL A   1      41.544  31.091  35.355  1.00  0.00    -0.354 N 
ATOM     58  N   UNL A   1      39.387  32.378  33.834  1.00  0.00    -0.248 NA
ATOM     59  C   UNL A   1      37.667  33.952  33.679  1.00  0.00     0.031 C 
ATOM     60  C   UNL A   1      42.014  31.871  37.379  1.00  0.00     0.029 A 
ATOM     61  C   UNL A   1      41.174  32.043  36.291  1.00  0.00     0.049 A 
ATOM     62  H   UNL A   1      41.117  30.968  34.476  1.00  0.00     0.167 HD
ATOM     63  C   UNL A   1      39.342  33.119  35.009  1.00  0.00     0.074 A 
ATOM     64  C   UNL A   1      38.282  34.094  34.847  1.00  0.00     0.031 C 
ATOM     65  C   UNL A   1      40.111  33.003  36.120  1.00  0.00     0.037 A 
BRANCH  52  66
ATOM     66  C   UNL A   1      44.325  28.476  35.816  1.00  0.00     0.058 A 
ATOM     67  C   UNL A   1      44.051  27.379  36.651  1.00  0.00     0.135 A 
ATOM     68  C   UNL A   1      45.670  28.833  35.629  1.00  0.00     0.135 A 
ATOM     69  F   UNL A   1      42.781  27.001  36.874  1.00  0.00    -0.206 F 
ATOM     70  C   UNL A   1      45.065  26.695  37.311  1.00  0.00     0.059 A 
ATOM     71  C   UNL A   1      46.704  28.141  36.257  1.00  0.00     0.059 A 
ATOM     72  F   UNL A   1      45.993  29.869  34.839  1.00  0.00    -0.206 F 
ATOM     73  C   UNL A   1      46.389  27.087  37.113  1.00  0.00     0.060 A 
BRANCH  73  74
ATOM     74  S   UNL A   1      47.692  26.204  37.998  1.00  0.00     0.124 S 
ATOM     75  O   UNL A   1      48.872  26.576  37.224  1.00  0.00    -0.237 OA
ATOM     76  O   UNL A   1      47.606  26.777  39.336  1.00  0.00    -0.237 OA
ATOM     77  O   UNL A   1      47.287  24.805  37.890  1.00  0.00    -0.744 OA
ENDBRANCH  73  74
ENDBRANCH  52  66
BRANCH  53  78
ATOM     78  C   UNL A   1      36.900  33.088  30.975  1.00  0.00     0.058 A 
ATOM     79  C   UNL A   1      37.112  34.079  30.005  1.00  0.00     0.135 A 
ATOM     80  C   UNL A   1      35.577  32.695  31.230  1.00  0.00     0.135 A 
ATOM     81  F   UNL A   1      38.358  34.495  29.732  1.00  0.00    -0.206 F 
ATOM     82  C   UNL A   1      36.053  34.659  29.313  1.00  0.00     0.059 A 
ATOM     83  C   UNL A   1      34.504  33.243  30.534  1.00  0.00     0.059 A 
ATOM     84  F   UNL A   1      35.323  31.740  32.138  1.00  0.00    -0.206 F 
ATOM     85  C   UNL A   1      34.752  34.228  29.580  1.00  0.00     0.060 A 
BRANCH  85  86
ATOM     86  S   UNL A   1      33.392  34.932  28.622  1.00  0.00     0.124 S 
ATOM     87  O   UNL A   1      32.504  35.405  29.676  1.00  0.00    -0.237 OA
ATOM     88  O   UNL A   1      34.068  35.965  27.844  1.00  0.00    -0.237 OA
ATOM     89  O   UNL A   1      32.905  33.795  27.847  1.00  0.00    -0.744 OA
ENDBRANCH  85  86
ENDBRANCH  53  78
BRANCH  65  90
ATOM     90  C   UNL A   1      39.844  33.961  37.250  1.00  0.00     0.058 A 
ATOM     91  C   UNL A   1      38.939  33.655  38.278  1.00  0.00     0.135 A 
ATOM     92  C   UNL A   1      40.543  35.177  37.332  1.00  0.00     0.135 A 
ATOM     93  F   UNL A   1      38.240  32.510  38.243  1.00  0.00    -0.206 F 
ATOM     94  C   UNL A   1      38.722  34.528  39.338  1.00  0.00     0.059 A 
ATOM     95  C   UNL A   1      40.361  36.054  38.398  1.00  0.00     0.059 A 
ATOM     96  F   UNL A   1      41.427  35.516  36.380  1.00  0.00    -0.206 F 
ATOM     97  C   UNL A   1      39.440  35.724  39.392  1.00  0.00     0.060 A 
BRANCH  97  98
ATOM     98  S   UNL A   1      39.178  36.831  40.794  1.00  0.00     0.124 S 
ATOM     99  O   UNL A   1      38.330  37.861  40.201  1.00  0.00    -0.237 OA
ATOM    100  O   UNL A   1      38.526  35.956  41.764  1.00  0.00    -0.237 OA
ATOM    101  O   UNL A   1      40.528  37.256  41.150  1.00  0.00    -0.744 OA
ENDBRANCH  97  98
ENDBRANCH  65  90
ENDBRANCH  39  40
ENDBRANCH  31  34
ENDBRANCH  29  30
ENDBRANCH  28  29
ENDBRANCH  27  28
ENDBRANCH   1  27
TORSDOF 20
ENDMDL
MODEL 2
REMARK VINA RESULT:     -11.2      6.297     11.886
REMARK SMILES CCOc1ccc(NC(=O)N2CC[C@@H](C(=O)NCCCCCCNC(=O)c3ccc(-c4c5nc(c(-c6c(F)cc(S(=O)(=O)[O-])cc6F)c6ccc([nH]6)c(-c6c(F)cc(S(=O)(=O)[O-])cc6F)c6nc(c(-c7c(F)cc(S(=O)(=O)[O-])cc7F)c7ccc4[nH]7)C=C6)C=C5)cc3)[C@@H]2C)cc1
REMARK SMILES IDX 20 1 19 2 18 3 17 4 15 5 16 6 14 8 11 9 12 10 93 11 13 12
REMARK SMILES IDX 94 13 9 14 8 15 10 17 7 18 4 19 5 20 96 21 6 22 95 23 3 24
REMARK SMILES IDX 2 25 1 26 21 27 22 28 23 29 24 30 25 31 26 33 27 34 28 35
REMARK SMILES IDX 92 36 29 37 91 38 30 39 31 40 32 41 85 42 33 43 90 44 84 45
REMARK SMILES IDX 86 46 34 47 89 48 83 49 82 50 35 52 69 53 48 54 68 55 49 56
REMARK SMILES IDX 52 57 67 58 87 59 50 60 51 61 66 63 88 64 53 65 36 66 37 67
REMARK SMILES IDX 46 68 38 69 39 70 45 71 47 72 40 73 41 74 42 75 43 76 44 77
REMARK SMILES IDX 70 78 71 79 80 80 72 81 73 82 79 83 81 84 74 85 75 86 76 87
REMARK SMILES IDX 77 88 78 89 54 90 55 91 64 92 56 93 57 94 63 95 65 96 58 97
REMARK SMILES IDX 59 98 60 99 61 100 62 101
REMARK H PARENT 17 7 8 16 24 32 86 51 52 62
REMARK Flexibility Score: inf
ROOT
ATOM      1  C   UNL A   1      34.020  29.512  27.196  1.00  0.00     0.002 C 
ENDROOT
BRANCH   1   2
ATOM      2  C   UNL A   1      33.286  28.172  27.124  1.00  0.00     0.021 C 
BRANCH   2   3
ATOM      3  C   UNL A   1      31.807  28.166  27.511  1.00  0.00     0.116 C 
BRANCH   3   4
ATOM      4  N   UNL A   1      31.039  27.094  26.888  1.00  0.00    -0.356 N 
ATOM      5  C   UNL A   1      30.707  26.788  25.609  1.00  0.00     0.225 C 
ATOM      6  O   UNL A   1      30.054  25.744  25.462  1.00  0.00    -0.275 OA
ATOM      7  H   UNL A   1      30.682  26.450  27.542  1.00  0.00     0.163 HD
BRANCH   5   8
ATOM      8  C   UNL A   1      31.000  27.633  24.364  1.00  0.00     0.102 C 
ATOM      9  N   UNL A   1      32.152  26.484  22.694  1.00  0.00    -0.321 N 
ATOM     10  C   UNL A   1      30.907  26.884  22.055  1.00  0.00     0.122 C 
ATOM     11  C   UNL A   1      32.408  27.404  23.793  1.00  0.00     0.096 C 
ATOM     12  C   UNL A   1      30.049  27.469  23.175  1.00  0.00     0.037 C 
ATOM     13  C   UNL A   1      33.063  28.703  23.300  1.00  0.00     0.032 C 
BRANCH   9  14
ATOM     14  C   UNL A   1      33.008  25.694  22.001  1.00  0.00     0.322 C 
ATOM     15  N   UNL A   1      33.398  24.454  22.374  1.00  0.00    -0.308 N 
ATOM     16  H   UNL A   1      34.138  24.140  21.806  1.00  0.00     0.171 HD
ATOM     17  O   UNL A   1      33.379  26.041  20.872  1.00  0.00    -0.248 OA
BRANCH  15  18
ATOM     18  C   UNL A   1      33.064  23.476  23.333  1.00  0.00     0.043 A 
ATOM     19  C   UNL A   1      32.515  21.206  24.911  1.00  0.00     0.119 A 
ATOM     20  C   UNL A   1      31.529  22.143  24.690  1.00  0.00     0.048 A 
ATOM     21  C   UNL A   1      33.803  21.423  24.439  1.00  0.00     0.048 A 
ATOM     22  C   UNL A   1      31.807  23.236  23.868  1.00  0.00     0.030 A 
ATOM     23  C   UNL A   1      34.084  22.577  23.690  1.00  0.00     0.030 A 
BRANCH  19  24
ATOM     24  O   UNL A   1      32.126  19.969  25.327  1.00  0.00    -0.494 OA
BRANCH  24  25
ATOM     25  C   UNL A   1      32.559  18.925  24.460  1.00  0.00     0.226 C 
ATOM     26  C   UNL A   1      32.511  17.636  25.253  1.00  0.00     0.049 C 
ENDBRANCH  24  25
ENDBRANCH  19  24
ENDBRANCH  15  18
ENDBRANCH   9  14
ENDBRANCH   5   8
ENDBRANCH   3   4
ENDBRANCH   2   3
ENDBRANCH   1   2
BRANCH   1  27
ATOM     27  C   UNL A   1      35.516  29.399  27.498  1.00  0.00     0.002 C 
BRANCH  27  28
ATOM     28  C   UNL A   1      35.925  29.645  28.956  1.00  0.00     0.021 C 
BRANCH  28  29
ATOM     29  C   UNL A   1      35.981  31.110  29.386  1.00  0.00     0.116 C 
BRANCH  29  30
ATOM     30  N   UNL A   1      36.000  31.250  30.834  1.00  0.00    -0.352 N 
ATOM     31  C   UNL A   1      36.999  30.927  31.721  1.00  0.00     0.251 C 
ATOM     32  H   UNL A   1      35.184  31.629  31.234  1.00  0.00     0.163 HD
ATOM     33  O   UNL A   1      36.772  30.885  32.925  1.00  0.00    -0.269 OA
BRANCH  31  34
ATOM     34  C   UNL A   1      38.354  30.616  31.211  1.00  0.00     0.039 A 
ATOM     35  C   UNL A   1      39.209  29.826  31.983  1.00  0.00     0.014 A 
ATOM     36  C   UNL A   1      38.778  31.108  29.973  1.00  0.00     0.014 A 
ATOM     37  C   UNL A   1      40.465  29.474  31.482  1.00  0.00     0.010 A 
ATOM     38  C   UNL A   1      40.005  30.706  29.450  1.00  0.00     0.010 A 
ATOM     39  C   UNL A   1      40.860  29.882  30.196  1.00  0.00    -0.014 A 
BRANCH  39  40
ATOM     40  C   UNL A   1      42.155  29.440  29.612  1.00  0.00     0.031 A 
ATOM     41  C   UNL A   1      43.292  30.412  29.454  1.00  0.00     0.074 A 
ATOM     42  C   UNL A   1      42.284  28.177  29.160  1.00  0.00     0.049 A 
ATOM     43  N   UNL A   1      44.467  30.228  28.909  1.00  0.00    -0.248 NA
ATOM     44  C   UNL A   1      43.068  31.778  29.951  1.00  0.00     0.031 C 
ATOM     45  C   UNL A   1      41.237  27.154  29.205  1.00  0.00     0.029 A 
ATOM     46  N   UNL A   1      43.341  27.541  28.559  1.00  0.00    -0.354 N 
ATOM     47  C   UNL A   1      45.122  31.451  28.994  1.00  0.00     0.074 A 
ATOM     48  C   UNL A   1      44.190  32.385  29.589  1.00  0.00     0.031 C 
ATOM     49  C   UNL A   1      41.706  26.019  28.664  1.00  0.00     0.029 A 
ATOM     50  C   UNL A   1      43.073  26.241  28.201  1.00  0.00     0.049 A 
ATOM     51  H   UNL A   1      44.210  27.976  28.398  1.00  0.00     0.167 HD
ATOM     52  C   UNL A   1      46.390  31.762  28.633  1.00  0.00     0.037 A 
ATOM     53  C   UNL A   1      43.834  25.332  27.560  1.00  0.00     0.037 A 
ATOM     54  C   UNL A   1      47.315  30.829  28.044  1.00  0.00     0.049 A 
ATOM     55  C   UNL A   1      45.236  25.698  27.159  1.00  0.00     0.074 A 
ATOM     56  C   UNL A   1      48.636  31.033  27.685  1.00  0.00     0.029 A 
ATOM     57  N   UNL A   1      47.015  29.513  27.719  1.00  0.00    -0.354 N 
ATOM     58  N   UNL A   1      45.863  26.842  27.309  1.00  0.00    -0.248 NA
ATOM     59  C   UNL A   1      46.038  24.653  26.509  1.00  0.00     0.031 C 
ATOM     60  C   UNL A   1      49.120  29.856  27.103  1.00  0.00     0.029 A 
ATOM     61  C   UNL A   1      48.117  28.901  27.145  1.00  0.00     0.049 A 
ATOM     62  H   UNL A   1      46.145  29.077  27.874  1.00  0.00     0.167 HD
ATOM     63  C   UNL A   1      47.137  26.649  26.786  1.00  0.00     0.074 A 
ATOM     64  C   UNL A   1      47.197  25.274  26.334  1.00  0.00     0.031 C 
ATOM     65  C   UNL A   1      48.162  27.532  26.691  1.00  0.00     0.037 A 
BRANCH  52  66
ATOM     66  C   UNL A   1      46.848  33.177  28.869  1.00  0.00     0.058 A 
ATOM     67  C   UNL A   1      46.754  34.158  27.866  1.00  0.00     0.135 A 
ATOM     68  C   UNL A   1      47.377  33.564  30.110  1.00  0.00     0.135 A 
ATOM     69  F   UNL A   1      46.265  33.841  26.655  1.00  0.00    -0.206 F 
ATOM     70  C   UNL A   1      47.209  35.456  28.070  1.00  0.00     0.059 A 
ATOM     71  C   UNL A   1      47.811  34.868  30.347  1.00  0.00     0.059 A 
ATOM     72  F   UNL A   1      47.487  32.672  31.107  1.00  0.00    -0.206 F 
ATOM     73  C   UNL A   1      47.743  35.799  29.313  1.00  0.00     0.060 A 
BRANCH  73  74
ATOM     74  S   UNL A   1      48.353  37.482  29.553  1.00  0.00     0.124 S 
ATOM     75  O   UNL A   1      49.097  37.699  28.316  1.00  0.00    -0.237 OA
ATOM     76  O   UNL A   1      47.119  38.246  29.692  1.00  0.00    -0.237 OA
ATOM     77  O   UNL A   1      49.164  37.380  30.762  1.00  0.00    -0.744 OA
ENDBRANCH  73  74
ENDBRANCH  52  66
BRANCH  53  78
ATOM     78  C   UNL A   1      43.279  23.982  27.274  1.00  0.00     0.058 A 
ATOM     79  C   UNL A   1      42.768  23.662  26.008  1.00  0.00     0.135 A 
ATOM     80  C   UNL A   1      43.287  22.974  28.250  1.00  0.00     0.135 A 
ATOM     81  F   UNL A   1      42.730  24.595  25.044  1.00  0.00    -0.206 F 
ATOM     82  C   UNL A   1      42.282  22.390  25.719  1.00  0.00     0.059 A 
ATOM     83  C   UNL A   1      42.830  21.688  27.978  1.00  0.00     0.059 A 
ATOM     84  F   UNL A   1      43.780  23.226  29.473  1.00  0.00    -0.206 F 
ATOM     85  C   UNL A   1      42.325  21.408  26.710  1.00  0.00     0.060 A 
BRANCH  85  86
ATOM     86  S   UNL A   1      41.765  19.739  26.300  1.00  0.00     0.124 S 
ATOM     87  O   UNL A   1      42.551  19.450  25.107  1.00  0.00    -0.237 OA
ATOM     88  O   UNL A   1      42.127  18.992  27.500  1.00  0.00    -0.237 OA
ATOM     89  O   UNL A   1      40.331  19.910  26.087  1.00  0.00    -0.744 OA
ENDBRANCH  85  86
ENDBRANCH  53  78
BRANCH  65  90
ATOM     90  C   UNL A   1      49.447  27.037  26.085  1.00  0.00     0.058 A 
ATOM     91  C   UNL A   1      49.722  27.186  24.717  1.00  0.00     0.135 A 
ATOM     92  C   UNL A   1      50.438  26.454  26.892  1.00  0.00     0.135 A 
ATOM     93  F   UNL A   1      48.807  27.730  23.899  1.00  0.00    -0.206 F 
ATOM     94  C   UNL A   1      50.926  26.760  24.166  1.00  0.00     0.059 A 
ATOM     95  C   UNL A   1      51.661  26.044  26.368  1.00  0.00     0.059 A 
ATOM     96  F   UNL A   1      50.231  26.295  28.209  1.00  0.00    -0.206 F 
ATOM     97  C   UNL A   1      51.891  26.192  25.001  1.00  0.00     0.060 A 
BRANCH  97  98
ATOM     98  S   UNL A   1      53.465  25.677  24.281  1.00  0.00     0.124 S 
ATOM     99  O   UNL A   1      53.217  25.882  22.856  1.00  0.00    -0.237 OA
ATOM    100  O   UNL A   1      54.409  26.603  24.899  1.00  0.00    -0.237 OA
ATOM    101  O   UNL A   1      53.593  24.285  24.702  1.00  0.00    -0.744 OA
ENDBRANCH  97  98
ENDBRANCH  65  90
ENDBRANCH  39  40
ENDBRANCH  31  34
ENDBRANCH  29  30
ENDBRANCH  28  29
ENDBRANCH  27  28
ENDBRANCH   1  27
TORSDOF 20
ENDMDL
MODEL 3
REMARK VINA RESULT:     -11.2      1.875      8.837
REMARK SMILES CCOc1ccc(NC(=O)N2CC[C@@H](C(=O)NCCCCCCNC(=O)c3ccc(-c4c5nc(c(-c6c(F)cc(S(=O)(=O)[O-])cc6F)c6ccc([nH]6)c(-c6c(F)cc(S(=O)(=O)[O-])cc6F)c6nc(c(-c7c(F)cc(S(=O)(=O)[O-])cc7F)c7ccc4[nH]7)C=C6)C=C5)cc3)[C@@H]2C)cc1
REMARK SMILES IDX 20 1 19 2 18 3 17 4 15 5 16 6 14 8 11 9 12 10 93 11 13 12
REMARK SMILES IDX 94 13 9 14 8 15 10 17 7 18 4 19 5 20 96 21 6 22 95 23 3 24
REMARK SMILES IDX 2 25 1 26 21 27 22 28 23 29 24 30 25 31 26 33 27 34 28 35
REMARK SMILES IDX 92 36 29 37 91 38 30 39 31 40 32 41 85 42 33 43 90 44 84 45
REMARK SMILES IDX 86 46 34 47 89 48 83 49 82 50 35 52 69 53 48 54 68 55 49 56
REMARK SMILES IDX 52 57 67 58 87 59 50 60 51 61 66 63 88 64 53 65 36 66 37 67
REMARK SMILES IDX 46 68 38 69 39 70 45 71 47 72 40 73 41 74 42 75 43 76 44 77
REMARK SMILES IDX 70 78 71 79 80 80 72 81 73 82 79 83 81 84 74 85 75 86 76 87
REMARK SMILES IDX 77 88 78 89 54 90 55 91 64 92 56 93 57 94 63 95 65 96 58 97
REMARK SMILES IDX 59 98 60 99 61 100 62 101
REMARK H PARENT 17 7 8 16 24 32 86 51 52 62
REMARK Flexibility Score: inf
ROOT
ATOM      1  C   UNL A   1      40.431  21.480  27.256  1.00  0.00     0.002 C 
ENDROOT
BRANCH   1   2
ATOM      2  C   UNL A   1      39.472  21.374  26.069  1.00  0.00     0.021 C 
BRANCH   2   3
ATOM      3  C   UNL A   1      38.456  22.503  25.891  1.00  0.00     0.116 C 
BRANCH   3   4
ATOM      4  N   UNL A   1      37.745  22.462  24.618  1.00  0.00    -0.356 N 
ATOM      5  C   UNL A   1      36.599  23.023  24.156  1.00  0.00     0.225 C 
ATOM      6  O   UNL A   1      36.327  22.781  22.971  1.00  0.00    -0.275 OA
ATOM      7  H   UNL A   1      38.197  21.902  23.946  1.00  0.00     0.163 HD
BRANCH   5   8
ATOM      8  C   UNL A   1      35.599  23.854  24.967  1.00  0.00     0.102 C 
ATOM      9  N   UNL A   1      33.405  23.075  24.841  1.00  0.00    -0.321 N 
ATOM     10  C   UNL A   1      33.727  23.003  26.259  1.00  0.00     0.122 C 
ATOM     11  C   UNL A   1      34.266  24.082  24.237  1.00  0.00     0.096 C 
ATOM     12  C   UNL A   1      35.217  23.321  26.352  1.00  0.00     0.037 C 
ATOM     13  C   UNL A   1      33.712  25.498  24.449  1.00  0.00     0.032 C 
BRANCH   9  14
ATOM     14  C   UNL A   1      32.213  22.583  24.424  1.00  0.00     0.322 C 
ATOM     15  N   UNL A   1      32.015  21.344  23.920  1.00  0.00    -0.308 N 
ATOM     16  H   UNL A   1      31.111  21.267  23.540  1.00  0.00     0.171 HD
ATOM     17  O   UNL A   1      31.180  23.236  24.626  1.00  0.00    -0.248 OA
BRANCH  15  18
ATOM     18  C   UNL A   1      32.717  20.130  23.774  1.00  0.00     0.043 A 
ATOM     19  C   UNL A   1      33.691  17.496  23.533  1.00  0.00     0.119 A 
ATOM     20  C   UNL A   1      34.197  18.329  24.508  1.00  0.00     0.048 A 
ATOM     21  C   UNL A   1      32.773  17.979  22.610  1.00  0.00     0.048 A 
ATOM     22  C   UNL A   1      33.669  19.614  24.640  1.00  0.00     0.030 A 
ATOM     23  C   UNL A   1      32.321  19.305  22.706  1.00  0.00     0.030 A 
BRANCH  19  24
ATOM     24  O   UNL A   1      33.883  16.156  23.688  1.00  0.00    -0.494 OA
BRANCH  24  25
ATOM     25  C   UNL A   1      34.127  15.779  25.039  1.00  0.00     0.226 C 
ATOM     26  C   UNL A   1      32.781  15.683  25.727  1.00  0.00     0.049 C 
ENDBRANCH  24  25
ENDBRANCH  19  24
ENDBRANCH  15  18
ENDBRANCH   9  14
ENDBRANCH   5   8
ENDBRANCH   3   4
ENDBRANCH   2   3
ENDBRANCH   1   2
BRANCH   1  27
ATOM     27  C   UNL A   1      41.290  22.747  27.264  1.00  0.00     0.002 C 
BRANCH  27  28
ATOM     28  C   UNL A   1      42.763  22.559  26.877  1.00  0.00     0.021 C 
BRANCH  28  29
ATOM     29  C   UNL A   1      43.639  23.806  26.995  1.00  0.00     0.116 C 
BRANCH  29  30
ATOM     30  N   UNL A   1      43.437  24.717  25.879  1.00  0.00    -0.352 N 
ATOM     31  C   UNL A   1      42.863  25.966  25.875  1.00  0.00     0.251 C 
ATOM     32  H   UNL A   1      43.757  24.395  25.005  1.00  0.00     0.163 HD
ATOM     33  O   UNL A   1      42.554  26.505  24.818  1.00  0.00    -0.269 OA
BRANCH  31  34
ATOM     34  C   UNL A   1      42.604  26.653  27.161  1.00  0.00     0.039 A 
ATOM     35  C   UNL A   1      43.386  27.755  27.515  1.00  0.00     0.014 A 
ATOM     36  C   UNL A   1      41.592  26.205  28.015  1.00  0.00     0.014 A 
ATOM     37  C   UNL A   1      43.108  28.448  28.696  1.00  0.00     0.010 A 
ATOM     38  C   UNL A   1      41.277  26.935  29.159  1.00  0.00     0.010 A 
ATOM     39  C   UNL A   1      42.029  28.066  29.511  1.00  0.00    -0.014 A 
BRANCH  39  40
ATOM     40  C   UNL A   1      41.663  28.848  30.722  1.00  0.00     0.031 A 
ATOM     41  C   UNL A   1      40.486  29.786  30.696  1.00  0.00     0.074 A 
ATOM     42  C   UNL A   1      42.432  28.767  31.824  1.00  0.00     0.049 A 
ATOM     43  N   UNL A   1      40.055  30.596  31.629  1.00  0.00    -0.248 NA
ATOM     44  C   UNL A   1      39.707  29.836  29.450  1.00  0.00     0.031 C 
ATOM     45  C   UNL A   1      43.632  27.937  31.957  1.00  0.00     0.029 A 
ATOM     46  N   UNL A   1      42.333  29.401  33.038  1.00  0.00    -0.354 N 
ATOM     47  C   UNL A   1      38.959  31.255  31.083  1.00  0.00     0.074 A 
ATOM     48  C   UNL A   1      38.828  30.792  29.718  1.00  0.00     0.031 C 
ATOM     49  C   UNL A   1      44.151  28.106  33.182  1.00  0.00     0.029 A 
ATOM     50  C   UNL A   1      43.345  29.081  33.912  1.00  0.00     0.049 A 
ATOM     51  H   UNL A   1      41.607  30.027  33.261  1.00  0.00     0.167 HD
ATOM     52  C   UNL A   1      38.123  32.144  31.672  1.00  0.00     0.037 A 
ATOM     53  C   UNL A   1      43.606  29.530  35.156  1.00  0.00     0.037 A 
ATOM     54  C   UNL A   1      38.256  32.600  33.032  1.00  0.00     0.049 A 
ATOM     55  C   UNL A   1      42.673  30.524  35.789  1.00  0.00     0.074 A 
ATOM     56  C   UNL A   1      37.435  33.463  33.736  1.00  0.00     0.029 A 
ATOM     57  N   UNL A   1      39.280  32.234  33.895  1.00  0.00    -0.354 N 
ATOM     58  N   UNL A   1      41.601  31.086  35.282  1.00  0.00    -0.248 NA
ATOM     59  C   UNL A   1      42.977  30.941  37.164  1.00  0.00     0.031 C 
ATOM     60  C   UNL A   1      37.986  33.654  35.008  1.00  0.00     0.029 A 
ATOM     61  C   UNL A   1      39.124  32.871  35.115  1.00  0.00     0.049 A 
ATOM     62  H   UNL A   1      40.011  31.612  33.672  1.00  0.00     0.167 HD
ATOM     63  C   UNL A   1      41.094  31.910  36.280  1.00  0.00     0.074 A 
ATOM     64  C   UNL A   1      41.966  31.759  37.427  1.00  0.00     0.031 C 
ATOM     65  C   UNL A   1      40.005  32.718  36.249  1.00  0.00     0.037 A 
BRANCH  52  66
ATOM     66  C   UNL A   1      36.989  32.682  30.840  1.00  0.00     0.058 A 
ATOM     67  C   UNL A   1      35.744  32.032  30.788  1.00  0.00     0.135 A 
ATOM     68  C   UNL A   1      37.141  33.861  30.093  1.00  0.00     0.135 A 
ATOM     69  F   UNL A   1      35.546  30.894  31.473  1.00  0.00    -0.206 F 
ATOM     70  C   UNL A   1      34.707  32.507  29.991  1.00  0.00     0.059 A 
ATOM     71  C   UNL A   1      36.105  34.371  29.312  1.00  0.00     0.059 A 
ATOM     72  F   UNL A   1      38.307  34.526  30.108  1.00  0.00    -0.206 F 
ATOM     73  C   UNL A   1      34.900  33.674  29.252  1.00  0.00     0.060 A 
BRANCH  73  74
ATOM     74  S   UNL A   1      33.553  34.262  28.203  1.00  0.00     0.124 S 
ATOM     75  O   UNL A   1      34.276  35.083  27.236  1.00  0.00    -0.237 OA
ATOM     76  O   UNL A   1      32.994  33.018  27.684  1.00  0.00    -0.237 OA
ATOM     77  O   UNL A   1      32.695  34.994  29.130  1.00  0.00    -0.744 OA
ENDBRANCH  73  74
ENDBRANCH  52  66
BRANCH  53  78
ATOM     78  C   UNL A   1      44.803  29.026  35.881  1.00  0.00     0.058 A 
ATOM     79  C   UNL A   1      44.726  27.898  36.711  1.00  0.00     0.135 A 
ATOM     80  C   UNL A   1      46.056  29.638  35.724  1.00  0.00     0.135 A 
ATOM     81  F   UNL A   1      43.549  27.283  36.900  1.00  0.00    -0.206 F 
ATOM     82  C   UNL A   1      45.849  27.395  37.362  1.00  0.00     0.059 A 
ATOM     83  C   UNL A   1      47.197  29.140  36.345  1.00  0.00     0.059 A 
ATOM     84  F   UNL A   1      46.185  30.711  34.928  1.00  0.00    -0.206 F 
ATOM     85  C   UNL A   1      47.082  28.020  37.166  1.00  0.00     0.060 A 
BRANCH  85  86
ATOM     86  S   UNL A   1      48.547  27.313  37.953  1.00  0.00     0.124 S 
ATOM     87  O   UNL A   1      49.506  27.327  36.855  1.00  0.00    -0.237 OA
ATOM     88  O   UNL A   1      48.799  28.259  39.035  1.00  0.00    -0.237 OA
ATOM     89  O   UNL A   1      48.093  25.992  38.379  1.00  0.00    -0.744 OA
ENDBRANCH  85  86
ENDBRANCH  53  78
BRANCH  65  90
ATOM     90  C   UNL A   1      39.683  33.495  37.496  1.00  0.00     0.058 A 
ATOM     91  C   UNL A   1      38.795  33.001  38.464  1.00  0.00     0.135 A 
ATOM     92  C   UNL A   1      40.312  34.725  37.751  1.00  0.00     0.135 A 
ATOM     93  F   UNL A   1      38.162  31.834  38.267  1.00  0.00    -0.206 F 
ATOM     94  C   UNL A   1      38.528  33.706  39.632  1.00  0.00     0.059 A 
ATOM     95  C   UNL A   1      40.080  35.436  38.925  1.00  0.00     0.059 A 
ATOM     96  F   UNL A   1      41.176  35.240  36.862  1.00  0.00    -0.206 F 
ATOM     97  C   UNL A   1      39.177  34.922  39.856  1.00  0.00     0.060 A 
BRANCH  97  98
ATOM     98  S   UNL A   1      38.851  35.809  41.394  1.00  0.00     0.124 S 
ATOM     99  O   UNL A   1      39.909  35.296  42.259  1.00  0.00    -0.237 OA
ATOM    100  O   UNL A   1      38.986  37.204  40.985  1.00  0.00    -0.237 OA
ATOM    101  O   UNL A   1      37.496  35.394  41.745  1.00  0.00    -0.744 OA
ENDBRANCH  97  98
ENDBRANCH  65  90
ENDBRANCH  39  40
ENDBRANCH  31  34
ENDBRANCH  29  30
ENDBRANCH  28  29
ENDBRANCH  27  28
ENDBRANCH   1  27
TORSDOF 20
ENDMDL
