MODEL 1
REMARK VINA RESULT:     -11.0      0.000      0.000
REMARK SMILES CC(C)Cc1ccc([C@H](C)C(=O)NCCCCCCNC(=O)c2ccc(-c3c4nc(c(-c5c(F)cc(S(=O)(=O)[O-])cc5F)c5ccc([nH]5)c(-c5c(F)cc(S(=O)(=O)[O-])cc5F)c5nc(c(-c6c(F)cc(S(=O)(=O)[O-])cc6F)c6ccc3[nH]6)C=C5)C=C4)cc2)cc1
REMARK SMILES IDX 16 1 15 2 14 3 13 4 11 5 12 6 9 8 10 9 8 10 5 11 6 12 90 13
REMARK SMILES IDX 7 14 89 15 4 16 2 17 1 18 3 19 17 20 18 21 19 22 20 23 21 24
REMARK SMILES IDX 22 26 23 27 24 28 88 29 25 30 87 31 26 32 27 33 28 34 81 35
REMARK SMILES IDX 29 36 86 37 80 38 82 39 30 40 85 41 79 42 78 43 31 45 65 46
REMARK SMILES IDX 44 47 64 48 45 49 48 50 63 51 83 52 46 53 47 54 62 56 84 57
REMARK SMILES IDX 49 58 32 59 33 60 42 61 34 62 35 63 41 64 43 65 36 66 37 67
REMARK SMILES IDX 38 68 39 69 40 70 66 71 67 72 76 73 68 74 69 75 75 76 77 77
REMARK SMILES IDX 70 78 71 79 72 80 73 81 74 82 50 83 51 84 60 85 52 86 53 87
REMARK SMILES IDX 59 88 61 89 54 90 55 91 56 92 57 93 58 94
REMARK H PARENT 13 7 20 25 82 44 48 55
REMARK Flexibility Score: inf
ROOT
ATOM      1  C   UNL A   1      34.159  31.285  27.387  1.00  0.00     0.002 C 
ENDROOT
BRANCH   1   2
ATOM      2  C   UNL A   1      34.986  30.011  27.588  1.00  0.00     0.021 C 
BRANCH   2   3
ATOM      3  C   UNL A   1      34.275  28.726  27.175  1.00  0.00     0.116 C 
BRANCH   3   4
ATOM      4  N   UNL A   1      32.977  28.605  27.808  1.00  0.00    -0.356 N 
ATOM      5  C   UNL A   1      31.867  27.923  27.413  1.00  0.00     0.227 C 
ATOM      6  O   UNL A   1      30.895  27.930  28.176  1.00  0.00    -0.274 OA
ATOM      7  H   UNL A   1      32.884  29.093  28.657  1.00  0.00     0.163 HD
BRANCH   5   8
ATOM      8  C   UNL A   1      31.802  27.170  26.076  1.00  0.00     0.105 C 
ATOM      9  C   UNL A   1      31.297  25.735  26.252  1.00  0.00     0.023 C 
BRANCH   8  10
ATOM     10  C   UNL A   1      31.185  28.015  24.969  1.00  0.00    -0.036 A 
ATOM     11  C   UNL A   1      30.087  29.426  22.769  1.00  0.00    -0.048 A 
ATOM     12  C   UNL A   1      29.741  28.092  23.002  1.00  0.00     0.004 A 
ATOM     13  C   UNL A   1      30.963  30.058  23.658  1.00  0.00     0.004 A 
ATOM     14  C   UNL A   1      30.291  27.394  24.080  1.00  0.00     0.005 A 
ATOM     15  C   UNL A   1      31.486  29.367  24.758  1.00  0.00     0.005 A 
BRANCH  11  16
ATOM     16  C   UNL A   1      29.536  30.166  21.575  1.00  0.00     0.038 C 
BRANCH  16  17
ATOM     17  C   UNL A   1      28.070  30.619  21.731  1.00  0.00    -0.013 C 
ATOM     18  C   UNL A   1      27.783  31.207  23.115  1.00  0.00     0.008 C 
ATOM     19  C   UNL A   1      27.738  31.661  20.658  1.00  0.00     0.008 C 
ENDBRANCH  16  17
ENDBRANCH  11  16
ENDBRANCH   8  10
ENDBRANCH   5   8
ENDBRANCH   3   4
ENDBRANCH   2   3
ENDBRANCH   1   2
BRANCH   1  20
ATOM     20  C   UNL A   1      34.453  32.417  28.375  1.00  0.00     0.002 C 
BRANCH  20  21
ATOM     21  C   UNL A   1      35.795  33.130  28.183  1.00  0.00     0.021 C 
BRANCH  21  22
ATOM     22  C   UNL A   1      36.707  33.137  29.406  1.00  0.00     0.116 C 
BRANCH  22  23
ATOM     23  N   UNL A   1      36.206  32.285  30.472  1.00  0.00    -0.352 N 
ATOM     24  C   UNL A   1      36.686  31.088  30.931  1.00  0.00     0.251 C 
ATOM     25  H   UNL A   1      35.402  32.619  30.933  1.00  0.00     0.163 HD
ATOM     26  O   UNL A   1      36.013  30.428  31.726  1.00  0.00    -0.269 OA
BRANCH  24  27
ATOM     27  C   UNL A   1      37.992  30.573  30.466  1.00  0.00     0.039 A 
ATOM     28  C   UNL A   1      38.175  30.338  29.102  1.00  0.00     0.014 A 
ATOM     29  C   UNL A   1      39.026  30.299  31.367  1.00  0.00     0.014 A 
ATOM     30  C   UNL A   1      39.408  29.877  28.635  1.00  0.00     0.010 A 
ATOM     31  C   UNL A   1      40.277  29.906  30.894  1.00  0.00     0.010 A 
ATOM     32  C   UNL A   1      40.480  29.686  29.523  1.00  0.00    -0.014 A 
BRANCH  32  33
ATOM     33  C   UNL A   1      41.814  29.261  29.025  1.00  0.00     0.031 A 
ATOM     34  C   UNL A   1      42.945  30.249  28.929  1.00  0.00     0.074 A 
ATOM     35  C   UNL A   1      41.994  27.988  28.618  1.00  0.00     0.049 A 
ATOM     36  N   UNL A   1      44.167  30.065  28.501  1.00  0.00    -0.248 NA
ATOM     37  C   UNL A   1      42.658  31.631  29.343  1.00  0.00     0.031 C 
ATOM     38  C   UNL A   1      40.960  26.950  28.608  1.00  0.00     0.029 A 
ATOM     39  N   UNL A   1      43.106  27.350  28.129  1.00  0.00    -0.354 N 
ATOM     40  C   UNL A   1      44.793  31.305  28.588  1.00  0.00     0.074 A 
ATOM     41  C   UNL A   1      43.797  32.245  29.055  1.00  0.00     0.031 C 
ATOM     42  C   UNL A   1      41.494  25.801  28.166  1.00  0.00     0.029 A 
ATOM     43  C   UNL A   1      42.896  26.025  27.828  1.00  0.00     0.049 A 
ATOM     44  H   UNL A   1      43.974  27.799  28.007  1.00  0.00     0.167 HD
ATOM     45  C   UNL A   1      46.082  31.624  28.325  1.00  0.00     0.037 A 
ATOM     46  C   UNL A   1      43.736  25.095  27.335  1.00  0.00     0.037 A 
ATOM     47  C   UNL A   1      47.074  30.679  27.880  1.00  0.00     0.049 A 
ATOM     48  C   UNL A   1      45.167  25.473  27.061  1.00  0.00     0.074 A 
ATOM     49  C   UNL A   1      48.421  30.891  27.642  1.00  0.00     0.029 A 
ATOM     50  N   UNL A   1      46.828  29.342  27.603  1.00  0.00    -0.354 N 
ATOM     51  N   UNL A   1      45.757  26.634  27.213  1.00  0.00    -0.248 NA
ATOM     52  C   UNL A   1      46.049  24.410  26.561  1.00  0.00     0.031 C 
ATOM     53  C   UNL A   1      48.979  29.694  27.180  1.00  0.00     0.029 A 
ATOM     54  C   UNL A   1      47.992  28.722  27.178  1.00  0.00     0.049 A 
ATOM     55  H   UNL A   1      45.954  28.897  27.696  1.00  0.00     0.167 HD
ATOM     56  C   UNL A   1      47.084  26.436  26.850  1.00  0.00     0.074 A 
ATOM     57  C   UNL A   1      47.213  25.040  26.489  1.00  0.00     0.031 C 
ATOM     58  C   UNL A   1      48.105  27.329  26.818  1.00  0.00     0.037 A 
BRANCH  45  59
ATOM     59  C   UNL A   1      46.499  33.058  28.518  1.00  0.00     0.058 A 
ATOM     60  C   UNL A   1      47.103  33.496  29.708  1.00  0.00     0.135 A 
ATOM     61  C   UNL A   1      46.325  33.999  27.490  1.00  0.00     0.135 A 
ATOM     62  F   UNL A   1      47.281  32.644  30.730  1.00  0.00    -0.206 F 
ATOM     63  C   UNL A   1      47.490  34.821  29.884  1.00  0.00     0.059 A 
ATOM     64  C   UNL A   1      46.730  35.323  27.633  1.00  0.00     0.059 A 
ATOM     65  F   UNL A   1      45.754  33.636  26.331  1.00  0.00    -0.206 F 
ATOM     66  C   UNL A   1      47.299  35.728  28.840  1.00  0.00     0.060 A 
BRANCH  66  67
ATOM     67  S   UNL A   1      47.809  37.443  29.084  1.00  0.00     0.124 S 
ATOM     68  O   UNL A   1      46.958  37.843  30.200  1.00  0.00    -0.237 OA
ATOM     69  O   UNL A   1      49.230  37.306  29.387  1.00  0.00    -0.237 OA
ATOM     70  O   UNL A   1      47.503  38.073  27.803  1.00  0.00    -0.744 OA
ENDBRANCH  66  67
ENDBRANCH  45  59
BRANCH  46  71
ATOM     71  C   UNL A   1      43.252  23.710  27.094  1.00  0.00     0.058 A 
ATOM     72  C   UNL A   1      42.940  23.268  25.799  1.00  0.00     0.135 A 
ATOM     73  C   UNL A   1      43.107  22.796  28.149  1.00  0.00     0.135 A 
ATOM     74  F   UNL A   1      43.059  24.107  24.759  1.00  0.00    -0.206 F 
ATOM     75  C   UNL A   1      42.484  21.976  25.560  1.00  0.00     0.059 A 
ATOM     76  C   UNL A   1      42.677  21.491  27.931  1.00  0.00     0.059 A 
ATOM     77  F   UNL A   1      43.409  23.163  29.404  1.00  0.00    -0.206 F 
ATOM     78  C   UNL A   1      42.357  21.094  26.633  1.00  0.00     0.060 A 
BRANCH  78  79
ATOM     79  S   UNL A   1      41.811  19.403  26.306  1.00  0.00     0.124 S 
ATOM     80  O   UNL A   1      40.370  19.582  26.166  1.00  0.00    -0.237 OA
ATOM     81  O   UNL A   1      42.536  19.078  25.082  1.00  0.00    -0.237 OA
ATOM     82  O   UNL A   1      42.245  18.676  27.495  1.00  0.00    -0.744 OA
ENDBRANCH  78  79
ENDBRANCH  46  71
BRANCH  58  83
ATOM     83  C   UNL A   1      49.455  26.815  26.403  1.00  0.00     0.058 A 
ATOM     84  C   UNL A   1      49.927  26.953  25.087  1.00  0.00     0.135 A 
ATOM     85  C   UNL A   1      50.299  26.193  27.338  1.00  0.00     0.135 A 
ATOM     86  F   UNL A   1      49.159  27.535  24.153  1.00  0.00    -0.206 F 
ATOM     87  C   UNL A   1      51.170  26.461  24.705  1.00  0.00     0.059 A 
ATOM     88  C   UNL A   1      51.558  25.719  26.985  1.00  0.00     0.059 A 
ATOM     89  F   UNL A   1      49.903  26.045  28.612  1.00  0.00    -0.206 F 
ATOM     90  C   UNL A   1      51.977  25.842  25.661  1.00  0.00     0.060 A 
BRANCH  90  91
ATOM     91  S   UNL A   1      53.592  25.213  25.155  1.00  0.00     0.124 S 
ATOM     92  O   UNL A   1      53.392  23.772  25.265  1.00  0.00    -0.237 OA
ATOM     93  O   UNL A   1      53.720  25.733  23.797  1.00  0.00    -0.237 OA
ATOM     94  O   UNL A   1      54.506  25.796  26.132  1.00  0.00    -0.744 OA
ENDBRANCH  90  91
ENDBRANCH  58  83
ENDBRANCH  32  33
ENDBRANCH  24  27
ENDBRANCH  22  23
ENDBRANCH  21  22
ENDBRANCH  20  21
ENDBRANCH   1  20
TORSDOF 19
ENDMDL
MODEL 2
REMARK VINA RESULT:     -11.0      3.138      4.355
REMARK SMILES CC(C)Cc1ccc([C@H](C)C(=O)NCCCCCCNC(=O)c2ccc(-c3c4nc(c(-c5c(F)cc(S(=O)(=O)[O-])cc5F)c5ccc([nH]5)c(-c5c(F)cc(S(=O)(=O)[O-])cc5F)c5nc(c(-c6c(F)cc(S(=O)(=O)[O-])cc6F)c6ccc3[nH]6)C=C5)C=C4)cc2)cc1
REMARK SMILES IDX 16 1 15 2 14 3 13 4 11 5 12 6 9 8 10 9 8 10 5 11 6 12 90 13
REMARK SMILES IDX 7 14 89 15 4 16 2 17 1 18 3 19 17 20 18 21 19 22 20 23 21 24
REMARK SMILES IDX 22 26 23 27 24 28 88 29 25 30 87 31 26 32 27 33 28 34 81 35
REMARK SMILES IDX 29 36 86 37 80 38 82 39 30 40 85 41 79 42 78 43 31 45 65 46
REMARK SMILES IDX 44 47 64 48 45 49 48 50 63 51 83 52 46 53 47 54 62 56 84 57
REMARK SMILES IDX 49 58 32 59 33 60 42 61 34 62 35 63 41 64 43 65 36 66 37 67
REMARK SMILES IDX 38 68 39 69 40 70 66 71 67 72 76 73 68 74 69 75 75 76 77 77
REMARK SMILES IDX 70 78 71 79 72 80 73 81 74 82 50 83 51 84 60 85 52 86 53 87
REMARK SMILES IDX 59 88 61 89 54 90 55 91 56 92 57 93 58 94
REMARK H PARENT 13 7 20 25 82 44 48 55
REMARK Flexibility Score: inf
ROOT
ATOM      1  C   UNL A   1      34.072  25.737  25.391  1.00  0.00     0.002 C 
ENDROOT
BRANCH   1   2
ATOM      2  C   UNL A   1      34.630  24.475  24.728  1.00  0.00     0.021 C 
BRANCH   2   3
ATOM      3  C   UNL A   1      34.647  23.244  25.628  1.00  0.00     0.116 C 
BRANCH   3   4
ATOM      4  N   UNL A   1      33.926  22.136  25.034  1.00  0.00    -0.356 N 
ATOM      5  C   UNL A   1      32.607  21.808  25.106  1.00  0.00     0.227 C 
ATOM      6  O   UNL A   1      32.228  20.834  24.446  1.00  0.00    -0.274 OA
ATOM      7  H   UNL A   1      34.477  21.526  24.493  1.00  0.00     0.163 HD
BRANCH   5   8
ATOM      8  C   UNL A   1      31.612  22.598  25.968  1.00  0.00     0.105 C 
ATOM      9  C   UNL A   1      32.100  22.749  27.412  1.00  0.00     0.023 C 
BRANCH   8  10
ATOM     10  C   UNL A   1      31.092  23.839  25.254  1.00  0.00    -0.036 A 
ATOM     11  C   UNL A   1      29.955  26.149  24.068  1.00  0.00    -0.048 A 
ATOM     12  C   UNL A   1      30.134  26.076  25.452  1.00  0.00     0.004 A 
ATOM     13  C   UNL A   1      30.374  25.073  23.279  1.00  0.00     0.004 A 
ATOM     14  C   UNL A   1      30.683  24.932  26.037  1.00  0.00     0.005 A 
ATOM     15  C   UNL A   1      30.957  23.942  23.863  1.00  0.00     0.005 A 
BRANCH  11  16
ATOM     16  C   UNL A   1      29.312  27.361  23.439  1.00  0.00     0.038 C 
BRANCH  16  17
ATOM     17  C   UNL A   1      30.155  28.649  23.538  1.00  0.00    -0.013 C 
ATOM     18  C   UNL A   1      31.233  28.730  22.454  1.00  0.00     0.008 C 
ATOM     19  C   UNL A   1      29.237  29.871  23.433  1.00  0.00     0.008 C 
ENDBRANCH  16  17
ENDBRANCH  11  16
ENDBRANCH   8  10
ENDBRANCH   5   8
ENDBRANCH   3   4
ENDBRANCH   2   3
ENDBRANCH   1   2
BRANCH   1  20
ATOM     20  C   UNL A   1      33.785  26.903  24.440  1.00  0.00     0.002 C 
BRANCH  20  21
ATOM     21  C   UNL A   1      33.820  28.296  25.075  1.00  0.00     0.021 C 
BRANCH  21  22
ATOM     22  C   UNL A   1      33.869  28.313  26.600  1.00  0.00     0.116 C 
BRANCH  22  23
ATOM     23  N   UNL A   1      33.654  29.644  27.143  1.00  0.00    -0.352 N 
ATOM     24  C   UNL A   1      34.469  30.403  27.940  1.00  0.00     0.251 C 
ATOM     25  H   UNL A   1      32.795  30.061  26.903  1.00  0.00     0.163 HD
ATOM     26  O   UNL A   1      34.029  31.438  28.448  1.00  0.00    -0.269 OA
BRANCH  24  27
ATOM     27  C   UNL A   1      35.860  29.984  28.209  1.00  0.00     0.039 A 
ATOM     28  C   UNL A   1      36.807  30.097  27.188  1.00  0.00     0.014 A 
ATOM     29  C   UNL A   1      36.233  29.458  29.451  1.00  0.00     0.014 A 
ATOM     30  C   UNL A   1      38.134  29.732  27.427  1.00  0.00     0.010 A 
ATOM     31  C   UNL A   1      37.569  29.160  29.709  1.00  0.00     0.010 A 
ATOM     32  C   UNL A   1      38.533  29.288  28.698  1.00  0.00    -0.014 A 
BRANCH  32  33
ATOM     33  C   UNL A   1      39.956  28.963  28.978  1.00  0.00     0.031 A 
ATOM     34  C   UNL A   1      40.870  29.990  29.590  1.00  0.00     0.074 A 
ATOM     35  C   UNL A   1      40.436  27.749  28.639  1.00  0.00     0.049 A 
ATOM     36  N   UNL A   1      42.140  29.893  29.886  1.00  0.00    -0.248 NA
ATOM     37  C   UNL A   1      40.286  31.308  29.885  1.00  0.00     0.031 C 
ATOM     38  C   UNL A   1      39.666  26.688  27.988  1.00  0.00     0.029 A 
ATOM     39  N   UNL A   1      41.687  27.205  28.789  1.00  0.00    -0.354 N 
ATOM     40  C   UNL A   1      42.510  31.134  30.394  1.00  0.00     0.074 A 
ATOM     41  C   UNL A   1      41.343  31.985  30.313  1.00  0.00     0.031 C 
ATOM     42  C   UNL A   1      40.451  25.612  27.822  1.00  0.00     0.029 A 
ATOM     43  C   UNL A   1      41.788  25.915  28.322  1.00  0.00     0.049 A 
ATOM     44  H   UNL A   1      42.441  27.691  29.195  1.00  0.00     0.167 HD
ATOM     45  C   UNL A   1      43.704  31.520  30.903  1.00  0.00     0.037 A 
ATOM     46  C   UNL A   1      42.838  25.072  28.298  1.00  0.00     0.037 A 
ATOM     47  C   UNL A   1      44.857  30.662  31.000  1.00  0.00     0.049 A 
ATOM     48  C   UNL A   1      44.151  25.522  28.880  1.00  0.00     0.074 A 
ATOM     49  C   UNL A   1      46.095  30.941  31.553  1.00  0.00     0.029 A 
ATOM     50  N   UNL A   1      44.916  29.357  30.533  1.00  0.00    -0.354 N 
ATOM     51  N   UNL A   1      44.463  26.677  29.417  1.00  0.00    -0.248 NA
ATOM     52  C   UNL A   1      45.252  24.549  28.862  1.00  0.00     0.031 C 
ATOM     53  C   UNL A   1      46.915  29.820  31.380  1.00  0.00     0.029 A 
ATOM     54  C   UNL A   1      46.174  28.824  30.766  1.00  0.00     0.049 A 
ATOM     55  H   UNL A   1      44.172  28.878  30.100  1.00  0.00     0.167 HD
ATOM     56  C   UNL A   1      45.788  26.562  29.823  1.00  0.00     0.074 A 
ATOM     57  C   UNL A   1      46.211  25.219  29.485  1.00  0.00     0.031 C 
ATOM     58  C   UNL A   1      46.582  27.484  30.421  1.00  0.00     0.037 A 
BRANCH  45  59
ATOM     59  C   UNL A   1      43.825  32.936  31.400  1.00  0.00     0.058 A 
ATOM     60  C   UNL A   1      44.205  33.986  30.547  1.00  0.00     0.135 A 
ATOM     61  C   UNL A   1      43.527  33.255  32.735  1.00  0.00     0.135 A 
ATOM     62  F   UNL A   1      44.515  33.739  29.266  1.00  0.00    -0.206 F 
ATOM     63  C   UNL A   1      44.314  35.295  31.007  1.00  0.00     0.059 A 
ATOM     64  C   UNL A   1      43.602  34.562  33.210  1.00  0.00     0.059 A 
ATOM     65  F   UNL A   1      43.159  32.292  33.593  1.00  0.00    -0.206 F 
ATOM     66  C   UNL A   1      44.010  35.573  32.341  1.00  0.00     0.060 A 
BRANCH  66  67
ATOM     67  S   UNL A   1      44.154  37.277  32.921  1.00  0.00     0.124 S 
ATOM     68  O   UNL A   1      42.968  37.398  33.765  1.00  0.00    -0.237 OA
ATOM     69  O   UNL A   1      45.433  37.260  33.625  1.00  0.00    -0.237 OA
ATOM     70  O   UNL A   1      44.131  38.058  31.689  1.00  0.00    -0.744 OA
ENDBRANCH  66  67
ENDBRANCH  45  59
BRANCH  46  71
ATOM     71  C   UNL A   1      42.682  23.708  27.728  1.00  0.00     0.058 A 
ATOM     72  C   UNL A   1      42.432  22.603  28.555  1.00  0.00     0.135 A 
ATOM     73  C   UNL A   1      42.765  23.483  26.345  1.00  0.00     0.135 A 
ATOM     74  F   UNL A   1      42.349  22.767  29.884  1.00  0.00    -0.206 F 
ATOM     75  C   UNL A   1      42.286  21.321  28.035  1.00  0.00     0.059 A 
ATOM     76  C   UNL A   1      42.598  22.215  25.799  1.00  0.00     0.059 A 
ATOM     77  F   UNL A   1      42.985  24.509  25.508  1.00  0.00    -0.206 F 
ATOM     78  C   UNL A   1      42.370  21.137  26.654  1.00  0.00     0.060 A 
BRANCH  78  79
ATOM     79  S   UNL A   1      42.130  19.477  25.985  1.00  0.00     0.124 S 
ATOM     80  O   UNL A   1      42.622  18.646  27.078  1.00  0.00    -0.237 OA
ATOM     81  O   UNL A   1      40.690  19.443  25.754  1.00  0.00    -0.237 OA
ATOM     82  O   UNL A   1      42.951  19.483  24.777  1.00  0.00    -0.744 OA
ENDBRANCH  78  79
ENDBRANCH  46  71
BRANCH  58  83
ATOM     83  C   UNL A   1      47.982  27.061  30.772  1.00  0.00     0.058 A 
ATOM     84  C   UNL A   1      49.058  27.264  29.893  1.00  0.00     0.135 A 
ATOM     85  C   UNL A   1      48.255  26.462  32.013  1.00  0.00     0.135 A 
ATOM     86  F   UNL A   1      48.852  27.828  28.692  1.00  0.00    -0.206 F 
ATOM     87  C   UNL A   1      50.348  26.857  30.216  1.00  0.00     0.059 A 
ATOM     88  C   UNL A   1      49.542  26.073  32.369  1.00  0.00     0.059 A 
ATOM     89  F   UNL A   1      47.265  26.255  32.896  1.00  0.00    -0.206 F 
ATOM     90  C   UNL A   1      50.579  26.258  31.456  1.00  0.00     0.060 A 
BRANCH  90  91
ATOM     91  S   UNL A   1      52.258  25.738  31.867  1.00  0.00     0.124 S 
ATOM     92  O   UNL A   1      52.051  24.339  32.229  1.00  0.00    -0.237 OA
ATOM     93  O   UNL A   1      52.974  25.970  30.617  1.00  0.00    -0.237 OA
ATOM     94  O   UNL A   1      52.628  26.623  32.969  1.00  0.00    -0.744 OA
ENDBRANCH  90  91
ENDBRANCH  58  83
ENDBRANCH  32  33
ENDBRANCH  24  27
ENDBRANCH  22  23
ENDBRANCH  21  22
ENDBRANCH  20  21
ENDBRANCH   1  20
TORSDOF 19
ENDMDL
MODEL 3
REMARK VINA RESULT:     -10.8      6.784     12.284
REMARK SMILES CC(C)Cc1ccc([C@H](C)C(=O)NCCCCCCNC(=O)c2ccc(-c3c4nc(c(-c5c(F)cc(S(=O)(=O)[O-])cc5F)c5ccc([nH]5)c(-c5c(F)cc(S(=O)(=O)[O-])cc5F)c5nc(c(-c6c(F)cc(S(=O)(=O)[O-])cc6F)c6ccc3[nH]6)C=C5)C=C4)cc2)cc1
REMARK SMILES IDX 16 1 15 2 14 3 13 4 11 5 12 6 9 8 10 9 8 10 5 11 6 12 90 13
REMARK SMILES IDX 7 14 89 15 4 16 2 17 1 18 3 19 17 20 18 21 19 22 20 23 21 24
REMARK SMILES IDX 22 26 23 27 24 28 88 29 25 30 87 31 26 32 27 33 28 34 81 35
REMARK SMILES IDX 29 36 86 37 80 38 82 39 30 40 85 41 79 42 78 43 31 45 65 46
REMARK SMILES IDX 44 47 64 48 45 49 48 50 63 51 83 52 46 53 47 54 62 56 84 57
REMARK SMILES IDX 49 58 32 59 33 60 42 61 34 62 35 63 41 64 43 65 36 66 37 67
REMARK SMILES IDX 38 68 39 69 40 70 66 71 67 72 76 73 68 74 69 75 75 76 77 77
REMARK SMILES IDX 70 78 71 79 72 80 73 81 74 82 50 83 51 84 60 85 52 86 53 87
REMARK SMILES IDX 59 88 61 89 54 90 55 91 56 92 57 93 58 94
REMARK H PARENT 13 7 20 25 82 44 48 55
REMARK Flexibility Score: inf
ROOT
ATOM      1  C   UNL A   1      35.577  23.890  25.750  1.00  0.00     0.002 C 
ENDROOT
BRANCH   1   2
ATOM      2  C   UNL A   1      34.995  22.684  26.494  1.00  0.00     0.021 C 
BRANCH   2   3
ATOM      3  C   UNL A   1      35.194  21.349  25.783  1.00  0.00     0.116 C 
BRANCH   3   4
ATOM      4  N   UNL A   1      33.994  20.538  25.822  1.00  0.00    -0.356 N 
ATOM      5  C   UNL A   1      32.887  20.571  25.031  1.00  0.00     0.227 C 
ATOM      6  O   UNL A   1      32.017  19.717  25.236  1.00  0.00    -0.274 OA
ATOM      7  H   UNL A   1      33.978  19.857  26.531  1.00  0.00     0.163 HD
BRANCH   5   8
ATOM      8  C   UNL A   1      32.701  21.619  23.924  1.00  0.00     0.105 C 
ATOM      9  C   UNL A   1      32.035  21.025  22.680  1.00  0.00     0.023 C 
BRANCH   8  10
ATOM     10  C   UNL A   1      32.164  22.937  24.464  1.00  0.00    -0.036 A 
ATOM     11  C   UNL A   1      31.357  25.481  25.419  1.00  0.00    -0.048 A 
ATOM     12  C   UNL A   1      31.949  25.350  24.160  1.00  0.00     0.004 A 
ATOM     13  C   UNL A   1      31.145  24.330  26.185  1.00  0.00     0.004 A 
ATOM     14  C   UNL A   1      32.356  24.098  23.695  1.00  0.00     0.005 A 
ATOM     15  C   UNL A   1      31.523  23.072  25.703  1.00  0.00     0.005 A 
BRANCH  11  16
ATOM     16  C   UNL A   1      30.964  26.840  25.947  1.00  0.00     0.038 C 
BRANCH  16  17
ATOM     17  C   UNL A   1      31.995  27.469  26.906  1.00  0.00    -0.013 C 
ATOM     18  C   UNL A   1      33.434  27.307  26.409  1.00  0.00     0.008 C 
ATOM     19  C   UNL A   1      31.685  28.959  27.086  1.00  0.00     0.008 C 
ENDBRANCH  16  17
ENDBRANCH  11  16
ENDBRANCH   8  10
ENDBRANCH   5   8
ENDBRANCH   3   4
ENDBRANCH   2   3
ENDBRANCH   1   2
BRANCH   1  20
ATOM     20  C   UNL A   1      36.868  23.617  24.973  1.00  0.00     0.002 C 
BRANCH  20  21
ATOM     21  C   UNL A   1      38.050  23.120  25.810  1.00  0.00     0.021 C 
BRANCH  21  22
ATOM     22  C   UNL A   1      38.859  24.212  26.504  1.00  0.00     0.116 C 
BRANCH  22  23
ATOM     23  N   UNL A   1      40.262  24.182  26.129  1.00  0.00    -0.352 N 
ATOM     24  C   UNL A   1      41.283  25.016  26.500  1.00  0.00     0.251 C 
ATOM     25  H   UNL A   1      40.517  23.453  25.517  1.00  0.00     0.163 HD
ATOM     26  O   UNL A   1      42.373  24.933  25.928  1.00  0.00    -0.269 OA
BRANCH  24  27
ATOM     27  C   UNL A   1      41.082  26.023  27.563  1.00  0.00     0.039 A 
ATOM     28  C   UNL A   1      40.041  25.840  28.475  1.00  0.00     0.014 A 
ATOM     29  C   UNL A   1      41.897  27.157  27.652  1.00  0.00     0.014 A 
ATOM     30  C   UNL A   1      39.847  26.765  29.504  1.00  0.00     0.010 A 
ATOM     31  C   UNL A   1      41.748  28.041  28.718  1.00  0.00     0.010 A 
ATOM     32  C   UNL A   1      40.718  27.857  29.653  1.00  0.00    -0.014 A 
BRANCH  32  33
ATOM     33  C   UNL A   1      40.560  28.807  30.785  1.00  0.00     0.031 A 
ATOM     34  C   UNL A   1      41.417  28.680  32.016  1.00  0.00     0.074 A 
ATOM     35  C   UNL A   1      39.609  29.762  30.720  1.00  0.00     0.049 A 
ATOM     36  N   UNL A   1      41.407  29.402  33.107  1.00  0.00    -0.248 NA
ATOM     37  C   UNL A   1      42.396  27.582  32.034  1.00  0.00     0.031 C 
ATOM     38  C   UNL A   1      38.678  29.952  29.606  1.00  0.00     0.029 A 
ATOM     39  N   UNL A   1      39.265  30.748  31.610  1.00  0.00    -0.354 N 
ATOM     40  C   UNL A   1      42.369  28.845  33.942  1.00  0.00     0.074 A 
ATOM     41  C   UNL A   1      42.903  27.689  33.254  1.00  0.00     0.031 C 
ATOM     42  C   UNL A   1      37.890  31.006  29.866  1.00  0.00     0.029 A 
ATOM     43  C   UNL A   1      38.234  31.548  31.177  1.00  0.00     0.049 A 
ATOM     44  H   UNL A   1      39.716  30.872  32.477  1.00  0.00     0.167 HD
ATOM     45  C   UNL A   1      42.785  29.270  35.159  1.00  0.00     0.037 A 
ATOM     46  C   UNL A   1      37.633  32.598  31.769  1.00  0.00     0.037 A 
ATOM     47  C   UNL A   1      42.263  30.434  35.829  1.00  0.00     0.049 A 
ATOM     48  C   UNL A   1      38.121  33.058  33.116  1.00  0.00     0.074 A 
ATOM     49  C   UNL A   1      42.659  30.982  37.038  1.00  0.00     0.029 A 
ATOM     50  N   UNL A   1      41.232  31.229  35.351  1.00  0.00    -0.354 N 
ATOM     51  N   UNL A   1      39.078  32.559  33.861  1.00  0.00    -0.248 NA
ATOM     52  C   UNL A   1      37.455  34.232  33.697  1.00  0.00     0.031 C 
ATOM     53  C   UNL A   1      41.838  32.082  37.311  1.00  0.00     0.029 A 
ATOM     54  C   UNL A   1      40.964  32.251  36.249  1.00  0.00     0.049 A 
ATOM     55  H   UNL A   1      40.760  31.090  34.498  1.00  0.00     0.167 HD
ATOM     56  C   UNL A   1      39.145  33.371  34.987  1.00  0.00     0.074 A 
ATOM     57  C   UNL A   1      38.145  34.404  34.816  1.00  0.00     0.031 C 
ATOM     58  C   UNL A   1      39.961  33.271  36.066  1.00  0.00     0.037 A 
BRANCH  45  59
ATOM     59  C   UNL A   1      43.864  28.475  35.845  1.00  0.00     0.058 A 
ATOM     60  C   UNL A   1      45.226  28.756  35.645  1.00  0.00     0.135 A 
ATOM     61  C   UNL A   1      43.535  27.443  36.738  1.00  0.00     0.135 A 
ATOM     62  F   UNL A   1      45.600  29.723  34.792  1.00  0.00    -0.206 F 
ATOM     63  C   UNL A   1      46.222  28.022  36.282  1.00  0.00     0.059 A 
ATOM     64  C   UNL A   1      44.514  26.714  37.407  1.00  0.00     0.059 A 
ATOM     65  F   UNL A   1      42.250  27.131  36.966  1.00  0.00    -0.206 F 
ATOM     66  C   UNL A   1      45.856  27.002  37.161  1.00  0.00     0.060 A 
BRANCH  66  67
ATOM     67  S   UNL A   1      47.161  26.061  37.981  1.00  0.00     0.124 S 
ATOM     68  O   UNL A   1      47.088  26.588  39.341  1.00  0.00    -0.237 OA
ATOM     69  O   UNL A   1      46.708  24.684  37.810  1.00  0.00    -0.237 OA
ATOM     70  O   UNL A   1      48.361  26.421  37.232  1.00  0.00    -0.744 OA
ENDBRANCH  66  67
ENDBRANCH  45  59
BRANCH  46  71
ATOM     71  C   UNL A   1      36.521  33.303  31.077  1.00  0.00     0.058 A 
ATOM     72  C   UNL A   1      36.767  34.128  29.969  1.00  0.00     0.135 A 
ATOM     73  C   UNL A   1      35.191  33.155  31.499  1.00  0.00     0.135 A 
ATOM     74  F   UNL A   1      38.023  34.305  29.531  1.00  0.00    -0.206 F 
ATOM     75  C   UNL A   1      35.737  34.796  29.314  1.00  0.00     0.059 A 
ATOM     76  C   UNL A   1      34.141  33.792  30.845  1.00  0.00     0.059 A 
ATOM     77  F   UNL A   1      34.900  32.363  32.543  1.00  0.00    -0.206 F 
ATOM     78  C   UNL A   1      34.426  34.620  29.759  1.00  0.00     0.060 A 
BRANCH  78  79
ATOM     79  S   UNL A   1      33.091  35.452  28.872  1.00  0.00     0.124 S 
ATOM     80  O   UNL A   1      32.296  35.986  29.972  1.00  0.00    -0.237 OA
ATOM     81  O   UNL A   1      33.817  36.433  28.073  1.00  0.00    -0.237 OA
ATOM     82  O   UNL A   1      32.471  34.370  28.111  1.00  0.00    -0.744 OA
ENDBRANCH  78  79
ENDBRANCH  46  71
BRANCH  58  83
ATOM     83  C   UNL A   1      39.822  34.323  37.132  1.00  0.00     0.058 A 
ATOM     84  C   UNL A   1      38.989  34.140  38.247  1.00  0.00     0.135 A 
ATOM     85  C   UNL A   1      40.548  35.522  37.047  1.00  0.00     0.135 A 
ATOM     86  F   UNL A   1      38.270  33.013  38.375  1.00  0.00    -0.206 F 
ATOM     87  C   UNL A   1      38.852  35.122  39.222  1.00  0.00     0.059 A 
ATOM     88  C   UNL A   1      40.449  36.507  38.025  1.00  0.00     0.059 A 
ATOM     89  F   UNL A   1      41.368  35.746  36.008  1.00  0.00    -0.206 F 
ATOM     90  C   UNL A   1      39.584  36.305  39.100  1.00  0.00     0.060 A 
BRANCH  90  91
ATOM     91  S   UNL A   1      39.403  37.571  40.374  1.00  0.00     0.124 S 
ATOM     92  O   UNL A   1      38.211  38.277  39.917  1.00  0.00    -0.237 OA
ATOM     93  O   UNL A   1      39.242  36.775  41.587  1.00  0.00    -0.237 OA
ATOM     94  O   UNL A   1      40.651  38.323  40.286  1.00  0.00    -0.744 OA
ENDBRANCH  90  91
ENDBRANCH  58  83
ENDBRANCH  32  33
ENDBRANCH  24  27
ENDBRANCH  22  23
ENDBRANCH  21  22
ENDBRANCH  20  21
ENDBRANCH   1  20
TORSDOF 19
ENDMDL
