MODEL 1
REMARK VINA RESULT:     -11.0      0.000      0.000
REMARK SMILES CC(C)(C)C(=O)Nc1ccc(C(=O)NCCCCCCNC(=O)c2ccc(-c3c4nc(c(-c5c(F)cc(S(=O)(=O)[O-])cc5F)c5ccc([nH]5)c(-c5c(F)cc(S(=O)(=O)[O-])cc5F)c5nc(c(-c6c(F)cc(S(=O)(=O)[O-])cc6F)c6ccc3[nH]6)C=C5)C=C4)cc2)cc1Br
REMARK SMILES IDX 18 1 17 2 16 3 15 4 14 5 12 6 13 7 11 9 8 10 9 11 91 12
REMARK SMILES IDX 10 13 90 14 92 15 7 16 5 17 6 18 2 20 1 21 3 22 4 23 19 24
REMARK SMILES IDX 20 25 21 26 22 27 23 29 24 30 25 31 89 32 26 33 88 34 27 35
REMARK SMILES IDX 28 36 29 37 82 38 30 39 87 40 81 41 83 42 31 43 86 44 80 45
REMARK SMILES IDX 79 46 32 48 66 49 45 50 65 51 46 52 49 53 64 54 84 55 47 56
REMARK SMILES IDX 48 57 63 59 85 60 50 61 33 62 34 63 43 64 35 65 36 66 42 67
REMARK SMILES IDX 44 68 37 69 38 70 39 71 40 72 41 73 67 74 68 75 77 76 69 77
REMARK SMILES IDX 70 78 76 79 78 80 71 81 72 82 73 83 74 84 75 85 51 86 52 87
REMARK SMILES IDX 61 88 53 89 54 90 60 91 62 92 55 93 56 94 57 95 58 96 59 97
REMARK H PARENT 14 8 7 19 21 28 83 47 49 58
REMARK Flexibility Score: inf
ROOT
ATOM      1  C   UNL A   1      33.392  29.110  24.997  1.00  0.00     0.002 C 
ENDROOT
BRANCH   1   2
ATOM      2  C   UNL A   1      32.066  29.030  24.231  1.00  0.00     0.002 C 
BRANCH   2   3
ATOM      3  C   UNL A   1      32.194  28.639  22.752  1.00  0.00     0.021 C 
BRANCH   3   4
ATOM      4  C   UNL A   1      31.606  27.264  22.430  1.00  0.00     0.116 C 
BRANCH   4   5
ATOM      5  N   UNL A   1      30.278  27.136  23.009  1.00  0.00    -0.352 N 
ATOM      6  C   UNL A   1      29.723  26.176  23.815  1.00  0.00     0.251 C 
ATOM      7  O   UNL A   1      28.562  26.319  24.198  1.00  0.00    -0.269 OA
ATOM      8  H   UNL A   1      29.667  27.874  22.782  1.00  0.00     0.163 HD
BRANCH   6   9
ATOM      9  C   UNL A   1      30.509  25.020  24.312  1.00  0.00     0.041 A 
ATOM     10  C   UNL A   1      32.298  23.114  25.291  1.00  0.00     0.055 A 
ATOM     11  C   UNL A   1      31.768  24.073  26.156  1.00  0.00     0.028 A 
ATOM     12  C   UNL A   1      31.761  22.977  24.005  1.00  0.00     0.042 A 
ATOM     13  C   UNL A   1      30.888  25.036  25.660  1.00  0.00     0.016 A 
ATOM     14  C   UNL A   1      30.870  23.932  23.514  1.00  0.00     0.031 A 
ATOM     15  Br  UNL A   1      32.144  21.474  22.908  1.00  0.00    -0.049 Br
BRANCH  10  16
ATOM     16  N   UNL A   1      33.314  22.293  25.777  1.00  0.00    -0.325 N 
ATOM     17  C   UNL A   1      34.668  22.377  25.583  1.00  0.00     0.229 C 
ATOM     18  O   UNL A   1      35.335  21.501  26.150  1.00  0.00    -0.274 OA
ATOM     19  H   UNL A   1      33.016  21.544  26.342  1.00  0.00     0.169 HD
BRANCH  17  20
ATOM     20  C   UNL A   1      35.368  23.528  24.798  1.00  0.00     0.041 C 
ATOM     21  C   UNL A   1      35.364  23.143  23.298  1.00  0.00     0.021 C 
ATOM     22  C   UNL A   1      36.837  23.679  25.219  1.00  0.00     0.021 C 
ATOM     23  C   UNL A   1      34.655  24.880  24.902  1.00  0.00     0.021 C 
ENDBRANCH  17  20
ENDBRANCH  10  16
ENDBRANCH   6   9
ENDBRANCH   4   5
ENDBRANCH   3   4
ENDBRANCH   2   3
ENDBRANCH   1   2
BRANCH   1  24
ATOM     24  C   UNL A   1      33.626  27.988  26.012  1.00  0.00     0.021 C 
BRANCH  24  25
ATOM     25  C   UNL A   1      33.441  28.402  27.470  1.00  0.00     0.116 C 
BRANCH  25  26
ATOM     26  N   UNL A   1      33.428  29.848  27.624  1.00  0.00    -0.352 N 
ATOM     27  C   UNL A   1      34.396  30.680  28.134  1.00  0.00     0.251 C 
ATOM     28  H   UNL A   1      32.607  30.297  27.319  1.00  0.00     0.163 HD
ATOM     29  O   UNL A   1      34.122  31.846  28.401  1.00  0.00    -0.269 OA
BRANCH  27  30
ATOM     30  C   UNL A   1      35.761  30.163  28.375  1.00  0.00     0.039 A 
ATOM     31  C   UNL A   1      36.668  30.122  27.314  1.00  0.00     0.014 A 
ATOM     32  C   UNL A   1      36.141  29.716  29.644  1.00  0.00     0.014 A 
ATOM     33  C   UNL A   1      37.980  29.699  27.542  1.00  0.00     0.010 A 
ATOM     34  C   UNL A   1      37.465  29.356  29.884  1.00  0.00     0.010 A 
ATOM     35  C   UNL A   1      38.400  29.351  28.837  1.00  0.00    -0.014 A 
BRANCH  35  36
ATOM     36  C   UNL A   1      39.818  29.015  29.125  1.00  0.00     0.031 A 
ATOM     37  C   UNL A   1      40.751  30.060  29.673  1.00  0.00     0.074 A 
ATOM     38  C   UNL A   1      40.281  27.787  28.818  1.00  0.00     0.049 A 
ATOM     39  N   UNL A   1      42.037  29.979  29.902  1.00  0.00    -0.248 NA
ATOM     40  C   UNL A   1      40.168  31.374  29.984  1.00  0.00     0.031 C 
ATOM     41  C   UNL A   1      39.482  26.702  28.241  1.00  0.00     0.029 A 
ATOM     42  N   UNL A   1      41.537  27.246  28.931  1.00  0.00    -0.354 N 
ATOM     43  C   UNL A   1      42.419  31.230  30.371  1.00  0.00     0.074 A 
ATOM     44  C   UNL A   1      41.238  32.066  30.352  1.00  0.00     0.031 C 
ATOM     45  C   UNL A   1      40.264  25.626  28.063  1.00  0.00     0.029 A 
ATOM     46  C   UNL A   1      41.626  25.954  28.469  1.00  0.00     0.049 A 
ATOM     47  H   UNL A   1      42.303  27.738  29.307  1.00  0.00     0.167 HD
ATOM     48  C   UNL A   1      43.639  31.638  30.795  1.00  0.00     0.037 A 
ATOM     49  C   UNL A   1      42.688  25.131  28.368  1.00  0.00     0.037 A 
ATOM     50  C   UNL A   1      44.806  30.794  30.826  1.00  0.00     0.049 A 
ATOM     51  C   UNL A   1      44.037  25.613  28.828  1.00  0.00     0.074 A 
ATOM     52  C   UNL A   1      46.073  31.095  31.295  1.00  0.00     0.029 A 
ATOM     53  N   UNL A   1      44.855  29.487  30.362  1.00  0.00    -0.354 N 
ATOM     54  N   UNL A   1      44.366  26.778  29.333  1.00  0.00    -0.248 NA
ATOM     55  C   UNL A   1      45.158  24.671  28.709  1.00  0.00     0.031 C 
ATOM     56  C   UNL A   1      46.899  29.990  31.068  1.00  0.00     0.029 A 
ATOM     57  C   UNL A   1      46.135  28.978  30.508  1.00  0.00     0.049 A 
ATOM     58  H   UNL A   1      44.090  28.993  29.985  1.00  0.00     0.167 HD
ATOM     59  C   UNL A   1      45.726  26.702  29.611  1.00  0.00     0.074 A 
ATOM     60  C   UNL A   1      46.154  25.371  29.235  1.00  0.00     0.031 C 
ATOM     61  C   UNL A   1      46.547  27.650  30.127  1.00  0.00     0.037 A 
BRANCH  48  62
ATOM     62  C   UNL A   1      43.780  33.061  31.262  1.00  0.00     0.058 A 
ATOM     63  C   UNL A   1      43.981  34.118  30.359  1.00  0.00     0.135 A 
ATOM     64  C   UNL A   1      43.663  33.380  32.625  1.00  0.00     0.135 A 
ATOM     65  F   UNL A   1      44.115  33.869  29.047  1.00  0.00    -0.206 F 
ATOM     66  C   UNL A   1      44.083  35.436  30.793  1.00  0.00     0.059 A 
ATOM     67  C   UNL A   1      43.733  34.696  33.077  1.00  0.00     0.059 A 
ATOM     68  F   UNL A   1      43.471  32.410  33.533  1.00  0.00    -0.206 F 
ATOM     69  C   UNL A   1      43.956  35.716  32.153  1.00  0.00     0.060 A 
BRANCH  69  70
ATOM     70  S   UNL A   1      44.077  37.434  32.696  1.00  0.00     0.124 S 
ATOM     71  O   UNL A   1      43.859  38.150  31.443  1.00  0.00    -0.237 OA
ATOM     72  O   UNL A   1      42.998  37.527  33.674  1.00  0.00    -0.237 OA
ATOM     73  O   UNL A   1      45.426  37.524  33.243  1.00  0.00    -0.744 OA
ENDBRANCH  69  70
ENDBRANCH  48  62
BRANCH  49  74
ATOM     74  C   UNL A   1      42.518  23.763  27.806  1.00  0.00     0.058 A 
ATOM     75  C   UNL A   1      42.471  23.552  26.421  1.00  0.00     0.135 A 
ATOM     76  C   UNL A   1      42.408  22.640  28.642  1.00  0.00     0.135 A 
ATOM     77  F   UNL A   1      42.564  24.594  25.580  1.00  0.00    -0.206 F 
ATOM     78  C   UNL A   1      42.304  22.280  25.882  1.00  0.00     0.059 A 
ATOM     79  C   UNL A   1      42.269  21.356  28.127  1.00  0.00     0.059 A 
ATOM     80  F   UNL A   1      42.465  22.785  29.975  1.00  0.00    -0.206 F 
ATOM     81  C   UNL A   1      42.206  21.187  26.745  1.00  0.00     0.060 A 
BRANCH  81  82
ATOM     82  S   UNL A   1      42.035  19.535  26.035  1.00  0.00     0.124 S 
ATOM     83  O   UNL A   1      42.498  18.694  27.133  1.00  0.00    -0.237 OA
ATOM     84  O   UNL A   1      40.607  19.475  25.740  1.00  0.00    -0.237 OA
ATOM     85  O   UNL A   1      42.908  19.583  24.865  1.00  0.00    -0.744 OA
ENDBRANCH  81  82
ENDBRANCH  49  74
BRANCH  61  86
ATOM     86  C   UNL A   1      47.988  27.274  30.340  1.00  0.00     0.058 A 
ATOM     87  C   UNL A   1      48.941  27.404  29.318  1.00  0.00     0.135 A 
ATOM     88  C   UNL A   1      48.430  26.825  31.595  1.00  0.00     0.135 A 
ATOM     89  F   UNL A   1      48.571  27.820  28.097  1.00  0.00    -0.206 F 
ATOM     90  C   UNL A   1      50.278  27.077  29.526  1.00  0.00     0.059 A 
ATOM     91  C   UNL A   1      49.766  26.522  31.833  1.00  0.00     0.059 A 
ATOM     92  F   UNL A   1      47.562  26.693  32.610  1.00  0.00    -0.206 F 
ATOM     93  C   UNL A   1      50.682  26.640  30.788  1.00  0.00     0.060 A 
BRANCH  93  94
ATOM     94  S   UNL A   1      52.424  26.252  31.052  1.00  0.00     0.124 S 
ATOM     95  O   UNL A   1      52.846  27.356  31.907  1.00  0.00    -0.237 OA
ATOM     96  O   UNL A   1      52.359  24.942  31.695  1.00  0.00    -0.237 OA
ATOM     97  O   UNL A   1      52.981  26.253  29.703  1.00  0.00    -0.744 OA
ENDBRANCH  93  94
ENDBRANCH  61  86
ENDBRANCH  35  36
ENDBRANCH  27  30
ENDBRANCH  25  26
ENDBRANCH  24  25
ENDBRANCH   1  24
TORSDOF 18
ENDMDL
MODEL 2
REMARK VINA RESULT:     -10.8      2.958      9.223
REMARK SMILES CC(C)(C)C(=O)Nc1ccc(C(=O)NCCCCCCNC(=O)c2ccc(-c3c4nc(c(-c5c(F)cc(S(=O)(=O)[O-])cc5F)c5ccc([nH]5)c(-c5c(F)cc(S(=O)(=O)[O-])cc5F)c5nc(c(-c6c(F)cc(S(=O)(=O)[O-])cc6F)c6ccc3[nH]6)C=C5)C=C4)cc2)cc1Br
REMARK SMILES IDX 18 1 17 2 16 3 15 4 14 5 12 6 13 7 11 9 8 10 9 11 91 12
REMARK SMILES IDX 10 13 90 14 92 15 7 16 5 17 6 18 2 20 1 21 3 22 4 23 19 24
REMARK SMILES IDX 20 25 21 26 22 27 23 29 24 30 25 31 89 32 26 33 88 34 27 35
REMARK SMILES IDX 28 36 29 37 82 38 30 39 87 40 81 41 83 42 31 43 86 44 80 45
REMARK SMILES IDX 79 46 32 48 66 49 45 50 65 51 46 52 49 53 64 54 84 55 47 56
REMARK SMILES IDX 48 57 63 59 85 60 50 61 33 62 34 63 43 64 35 65 36 66 42 67
REMARK SMILES IDX 44 68 37 69 38 70 39 71 40 72 41 73 67 74 68 75 77 76 69 77
REMARK SMILES IDX 70 78 76 79 78 80 71 81 72 82 73 83 74 84 75 85 51 86 52 87
REMARK SMILES IDX 61 88 53 89 54 90 60 91 62 92 55 93 56 94 57 95 58 96 59 97
REMARK H PARENT 14 8 7 19 21 28 83 47 49 58
REMARK Flexibility Score: inf
ROOT
ATOM      1  C   UNL A   1      35.670  21.573  24.430  1.00  0.00     0.002 C 
ENDROOT
BRANCH   1   2
ATOM      2  C   UNL A   1      34.869  21.112  25.653  1.00  0.00     0.002 C 
BRANCH   2   3
ATOM      3  C   UNL A   1      33.824  20.023  25.372  1.00  0.00     0.021 C 
BRANCH   3   4
ATOM      4  C   UNL A   1      32.639  20.512  24.537  1.00  0.00     0.116 C 
BRANCH   4   5
ATOM      5  N   UNL A   1      31.601  21.048  25.403  1.00  0.00    -0.352 N 
ATOM      6  C   UNL A   1      31.293  22.332  25.771  1.00  0.00     0.251 C 
ATOM      7  O   UNL A   1      30.327  22.524  26.509  1.00  0.00    -0.269 OA
ATOM      8  H   UNL A   1      31.012  20.364  25.795  1.00  0.00     0.163 HD
BRANCH   6   9
ATOM      9  C   UNL A   1      32.031  23.500  25.231  1.00  0.00     0.041 A 
ATOM     10  C   UNL A   1      33.167  25.926  24.448  1.00  0.00     0.055 A 
ATOM     11  C   UNL A   1      33.388  25.445  25.739  1.00  0.00     0.028 A 
ATOM     12  C   UNL A   1      32.573  25.090  23.495  1.00  0.00     0.042 A 
ATOM     13  C   UNL A   1      32.804  24.241  26.134  1.00  0.00     0.016 A 
ATOM     14  C   UNL A   1      32.001  23.878  23.888  1.00  0.00     0.031 A 
ATOM     15  Br  UNL A   1      32.581  25.508  21.641  1.00  0.00    -0.049 Br
BRANCH  10  16
ATOM     16  N   UNL A   1      33.604  27.216  24.152  1.00  0.00    -0.325 N 
ATOM     17  C   UNL A   1      32.971  28.415  24.345  1.00  0.00     0.229 C 
ATOM     18  O   UNL A   1      33.613  29.413  23.987  1.00  0.00    -0.274 OA
ATOM     19  H   UNL A   1      34.499  27.275  23.745  1.00  0.00     0.169 HD
BRANCH  17  20
ATOM     20  C   UNL A   1      31.589  28.569  25.051  1.00  0.00     0.041 C 
ATOM     21  C   UNL A   1      31.045  29.980  24.715  1.00  0.00     0.021 C 
ATOM     22  C   UNL A   1      31.730  28.494  26.578  1.00  0.00     0.021 C 
ATOM     23  C   UNL A   1      30.529  27.570  24.576  1.00  0.00     0.021 C 
ENDBRANCH  17  20
ENDBRANCH  10  16
ENDBRANCH   6   9
ENDBRANCH   4   5
ENDBRANCH   3   4
ENDBRANCH   2   3
ENDBRANCH   1   2
BRANCH   1  24
ATOM     24  C   UNL A   1      35.808  23.090  24.276  1.00  0.00     0.021 C 
BRANCH  24  25
ATOM     25  C   UNL A   1      36.967  23.704  25.059  1.00  0.00     0.116 C 
BRANCH  25  26
ATOM     26  N   UNL A   1      38.011  22.730  25.334  1.00  0.00    -0.352 N 
ATOM     27  C   UNL A   1      39.221  22.901  25.962  1.00  0.00     0.251 C 
ATOM     28  H   UNL A   1      37.824  21.814  25.024  1.00  0.00     0.163 HD
ATOM     29  O   UNL A   1      40.073  22.021  25.899  1.00  0.00    -0.269 OA
BRANCH  27  30
ATOM     30  C   UNL A   1      39.499  24.154  26.698  1.00  0.00     0.039 A 
ATOM     31  C   UNL A   1      38.970  24.318  27.980  1.00  0.00     0.014 A 
ATOM     32  C   UNL A   1      40.275  25.164  26.122  1.00  0.00     0.014 A 
ATOM     33  C   UNL A   1      39.278  25.467  28.713  1.00  0.00     0.010 A 
ATOM     34  C   UNL A   1      40.634  26.277  26.877  1.00  0.00     0.010 A 
ATOM     35  C   UNL A   1      40.146  26.437  28.183  1.00  0.00    -0.014 A 
BRANCH  35  36
ATOM     36  C   UNL A   1      40.585  27.605  28.990  1.00  0.00     0.031 A 
ATOM     37  C   UNL A   1      41.887  27.564  29.741  1.00  0.00     0.074 A 
ATOM     38  C   UNL A   1      39.768  28.672  29.105  1.00  0.00     0.049 A 
ATOM     39  N   UNL A   1      42.391  28.447  30.565  1.00  0.00    -0.248 NA
ATOM     40  C   UNL A   1      42.721  26.366  29.561  1.00  0.00     0.031 C 
ATOM     41  C   UNL A   1      38.461  28.808  28.458  1.00  0.00     0.029 A 
ATOM     42  N   UNL A   1      39.907  29.836  29.818  1.00  0.00    -0.354 N 
ATOM     43  C   UNL A   1      43.592  27.909  31.011  1.00  0.00     0.074 A 
ATOM     44  C   UNL A   1      43.720  26.603  30.401  1.00  0.00     0.031 C 
ATOM     45  C   UNL A   1      37.925  29.993  28.794  1.00  0.00     0.029 A 
ATOM     46  C   UNL A   1      38.826  30.680  29.713  1.00  0.00     0.049 A 
ATOM     47  H   UNL A   1      40.705  30.047  30.355  1.00  0.00     0.167 HD
ATOM     48  C   UNL A   1      44.511  28.461  31.838  1.00  0.00     0.037 A 
ATOM     49  C   UNL A   1      38.579  31.865  30.303  1.00  0.00     0.037 A 
ATOM     50  C   UNL A   1      44.383  29.769  32.428  1.00  0.00     0.049 A 
ATOM     51  C   UNL A   1      39.608  32.450  31.233  1.00  0.00     0.074 A 
ATOM     52  C   UNL A   1      45.288  30.443  33.231  1.00  0.00     0.029 A 
ATOM     53  N   UNL A   1      43.281  30.599  32.289  1.00  0.00    -0.354 N 
ATOM     54  N   UNL A   1      40.770  31.956  31.590  1.00  0.00    -0.248 NA
ATOM     55  C   UNL A   1      39.296  33.751  31.839  1.00  0.00     0.031 C 
ATOM     56  C   UNL A   1      44.712  31.657  33.618  1.00  0.00     0.029 A 
ATOM     57  C   UNL A   1      43.470  31.765  33.012  1.00  0.00     0.049 A 
ATOM     58  H   UNL A   1      42.481  30.391  31.753  1.00  0.00     0.167 HD
ATOM     59  C   UNL A   1      41.336  32.895  32.444  1.00  0.00     0.074 A 
ATOM     60  C   UNL A   1      40.397  33.994  32.536  1.00  0.00     0.031 C 
ATOM     61  C   UNL A   1      42.524  32.852  33.096  1.00  0.00     0.037 A 
BRANCH  48  62
ATOM     62  C   UNL A   1      45.742  27.655  32.159  1.00  0.00     0.058 A 
ATOM     63  C   UNL A   1      46.902  27.734  31.371  1.00  0.00     0.135 A 
ATOM     64  C   UNL A   1      45.780  26.832  33.296  1.00  0.00     0.135 A 
ATOM     65  F   UNL A   1      46.916  28.494  30.264  1.00  0.00    -0.206 F 
ATOM     66  C   UNL A   1      48.046  27.009  31.686  1.00  0.00     0.059 A 
ATOM     67  C   UNL A   1      46.924  26.120  33.646  1.00  0.00     0.059 A 
ATOM     68  F   UNL A   1      44.700  26.718  34.085  1.00  0.00    -0.206 F 
ATOM     69  C   UNL A   1      48.049  26.206  32.827  1.00  0.00     0.060 A 
BRANCH  69  70
ATOM     70  S   UNL A   1      49.548  25.284  33.228  1.00  0.00     0.124 S 
ATOM     71  O   UNL A   1      50.207  26.192  34.162  1.00  0.00    -0.237 OA
ATOM     72  O   UNL A   1      49.012  24.057  33.809  1.00  0.00    -0.237 OA
ATOM     73  O   UNL A   1      50.208  25.127  31.936  1.00  0.00    -0.744 OA
ENDBRANCH  69  70
ENDBRANCH  48  62
BRANCH  49  74
ATOM     74  C   UNL A   1      37.303  32.580  30.032  1.00  0.00     0.058 A 
ATOM     75  C   UNL A   1      37.232  33.591  29.062  1.00  0.00     0.135 A 
ATOM     76  C   UNL A   1      36.127  32.263  30.730  1.00  0.00     0.135 A 
ATOM     77  F   UNL A   1      38.331  33.937  28.373  1.00  0.00    -0.206 F 
ATOM     78  C   UNL A   1      36.048  34.274  28.805  1.00  0.00     0.059 A 
ATOM     79  C   UNL A   1      34.924  32.912  30.471  1.00  0.00     0.059 A 
ATOM     80  F   UNL A   1      36.135  31.291  31.657  1.00  0.00    -0.206 F 
ATOM     81  C   UNL A   1      34.897  33.924  29.514  1.00  0.00     0.060 A 
BRANCH  81  82
ATOM     82  S   UNL A   1      33.354  34.785  29.140  1.00  0.00     0.124 S 
ATOM     83  O   UNL A   1      33.845  36.018  28.534  1.00  0.00    -0.237 OA
ATOM     84  O   UNL A   1      32.692  33.848  28.238  1.00  0.00    -0.237 OA
ATOM     85  O   UNL A   1      32.727  34.931  30.451  1.00  0.00    -0.744 OA
ENDBRANCH  81  82
ENDBRANCH  49  74
BRANCH  61  86
ATOM     86  C   UNL A   1      42.889  34.036  33.949  1.00  0.00     0.058 A 
ATOM     87  C   UNL A   1      42.593  34.074  35.321  1.00  0.00     0.135 A 
ATOM     88  C   UNL A   1      43.585  35.123  33.398  1.00  0.00     0.135 A 
ATOM     89  F   UNL A   1      41.922  33.065  35.896  1.00  0.00    -0.206 F 
ATOM     90  C   UNL A   1      42.953  35.162  36.111  1.00  0.00     0.059 A 
ATOM     91  C   UNL A   1      43.982  36.206  34.175  1.00  0.00     0.059 A 
ATOM     92  F   UNL A   1      43.902  35.133  32.094  1.00  0.00    -0.206 F 
ATOM     93  C   UNL A   1      43.650  36.222  35.529  1.00  0.00     0.060 A 
BRANCH  93  94
ATOM     94  S   UNL A   1      44.140  37.610  36.573  1.00  0.00     0.124 S 
ATOM     95  O   UNL A   1      43.990  38.736  35.657  1.00  0.00    -0.237 OA
ATOM     96  O   UNL A   1      43.166  37.544  37.659  1.00  0.00    -0.237 OA
ATOM     97  O   UNL A   1      45.512  37.285  36.950  1.00  0.00    -0.744 OA
ENDBRANCH  93  94
ENDBRANCH  61  86
ENDBRANCH  35  36
ENDBRANCH  27  30
ENDBRANCH  25  26
ENDBRANCH  24  25
ENDBRANCH   1  24
TORSDOF 18
ENDMDL
MODEL 3
REMARK VINA RESULT:     -10.8      2.492      3.387
REMARK SMILES CC(C)(C)C(=O)Nc1ccc(C(=O)NCCCCCCNC(=O)c2ccc(-c3c4nc(c(-c5c(F)cc(S(=O)(=O)[O-])cc5F)c5ccc([nH]5)c(-c5c(F)cc(S(=O)(=O)[O-])cc5F)c5nc(c(-c6c(F)cc(S(=O)(=O)[O-])cc6F)c6ccc3[nH]6)C=C5)C=C4)cc2)cc1Br
REMARK SMILES IDX 18 1 17 2 16 3 15 4 14 5 12 6 13 7 11 9 8 10 9 11 91 12
REMARK SMILES IDX 10 13 90 14 92 15 7 16 5 17 6 18 2 20 1 21 3 22 4 23 19 24
REMARK SMILES IDX 20 25 21 26 22 27 23 29 24 30 25 31 89 32 26 33 88 34 27 35
REMARK SMILES IDX 28 36 29 37 82 38 30 39 87 40 81 41 83 42 31 43 86 44 80 45
REMARK SMILES IDX 79 46 32 48 66 49 45 50 65 51 46 52 49 53 64 54 84 55 47 56
REMARK SMILES IDX 48 57 63 59 85 60 50 61 33 62 34 63 43 64 35 65 36 66 42 67
REMARK SMILES IDX 44 68 37 69 38 70 39 71 40 72 41 73 67 74 68 75 77 76 69 77
REMARK SMILES IDX 70 78 76 79 78 80 71 81 72 82 73 83 74 84 75 85 51 86 52 87
REMARK SMILES IDX 61 88 53 89 54 90 60 91 62 92 55 93 56 94 57 95 58 96 59 97
REMARK H PARENT 14 8 7 19 21 28 83 47 49 58
REMARK Flexibility Score: inf
ROOT
ATOM      1  C   UNL A   1      32.656  29.690  26.751  1.00  0.00     0.002 C 
ENDROOT
BRANCH   1   2
ATOM      2  C   UNL A   1      32.200  29.455  25.306  1.00  0.00     0.002 C 
BRANCH   2   3
ATOM      3  C   UNL A   1      32.808  28.220  24.627  1.00  0.00     0.021 C 
BRANCH   3   4
ATOM      4  C   UNL A   1      32.120  27.844  23.312  1.00  0.00     0.116 C 
BRANCH   4   5
ATOM      5  N   UNL A   1      30.701  27.618  23.534  1.00  0.00    -0.352 N 
ATOM      6  C   UNL A   1      30.012  26.527  23.998  1.00  0.00     0.251 C 
ATOM      7  O   UNL A   1      28.790  26.603  24.122  1.00  0.00    -0.269 OA
ATOM      8  H   UNL A   1      30.131  28.390  23.312  1.00  0.00     0.163 HD
BRANCH   6   9
ATOM      9  C   UNL A   1      30.706  25.293  24.441  1.00  0.00     0.041 A 
ATOM     10  C   UNL A   1      32.335  23.217  25.351  1.00  0.00     0.055 A 
ATOM     11  C   UNL A   1      31.822  24.143  26.261  1.00  0.00     0.028 A 
ATOM     12  C   UNL A   1      31.851  23.204  24.037  1.00  0.00     0.042 A 
ATOM     13  C   UNL A   1      31.024  25.190  25.801  1.00  0.00     0.016 A 
ATOM     14  C   UNL A   1      31.040  24.244  23.581  1.00  0.00     0.031 A 
ATOM     15  Br  UNL A   1      32.195  21.761  22.850  1.00  0.00    -0.049 Br
BRANCH  10  16
ATOM     16  N   UNL A   1      33.279  22.303  25.817  1.00  0.00    -0.325 N 
ATOM     17  C   UNL A   1      34.641  22.311  25.677  1.00  0.00     0.229 C 
ATOM     18  O   UNL A   1      35.230  21.360  26.208  1.00  0.00    -0.274 OA
ATOM     19  H   UNL A   1      32.913  21.540  26.320  1.00  0.00     0.169 HD
BRANCH  17  20
ATOM     20  C   UNL A   1      35.441  23.463  24.995  1.00  0.00     0.041 C 
ATOM     21  C   UNL A   1      36.902  23.385  25.505  1.00  0.00     0.021 C 
ATOM     22  C   UNL A   1      34.897  24.840  25.402  1.00  0.00     0.021 C 
ATOM     23  C   UNL A   1      35.509  23.360  23.468  1.00  0.00     0.021 C 
ENDBRANCH  17  20
ENDBRANCH  10  16
ENDBRANCH   6   9
ENDBRANCH   4   5
ENDBRANCH   3   4
ENDBRANCH   2   3
ENDBRANCH   1   2
BRANCH   1  24
ATOM     24  C   UNL A   1      33.719  28.715  27.264  1.00  0.00     0.021 C 
BRANCH  24  25
ATOM     25  C   UNL A   1      35.113  29.320  27.420  1.00  0.00     0.116 C 
BRANCH  25  26
ATOM     26  N   UNL A   1      35.179  30.243  28.543  1.00  0.00    -0.352 N 
ATOM     27  C   UNL A   1      36.203  30.463  29.432  1.00  0.00     0.251 C 
ATOM     28  H   UNL A   1      34.373  30.789  28.687  1.00  0.00     0.163 HD
ATOM     29  O   UNL A   1      35.998  31.111  30.453  1.00  0.00    -0.269 OA
BRANCH  27  30
ATOM     30  C   UNL A   1      37.546  29.905  29.163  1.00  0.00     0.039 A 
ATOM     31  C   UNL A   1      38.010  29.857  27.846  1.00  0.00     0.014 A 
ATOM     32  C   UNL A   1      38.343  29.426  30.207  1.00  0.00     0.014 A 
ATOM     33  C   UNL A   1      39.301  29.393  27.584  1.00  0.00     0.010 A 
ATOM     34  C   UNL A   1      39.652  29.025  29.952  1.00  0.00     0.010 A 
ATOM     35  C   UNL A   1      40.148  29.012  28.639  1.00  0.00    -0.014 A 
BRANCH  35  36
ATOM     36  C   UNL A   1      41.563  28.633  28.396  1.00  0.00     0.031 A 
ATOM     37  C   UNL A   1      42.641  29.682  28.387  1.00  0.00     0.074 A 
ATOM     38  C   UNL A   1      41.862  27.350  28.106  1.00  0.00     0.049 A 
ATOM     39  N   UNL A   1      43.913  29.555  28.105  1.00  0.00    -0.248 NA
ATOM     40  C   UNL A   1      42.234  31.056  28.715  1.00  0.00     0.031 C 
ATOM     41  C   UNL A   1      40.896  26.251  28.042  1.00  0.00     0.029 A 
ATOM     42  N   UNL A   1      43.059  26.756  27.795  1.00  0.00    -0.354 N 
ATOM     43  C   UNL A   1      44.454  30.830  28.210  1.00  0.00     0.074 A 
ATOM     44  C   UNL A   1      43.365  31.725  28.537  1.00  0.00     0.031 C 
ATOM     45  C   UNL A   1      41.540  25.117  27.726  1.00  0.00     0.029 A 
ATOM     46  C   UNL A   1      42.954  25.412  27.519  1.00  0.00     0.049 A 
ATOM     47  H   UNL A   1      43.913  27.245  27.771  1.00  0.00     0.167 HD
ATOM     48  C   UNL A   1      45.745  31.215  28.064  1.00  0.00     0.037 A 
ATOM     49  C   UNL A   1      43.885  24.522  27.128  1.00  0.00     0.037 A 
ATOM     50  C   UNL A   1      46.826  30.315  27.755  1.00  0.00     0.049 A 
ATOM     51  C   UNL A   1      45.309  24.979  26.955  1.00  0.00     0.074 A 
ATOM     52  C   UNL A   1      48.177  30.598  27.647  1.00  0.00     0.029 A 
ATOM     53  N   UNL A   1      46.682  28.960  27.495  1.00  0.00    -0.354 N 
ATOM     54  N   UNL A   1      45.815  26.177  27.125  1.00  0.00    -0.248 NA
ATOM     55  C   UNL A   1      46.288  23.965  26.540  1.00  0.00     0.031 C 
ATOM     56  C   UNL A   1      48.842  29.426  27.273  1.00  0.00     0.029 A 
ATOM     57  C   UNL A   1      47.914  28.399  27.200  1.00  0.00     0.049 A 
ATOM     58  H   UNL A   1      45.829  28.468  27.519  1.00  0.00     0.167 HD
ATOM     59  C   UNL A   1      47.174  26.056  26.859  1.00  0.00     0.074 A 
ATOM     60  C   UNL A   1      47.414  24.666  26.534  1.00  0.00     0.031 C 
ATOM     61  C   UNL A   1      48.137  27.011  26.878  1.00  0.00     0.037 A 
BRANCH  48  62
ATOM     62  C   UNL A   1      46.065  32.676  28.238  1.00  0.00     0.058 A 
ATOM     63  C   UNL A   1      46.479  33.200  29.473  1.00  0.00     0.135 A 
ATOM     64  C   UNL A   1      46.007  33.554  27.143  1.00  0.00     0.135 A 
ATOM     65  F   UNL A   1      46.538  32.408  30.557  1.00  0.00    -0.206 F 
ATOM     66  C   UNL A   1      46.801  34.544  29.623  1.00  0.00     0.059 A 
ATOM     67  C   UNL A   1      46.353  34.898  27.264  1.00  0.00     0.059 A 
ATOM     68  F   UNL A   1      45.618  33.109  25.938  1.00  0.00    -0.206 F 
ATOM     69  C   UNL A   1      46.737  35.386  28.512  1.00  0.00     0.060 A 
BRANCH  69  70
ATOM     70  S   UNL A   1      47.172  37.126  28.722  1.00  0.00     0.124 S 
ATOM     71  O   UNL A   1      46.279  37.766  27.761  1.00  0.00    -0.237 OA
ATOM     72  O   UNL A   1      46.859  37.357  30.129  1.00  0.00    -0.237 OA
ATOM     73  O   UNL A   1      48.591  37.165  28.383  1.00  0.00    -0.744 OA
ENDBRANCH  69  70
ENDBRANCH  48  62
BRANCH  49  74
ATOM     74  C   UNL A   1      43.502  23.107  26.872  1.00  0.00     0.058 A 
ATOM     75  C   UNL A   1      43.173  22.246  27.929  1.00  0.00     0.135 A 
ATOM     76  C   UNL A   1      43.449  22.590  25.568  1.00  0.00     0.135 A 
ATOM     77  F   UNL A   1      43.217  22.690  29.195  1.00  0.00    -0.206 F 
ATOM     78  C   UNL A   1      42.822  20.919  27.706  1.00  0.00     0.059 A 
ATOM     79  C   UNL A   1      43.074  21.275  25.317  1.00  0.00     0.059 A 
ATOM     80  F   UNL A   1      43.737  23.378  24.520  1.00  0.00    -0.206 F 
ATOM     81  C   UNL A   1      42.772  20.442  26.394  1.00  0.00     0.060 A 
BRANCH  81  82
ATOM     82  S   UNL A   1      42.271  18.731  26.111  1.00  0.00     0.124 S 
ATOM     83  O   UNL A   1      40.872  18.894  25.730  1.00  0.00    -0.237 OA
ATOM     84  O   UNL A   1      43.180  18.318  25.047  1.00  0.00    -0.237 OA
ATOM     85  O   UNL A   1      42.504  18.097  27.406  1.00  0.00    -0.744 OA
ENDBRANCH  81  82
ENDBRANCH  49  74
BRANCH  61  86
ATOM     86  C   UNL A   1      49.544  26.582  26.562  1.00  0.00     0.058 A 
ATOM     87  C   UNL A   1      50.379  26.020  27.541  1.00  0.00     0.135 A 
ATOM     88  C   UNL A   1      50.045  26.689  25.255  1.00  0.00     0.135 A 
ATOM     89  F   UNL A   1      49.952  25.903  28.807  1.00  0.00    -0.206 F 
ATOM     90  C   UNL A   1      51.672  25.603  27.239  1.00  0.00     0.059 A 
ATOM     91  C   UNL A   1      51.323  26.250  24.925  1.00  0.00     0.059 A 
ATOM     92  F   UNL A   1      49.285  27.209  24.279  1.00  0.00    -0.206 F 
ATOM     93  C   UNL A   1      52.134  25.719  25.927  1.00  0.00     0.060 A 
BRANCH  93  94
ATOM     94  S   UNL A   1      53.801  25.142  25.544  1.00  0.00     0.124 S 
ATOM     95  O   UNL A   1      54.557  25.649  26.684  1.00  0.00    -0.237 OA
ATOM     96  O   UNL A   1      53.627  23.694  25.492  1.00  0.00    -0.237 OA
ATOM     97  O   UNL A   1      54.095  25.778  24.263  1.00  0.00    -0.744 OA
ENDBRANCH  93  94
ENDBRANCH  61  86
ENDBRANCH  35  36
ENDBRANCH  27  30
ENDBRANCH  25  26
ENDBRANCH  24  25
ENDBRANCH   1  24
TORSDOF 18
ENDMDL
