MODEL 1
REMARK VINA RESULT:     -11.3      0.000      0.000
REMARK SMILES Nc1nn(-c2ccc(Cl)cc2)nc1C(=O)NCCCCCCNC(=O)c1ccc(-c2c3nc(c(-c4c(F)cc(S(=O)(=O)[O-])cc4F)c4ccc([nH]4)c(-c4c(F)cc(S(=O)(=O)[O-])cc4F)c4nc(c(-c5c(F)cc(S(=O)(=O)[O-])cc5F)c5ccc2[nH]5)C=C4)C=C3)cc1
REMARK SMILES IDX 20 1 19 2 18 3 17 4 16 5 14 6 15 7 13 9 2 10 3 11 4 12 12 13
REMARK SMILES IDX 1 14 5 17 6 18 11 19 7 20 10 21 8 22 9 23 21 24 22 25 23 26
REMARK SMILES IDX 24 27 25 29 26 30 27 31 91 32 28 33 90 34 29 35 30 36 31 37
REMARK SMILES IDX 84 38 32 39 89 40 83 41 85 42 33 43 88 44 82 45 81 46 34 48
REMARK SMILES IDX 68 49 47 50 67 51 48 52 51 53 66 54 86 55 49 56 50 57 65 59
REMARK SMILES IDX 87 60 52 61 35 62 36 63 45 64 37 65 38 66 44 67 46 68 39 69
REMARK SMILES IDX 40 70 41 71 42 72 43 73 69 74 70 75 79 76 71 77 72 78 78 79
REMARK SMILES IDX 80 80 73 81 74 82 75 83 76 84 77 85 53 86 54 87 63 88 55 89
REMARK SMILES IDX 56 90 62 91 64 92 57 93 58 94 59 95 60 96 61 97
REMARK H PARENT 16 8 1 15 1 16 23 28 85 47 51 58
REMARK Flexibility Score: inf
ROOT
ATOM      1  C   UNL A   1      41.782  20.736  27.376  1.00  0.00     0.002 C 
ENDROOT
BRANCH   1   2
ATOM      2  C   UNL A   1      40.445  21.487  27.336  1.00  0.00     0.002 C 
BRANCH   2   3
ATOM      3  C   UNL A   1      39.943  21.989  25.976  1.00  0.00     0.021 C 
BRANCH   3   4
ATOM      4  C   UNL A   1      38.435  22.186  25.826  1.00  0.00     0.116 C 
BRANCH   4   5
ATOM      5  N   UNL A   1      37.746  21.015  25.330  1.00  0.00    -0.351 N 
ATOM      6  C   UNL A   1      36.405  20.764  25.147  1.00  0.00     0.275 C 
ATOM      7  O   UNL A   1      36.124  19.623  24.766  1.00  0.00    -0.267 OA
ATOM      8  H   UNL A   1      38.338  20.268  25.081  1.00  0.00     0.163 HD
BRANCH   6   9
ATOM      9  C   UNL A   1      35.363  21.775  25.366  1.00  0.00     0.194 A 
ATOM     10  C   UNL A   1      34.564  22.103  26.501  1.00  0.00     0.179 A 
ATOM     11  N   UNL A   1      33.912  23.240  26.286  1.00  0.00    -0.130 NA
ATOM     12  N   UNL A   1      34.330  23.591  25.052  1.00  0.00    -0.149 N 
ATOM     13  N   UNL A   1      35.112  22.699  24.408  1.00  0.00    -0.141 NA
BRANCH  10  14
ATOM     14  N   UNL A   1      34.457  21.489  27.685  1.00  0.00    -0.380 N 
ATOM     15  H   UNL A   1      33.793  21.800  28.342  1.00  0.00     0.158 HD
ATOM     16  H   UNL A   1      35.042  20.727  27.899  1.00  0.00     0.158 HD
ENDBRANCH  10  14
BRANCH  12  17
ATOM     17  C   UNL A   1      34.077  24.887  24.528  1.00  0.00     0.086 A 
ATOM     18  C   UNL A   1      33.990  25.996  25.380  1.00  0.00     0.032 A 
ATOM     19  C   UNL A   1      33.862  25.043  23.149  1.00  0.00     0.032 A 
ATOM     20  C   UNL A   1      33.701  27.257  24.849  1.00  0.00     0.023 A 
ATOM     21  C   UNL A   1      33.529  26.297  22.632  1.00  0.00     0.023 A 
ATOM     22  C   UNL A   1      33.457  27.399  23.482  1.00  0.00     0.041 A 
ATOM     23  Cl  UNL A   1      33.051  28.943  22.839  1.00  0.00    -0.084 Cl
ENDBRANCH  12  17
ENDBRANCH   6   9
ENDBRANCH   4   5
ENDBRANCH   3   4
ENDBRANCH   2   3
ENDBRANCH   1   2
BRANCH   1  24
ATOM     24  C   UNL A   1      42.058  19.711  26.270  1.00  0.00     0.021 C 
BRANCH  24  25
ATOM     25  C   UNL A   1      43.410  19.013  26.342  1.00  0.00     0.116 C 
BRANCH  25  26
ATOM     26  N   UNL A   1      44.088  18.928  25.054  1.00  0.00    -0.352 N 
ATOM     27  C   UNL A   1      44.460  19.972  24.230  1.00  0.00     0.251 C 
ATOM     28  H   UNL A   1      44.306  18.022  24.737  1.00  0.00     0.163 HD
ATOM     29  O   UNL A   1      44.701  19.777  23.045  1.00  0.00    -0.269 OA
BRANCH  27  30
ATOM     30  C   UNL A   1      44.539  21.331  24.801  1.00  0.00     0.039 A 
ATOM     31  C   UNL A   1      43.603  22.306  24.445  1.00  0.00     0.014 A 
ATOM     32  C   UNL A   1      45.527  21.605  25.742  1.00  0.00     0.014 A 
ATOM     33  C   UNL A   1      43.608  23.528  25.118  1.00  0.00     0.010 A 
ATOM     34  C   UNL A   1      45.461  22.769  26.480  1.00  0.00     0.010 A 
ATOM     35  C   UNL A   1      44.520  23.751  26.161  1.00  0.00    -0.014 A 
BRANCH  35  36
ATOM     36  C   UNL A   1      44.416  24.962  26.986  1.00  0.00     0.031 A 
ATOM     37  C   UNL A   1      45.446  26.023  26.752  1.00  0.00     0.074 A 
ATOM     38  C   UNL A   1      43.328  25.260  27.729  1.00  0.00     0.049 A 
ATOM     39  N   UNL A   1      46.265  26.555  27.602  1.00  0.00    -0.248 NA
ATOM     40  C   UNL A   1      45.622  26.517  25.376  1.00  0.00     0.031 C 
ATOM     41  C   UNL A   1      42.069  24.512  27.824  1.00  0.00     0.029 A 
ATOM     42  N   UNL A   1      43.067  26.385  28.455  1.00  0.00    -0.354 N 
ATOM     43  C   UNL A   1      46.927  27.581  26.923  1.00  0.00     0.074 A 
ATOM     44  C   UNL A   1      46.591  27.421  25.532  1.00  0.00     0.031 C 
ATOM     45  C   UNL A   1      41.111  25.311  28.338  1.00  0.00     0.029 A 
ATOM     46  C   UNL A   1      41.726  26.551  28.773  1.00  0.00     0.049 A 
ATOM     47  H   UNL A   1      43.766  27.022  28.728  1.00  0.00     0.167 HD
ATOM     48  C   UNL A   1      47.552  28.604  27.574  1.00  0.00     0.037 A 
ATOM     49  C   UNL A   1      41.139  27.640  29.320  1.00  0.00     0.037 A 
ATOM     50  C   UNL A   1      47.758  28.300  28.965  1.00  0.00     0.049 A 
ATOM     51  C   UNL A   1      42.196  28.429  29.996  1.00  0.00     0.074 A 
ATOM     52  C   UNL A   1      48.432  27.317  29.663  1.00  0.00     0.029 A 
ATOM     53  N   UNL A   1      46.940  28.912  29.882  1.00  0.00    -0.354 N 
ATOM     54  N   UNL A   1      42.862  28.018  31.040  1.00  0.00    -0.248 NA
ATOM     55  C   UNL A   1      42.793  29.544  29.279  1.00  0.00     0.031 C 
ATOM     56  C   UNL A   1      47.640  27.076  30.824  1.00  0.00     0.029 A 
ATOM     57  C   UNL A   1      46.554  27.954  30.782  1.00  0.00     0.049 A 
ATOM     58  H   UNL A   1      46.680  29.861  29.892  1.00  0.00     0.167 HD
ATOM     59  C   UNL A   1      44.139  28.526  30.870  1.00  0.00     0.074 A 
ATOM     60  C   UNL A   1      44.001  29.558  29.848  1.00  0.00     0.031 C 
ATOM     61  C   UNL A   1      45.233  27.877  31.368  1.00  0.00     0.037 A 
BRANCH  48  62
ATOM     62  C   UNL A   1      47.689  30.017  27.046  1.00  0.00     0.058 A 
ATOM     63  C   UNL A   1      48.948  30.660  27.089  1.00  0.00     0.135 A 
ATOM     64  C   UNL A   1      46.589  30.859  26.780  1.00  0.00     0.135 A 
ATOM     65  F   UNL A   1      50.066  29.959  27.338  1.00  0.00    -0.206 F 
ATOM     66  C   UNL A   1      49.088  32.044  26.964  1.00  0.00     0.059 A 
ATOM     67  C   UNL A   1      46.713  32.234  26.596  1.00  0.00     0.059 A 
ATOM     68  F   UNL A   1      45.329  30.406  26.786  1.00  0.00    -0.206 F 
ATOM     69  C   UNL A   1      47.958  32.825  26.742  1.00  0.00     0.060 A 
BRANCH  69  70
ATOM     70  S   UNL A   1      48.108  34.621  26.722  1.00  0.00     0.124 S 
ATOM     71  O   UNL A   1      49.153  34.832  27.716  1.00  0.00    -0.237 OA
ATOM     72  O   UNL A   1      48.480  34.884  25.335  1.00  0.00    -0.237 OA
ATOM     73  O   UNL A   1      46.772  35.070  27.101  1.00  0.00    -0.744 OA
ENDBRANCH  69  70
ENDBRANCH  48  62
BRANCH  49  74
ATOM     74  C   UNL A   1      39.773  28.155  29.057  1.00  0.00     0.058 A 
ATOM     75  C   UNL A   1      38.788  28.170  30.057  1.00  0.00     0.135 A 
ATOM     76  C   UNL A   1      39.479  28.875  27.879  1.00  0.00     0.135 A 
ATOM     77  F   UNL A   1      38.998  27.535  31.220  1.00  0.00    -0.206 F 
ATOM     78  C   UNL A   1      37.594  28.885  29.913  1.00  0.00     0.059 A 
ATOM     79  C   UNL A   1      38.293  29.582  27.707  1.00  0.00     0.059 A 
ATOM     80  F   UNL A   1      40.382  28.985  26.893  1.00  0.00    -0.206 F 
ATOM     81  C   UNL A   1      37.362  29.602  28.739  1.00  0.00     0.060 A 
BRANCH  81  82
ATOM     82  S   UNL A   1      35.899  30.655  28.615  1.00  0.00     0.124 S 
ATOM     83  O   UNL A   1      36.377  31.736  27.760  1.00  0.00    -0.237 OA
ATOM     84  O   UNL A   1      34.921  29.752  28.016  1.00  0.00    -0.237 OA
ATOM     85  O   UNL A   1      35.631  31.027  30.002  1.00  0.00    -0.744 OA
ENDBRANCH  81  82
ENDBRANCH  49  74
BRANCH  61  86
ATOM     86  C   UNL A   1      45.023  26.813  32.414  1.00  0.00     0.058 A 
ATOM     87  C   UNL A   1      44.837  27.072  33.783  1.00  0.00     0.135 A 
ATOM     88  C   UNL A   1      44.836  25.491  31.981  1.00  0.00     0.135 A 
ATOM     89  F   UNL A   1      44.894  28.320  34.264  1.00  0.00    -0.206 F 
ATOM     90  C   UNL A   1      44.511  26.056  34.684  1.00  0.00     0.059 A 
ATOM     91  C   UNL A   1      44.480  24.468  32.857  1.00  0.00     0.059 A 
ATOM     92  F   UNL A   1      44.939  25.190  30.675  1.00  0.00    -0.206 F 
ATOM     93  C   UNL A   1      44.330  24.757  34.211  1.00  0.00     0.060 A 
BRANCH  93  94
ATOM     94  S   UNL A   1      43.806  23.467  35.361  1.00  0.00     0.124 S 
ATOM     95  O   UNL A   1      42.441  23.873  35.676  1.00  0.00    -0.237 OA
ATOM     96  O   UNL A   1      43.939  22.252  34.562  1.00  0.00    -0.237 OA
ATOM     97  O   UNL A   1      44.762  23.583  36.461  1.00  0.00    -0.744 OA
ENDBRANCH  93  94
ENDBRANCH  61  86
ENDBRANCH  35  36
ENDBRANCH  27  30
ENDBRANCH  25  26
ENDBRANCH  24  25
ENDBRANCH   1  24
TORSDOF 18
ENDMDL
MODEL 2
REMARK VINA RESULT:     -11.3      3.127      9.458
REMARK SMILES Nc1nn(-c2ccc(Cl)cc2)nc1C(=O)NCCCCCCNC(=O)c1ccc(-c2c3nc(c(-c4c(F)cc(S(=O)(=O)[O-])cc4F)c4ccc([nH]4)c(-c4c(F)cc(S(=O)(=O)[O-])cc4F)c4nc(c(-c5c(F)cc(S(=O)(=O)[O-])cc5F)c5ccc2[nH]5)C=C4)C=C3)cc1
REMARK SMILES IDX 20 1 19 2 18 3 17 4 16 5 14 6 15 7 13 9 2 10 3 11 4 12 12 13
REMARK SMILES IDX 1 14 5 17 6 18 11 19 7 20 10 21 8 22 9 23 21 24 22 25 23 26
REMARK SMILES IDX 24 27 25 29 26 30 27 31 91 32 28 33 90 34 29 35 30 36 31 37
REMARK SMILES IDX 84 38 32 39 89 40 83 41 85 42 33 43 88 44 82 45 81 46 34 48
REMARK SMILES IDX 68 49 47 50 67 51 48 52 51 53 66 54 86 55 49 56 50 57 65 59
REMARK SMILES IDX 87 60 52 61 35 62 36 63 45 64 37 65 38 66 44 67 46 68 39 69
REMARK SMILES IDX 40 70 41 71 42 72 43 73 69 74 70 75 79 76 71 77 72 78 78 79
REMARK SMILES IDX 80 80 73 81 74 82 75 83 76 84 77 85 53 86 54 87 63 88 55 89
REMARK SMILES IDX 56 90 62 91 64 92 57 93 58 94 59 95 60 96 61 97
REMARK H PARENT 16 8 1 15 1 16 23 28 85 47 51 58
REMARK Flexibility Score: inf
ROOT
ATOM      1  C   UNL A   1      33.043  27.666  26.050  1.00  0.00     0.002 C 
ENDROOT
BRANCH   1   2
ATOM      2  C   UNL A   1      33.676  28.112  24.725  1.00  0.00     0.002 C 
BRANCH   2   3
ATOM      3  C   UNL A   1      32.950  29.189  23.908  1.00  0.00     0.021 C 
BRANCH   3   4
ATOM      4  C   UNL A   1      32.100  28.707  22.734  1.00  0.00     0.116 C 
BRANCH   4   5
ATOM      5  N   UNL A   1      30.984  27.876  23.130  1.00  0.00    -0.351 N 
ATOM      6  C   UNL A   1      30.835  26.508  23.143  1.00  0.00     0.275 C 
ATOM      7  O   UNL A   1      29.718  26.097  23.476  1.00  0.00    -0.267 OA
ATOM      8  H   UNL A   1      30.195  28.375  23.445  1.00  0.00     0.163 HD
BRANCH   6   9
ATOM      9  C   UNL A   1      31.921  25.579  22.805  1.00  0.00     0.194 A 
ATOM     10  C   UNL A   1      32.565  25.260  21.573  1.00  0.00     0.179 A 
ATOM     11  N   UNL A   1      33.644  24.519  21.802  1.00  0.00    -0.130 NA
ATOM     12  N   UNL A   1      33.650  24.414  23.147  1.00  0.00    -0.149 N 
ATOM     13  N   UNL A   1      32.585  24.935  23.793  1.00  0.00    -0.141 NA
BRANCH  10  14
ATOM     14  N   UNL A   1      32.276  25.645  20.325  1.00  0.00    -0.380 N 
ATOM     15  H   UNL A   1      32.288  26.601  20.090  1.00  0.00     0.158 HD
ATOM     16  H   UNL A   1      32.051  24.974  19.642  1.00  0.00     0.158 HD
ENDBRANCH  10  14
BRANCH  12  17
ATOM     17  C   UNL A   1      34.783  23.915  23.843  1.00  0.00     0.086 A 
ATOM     18  C   UNL A   1      35.075  24.362  25.139  1.00  0.00     0.032 A 
ATOM     19  C   UNL A   1      35.640  23.005  23.204  1.00  0.00     0.032 A 
ATOM     20  C   UNL A   1      36.218  23.889  25.794  1.00  0.00     0.023 A 
ATOM     21  C   UNL A   1      36.802  22.572  23.847  1.00  0.00     0.023 A 
ATOM     22  C   UNL A   1      37.083  23.010  25.140  1.00  0.00     0.041 A 
ATOM     23  Cl  UNL A   1      38.513  22.469  25.929  1.00  0.00    -0.084 Cl
ENDBRANCH  12  17
ENDBRANCH   6   9
ENDBRANCH   4   5
ENDBRANCH   3   4
ENDBRANCH   2   3
ENDBRANCH   1   2
BRANCH   1  24
ATOM     24  C   UNL A   1      32.521  28.756  26.993  1.00  0.00     0.021 C 
BRANCH  24  25
ATOM     25  C   UNL A   1      33.582  29.473  27.819  1.00  0.00     0.116 C 
BRANCH  25  26
ATOM     26  N   UNL A   1      33.840  30.837  27.372  1.00  0.00    -0.352 N 
ATOM     27  C   UNL A   1      34.943  31.619  27.657  1.00  0.00     0.251 C 
ATOM     28  H   UNL A   1      33.150  31.246  26.802  1.00  0.00     0.163 HD
ATOM     29  O   UNL A   1      34.896  32.836  27.526  1.00  0.00    -0.269 OA
BRANCH  27  30
ATOM     30  C   UNL A   1      36.170  30.961  28.145  1.00  0.00     0.039 A 
ATOM     31  C   UNL A   1      36.559  29.717  27.641  1.00  0.00     0.014 A 
ATOM     32  C   UNL A   1      36.962  31.629  29.075  1.00  0.00     0.014 A 
ATOM     33  C   UNL A   1      37.802  29.196  28.004  1.00  0.00     0.010 A 
ATOM     34  C   UNL A   1      38.233  31.165  29.346  1.00  0.00     0.010 A 
ATOM     35  C   UNL A   1      38.657  29.936  28.836  1.00  0.00    -0.014 A 
BRANCH  35  36
ATOM     36  C   UNL A   1      40.029  29.474  29.079  1.00  0.00     0.031 A 
ATOM     37  C   UNL A   1      40.447  29.337  30.510  1.00  0.00     0.074 A 
ATOM     38  C   UNL A   1      40.813  28.942  28.116  1.00  0.00     0.049 A 
ATOM     39  N   UNL A   1      41.444  29.894  31.118  1.00  0.00    -0.248 NA
ATOM     40  C   UNL A   1      39.608  28.508  31.393  1.00  0.00     0.031 C 
ATOM     41  C   UNL A   1      40.464  28.674  26.716  1.00  0.00     0.029 A 
ATOM     42  N   UNL A   1      42.057  28.392  28.228  1.00  0.00    -0.354 N 
ATOM     43  C   UNL A   1      41.479  29.347  32.403  1.00  0.00     0.074 A 
ATOM     44  C   UNL A   1      40.253  28.608  32.557  1.00  0.00     0.031 C 
ATOM     45  C   UNL A   1      41.349  27.801  26.192  1.00  0.00     0.029 A 
ATOM     46  C   UNL A   1      42.418  27.594  27.152  1.00  0.00     0.049 A 
ATOM     47  H   UNL A   1      42.644  28.547  29.002  1.00  0.00     0.167 HD
ATOM     48  C   UNL A   1      42.599  29.382  33.182  1.00  0.00     0.037 A 
ATOM     49  C   UNL A   1      43.496  26.782  27.055  1.00  0.00     0.037 A 
ATOM     50  C   UNL A   1      43.558  30.335  32.690  1.00  0.00     0.049 A 
ATOM     51  C   UNL A   1      44.498  27.247  28.043  1.00  0.00     0.074 A 
ATOM     52  C   UNL A   1      43.558  31.697  32.464  1.00  0.00     0.029 A 
ATOM     53  N   UNL A   1      44.664  29.850  32.037  1.00  0.00    -0.354 N 
ATOM     54  N   UNL A   1      45.111  28.397  27.979  1.00  0.00    -0.248 NA
ATOM     55  C   UNL A   1      44.555  26.585  29.336  1.00  0.00     0.031 C 
ATOM     56  C   UNL A   1      44.369  31.882  31.307  1.00  0.00     0.029 A 
ATOM     57  C   UNL A   1      44.847  30.627  30.923  1.00  0.00     0.049 A 
ATOM     58  H   UNL A   1      45.221  29.088  32.315  1.00  0.00     0.167 HD
ATOM     59  C   UNL A   1      45.260  28.794  29.298  1.00  0.00     0.074 A 
ATOM     60  C   UNL A   1      45.022  27.588  30.083  1.00  0.00     0.031 C 
ATOM     61  C   UNL A   1      45.287  30.116  29.642  1.00  0.00     0.037 A 
BRANCH  48  62
ATOM     62  C   UNL A   1      42.983  28.329  34.201  1.00  0.00     0.058 A 
ATOM     63  C   UNL A   1      43.204  28.706  35.546  1.00  0.00     0.135 A 
ATOM     64  C   UNL A   1      43.429  27.036  33.855  1.00  0.00     0.135 A 
ATOM     65  F   UNL A   1      42.824  29.915  35.989  1.00  0.00    -0.206 F 
ATOM     66  C   UNL A   1      43.892  27.893  36.450  1.00  0.00     0.059 A 
ATOM     67  C   UNL A   1      44.067  26.187  34.755  1.00  0.00     0.059 A 
ATOM     68  F   UNL A   1      43.358  26.572  32.601  1.00  0.00    -0.206 F 
ATOM     69  C   UNL A   1      44.341  26.644  36.035  1.00  0.00     0.060 A 
BRANCH  69  70
ATOM     70  S   UNL A   1      45.352  25.647  37.146  1.00  0.00     0.124 S 
ATOM     71  O   UNL A   1      46.523  25.392  36.315  1.00  0.00    -0.237 OA
ATOM     72  O   UNL A   1      45.553  26.552  38.274  1.00  0.00    -0.237 OA
ATOM     73  O   UNL A   1      44.505  24.491  37.421  1.00  0.00    -0.744 OA
ENDBRANCH  69  70
ENDBRANCH  48  62
BRANCH  49  74
ATOM     74  C   UNL A   1      43.584  25.483  26.345  1.00  0.00     0.058 A 
ATOM     75  C   UNL A   1      44.516  25.269  25.317  1.00  0.00     0.135 A 
ATOM     76  C   UNL A   1      42.919  24.338  26.835  1.00  0.00     0.135 A 
ATOM     77  F   UNL A   1      45.213  26.299  24.814  1.00  0.00    -0.206 F 
ATOM     78  C   UNL A   1      44.796  23.990  24.822  1.00  0.00     0.059 A 
ATOM     79  C   UNL A   1      43.171  23.058  26.349  1.00  0.00     0.059 A 
ATOM     80  F   UNL A   1      42.064  24.423  27.866  1.00  0.00    -0.206 F 
ATOM     81  C   UNL A   1      44.129  22.888  25.358  1.00  0.00     0.060 A 
BRANCH  81  82
ATOM     82  S   UNL A   1      44.604  21.223  24.838  1.00  0.00     0.124 S 
ATOM     83  O   UNL A   1      43.526  20.414  25.394  1.00  0.00    -0.237 OA
ATOM     84  O   UNL A   1      44.623  21.350  23.384  1.00  0.00    -0.237 OA
ATOM     85  O   UNL A   1      45.913  21.036  25.460  1.00  0.00    -0.744 OA
ENDBRANCH  81  82
ENDBRANCH  49  74
BRANCH  61  86
ATOM     86  C   UNL A   1      45.527  31.136  28.559  1.00  0.00     0.058 A 
ATOM     87  C   UNL A   1      44.529  31.638  27.707  1.00  0.00     0.135 A 
ATOM     88  C   UNL A   1      46.788  31.751  28.500  1.00  0.00     0.135 A 
ATOM     89  F   UNL A   1      43.272  31.180  27.770  1.00  0.00    -0.206 F 
ATOM     90  C   UNL A   1      44.783  32.680  26.813  1.00  0.00     0.059 A 
ATOM     91  C   UNL A   1      47.054  32.813  27.639  1.00  0.00     0.059 A 
ATOM     92  F   UNL A   1      47.767  31.359  29.333  1.00  0.00    -0.206 F 
ATOM     93  C   UNL A   1      46.047  33.265  26.790  1.00  0.00     0.060 A 
BRANCH  93  94
ATOM     94  S   UNL A   1      46.341  34.682  25.709  1.00  0.00     0.124 S 
ATOM     95  O   UNL A   1      45.387  34.447  24.631  1.00  0.00    -0.237 OA
ATOM     96  O   UNL A   1      46.048  35.817  26.580  1.00  0.00    -0.237 OA
ATOM     97  O   UNL A   1      47.749  34.542  25.339  1.00  0.00    -0.744 OA
ENDBRANCH  93  94
ENDBRANCH  61  86
ENDBRANCH  35  36
ENDBRANCH  27  30
ENDBRANCH  25  26
ENDBRANCH  24  25
ENDBRANCH   1  24
TORSDOF 18
ENDMDL
MODEL 3
REMARK VINA RESULT:     -11.2      4.360     10.955
REMARK SMILES Nc1nn(-c2ccc(Cl)cc2)nc1C(=O)NCCCCCCNC(=O)c1ccc(-c2c3nc(c(-c4c(F)cc(S(=O)(=O)[O-])cc4F)c4ccc([nH]4)c(-c4c(F)cc(S(=O)(=O)[O-])cc4F)c4nc(c(-c5c(F)cc(S(=O)(=O)[O-])cc5F)c5ccc2[nH]5)C=C4)C=C3)cc1
REMARK SMILES IDX 20 1 19 2 18 3 17 4 16 5 14 6 15 7 13 9 2 10 3 11 4 12 12 13
REMARK SMILES IDX 1 14 5 17 6 18 11 19 7 20 10 21 8 22 9 23 21 24 22 25 23 26
REMARK SMILES IDX 24 27 25 29 26 30 27 31 91 32 28 33 90 34 29 35 30 36 31 37
REMARK SMILES IDX 84 38 32 39 89 40 83 41 85 42 33 43 88 44 82 45 81 46 34 48
REMARK SMILES IDX 68 49 47 50 67 51 48 52 51 53 66 54 86 55 49 56 50 57 65 59
REMARK SMILES IDX 87 60 52 61 35 62 36 63 45 64 37 65 38 66 44 67 46 68 39 69
REMARK SMILES IDX 40 70 41 71 42 72 43 73 69 74 70 75 79 76 71 77 72 78 78 79
REMARK SMILES IDX 80 80 73 81 74 82 75 83 76 84 77 85 53 86 54 87 63 88 55 89
REMARK SMILES IDX 56 90 62 91 64 92 57 93 58 94 59 95 60 96 61 97
REMARK H PARENT 16 8 1 15 1 16 23 28 85 47 51 58
REMARK Flexibility Score: inf
ROOT
ATOM      1  C   UNL A   1      34.722  33.567  33.393  1.00  0.00     0.002 C 
ENDROOT
BRANCH   1   2
ATOM      2  C   UNL A   1      35.990  34.090  34.081  1.00  0.00     0.002 C 
BRANCH   2   3
ATOM      3  C   UNL A   1      36.235  33.685  35.540  1.00  0.00     0.021 C 
BRANCH   3   4
ATOM      4  C   UNL A   1      37.683  33.699  36.026  1.00  0.00     0.116 C 
BRANCH   4   5
ATOM      5  N   UNL A   1      38.186  32.392  36.385  1.00  0.00    -0.351 N 
ATOM      6  C   UNL A   1      38.588  31.331  35.605  1.00  0.00     0.275 C 
ATOM      7  O   UNL A   1      38.906  30.309  36.220  1.00  0.00    -0.267 OA
ATOM      8  H   UNL A   1      38.252  32.232  37.355  1.00  0.00     0.163 HD
BRANCH   6   9
ATOM      9  C   UNL A   1      38.660  31.396  34.139  1.00  0.00     0.194 A 
ATOM     10  C   UNL A   1      37.815  30.882  33.111  1.00  0.00     0.179 A 
ATOM     11  N   UNL A   1      38.172  31.384  31.935  1.00  0.00    -0.130 NA
ATOM     12  N   UNL A   1      39.200  32.195  32.260  1.00  0.00    -0.149 N 
ATOM     13  N   UNL A   1      39.608  32.160  33.546  1.00  0.00    -0.141 NA
BRANCH  10  14
ATOM     14  N   UNL A   1      36.750  30.077  33.195  1.00  0.00    -0.380 N 
ATOM     15  H   UNL A   1      36.521  29.484  32.443  1.00  0.00     0.158 HD
ATOM     16  H   UNL A   1      36.194  30.078  34.007  1.00  0.00     0.158 HD
ENDBRANCH  10  14
BRANCH  12  17
ATOM     17  C   UNL A   1      39.721  33.135  31.331  1.00  0.00     0.086 A 
ATOM     18  C   UNL A   1      38.877  34.063  30.708  1.00  0.00     0.032 A 
ATOM     19  C   UNL A   1      41.085  33.095  31.001  1.00  0.00     0.032 A 
ATOM     20  C   UNL A   1      39.401  34.955  29.766  1.00  0.00     0.023 A 
ATOM     21  C   UNL A   1      41.594  33.958  30.027  1.00  0.00     0.023 A 
ATOM     22  C   UNL A   1      40.752  34.888  29.419  1.00  0.00     0.041 A 
ATOM     23  Cl  UNL A   1      41.384  35.952  28.224  1.00  0.00    -0.084 Cl
ENDBRANCH  12  17
ENDBRANCH   6   9
ENDBRANCH   4   5
ENDBRANCH   3   4
ENDBRANCH   2   3
ENDBRANCH   1   2
BRANCH   1  24
ATOM     24  C   UNL A   1      34.639  33.684  31.867  1.00  0.00     0.021 C 
BRANCH  24  25
ATOM     25  C   UNL A   1      35.239  32.523  31.085  1.00  0.00     0.116 C 
BRANCH  25  26
ATOM     26  N   UNL A   1      34.374  32.034  30.018  1.00  0.00    -0.352 N 
ATOM     27  C   UNL A   1      34.756  31.423  28.839  1.00  0.00     0.251 C 
ATOM     28  H   UNL A   1      33.406  32.152  30.154  1.00  0.00     0.163 HD
ATOM     29  O   UNL A   1      33.991  31.372  27.885  1.00  0.00    -0.269 OA
BRANCH  27  30
ATOM     30  C   UNL A   1      36.116  30.856  28.745  1.00  0.00     0.039 A 
ATOM     31  C   UNL A   1      37.203  31.667  28.412  1.00  0.00     0.014 A 
ATOM     32  C   UNL A   1      36.301  29.510  29.049  1.00  0.00     0.014 A 
ATOM     33  C   UNL A   1      38.492  31.138  28.486  1.00  0.00     0.010 A 
ATOM     34  C   UNL A   1      37.579  29.022  29.228  1.00  0.00     0.010 A 
ATOM     35  C   UNL A   1      38.685  29.819  28.925  1.00  0.00    -0.014 A 
BRANCH  35  36
ATOM     36  C   UNL A   1      40.042  29.315  29.170  1.00  0.00     0.031 A 
ATOM     37  C   UNL A   1      40.437  29.122  30.601  1.00  0.00     0.074 A 
ATOM     38  C   UNL A   1      40.826  28.794  28.200  1.00  0.00     0.049 A 
ATOM     39  N   UNL A   1      41.440  29.635  31.240  1.00  0.00    -0.248 NA
ATOM     40  C   UNL A   1      39.566  28.288  31.446  1.00  0.00     0.031 C 
ATOM     41  C   UNL A   1      40.489  28.580  26.788  1.00  0.00     0.029 A 
ATOM     42  N   UNL A   1      42.054  28.209  28.311  1.00  0.00    -0.354 N 
ATOM     43  C   UNL A   1      41.444  29.047  32.506  1.00  0.00     0.074 A 
ATOM     44  C   UNL A   1      40.198  28.335  32.621  1.00  0.00     0.031 C 
ATOM     45  C   UNL A   1      41.359  27.701  26.248  1.00  0.00     0.029 A 
ATOM     46  C   UNL A   1      42.409  27.436  27.214  1.00  0.00     0.049 A 
ATOM     47  H   UNL A   1      42.634  28.325  29.097  1.00  0.00     0.167 HD
ATOM     48  C   UNL A   1      42.553  29.028  33.300  1.00  0.00     0.037 A 
ATOM     49  C   UNL A   1      43.468  26.601  27.106  1.00  0.00     0.037 A 
ATOM     50  C   UNL A   1      43.543  29.972  32.851  1.00  0.00     0.049 A 
ATOM     51  C   UNL A   1      44.468  27.009  28.120  1.00  0.00     0.074 A 
ATOM     52  C   UNL A   1      43.579  31.340  32.668  1.00  0.00     0.029 A 
ATOM     53  N   UNL A   1      44.645  29.480  32.197  1.00  0.00    -0.354 N 
ATOM     54  N   UNL A   1      45.110  28.145  28.101  1.00  0.00    -0.248 NA
ATOM     55  C   UNL A   1      44.490  26.305  29.392  1.00  0.00     0.031 C 
ATOM     56  C   UNL A   1      44.411  31.540  31.528  1.00  0.00     0.029 A 
ATOM     57  C   UNL A   1      44.862  30.286  31.110  1.00  0.00     0.049 A 
ATOM     58  H   UNL A   1      45.179  28.695  32.458  1.00  0.00     0.167 HD
ATOM     59  C   UNL A   1      45.251  28.496  29.433  1.00  0.00     0.074 A 
ATOM     60  C   UNL A   1      44.973  27.272  30.177  1.00  0.00     0.031 C 
ATOM     61  C   UNL A   1      45.307  29.805  29.820  1.00  0.00     0.037 A 
BRANCH  48  62
ATOM     62  C   UNL A   1      42.898  27.935  34.290  1.00  0.00     0.058 A 
ATOM     63  C   UNL A   1      43.001  28.244  35.666  1.00  0.00     0.135 A 
ATOM     64  C   UNL A   1      43.416  26.678  33.913  1.00  0.00     0.135 A 
ATOM     65  F   UNL A   1      42.544  29.415  36.140  1.00  0.00    -0.206 F 
ATOM     66  C   UNL A   1      43.647  27.406  36.577  1.00  0.00     0.059 A 
ATOM     67  C   UNL A   1      44.015  25.802  34.815  1.00  0.00     0.059 A 
ATOM     68  F   UNL A   1      43.459  26.281  32.635  1.00  0.00    -0.206 F 
ATOM     69  C   UNL A   1      44.173  26.197  36.135  1.00  0.00     0.060 A 
BRANCH  69  70
ATOM     70  S   UNL A   1      45.133  25.175  37.268  1.00  0.00     0.124 S 
ATOM     71  O   UNL A   1      44.586  25.587  38.556  1.00  0.00    -0.237 OA
ATOM     72  O   UNL A   1      44.793  23.826  36.829  1.00  0.00    -0.237 OA
ATOM     73  O   UNL A   1      46.507  25.586  37.004  1.00  0.00    -0.744 OA
ENDBRANCH  69  70
ENDBRANCH  48  62
BRANCH  49  74
ATOM     74  C   UNL A   1      43.533  25.323  26.356  1.00  0.00     0.058 A 
ATOM     75  C   UNL A   1      44.470  25.120  25.330  1.00  0.00     0.135 A 
ATOM     76  C   UNL A   1      42.836  24.180  26.802  1.00  0.00     0.135 A 
ATOM     77  F   UNL A   1      45.196  26.148  24.867  1.00  0.00    -0.206 F 
ATOM     78  C   UNL A   1      44.725  23.851  24.798  1.00  0.00     0.059 A 
ATOM     79  C   UNL A   1      43.063  22.910  26.279  1.00  0.00     0.059 A 
ATOM     80  F   UNL A   1      41.973  24.252  27.827  1.00  0.00    -0.206 F 
ATOM     81  C   UNL A   1      44.027  22.748  25.292  1.00  0.00     0.060 A 
BRANCH  81  82
ATOM     82  S   UNL A   1      44.469  21.090  24.724  1.00  0.00     0.124 S 
ATOM     83  O   UNL A   1      45.757  20.881  25.376  1.00  0.00    -0.237 OA
ATOM     84  O   UNL A   1      43.360  20.287  25.229  1.00  0.00    -0.237 OA
ATOM     85  O   UNL A   1      44.520  21.233  23.271  1.00  0.00    -0.744 OA
ENDBRANCH  81  82
ENDBRANCH  49  74
BRANCH  61  86
ATOM     86  C   UNL A   1      45.587  30.853  28.773  1.00  0.00     0.058 A 
ATOM     87  C   UNL A   1      44.595  31.531  28.045  1.00  0.00     0.135 A 
ATOM     88  C   UNL A   1      46.909  31.303  28.628  1.00  0.00     0.135 A 
ATOM     89  F   UNL A   1      43.298  31.235  28.202  1.00  0.00    -0.206 F 
ATOM     90  C   UNL A   1      44.908  32.587  27.186  1.00  0.00     0.059 A 
ATOM     91  C   UNL A   1      47.239  32.374  27.802  1.00  0.00     0.059 A 
ATOM     92  F   UNL A   1      47.894  30.737  29.344  1.00  0.00    -0.206 F 
ATOM     93  C   UNL A   1      46.232  33.005  27.075  1.00  0.00     0.060 A 
BRANCH  93  94
ATOM     94  S   UNL A   1      46.619  34.438  26.045  1.00  0.00     0.124 S 
ATOM     95  O   UNL A   1      46.455  35.542  26.984  1.00  0.00    -0.237 OA
ATOM     96  O   UNL A   1      47.989  34.165  25.618  1.00  0.00    -0.237 OA
ATOM     97  O   UNL A   1      45.621  34.370  24.979  1.00  0.00    -0.744 OA
ENDBRANCH  93  94
ENDBRANCH  61  86
ENDBRANCH  35  36
ENDBRANCH  27  30
ENDBRANCH  25  26
ENDBRANCH  24  25
ENDBRANCH   1  24
TORSDOF 18
ENDMDL
