MODEL 1
REMARK VINA RESULT:     -14.3      0.000      0.000
REMARK SMILES Cc1ccccc1OC1(C(=O)NCCCCCCNC(=O)c2ccc(-c3c4nc(c(-c5c(F)cc(S(=O)(=O)[O-])cc5F)c5ccc([nH]5)c(-c5c(F)cc(S(=O)(=O)[O-])cc5F)c5nc(c(-c6c(F)cc(S(=O)(=O)[O-])cc6F)c6ccc3[nH]6)C=C5)C=C4)cc2)CCN(C(=O)[C@H]2CCCCO2)CC1
REMARK SMILES IDX 16 1 15 2 14 3 13 4 12 5 10 6 11 7 9 9 88 10 100 11 89 12
REMARK SMILES IDX 99 13 90 14 91 15 92 16 8 17 7 18 1 19 2 20 3 21 4 22 6 23
REMARK SMILES IDX 5 24 93 25 94 26 98 27 95 28 97 29 96 30 17 31 18 32 19 33
REMARK SMILES IDX 20 34 21 36 22 37 23 38 87 39 24 40 86 41 25 42 26 43 27 44
REMARK SMILES IDX 80 45 28 46 85 47 79 48 81 49 29 50 84 51 78 52 77 53 30 55
REMARK SMILES IDX 64 56 43 57 63 58 44 59 47 60 62 61 82 62 45 63 46 64 61 66
REMARK SMILES IDX 83 67 48 68 31 69 32 70 41 71 33 72 34 73 40 74 42 75 35 76
REMARK SMILES IDX 36 77 37 78 38 79 39 80 65 81 66 82 75 83 67 84 68 85 74 86
REMARK SMILES IDX 76 87 69 88 70 89 71 90 72 91 73 92 49 93 50 94 59 95 51 96
REMARK SMILES IDX 52 97 58 98 60 99 53 100 54 101 55 102 56 103 57 104
REMARK H PARENT 12 8 19 35 81 54 47 65
REMARK Flexibility Score: inf
ROOT
ATOM      1  C   UNL A   1      32.639  29.906  25.560  1.00  0.00     0.002 C 
ENDROOT
BRANCH   1   2
ATOM      2  C   UNL A   1      31.743  28.767  25.041  1.00  0.00     0.002 C 
BRANCH   2   3
ATOM      3  C   UNL A   1      31.137  27.833  26.096  1.00  0.00     0.021 C 
BRANCH   3   4
ATOM      4  C   UNL A   1      31.826  26.475  26.237  1.00  0.00     0.116 C 
BRANCH   4   5
ATOM      5  N   UNL A   1      30.974  25.461  26.818  1.00  0.00    -0.353 N 
ATOM      6  C   UNL A   1      30.846  24.120  26.591  1.00  0.00     0.264 C 
ATOM      7  O   UNL A   1      30.124  23.533  27.410  1.00  0.00    -0.270 OA
ATOM      8  H   UNL A   1      30.368  25.804  27.514  1.00  0.00     0.163 HD
BRANCH   6   9
ATOM      9  C   UNL A   1      31.553  23.357  25.393  1.00  0.00     0.190 C 
ATOM     10  C   UNL A   1      33.062  23.553  25.529  1.00  0.00     0.080 C 
ATOM     11  C   UNL A   1      30.985  21.935  25.315  1.00  0.00     0.080 C 
ATOM     12  C   UNL A   1      33.865  22.327  25.933  1.00  0.00     0.124 C 
ATOM     13  C   UNL A   1      31.944  20.767  25.534  1.00  0.00     0.124 C 
ATOM     14  N   UNL A   1      33.366  21.054  25.414  1.00  0.00    -0.340 N 
ATOM     15  C   UNL A   1      34.330  20.092  25.076  1.00  0.00     0.251 C 
ATOM     16  O   UNL A   1      35.534  20.360  25.131  1.00  0.00    -0.272 OA
BRANCH   9  17
ATOM     17  O   UNL A   1      31.064  24.160  24.278  1.00  0.00    -0.477 OA
BRANCH  17  18
ATOM     18  C   UNL A   1      31.594  24.554  23.090  1.00  0.00     0.123 A 
ATOM     19  C   UNL A   1      32.992  22.546  22.234  1.00  0.00     0.048 C 
ATOM     20  C   UNL A   1      32.419  23.918  22.155  1.00  0.00    -0.009 A 
ATOM     21  C   UNL A   1      32.869  24.638  21.018  1.00  0.00     0.007 A 
ATOM     22  C   UNL A   1      32.513  25.962  20.795  1.00  0.00     0.001 A 
ATOM     23  C   UNL A   1      31.250  25.898  22.838  1.00  0.00     0.047 A 
ATOM     24  C   UNL A   1      31.697  26.597  21.711  1.00  0.00     0.004 A 
ENDBRANCH  17  18
ENDBRANCH   9  17
BRANCH  15  25
ATOM     25  C   UNL A   1      33.862  18.698  24.581  1.00  0.00     0.207 C 
ATOM     26  C   UNL A   1      35.098  17.811  24.369  1.00  0.00     0.042 C 
ATOM     27  O   UNL A   1      32.992  18.133  25.570  1.00  0.00    -0.368 OA
ATOM     28  C   UNL A   1      34.741  16.343  24.166  1.00  0.00     0.006 C 
ATOM     29  C   UNL A   1      32.573  16.807  25.285  1.00  0.00     0.161 C 
ATOM     30  C   UNL A   1      33.772  15.874  25.239  1.00  0.00     0.029 C 
ENDBRANCH  15  25
ENDBRANCH   6   9
ENDBRANCH   4   5
ENDBRANCH   3   4
ENDBRANCH   2   3
ENDBRANCH   1   2
BRANCH   1  31
ATOM     31  C   UNL A   1      33.096  29.799  27.016  1.00  0.00     0.021 C 
BRANCH  31  32
ATOM     32  C   UNL A   1      34.608  29.683  27.180  1.00  0.00     0.116 C 
BRANCH  32  33
ATOM     33  N   UNL A   1      35.224  30.915  27.646  1.00  0.00    -0.352 N 
ATOM     34  C   UNL A   1      36.363  31.043  28.425  1.00  0.00     0.251 C 
ATOM     35  H   UNL A   1      34.783  31.753  27.377  1.00  0.00     0.163 HD
ATOM     36  O   UNL A   1      36.647  32.064  29.019  1.00  0.00    -0.269 OA
BRANCH  34  37
ATOM     37  C   UNL A   1      37.312  29.912  28.375  1.00  0.00     0.039 A 
ATOM     38  C   UNL A   1      37.440  29.142  29.538  1.00  0.00     0.014 A 
ATOM     39  C   UNL A   1      38.227  29.807  27.333  1.00  0.00     0.014 A 
ATOM     40  C   UNL A   1      38.589  28.380  29.729  1.00  0.00     0.010 A 
ATOM     41  C   UNL A   1      39.403  29.117  27.559  1.00  0.00     0.010 A 
ATOM     42  C   UNL A   1      39.603  28.443  28.774  1.00  0.00    -0.014 A 
BRANCH  42  43
ATOM     43  C   UNL A   1      40.935  27.877  28.969  1.00  0.00     0.031 A 
ATOM     44  C   UNL A   1      41.206  26.483  28.549  1.00  0.00     0.074 A 
ATOM     45  C   UNL A   1      41.931  28.662  29.429  1.00  0.00     0.049 A 
ATOM     46  N   UNL A   1      42.267  25.812  28.841  1.00  0.00    -0.248 NA
ATOM     47  C   UNL A   1      40.238  25.715  27.777  1.00  0.00     0.031 C 
ATOM     48  C   UNL A   1      43.365  28.395  29.391  1.00  0.00     0.029 A 
ATOM     49  N   UNL A   1      41.809  29.787  30.252  1.00  0.00    -0.354 N 
ATOM     50  C   UNL A   1      42.235  24.626  28.139  1.00  0.00     0.074 A 
ATOM     51  C   UNL A   1      40.938  24.610  27.504  1.00  0.00     0.031 C 
ATOM     52  C   UNL A   1      43.966  29.125  30.344  1.00  0.00     0.029 A 
ATOM     53  C   UNL A   1      42.920  29.761  31.124  1.00  0.00     0.049 A 
ATOM     54  H   UNL A   1      41.092  30.461  30.227  1.00  0.00     0.167 HD
ATOM     55  C   UNL A   1      43.347  23.835  28.111  1.00  0.00     0.037 A 
ATOM     56  C   UNL A   1      42.726  29.579  32.465  1.00  0.00     0.037 A 
ATOM     57  C   UNL A   1      44.357  24.319  29.052  1.00  0.00     0.049 A 
ATOM     58  C   UNL A   1      43.280  28.274  33.008  1.00  0.00     0.074 A 
ATOM     59  C   UNL A   1      45.460  25.150  28.954  1.00  0.00     0.029 A 
ATOM     60  N   UNL A   1      44.102  24.181  30.405  1.00  0.00    -0.354 N 
ATOM     61  N   UNL A   1      43.865  27.358  32.283  1.00  0.00    -0.248 NA
ATOM     62  C   UNL A   1      43.158  27.873  34.412  1.00  0.00     0.031 C 
ATOM     63  C   UNL A   1      45.800  25.588  30.269  1.00  0.00     0.029 A 
ATOM     64  C   UNL A   1      44.916  25.005  31.158  1.00  0.00     0.049 A 
ATOM     65  H   UNL A   1      43.424  23.575  30.783  1.00  0.00     0.167 HD
ATOM     66  C   UNL A   1      44.140  26.270  33.064  1.00  0.00     0.074 A 
ATOM     67  C   UNL A   1      43.699  26.643  34.395  1.00  0.00     0.031 C 
ATOM     68  C   UNL A   1      44.674  25.112  32.585  1.00  0.00     0.037 A 
BRANCH  55  69
ATOM     69  C   UNL A   1      43.598  22.737  27.095  1.00  0.00     0.058 A 
ATOM     70  C   UNL A   1      42.794  21.575  27.088  1.00  0.00     0.135 A 
ATOM     71  C   UNL A   1      44.641  22.729  26.149  1.00  0.00     0.135 A 
ATOM     72  F   UNL A   1      41.715  21.469  27.877  1.00  0.00    -0.206 F 
ATOM     73  C   UNL A   1      43.066  20.463  26.286  1.00  0.00     0.059 A 
ATOM     74  C   UNL A   1      44.973  21.608  25.382  1.00  0.00     0.059 A 
ATOM     75  F   UNL A   1      45.349  23.831  25.877  1.00  0.00    -0.206 F 
ATOM     76  C   UNL A   1      44.183  20.471  25.462  1.00  0.00     0.060 A 
BRANCH  76  77
ATOM     77  S   UNL A   1      44.574  19.000  24.497  1.00  0.00     0.124 S 
ATOM     78  O   UNL A   1      43.560  18.054  24.953  1.00  0.00    -0.237 OA
ATOM     79  O   UNL A   1      44.424  19.483  23.130  1.00  0.00    -0.237 OA
ATOM     80  O   UNL A   1      45.941  18.681  24.902  1.00  0.00    -0.744 OA
ENDBRANCH  76  77
ENDBRANCH  55  69
BRANCH  56  81
ATOM     81  C   UNL A   1      41.512  30.287  32.961  1.00  0.00     0.058 A 
ATOM     82  C   UNL A   1      40.362  29.510  33.216  1.00  0.00     0.135 A 
ATOM     83  C   UNL A   1      41.591  31.543  33.574  1.00  0.00     0.135 A 
ATOM     84  F   UNL A   1      40.223  28.306  32.636  1.00  0.00    -0.206 F 
ATOM     85  C   UNL A   1      39.425  29.879  34.175  1.00  0.00     0.059 A 
ATOM     86  C   UNL A   1      40.650  31.944  34.527  1.00  0.00     0.059 A 
ATOM     87  F   UNL A   1      42.653  32.334  33.365  1.00  0.00    -0.206 F 
ATOM     88  C   UNL A   1      39.619  31.069  34.873  1.00  0.00     0.060 A 
BRANCH  88  89
ATOM     89  S   UNL A   1      38.601  31.362  36.340  1.00  0.00     0.124 S 
ATOM     90  O   UNL A   1      37.510  32.165  35.798  1.00  0.00    -0.237 OA
ATOM     91  O   UNL A   1      38.243  30.001  36.738  1.00  0.00    -0.237 OA
ATOM     92  O   UNL A   1      39.510  32.059  37.243  1.00  0.00    -0.744 OA
ENDBRANCH  88  89
ENDBRANCH  56  81
BRANCH  68  93
ATOM     93  C   UNL A   1      45.004  23.972  33.489  1.00  0.00     0.058 A 
ATOM     94  C   UNL A   1      46.271  23.862  34.081  1.00  0.00     0.135 A 
ATOM     95  C   UNL A   1      44.108  22.907  33.691  1.00  0.00     0.135 A 
ATOM     96  F   UNL A   1      47.188  24.829  33.911  1.00  0.00    -0.206 F 
ATOM     97  C   UNL A   1      46.627  22.762  34.857  1.00  0.00     0.059 A 
ATOM     98  C   UNL A   1      44.452  21.781  34.432  1.00  0.00     0.059 A 
ATOM     99  F   UNL A   1      42.864  22.950  33.185  1.00  0.00    -0.206 F 
ATOM    100  C   UNL A   1      45.710  21.725  35.026  1.00  0.00     0.060 A 
BRANCH 100 101
ATOM    101  S   UNL A   1      46.170  20.287  36.011  1.00  0.00     0.124 S 
ATOM    102  O   UNL A   1      47.610  20.193  35.795  1.00  0.00    -0.237 OA
ATOM    103  O   UNL A   1      45.761  20.709  37.348  1.00  0.00    -0.237 OA
ATOM    104  O   UNL A   1      45.382  19.210  35.419  1.00  0.00    -0.744 OA
ENDBRANCH 100 101
ENDBRANCH  68  93
ENDBRANCH  42  43
ENDBRANCH  34  37
ENDBRANCH  32  33
ENDBRANCH  31  32
ENDBRANCH   1  31
TORSDOF 19
ENDMDL
MODEL 2
REMARK VINA RESULT:     -13.7      4.991     11.459
REMARK SMILES Cc1ccccc1OC1(C(=O)NCCCCCCNC(=O)c2ccc(-c3c4nc(c(-c5c(F)cc(S(=O)(=O)[O-])cc5F)c5ccc([nH]5)c(-c5c(F)cc(S(=O)(=O)[O-])cc5F)c5nc(c(-c6c(F)cc(S(=O)(=O)[O-])cc6F)c6ccc3[nH]6)C=C5)C=C4)cc2)CCN(C(=O)[C@H]2CCCCO2)CC1
REMARK SMILES IDX 16 1 15 2 14 3 13 4 12 5 10 6 11 7 9 9 88 10 100 11 89 12
REMARK SMILES IDX 99 13 90 14 91 15 92 16 8 17 7 18 1 19 2 20 3 21 4 22 6 23
REMARK SMILES IDX 5 24 93 25 94 26 98 27 95 28 97 29 96 30 17 31 18 32 19 33
REMARK SMILES IDX 20 34 21 36 22 37 23 38 87 39 24 40 86 41 25 42 26 43 27 44
REMARK SMILES IDX 80 45 28 46 85 47 79 48 81 49 29 50 84 51 78 52 77 53 30 55
REMARK SMILES IDX 64 56 43 57 63 58 44 59 47 60 62 61 82 62 45 63 46 64 61 66
REMARK SMILES IDX 83 67 48 68 31 69 32 70 41 71 33 72 34 73 40 74 42 75 35 76
REMARK SMILES IDX 36 77 37 78 38 79 39 80 65 81 66 82 75 83 67 84 68 85 74 86
REMARK SMILES IDX 76 87 69 88 70 89 71 90 72 91 73 92 49 93 50 94 59 95 51 96
REMARK SMILES IDX 52 97 58 98 60 99 53 100 54 101 55 102 56 103 57 104
REMARK H PARENT 12 8 19 35 81 54 47 65
REMARK Flexibility Score: inf
ROOT
ATOM      1  C   UNL A   1      36.502  23.168  23.805  1.00  0.00     0.002 C 
ENDROOT
BRANCH   1   2
ATOM      2  C   UNL A   1      34.984  23.286  24.031  1.00  0.00     0.002 C 
BRANCH   2   3
ATOM      3  C   UNL A   1      34.281  24.482  23.376  1.00  0.00     0.021 C 
BRANCH   3   4
ATOM      4  C   UNL A   1      32.756  24.392  23.321  1.00  0.00     0.116 C 
BRANCH   4   5
ATOM      5  N   UNL A   1      32.199  24.886  22.082  1.00  0.00    -0.353 N 
ATOM      6  C   UNL A   1      31.546  26.042  21.757  1.00  0.00     0.264 C 
ATOM      7  O   UNL A   1      31.364  26.197  20.541  1.00  0.00    -0.270 OA
ATOM      8  H   UNL A   1      32.312  24.269  21.323  1.00  0.00     0.163 HD
BRANCH   6   9
ATOM      9  C   UNL A   1      31.057  27.108  22.825  1.00  0.00     0.190 C 
ATOM     10  C   UNL A   1      30.174  26.392  23.845  1.00  0.00     0.080 C 
ATOM     11  C   UNL A   1      32.274  27.904  23.312  1.00  0.00     0.080 C 
ATOM     12  C   UNL A   1      30.760  26.220  25.237  1.00  0.00     0.124 C 
ATOM     13  C   UNL A   1      32.641  27.816  24.793  1.00  0.00     0.124 C 
ATOM     14  N   UNL A   1      31.614  27.316  25.694  1.00  0.00    -0.340 N 
ATOM     15  C   UNL A   1      31.557  27.628  27.062  1.00  0.00     0.251 C 
ATOM     16  O   UNL A   1      30.751  27.060  27.804  1.00  0.00    -0.272 OA
BRANCH   9  17
ATOM     17  O   UNL A   1      30.220  27.939  21.966  1.00  0.00    -0.477 OA
BRANCH  17  18
ATOM     18  C   UNL A   1      29.375  28.980  22.187  1.00  0.00     0.123 A 
ATOM     19  C   UNL A   1      27.344  27.987  23.455  1.00  0.00     0.048 C 
ATOM     20  C   UNL A   1      28.132  29.081  22.824  1.00  0.00    -0.009 A 
ATOM     21  C   UNL A   1      27.451  30.325  22.830  1.00  0.00     0.007 A 
ATOM     22  C   UNL A   1      27.979  31.458  22.225  1.00  0.00     0.001 A 
ATOM     23  C   UNL A   1      29.886  30.146  21.581  1.00  0.00     0.047 A 
ATOM     24  C   UNL A   1      29.206  31.369  21.596  1.00  0.00     0.004 A 
ENDBRANCH  17  18
ENDBRANCH   9  17
BRANCH  15  25
ATOM     25  C   UNL A   1      32.488  28.737  27.621  1.00  0.00     0.207 C 
ATOM     26  C   UNL A   1      33.916  28.482  27.116  1.00  0.00     0.042 C 
ATOM     27  O   UNL A   1      32.005  30.008  27.166  1.00  0.00    -0.368 OA
ATOM     28  C   UNL A   1      34.847  29.663  27.363  1.00  0.00     0.006 C 
ATOM     29  C   UNL A   1      32.832  31.105  27.525  1.00  0.00     0.161 C 
ATOM     30  C   UNL A   1      34.205  30.958  26.892  1.00  0.00     0.029 C 
ENDBRANCH  15  25
ENDBRANCH   6   9
ENDBRANCH   4   5
ENDBRANCH   3   4
ENDBRANCH   2   3
ENDBRANCH   1   2
BRANCH   1  31
ATOM     31  C   UNL A   1      37.322  22.618  24.974  1.00  0.00     0.021 C 
BRANCH  31  32
ATOM     32  C   UNL A   1      37.979  23.697  25.827  1.00  0.00     0.116 C 
BRANCH  32  33
ATOM     33  N   UNL A   1      39.279  23.299  26.343  1.00  0.00    -0.352 N 
ATOM     34  C   UNL A   1      40.317  24.126  26.739  1.00  0.00     0.251 C 
ATOM     35  H   UNL A   1      39.440  22.330  26.420  1.00  0.00     0.163 HD
ATOM     36  O   UNL A   1      41.460  23.738  26.871  1.00  0.00    -0.269 OA
BRANCH  34  37
ATOM     37  C   UNL A   1      39.933  25.494  27.148  1.00  0.00     0.039 A 
ATOM     38  C   UNL A   1      40.489  26.552  26.419  1.00  0.00     0.014 A 
ATOM     39  C   UNL A   1      39.294  25.710  28.364  1.00  0.00     0.014 A 
ATOM     40  C   UNL A   1      40.550  27.818  26.992  1.00  0.00     0.010 A 
ATOM     41  C   UNL A   1      39.428  26.947  28.966  1.00  0.00     0.010 A 
ATOM     42  C   UNL A   1      40.096  27.986  28.300  1.00  0.00    -0.014 A 
BRANCH  42  43
ATOM     43  C   UNL A   1      40.315  29.199  29.084  1.00  0.00     0.031 A 
ATOM     44  C   UNL A   1      39.246  30.219  29.167  1.00  0.00     0.074 A 
ATOM     45  C   UNL A   1      41.445  29.327  29.810  1.00  0.00     0.049 A 
ATOM     46  N   UNL A   1      39.384  31.403  29.656  1.00  0.00    -0.248 NA
ATOM     47  C   UNL A   1      37.908  29.969  28.643  1.00  0.00     0.031 C 
ATOM     48  C   UNL A   1      41.710  30.280  30.883  1.00  0.00     0.029 A 
ATOM     49  N   UNL A   1      42.690  28.747  29.544  1.00  0.00    -0.354 N 
ATOM     50  C   UNL A   1      38.141  31.995  29.716  1.00  0.00     0.074 A 
ATOM     51  C   UNL A   1      37.258  31.061  29.055  1.00  0.00     0.031 C 
ATOM     52  C   UNL A   1      43.038  30.432  31.007  1.00  0.00     0.029 A 
ATOM     53  C   UNL A   1      43.660  29.705  29.915  1.00  0.00     0.049 A 
ATOM     54  H   UNL A   1      42.857  27.850  29.175  1.00  0.00     0.167 HD
ATOM     55  C   UNL A   1      37.989  33.169  30.394  1.00  0.00     0.037 A 
ATOM     56  C   UNL A   1      44.459  30.268  28.958  1.00  0.00     0.037 A 
ATOM     57  C   UNL A   1      39.289  33.720  30.780  1.00  0.00     0.049 A 
ATOM     58  C   UNL A   1      44.231  31.752  28.743  1.00  0.00     0.074 A 
ATOM     59  C   UNL A   1      40.076  33.652  31.917  1.00  0.00     0.029 A 
ATOM     60  N   UNL A   1      40.105  34.221  29.780  1.00  0.00    -0.354 N 
ATOM     61  N   UNL A   1      43.332  32.463  29.369  1.00  0.00    -0.248 NA
ATOM     62  C   UNL A   1      44.965  32.540  27.749  1.00  0.00     0.031 C 
ATOM     63  C   UNL A   1      41.405  34.025  31.556  1.00  0.00     0.029 A 
ATOM     64  C   UNL A   1      41.413  34.339  30.209  1.00  0.00     0.049 A 
ATOM     65  H   UNL A   1      39.792  34.460  28.878  1.00  0.00     0.167 HD
ATOM     66  C   UNL A   1      43.321  33.731  28.857  1.00  0.00     0.074 A 
ATOM     67  C   UNL A   1      44.373  33.742  27.860  1.00  0.00     0.031 C 
ATOM     68  C   UNL A   1      42.435  34.693  29.242  1.00  0.00     0.037 A 
BRANCH  55  69
ATOM     69  C   UNL A   1      36.662  33.723  30.876  1.00  0.00     0.058 A 
ATOM     70  C   UNL A   1      35.676  34.120  29.945  1.00  0.00     0.135 A 
ATOM     71  C   UNL A   1      36.317  33.948  32.222  1.00  0.00     0.135 A 
ATOM     72  F   UNL A   1      35.826  33.897  28.631  1.00  0.00    -0.206 F 
ATOM     73  C   UNL A   1      34.499  34.778  30.314  1.00  0.00     0.059 A 
ATOM     74  C   UNL A   1      35.178  34.660  32.614  1.00  0.00     0.059 A 
ATOM     75  F   UNL A   1      37.036  33.433  33.226  1.00  0.00    -0.206 F 
ATOM     76  C   UNL A   1      34.275  35.080  31.650  1.00  0.00     0.060 A 
BRANCH  76  77
ATOM     77  S   UNL A   1      32.796  36.005  32.105  1.00  0.00     0.124 S 
ATOM     78  O   UNL A   1      32.379  36.569  30.824  1.00  0.00    -0.237 OA
ATOM     79  O   UNL A   1      31.938  34.960  32.650  1.00  0.00    -0.237 OA
ATOM     80  O   UNL A   1      33.290  36.979  33.076  1.00  0.00    -0.744 OA
ENDBRANCH  76  77
ENDBRANCH  55  69
BRANCH  56  81
ATOM     81  C   UNL A   1      44.866  29.284  27.914  1.00  0.00     0.058 A 
ATOM     82  C   UNL A   1      45.858  28.341  28.256  1.00  0.00     0.135 A 
ATOM     83  C   UNL A   1      44.040  28.986  26.822  1.00  0.00     0.135 A 
ATOM     84  F   UNL A   1      46.692  28.587  29.280  1.00  0.00    -0.206 F 
ATOM     85  C   UNL A   1      45.909  27.084  27.665  1.00  0.00     0.059 A 
ATOM     86  C   UNL A   1      44.088  27.736  26.200  1.00  0.00     0.059 A 
ATOM     87  F   UNL A   1      43.085  29.845  26.440  1.00  0.00    -0.206 F 
ATOM     88  C   UNL A   1      44.973  26.769  26.683  1.00  0.00     0.060 A 
BRANCH  88  89
ATOM     89  S   UNL A   1      44.828  25.038  26.178  1.00  0.00     0.124 S 
ATOM     90  O   UNL A   1      44.475  24.383  27.432  1.00  0.00    -0.237 OA
ATOM     91  O   UNL A   1      43.762  25.102  25.179  1.00  0.00    -0.237 OA
ATOM     92  O   UNL A   1      46.155  24.731  25.656  1.00  0.00    -0.744 OA
ENDBRANCH  88  89
ENDBRANCH  56  81
BRANCH  68  93
ATOM     93  C   UNL A   1      42.498  36.078  28.691  1.00  0.00     0.058 A 
ATOM     94  C   UNL A   1      42.005  36.371  27.410  1.00  0.00     0.135 A 
ATOM     95  C   UNL A   1      43.155  37.115  29.378  1.00  0.00     0.135 A 
ATOM     96  F   UNL A   1      41.388  35.422  26.686  1.00  0.00    -0.206 F 
ATOM     97  C   UNL A   1      42.134  37.636  26.845  1.00  0.00     0.059 A 
ATOM     98  C   UNL A   1      43.327  38.378  28.819  1.00  0.00     0.059 A 
ATOM     99  F   UNL A   1      43.626  36.926  30.621  1.00  0.00    -0.206 F 
ATOM    100  C   UNL A   1      42.798  38.634  27.558  1.00  0.00     0.060 A 
BRANCH 100 101
ATOM    101  S   UNL A   1      42.988  40.270  26.824  1.00  0.00     0.124 S 
ATOM    102  O   UNL A   1      41.664  40.532  26.268  1.00  0.00    -0.237 OA
ATOM    103  O   UNL A   1      43.350  41.070  27.990  1.00  0.00    -0.237 OA
ATOM    104  O   UNL A   1      44.047  40.073  25.839  1.00  0.00    -0.744 OA
ENDBRANCH 100 101
ENDBRANCH  68  93
ENDBRANCH  42  43
ENDBRANCH  34  37
ENDBRANCH  32  33
ENDBRANCH  31  32
ENDBRANCH   1  31
TORSDOF 19
ENDMDL
MODEL 3
REMARK VINA RESULT:     -13.4      4.526     11.160
REMARK SMILES Cc1ccccc1OC1(C(=O)NCCCCCCNC(=O)c2ccc(-c3c4nc(c(-c5c(F)cc(S(=O)(=O)[O-])cc5F)c5ccc([nH]5)c(-c5c(F)cc(S(=O)(=O)[O-])cc5F)c5nc(c(-c6c(F)cc(S(=O)(=O)[O-])cc6F)c6ccc3[nH]6)C=C5)C=C4)cc2)CCN(C(=O)[C@H]2CCCCO2)CC1
REMARK SMILES IDX 16 1 15 2 14 3 13 4 12 5 10 6 11 7 9 9 88 10 100 11 89 12
REMARK SMILES IDX 99 13 90 14 91 15 92 16 8 17 7 18 1 19 2 20 3 21 4 22 6 23
REMARK SMILES IDX 5 24 93 25 94 26 98 27 95 28 97 29 96 30 17 31 18 32 19 33
REMARK SMILES IDX 20 34 21 36 22 37 23 38 87 39 24 40 86 41 25 42 26 43 27 44
REMARK SMILES IDX 80 45 28 46 85 47 79 48 81 49 29 50 84 51 78 52 77 53 30 55
REMARK SMILES IDX 64 56 43 57 63 58 44 59 47 60 62 61 82 62 45 63 46 64 61 66
REMARK SMILES IDX 83 67 48 68 31 69 32 70 41 71 33 72 34 73 40 74 42 75 35 76
REMARK SMILES IDX 36 77 37 78 38 79 39 80 65 81 66 82 75 83 67 84 68 85 74 86
REMARK SMILES IDX 76 87 69 88 70 89 71 90 72 91 73 92 49 93 50 94 59 95 51 96
REMARK SMILES IDX 52 97 58 98 60 99 53 100 54 101 55 102 56 103 57 104
REMARK H PARENT 12 8 19 35 81 54 47 65
REMARK Flexibility Score: inf
ROOT
ATOM      1  C   UNL A   1      37.905  23.665  26.125  1.00  0.00     0.002 C 
ENDROOT
BRANCH   1   2
ATOM      2  C   UNL A   1      36.730  23.712  25.132  1.00  0.00     0.002 C 
BRANCH   2   3
ATOM      3  C   UNL A   1      36.640  22.565  24.117  1.00  0.00     0.021 C 
BRANCH   3   4
ATOM      4  C   UNL A   1      35.522  21.554  24.372  1.00  0.00     0.116 C 
BRANCH   4   5
ATOM      5  N   UNL A   1      35.190  21.411  25.772  1.00  0.00    -0.353 N 
ATOM      6  C   UNL A   1      34.019  21.543  26.463  1.00  0.00     0.264 C 
ATOM      7  O   UNL A   1      34.082  21.170  27.644  1.00  0.00    -0.270 OA
ATOM      8  H   UNL A   1      35.959  21.171  26.338  1.00  0.00     0.163 HD
BRANCH   6   9
ATOM      9  C   UNL A   1      32.682  22.115  25.830  1.00  0.00     0.190 C 
ATOM     10  C   UNL A   1      31.869  22.771  26.945  1.00  0.00     0.080 C 
ATOM     11  C   UNL A   1      33.041  22.931  24.583  1.00  0.00     0.080 C 
ATOM     12  C   UNL A   1      31.776  24.288  26.905  1.00  0.00     0.124 C 
ATOM     13  C   UNL A   1      32.702  24.421  24.580  1.00  0.00     0.124 C 
ATOM     14  N   UNL A   1      31.734  24.876  25.567  1.00  0.00    -0.340 N 
ATOM     15  C   UNL A   1      30.937  26.020  25.408  1.00  0.00     0.251 C 
ATOM     16  O   UNL A   1      30.241  26.437  26.338  1.00  0.00    -0.272 OA
BRANCH   9  17
ATOM     17  O   UNL A   1      32.044  20.860  25.447  1.00  0.00    -0.477 OA
BRANCH  17  18
ATOM     18  C   UNL A   1      32.355  19.867  24.572  1.00  0.00     0.123 A 
ATOM     19  C   UNL A   1      31.912  20.838  22.210  1.00  0.00     0.048 C 
ATOM     20  C   UNL A   1      32.334  19.785  23.175  1.00  0.00    -0.009 A 
ATOM     21  C   UNL A   1      32.658  18.557  22.544  1.00  0.00     0.007 A 
ATOM     22  C   UNL A   1      33.003  17.424  23.268  1.00  0.00     0.001 A 
ATOM     23  C   UNL A   1      32.709  18.701  25.282  1.00  0.00     0.047 A 
ATOM     24  C   UNL A   1      33.029  17.496  24.648  1.00  0.00     0.004 A 
ENDBRANCH  17  18
ENDBRANCH   9  17
BRANCH  15  25
ATOM     25  C   UNL A   1      30.902  26.729  24.028  1.00  0.00     0.207 C 
ATOM     26  C   UNL A   1      29.495  27.300  23.803  1.00  0.00     0.042 C 
ATOM     27  O   UNL A   1      31.883  27.774  24.029  1.00  0.00    -0.368 OA
ATOM     28  C   UNL A   1      29.430  28.260  22.621  1.00  0.00     0.006 C 
ATOM     29  C   UNL A   1      31.883  28.571  22.854  1.00  0.00     0.161 C 
ATOM     30  C   UNL A   1      30.551  29.285  22.702  1.00  0.00     0.029 C 
ENDBRANCH  15  25
ENDBRANCH   6   9
ENDBRANCH   4   5
ENDBRANCH   3   4
ENDBRANCH   2   3
ENDBRANCH   1   2
BRANCH   1  31
ATOM     31  C   UNL A   1      38.810  22.434  26.047  1.00  0.00     0.021 C 
BRANCH  31  32
ATOM     32  C   UNL A   1      39.970  22.458  27.036  1.00  0.00     0.116 C 
BRANCH  32  33
ATOM     33  N   UNL A   1      41.246  22.763  26.408  1.00  0.00    -0.352 N 
ATOM     34  C   UNL A   1      41.726  24.009  26.041  1.00  0.00     0.251 C 
ATOM     35  H   UNL A   1      41.835  21.996  26.223  1.00  0.00     0.163 HD
ATOM     36  O   UNL A   1      42.647  24.161  25.263  1.00  0.00    -0.269 OA
BRANCH  34  37
ATOM     37  C   UNL A   1      41.158  25.162  26.769  1.00  0.00     0.039 A 
ATOM     38  C   UNL A   1      40.978  26.345  26.041  1.00  0.00     0.014 A 
ATOM     39  C   UNL A   1      41.084  25.149  28.158  1.00  0.00     0.014 A 
ATOM     40  C   UNL A   1      40.888  27.557  26.719  1.00  0.00     0.010 A 
ATOM     41  C   UNL A   1      41.077  26.359  28.826  1.00  0.00     0.010 A 
ATOM     42  C   UNL A   1      41.026  27.563  28.107  1.00  0.00    -0.014 A 
BRANCH  42  43
ATOM     43  C   UNL A   1      41.177  28.779  28.900  1.00  0.00     0.031 A 
ATOM     44  C   UNL A   1      40.060  29.746  28.976  1.00  0.00     0.074 A 
ATOM     45  C   UNL A   1      42.291  28.956  29.642  1.00  0.00     0.049 A 
ATOM     46  N   UNL A   1      40.136  30.933  29.474  1.00  0.00    -0.248 NA
ATOM     47  C   UNL A   1      38.742  29.438  28.434  1.00  0.00     0.031 C 
ATOM     48  C   UNL A   1      42.497  29.912  30.724  1.00  0.00     0.029 A 
ATOM     49  N   UNL A   1      43.565  28.437  29.389  1.00  0.00    -0.354 N 
ATOM     50  C   UNL A   1      38.865  31.464  29.522  1.00  0.00     0.074 A 
ATOM     51  C   UNL A   1      38.036  30.495  28.845  1.00  0.00     0.031 C 
ATOM     52  C   UNL A   1      43.814  30.127  30.865  1.00  0.00     0.029 A 
ATOM     53  C   UNL A   1      44.484  29.437  29.777  1.00  0.00     0.049 A 
ATOM     54  H   UNL A   1      43.779  27.551  29.016  1.00  0.00     0.167 HD
ATOM     55  C   UNL A   1      38.650  32.626  30.205  1.00  0.00     0.037 A 
ATOM     56  C   UNL A   1      45.267  30.043  28.834  1.00  0.00     0.037 A 
ATOM     57  C   UNL A   1      39.917  33.235  30.611  1.00  0.00     0.049 A 
ATOM     58  C   UNL A   1      44.972  31.516  28.625  1.00  0.00     0.074 A 
ATOM     59  C   UNL A   1      40.692  33.196  31.757  1.00  0.00     0.029 A 
ATOM     60  N   UNL A   1      40.721  33.780  29.625  1.00  0.00    -0.354 N 
ATOM     61  N   UNL A   1      44.032  32.180  29.244  1.00  0.00    -0.248 NA
ATOM     62  C   UNL A   1      45.679  32.345  27.646  1.00  0.00     0.031 C 
ATOM     63  C   UNL A   1      42.007  33.635  31.415  1.00  0.00     0.029 A 
ATOM     64  C   UNL A   1      42.016  33.957  30.071  1.00  0.00     0.049 A 
ATOM     65  H   UNL A   1      40.409  34.011  28.720  1.00  0.00     0.167 HD
ATOM     66  C   UNL A   1      43.967  33.450  28.740  1.00  0.00     0.074 A 
ATOM     67  C   UNL A   1      45.030  33.516  27.756  1.00  0.00     0.031 C 
ATOM     68  C   UNL A   1      43.032  34.366  29.119  1.00  0.00     0.037 A 
BRANCH  55  69
ATOM     69  C   UNL A   1      37.292  33.113  30.673  1.00  0.00     0.058 A 
ATOM     70  C   UNL A   1      36.355  33.614  29.742  1.00  0.00     0.135 A 
ATOM     71  C   UNL A   1      36.870  33.175  32.016  1.00  0.00     0.135 A 
ATOM     72  F   UNL A   1      36.580  33.550  28.422  1.00  0.00    -0.206 F 
ATOM     73  C   UNL A   1      35.152  34.219  30.120  1.00  0.00     0.059 A 
ATOM     74  C   UNL A   1      35.704  33.830  32.424  1.00  0.00     0.059 A 
ATOM     75  F   UNL A   1      37.538  32.547  32.990  1.00  0.00    -0.206 F 
ATOM     76  C   UNL A   1      34.851  34.359  31.467  1.00  0.00     0.060 A 
BRANCH  76  77
ATOM     77  S   UNL A   1      33.340  35.217  31.945  1.00  0.00     0.124 S 
ATOM     78  O   UNL A   1      32.767  34.308  32.933  1.00  0.00    -0.237 OA
ATOM     79  O   UNL A   1      33.856  36.477  32.464  1.00  0.00    -0.237 OA
ATOM     80  O   UNL A   1      32.594  35.315  30.691  1.00  0.00    -0.744 OA
ENDBRANCH  76  77
ENDBRANCH  55  69
BRANCH  56  81
ATOM     81  C   UNL A   1      45.733  29.087  27.789  1.00  0.00     0.058 A 
ATOM     82  C   UNL A   1      46.880  28.316  28.073  1.00  0.00     0.135 A 
ATOM     83  C   UNL A   1      44.878  28.624  26.781  1.00  0.00     0.135 A 
ATOM     84  F   UNL A   1      47.746  28.726  29.016  1.00  0.00    -0.206 F 
ATOM     85  C   UNL A   1      47.073  27.057  27.518  1.00  0.00     0.059 A 
ATOM     86  C   UNL A   1      45.063  27.369  26.195  1.00  0.00     0.059 A 
ATOM     87  F   UNL A   1      43.776  29.316  26.456  1.00  0.00    -0.206 F 
ATOM     88  C   UNL A   1      46.119  26.566  26.630  1.00  0.00     0.060 A 
BRANCH  88  89
ATOM     89  S   UNL A   1      46.197  24.813  26.191  1.00  0.00     0.124 S 
ATOM     90  O   UNL A   1      45.832  24.835  24.779  1.00  0.00    -0.237 OA
ATOM     91  O   UNL A   1      47.596  24.492  26.473  1.00  0.00    -0.237 OA
ATOM     92  O   UNL A   1      45.223  24.200  27.086  1.00  0.00    -0.744 OA
ENDBRANCH  88  89
ENDBRANCH  56  81
BRANCH  68  93
ATOM     93  C   UNL A   1      43.037  35.756  28.577  1.00  0.00     0.058 A 
ATOM     94  C   UNL A   1      43.517  36.829  29.343  1.00  0.00     0.135 A 
ATOM     95  C   UNL A   1      42.458  36.064  27.333  1.00  0.00     0.135 A 
ATOM     96  F   UNL A   1      44.061  36.612  30.552  1.00  0.00    -0.206 F 
ATOM     97  C   UNL A   1      43.449  38.143  28.889  1.00  0.00     0.059 A 
ATOM     98  C   UNL A   1      42.347  37.373  26.873  1.00  0.00     0.059 A 
ATOM     99  F   UNL A   1      42.005  35.092  26.526  1.00  0.00    -0.206 F 
ATOM    100  C   UNL A   1      42.862  38.405  27.652  1.00  0.00     0.060 A 
BRANCH 100 101
ATOM    101  S   UNL A   1      42.751  40.107  27.066  1.00  0.00     0.124 S 
ATOM    102  O   UNL A   1      42.780  40.879  28.305  1.00  0.00    -0.237 OA
ATOM    103  O   UNL A   1      43.947  40.206  26.235  1.00  0.00    -0.237 OA
ATOM    104  O   UNL A   1      41.479  40.132  26.351  1.00  0.00    -0.744 OA
ENDBRANCH 100 101
ENDBRANCH  68  93
ENDBRANCH  42  43
ENDBRANCH  34  37
ENDBRANCH  32  33
ENDBRANCH  31  32
ENDBRANCH   1  31
TORSDOF 19
ENDMDL
