MODEL 1
REMARK VINA RESULT:     -12.7      0.000      0.000
REMARK SMILES Cc1c(CCC(=O)N2CCC(C(=O)NCCCCCCNC(=O)c3ccc(-c4c5nc(c(-c6c(F)cc(S(=O)(=O)[O-])cc6F)c6ccc([nH]6)c(-c6c(F)cc(S(=O)(=O)[O-])cc6F)c6nc(c(-c7c(F)cc(S(=O)(=O)[O-])cc7F)c7ccc4[nH]7)C=C6)C=C5)cc3)CC2)c(=O)oc2cc3oc4c(c3cc12)CCCC4
REMARK SMILES IDX 17 1 16 2 15 3 14 4 12 5 13 6 11 8 6 9 7 10 8 11 9 12 91 13
REMARK SMILES IDX 10 14 90 15 5 16 4 17 3 18 1 19 2 20 103 21 92 22 95 23
REMARK SMILES IDX 102 24 93 25 94 26 96 27 101 28 97 29 100 30 98 31 99 32
REMARK SMILES IDX 104 33 107 34 105 35 106 36 18 37 19 38 20 39 21 40 22 41
REMARK SMILES IDX 23 43 24 44 25 45 89 46 26 47 88 48 27 49 28 50 29 51 82 52
REMARK SMILES IDX 30 53 87 54 81 55 83 56 31 57 86 58 80 59 79 60 32 62 66 63
REMARK SMILES IDX 45 64 65 65 46 66 49 67 64 68 84 69 47 70 48 71 63 73 85 74
REMARK SMILES IDX 50 75 33 76 34 77 43 78 35 79 36 80 42 81 44 82 37 83 38 84
REMARK SMILES IDX 39 85 40 86 41 87 67 88 68 89 77 90 69 91 70 92 76 93 78 94
REMARK SMILES IDX 71 95 72 96 73 97 74 98 75 99 51 100 52 101 61 102 53 103
REMARK SMILES IDX 54 104 60 105 62 106 55 107 56 108 57 109 58 110 59 111
REMARK H PARENT 14 7 21 42 83 61 49 72
REMARK Flexibility Score: inf
ROOT
ATOM      1  C   UNL A   1      45.138  21.982  34.884  1.00  0.00     0.002 C 
ENDROOT
BRANCH   1   2
ATOM      2  C   UNL A   1      46.655  21.877  34.658  1.00  0.00     0.021 C 
BRANCH   2   3
ATOM      3  C   UNL A   1      47.180  20.464  34.847  1.00  0.00     0.116 C 
BRANCH   3   4
ATOM      4  N   UNL A   1      48.375  20.331  34.043  1.00  0.00    -0.356 N 
ATOM      5  C   UNL A   1      49.629  20.768  34.331  1.00  0.00     0.223 C 
ATOM      6  O   UNL A   1      50.378  21.029  33.386  1.00  0.00    -0.275 OA
ATOM      7  H   UNL A   1      48.267  19.868  33.181  1.00  0.00     0.163 HD
BRANCH   5   8
ATOM      8  C   UNL A   1      50.164  20.752  35.761  1.00  0.00     0.082 C 
ATOM      9  C   UNL A   1      49.210  20.586  39.669  1.00  0.00     0.222 C 
ATOM     10  O   UNL A   1      48.676  21.663  39.935  1.00  0.00    -0.275 OA
ATOM     11  N   UNL A   1      50.156  20.491  38.640  1.00  0.00    -0.343 N 
ATOM     12  C   UNL A   1      50.805  21.682  38.044  1.00  0.00     0.120 C 
ATOM     13  C   UNL A   1      50.141  19.344  37.769  1.00  0.00     0.120 C 
ATOM     14  C   UNL A   1      50.352  22.020  36.587  1.00  0.00     0.035 C 
ATOM     15  C   UNL A   1      49.315  19.800  36.579  1.00  0.00     0.035 C 
BRANCH   9  16
ATOM     16  C   UNL A   1      48.948  19.323  40.539  1.00  0.00     0.105 C 
BRANCH  16  17
ATOM     17  C   UNL A   1      47.627  19.189  41.346  1.00  0.00     0.053 C 
BRANCH  17  18
ATOM     18  C   UNL A   1      46.545  18.372  40.655  1.00  0.00     0.042 A 
ATOM     19  C   UNL A   1      46.797  16.259  42.045  1.00  0.00     0.046 C 
ATOM     20  C   UNL A   1      46.088  17.202  41.116  1.00  0.00    -0.030 A 
ATOM     21  C   UNL A   1      44.778  16.816  40.618  1.00  0.00     0.022 A 
ATOM     22  C   UNL A   1      46.016  18.765  39.296  1.00  0.00     0.339 A 
ATOM     23  C   UNL A   1      44.575  16.809  39.264  1.00  0.00     0.142 A 
ATOM     24  C   UNL A   1      43.697  16.548  41.427  1.00  0.00     0.024 A 
ATOM     25  O   UNL A   1      46.230  19.872  38.816  1.00  0.00    -0.246 OA
ATOM     26  O   UNL A   1      45.359  17.739  38.546  1.00  0.00    -0.422 OA
ATOM     27  C   UNL A   1      43.581  15.992  38.689  1.00  0.00     0.095 A 
ATOM     28  C   UNL A   1      42.737  15.676  40.960  1.00  0.00     0.025 A 
ATOM     29  C   UNL A   1      42.780  15.307  39.622  1.00  0.00     0.138 A 
ATOM     30  C   UNL A   1      41.815  14.862  41.637  1.00  0.00     0.001 A 
ATOM     31  O   UNL A   1      42.013  14.170  39.476  1.00  0.00    -0.461 OA
ATOM     32  C   UNL A   1      41.587  13.848  40.738  1.00  0.00     0.108 A 
ATOM     33  C   UNL A   1      41.599  14.683  43.101  1.00  0.00     0.040 C 
ATOM     34  C   UNL A   1      41.429  12.439  41.189  1.00  0.00     0.076 C 
ATOM     35  C   UNL A   1      42.128  13.309  43.562  1.00  0.00     0.005 C 
ATOM     36  C   UNL A   1      42.368  12.277  42.425  1.00  0.00     0.008 C 
ENDBRANCH  17  18
ENDBRANCH  16  17
ENDBRANCH   9  16
ENDBRANCH   5   8
ENDBRANCH   3   4
ENDBRANCH   2   3
ENDBRANCH   1   2
BRANCH   1  37
ATOM     37  C   UNL A   1      44.490  23.273  34.366  1.00  0.00     0.002 C 
BRANCH  37  38
ATOM     38  C   UNL A   1      42.965  23.318  34.478  1.00  0.00     0.021 C 
BRANCH  38  39
ATOM     39  C   UNL A   1      42.455  24.333  35.502  1.00  0.00     0.116 C 
BRANCH  39  40
ATOM     40  N   UNL A   1      43.486  24.851  36.375  1.00  0.00    -0.352 N 
ATOM     41  C   UNL A   1      43.998  26.131  36.402  1.00  0.00     0.251 C 
ATOM     42  H   UNL A   1      43.867  24.216  37.025  1.00  0.00     0.163 HD
ATOM     43  O   UNL A   1      44.861  26.458  37.189  1.00  0.00    -0.269 OA
BRANCH  41  44
ATOM     44  C   UNL A   1      43.476  27.072  35.391  1.00  0.00     0.039 A 
ATOM     45  C   UNL A   1      42.403  27.909  35.712  1.00  0.00     0.014 A 
ATOM     46  C   UNL A   1      43.951  26.960  34.084  1.00  0.00     0.014 A 
ATOM     47  C   UNL A   1      41.712  28.542  34.690  1.00  0.00     0.010 A 
ATOM     48  C   UNL A   1      43.285  27.635  33.068  1.00  0.00     0.010 A 
ATOM     49  C   UNL A   1      42.142  28.391  33.366  1.00  0.00    -0.014 A 
BRANCH  49  50
ATOM     50  C   UNL A   1      41.407  29.128  32.334  1.00  0.00     0.031 A 
ATOM     51  C   UNL A   1      42.284  29.964  31.472  1.00  0.00     0.074 A 
ATOM     52  C   UNL A   1      40.229  28.710  31.830  1.00  0.00     0.049 A 
ATOM     53  N   UNL A   1      42.994  29.439  30.518  1.00  0.00    -0.248 NA
ATOM     54  C   UNL A   1      42.633  31.345  31.790  1.00  0.00     0.031 C 
ATOM     55  C   UNL A   1      39.768  27.315  31.837  1.00  0.00     0.029 A 
ATOM     56  N   UNL A   1      39.329  29.360  31.022  1.00  0.00    -0.354 N 
ATOM     57  C   UNL A   1      43.924  30.383  30.141  1.00  0.00     0.074 A 
ATOM     58  C   UNL A   1      43.653  31.557  30.943  1.00  0.00     0.031 C 
ATOM     59  C   UNL A   1      38.800  27.181  30.907  1.00  0.00     0.029 A 
ATOM     60  C   UNL A   1      38.456  28.494  30.375  1.00  0.00     0.049 A 
ATOM     61  H   UNL A   1      39.306  30.339  30.914  1.00  0.00     0.167 HD
ATOM     62  C   UNL A   1      44.875  30.138  29.206  1.00  0.00     0.037 A 
ATOM     63  C   UNL A   1      37.891  28.717  29.157  1.00  0.00     0.037 A 
ATOM     64  C   UNL A   1      44.835  28.839  28.602  1.00  0.00     0.049 A 
ATOM     65  C   UNL A   1      39.107  28.663  28.261  1.00  0.00     0.074 A 
ATOM     66  C   UNL A   1      45.420  27.610  28.818  1.00  0.00     0.029 A 
ATOM     67  N   UNL A   1      43.936  28.629  27.582  1.00  0.00    -0.354 N 
ATOM     68  N   UNL A   1      39.693  27.575  27.831  1.00  0.00    -0.248 NA
ATOM     69  C   UNL A   1      39.911  29.879  28.117  1.00  0.00     0.031 C 
ATOM     70  C   UNL A   1      44.531  26.653  28.233  1.00  0.00     0.029 A 
ATOM     71  C   UNL A   1      43.433  27.362  27.748  1.00  0.00     0.049 A 
ATOM     72  H   UNL A   1      43.699  29.265  26.869  1.00  0.00     0.167 HD
ATOM     73  C   UNL A   1      41.029  27.929  27.622  1.00  0.00     0.074 A 
ATOM     74  C   UNL A   1      41.088  29.365  27.787  1.00  0.00     0.031 C 
ATOM     75  C   UNL A   1      42.045  27.025  27.510  1.00  0.00     0.037 A 
BRANCH  62  76
ATOM     76  C   UNL A   1      45.805  31.160  28.704  1.00  0.00     0.058 A 
ATOM     77  C   UNL A   1      45.319  32.107  27.792  1.00  0.00     0.135 A 
ATOM     78  C   UNL A   1      47.179  31.120  28.961  1.00  0.00     0.135 A 
ATOM     79  F   UNL A   1      44.005  32.166  27.524  1.00  0.00    -0.206 F 
ATOM     80  C   UNL A   1      46.176  32.958  27.112  1.00  0.00     0.059 A 
ATOM     81  C   UNL A   1      48.058  31.967  28.293  1.00  0.00     0.059 A 
ATOM     82  F   UNL A   1      47.680  30.227  29.831  1.00  0.00    -0.206 F 
ATOM     83  C   UNL A   1      47.547  32.864  27.352  1.00  0.00     0.060 A 
BRANCH  83  84
ATOM     84  S   UNL A   1      48.646  33.904  26.369  1.00  0.00     0.124 S 
ATOM     85  O   UNL A   1      49.701  32.964  26.006  1.00  0.00    -0.237 OA
ATOM     86  O   UNL A   1      47.768  34.326  25.282  1.00  0.00    -0.237 OA
ATOM     87  O   UNL A   1      49.037  34.958  27.299  1.00  0.00    -0.744 OA
ENDBRANCH  83  84
ENDBRANCH  62  76
BRANCH  63  88
ATOM     88  C   UNL A   1      36.895  29.841  29.150  1.00  0.00     0.058 A 
ATOM     89  C   UNL A   1      36.375  30.282  30.388  1.00  0.00     0.135 A 
ATOM     90  C   UNL A   1      36.442  30.531  28.016  1.00  0.00     0.135 A 
ATOM     91  F   UNL A   1      36.634  29.596  31.515  1.00  0.00    -0.206 F 
ATOM     92  C   UNL A   1      35.606  31.435  30.510  1.00  0.00     0.059 A 
ATOM     93  C   UNL A   1      35.687  31.702  28.112  1.00  0.00     0.059 A 
ATOM     94  F   UNL A   1      36.738  30.103  26.781  1.00  0.00    -0.206 F 
ATOM     95  C   UNL A   1      35.308  32.167  29.367  1.00  0.00     0.060 A 
BRANCH  95  96
ATOM     96  S   UNL A   1      34.475  33.757  29.557  1.00  0.00     0.124 S 
ATOM     97  O   UNL A   1      33.935  33.656  30.907  1.00  0.00    -0.237 OA
ATOM     98  O   UNL A   1      35.580  34.695  29.380  1.00  0.00    -0.237 OA
ATOM     99  O   UNL A   1      33.489  33.752  28.481  1.00  0.00    -0.744 OA
ENDBRANCH  95  96
ENDBRANCH  63  88
BRANCH  75 100
ATOM    100  C   UNL A   1      41.640  25.596  27.378  1.00  0.00     0.058 A 
ATOM    101  C   UNL A   1      41.141  25.118  26.159  1.00  0.00     0.135 A 
ATOM    102  C   UNL A   1      41.814  24.674  28.423  1.00  0.00     0.135 A 
ATOM    103  F   UNL A   1      40.966  25.957  25.124  1.00  0.00    -0.206 F 
ATOM    104  C   UNL A   1      40.861  23.768  25.967  1.00  0.00     0.059 A 
ATOM    105  C   UNL A   1      41.560  23.316  28.247  1.00  0.00     0.059 A 
ATOM    106  F   UNL A   1      42.271  25.074  29.622  1.00  0.00    -0.206 F 
ATOM    107  C   UNL A   1      41.090  22.872  27.011  1.00  0.00     0.060 A 
BRANCH 107 108
ATOM    108  S   UNL A   1      40.843  21.110  26.708  1.00  0.00     0.124 S 
ATOM    109  O   UNL A   1      39.524  21.090  26.086  1.00  0.00    -0.237 OA
ATOM    110  O   UNL A   1      41.963  20.783  25.831  1.00  0.00    -0.237 OA
ATOM    111  O   UNL A   1      40.913  20.520  28.043  1.00  0.00    -0.744 OA
ENDBRANCH 107 108
ENDBRANCH  75 100
ENDBRANCH  49  50
ENDBRANCH  41  44
ENDBRANCH  39  40
ENDBRANCH  38  39
ENDBRANCH  37  38
ENDBRANCH   1  37
TORSDOF 19
ENDMDL
MODEL 2
REMARK VINA RESULT:     -12.6      7.197     18.925
REMARK SMILES Cc1c(CCC(=O)N2CCC(C(=O)NCCCCCCNC(=O)c3ccc(-c4c5nc(c(-c6c(F)cc(S(=O)(=O)[O-])cc6F)c6ccc([nH]6)c(-c6c(F)cc(S(=O)(=O)[O-])cc6F)c6nc(c(-c7c(F)cc(S(=O)(=O)[O-])cc7F)c7ccc4[nH]7)C=C6)C=C5)cc3)CC2)c(=O)oc2cc3oc4c(c3cc12)CCCC4
REMARK SMILES IDX 17 1 16 2 15 3 14 4 12 5 13 6 11 8 6 9 7 10 8 11 9 12 91 13
REMARK SMILES IDX 10 14 90 15 5 16 4 17 3 18 1 19 2 20 103 21 92 22 95 23
REMARK SMILES IDX 102 24 93 25 94 26 96 27 101 28 97 29 100 30 98 31 99 32
REMARK SMILES IDX 104 33 107 34 105 35 106 36 18 37 19 38 20 39 21 40 22 41
REMARK SMILES IDX 23 43 24 44 25 45 89 46 26 47 88 48 27 49 28 50 29 51 82 52
REMARK SMILES IDX 30 53 87 54 81 55 83 56 31 57 86 58 80 59 79 60 32 62 66 63
REMARK SMILES IDX 45 64 65 65 46 66 49 67 64 68 84 69 47 70 48 71 63 73 85 74
REMARK SMILES IDX 50 75 33 76 34 77 43 78 35 79 36 80 42 81 44 82 37 83 38 84
REMARK SMILES IDX 39 85 40 86 41 87 67 88 68 89 77 90 69 91 70 92 76 93 78 94
REMARK SMILES IDX 71 95 72 96 73 97 74 98 75 99 51 100 52 101 61 102 53 103
REMARK SMILES IDX 54 104 60 105 62 106 55 107 56 108 57 109 58 110 59 111
REMARK H PARENT 14 7 21 42 83 61 49 72
REMARK Flexibility Score: inf
ROOT
ATOM      1  C   UNL A   1      42.041  39.435  27.452  1.00  0.00     0.002 C 
ENDROOT
BRANCH   1   2
ATOM      2  C   UNL A   1      42.308  39.517  28.964  1.00  0.00     0.021 C 
BRANCH   2   3
ATOM      3  C   UNL A   1      43.430  40.482  29.309  1.00  0.00     0.116 C 
BRANCH   3   4
ATOM      4  N   UNL A   1      42.829  41.660  29.894  1.00  0.00    -0.356 N 
ATOM      5  C   UNL A   1      43.456  42.724  30.461  1.00  0.00     0.223 C 
ATOM      6  O   UNL A   1      42.843  43.358  31.325  1.00  0.00    -0.275 OA
ATOM      7  H   UNL A   1      41.845  41.695  29.880  1.00  0.00     0.163 HD
BRANCH   5   8
ATOM      8  C   UNL A   1      44.785  43.241  29.919  1.00  0.00     0.082 C 
ATOM      9  C   UNL A   1      47.435  43.075  26.891  1.00  0.00     0.222 C 
ATOM     10  O   UNL A   1      47.951  41.959  26.953  1.00  0.00    -0.275 OA
ATOM     11  N   UNL A   1      46.939  43.697  28.044  1.00  0.00    -0.343 N 
ATOM     12  C   UNL A   1      47.281  43.233  29.409  1.00  0.00     0.120 C 
ATOM     13  C   UNL A   1      45.699  44.427  27.976  1.00  0.00     0.120 C 
ATOM     14  C   UNL A   1      46.114  42.539  30.182  1.00  0.00     0.035 C 
ATOM     15  C   UNL A   1      44.655  43.416  28.420  1.00  0.00     0.035 C 
BRANCH   9  16
ATOM     16  C   UNL A   1      47.424  43.883  25.563  1.00  0.00     0.105 C 
BRANCH  16  17
ATOM     17  C   UNL A   1      47.323  43.145  24.199  1.00  0.00     0.053 C 
BRANCH  17  18
ATOM     18  C   UNL A   1      45.906  42.988  23.669  1.00  0.00     0.042 A 
ATOM     19  C   UNL A   1      45.809  45.158  22.349  1.00  0.00     0.046 C 
ATOM     20  C   UNL A   1      45.374  43.770  22.722  1.00  0.00    -0.030 A 
ATOM     21  C   UNL A   1      44.233  43.201  22.025  1.00  0.00     0.022 A 
ATOM     22  C   UNL A   1      44.938  42.014  24.300  1.00  0.00     0.339 A 
ATOM     23  C   UNL A   1      43.188  42.723  22.771  1.00  0.00     0.142 A 
ATOM     24  C   UNL A   1      44.177  43.022  20.661  1.00  0.00     0.024 A 
ATOM     25  O   UNL A   1      45.315  41.139  25.070  1.00  0.00    -0.246 OA
ATOM     26  O   UNL A   1      43.548  42.242  24.049  1.00  0.00    -0.422 OA
ATOM     27  C   UNL A   1      41.891  42.647  22.227  1.00  0.00     0.095 A 
ATOM     28  C   UNL A   1      42.939  43.036  20.055  1.00  0.00     0.025 A 
ATOM     29  C   UNL A   1      41.811  42.985  20.862  1.00  0.00     0.138 A 
ATOM     30  C   UNL A   1      42.555  43.339  18.739  1.00  0.00     0.001 A 
ATOM     31  O   UNL A   1      40.735  43.403  20.107  1.00  0.00    -0.461 OA
ATOM     32  C   UNL A   1      41.255  43.759  18.890  1.00  0.00     0.108 A 
ATOM     33  C   UNL A   1      43.389  43.755  17.575  1.00  0.00     0.040 C 
ATOM     34  C   UNL A   1      40.714  44.893  18.094  1.00  0.00     0.076 C 
ATOM     35  C   UNL A   1      43.175  45.251  17.264  1.00  0.00     0.005 C 
ATOM     36  C   UNL A   1      41.903  45.883  17.895  1.00  0.00     0.008 C 
ENDBRANCH  17  18
ENDBRANCH  16  17
ENDBRANCH   9  16
ENDBRANCH   5   8
ENDBRANCH   3   4
ENDBRANCH   2   3
ENDBRANCH   1   2
BRANCH   1  37
ATOM     37  C   UNL A   1      41.914  38.012  26.890  1.00  0.00     0.002 C 
BRANCH  37  38
ATOM     38  C   UNL A   1      43.107  37.099  27.173  1.00  0.00     0.021 C 
BRANCH  38  39
ATOM     39  C   UNL A   1      42.998  35.723  26.512  1.00  0.00     0.116 C 
BRANCH  39  40
ATOM     40  N   UNL A   1      43.938  35.518  25.432  1.00  0.00    -0.352 N 
ATOM     41  C   UNL A   1      44.870  34.510  25.308  1.00  0.00     0.251 C 
ATOM     42  H   UNL A   1      43.910  36.176  24.699  1.00  0.00     0.163 HD
ATOM     43  O   UNL A   1      45.605  34.431  24.348  1.00  0.00    -0.269 OA
BRANCH  41  44
ATOM     44  C   UNL A   1      44.960  33.555  26.432  1.00  0.00     0.039 A 
ATOM     45  C   UNL A   1      44.227  32.364  26.389  1.00  0.00     0.014 A 
ATOM     46  C   UNL A   1      45.630  33.961  27.585  1.00  0.00     0.014 A 
ATOM     47  C   UNL A   1      44.053  31.638  27.557  1.00  0.00     0.010 A 
ATOM     48  C   UNL A   1      45.492  33.203  28.742  1.00  0.00     0.010 A 
ATOM     49  C   UNL A   1      44.671  32.066  28.738  1.00  0.00    -0.014 A 
BRANCH  49  50
ATOM     50  C   UNL A   1      44.498  31.228  29.928  1.00  0.00     0.031 A 
ATOM     51  C   UNL A   1      43.124  31.288  30.495  1.00  0.00     0.074 A 
ATOM     52  C   UNL A   1      45.238  30.127  30.165  1.00  0.00     0.049 A 
ATOM     53  N   UNL A   1      42.140  30.633  29.955  1.00  0.00    -0.248 NA
ATOM     54  C   UNL A   1      42.716  32.272  31.493  1.00  0.00     0.031 C 
ATOM     55  C   UNL A   1      45.924  29.344  29.128  1.00  0.00     0.029 A 
ATOM     56  N   UNL A   1      45.343  29.356  31.296  1.00  0.00    -0.354 N 
ATOM     57  C   UNL A   1      40.976  31.146  30.485  1.00  0.00     0.074 A 
ATOM     58  C   UNL A   1      41.380  32.148  31.448  1.00  0.00     0.031 C 
ATOM     59  C   UNL A   1      46.191  28.119  29.625  1.00  0.00     0.029 A 
ATOM     60  C   UNL A   1      45.863  28.091  31.045  1.00  0.00     0.049 A 
ATOM     61  H   UNL A   1      45.078  29.667  32.192  1.00  0.00     0.167 HD
ATOM     62  C   UNL A   1      39.749  30.731  30.086  1.00  0.00     0.037 A 
ATOM     63  C   UNL A   1      45.566  26.968  31.753  1.00  0.00     0.037 A 
ATOM     64  C   UNL A   1      39.731  29.694  29.096  1.00  0.00     0.049 A 
ATOM     65  C   UNL A   1      44.108  26.782  31.404  1.00  0.00     0.074 A 
ATOM     66  C   UNL A   1      39.671  29.615  27.722  1.00  0.00     0.029 A 
ATOM     67  N   UNL A   1      39.910  28.397  29.518  1.00  0.00    -0.354 N 
ATOM     68  N   UNL A   1      43.647  26.252  30.300  1.00  0.00    -0.248 NA
ATOM     69  C   UNL A   1      43.114  27.536  32.172  1.00  0.00     0.031 C 
ATOM     70  C   UNL A   1      40.259  28.355  27.383  1.00  0.00     0.029 A 
ATOM     71  C   UNL A   1      40.690  27.774  28.575  1.00  0.00     0.049 A 
ATOM     72  H   UNL A   1      39.548  27.993  30.339  1.00  0.00     0.167 HD
ATOM     73  C   UNL A   1      42.392  26.833  30.103  1.00  0.00     0.074 A 
ATOM     74  C   UNL A   1      42.112  27.589  31.305  1.00  0.00     0.031 C 
ATOM     75  C   UNL A   1      41.729  26.823  28.910  1.00  0.00     0.037 A 
BRANCH  62  76
ATOM     76  C   UNL A   1      38.495  31.177  30.712  1.00  0.00     0.058 A 
ATOM     77  C   UNL A   1      37.772  32.203  30.090  1.00  0.00     0.135 A 
ATOM     78  C   UNL A   1      38.092  30.746  31.979  1.00  0.00     0.135 A 
ATOM     79  F   UNL A   1      38.139  32.639  28.873  1.00  0.00    -0.206 F 
ATOM     80  C   UNL A   1      36.708  32.824  30.725  1.00  0.00     0.059 A 
ATOM     81  C   UNL A   1      37.024  31.351  32.637  1.00  0.00     0.059 A 
ATOM     82  F   UNL A   1      38.760  29.763  32.606  1.00  0.00    -0.206 F 
ATOM     83  C   UNL A   1      36.356  32.406  32.009  1.00  0.00     0.060 A 
BRANCH  83  84
ATOM     84  S   UNL A   1      35.044  33.307  32.857  1.00  0.00     0.124 S 
ATOM     85  O   UNL A   1      35.356  33.043  34.257  1.00  0.00    -0.237 OA
ATOM     86  O   UNL A   1      35.274  34.674  32.400  1.00  0.00    -0.237 OA
ATOM     87  O   UNL A   1      33.824  32.680  32.357  1.00  0.00    -0.744 OA
ENDBRANCH  83  84
ENDBRANCH  62  76
BRANCH  63  88
ATOM     88  C   UNL A   1      46.094  26.984  33.160  1.00  0.00     0.058 A 
ATOM     89  C   UNL A   1      47.310  27.660  33.410  1.00  0.00     0.135 A 
ATOM     90  C   UNL A   1      45.474  26.407  34.278  1.00  0.00     0.135 A 
ATOM     91  F   UNL A   1      48.052  28.120  32.387  1.00  0.00    -0.206 F 
ATOM     92  C   UNL A   1      47.782  27.903  34.696  1.00  0.00     0.059 A 
ATOM     93  C   UNL A   1      45.915  26.652  35.580  1.00  0.00     0.059 A 
ATOM     94  F   UNL A   1      44.408  25.607  34.142  1.00  0.00    -0.206 F 
ATOM     95  C   UNL A   1      47.048  27.435  35.779  1.00  0.00     0.060 A 
BRANCH  95  96
ATOM     96  S   UNL A   1      47.564  27.917  37.441  1.00  0.00     0.124 S 
ATOM     97  O   UNL A   1      48.891  28.471  37.196  1.00  0.00    -0.237 OA
ATOM     98  O   UNL A   1      46.528  28.880  37.807  1.00  0.00    -0.237 OA
ATOM     99  O   UNL A   1      47.532  26.661  38.182  1.00  0.00    -0.744 OA
ENDBRANCH  95  96
ENDBRANCH  63  88
BRANCH  75 100
ATOM    100  C   UNL A   1      42.299  25.942  27.850  1.00  0.00     0.058 A 
ATOM    101  C   UNL A   1      43.316  26.419  27.014  1.00  0.00     0.135 A 
ATOM    102  C   UNL A   1      41.902  24.603  27.704  1.00  0.00     0.135 A 
ATOM    103  F   UNL A   1      43.739  27.690  27.119  1.00  0.00    -0.206 F 
ATOM    104  C   UNL A   1      43.948  25.590  26.091  1.00  0.00     0.059 A 
ATOM    105  C   UNL A   1      42.534  23.750  26.803  1.00  0.00     0.059 A 
ATOM    106  F   UNL A   1      40.918  24.091  28.464  1.00  0.00    -0.206 F 
ATOM    107  C   UNL A   1      43.562  24.252  26.005  1.00  0.00     0.060 A 
BRANCH 107 108
ATOM    108  S   UNL A   1      44.474  23.158  24.896  1.00  0.00     0.124 S 
ATOM    109  O   UNL A   1      44.973  22.140  25.815  1.00  0.00    -0.237 OA
ATOM    110  O   UNL A   1      43.438  22.721  23.966  1.00  0.00    -0.237 OA
ATOM    111  O   UNL A   1      45.494  24.030  24.318  1.00  0.00    -0.744 OA
ENDBRANCH 107 108
ENDBRANCH  75 100
ENDBRANCH  49  50
ENDBRANCH  41  44
ENDBRANCH  39  40
ENDBRANCH  38  39
ENDBRANCH  37  38
ENDBRANCH   1  37
TORSDOF 19
ENDMDL
MODEL 3
REMARK VINA RESULT:     -12.1      5.330     12.445
REMARK SMILES Cc1c(CCC(=O)N2CCC(C(=O)NCCCCCCNC(=O)c3ccc(-c4c5nc(c(-c6c(F)cc(S(=O)(=O)[O-])cc6F)c6ccc([nH]6)c(-c6c(F)cc(S(=O)(=O)[O-])cc6F)c6nc(c(-c7c(F)cc(S(=O)(=O)[O-])cc7F)c7ccc4[nH]7)C=C6)C=C5)cc3)CC2)c(=O)oc2cc3oc4c(c3cc12)CCCC4
REMARK SMILES IDX 17 1 16 2 15 3 14 4 12 5 13 6 11 8 6 9 7 10 8 11 9 12 91 13
REMARK SMILES IDX 10 14 90 15 5 16 4 17 3 18 1 19 2 20 103 21 92 22 95 23
REMARK SMILES IDX 102 24 93 25 94 26 96 27 101 28 97 29 100 30 98 31 99 32
REMARK SMILES IDX 104 33 107 34 105 35 106 36 18 37 19 38 20 39 21 40 22 41
REMARK SMILES IDX 23 43 24 44 25 45 89 46 26 47 88 48 27 49 28 50 29 51 82 52
REMARK SMILES IDX 30 53 87 54 81 55 83 56 31 57 86 58 80 59 79 60 32 62 66 63
REMARK SMILES IDX 45 64 65 65 46 66 49 67 64 68 84 69 47 70 48 71 63 73 85 74
REMARK SMILES IDX 50 75 33 76 34 77 43 78 35 79 36 80 42 81 44 82 37 83 38 84
REMARK SMILES IDX 39 85 40 86 41 87 67 88 68 89 77 90 69 91 70 92 76 93 78 94
REMARK SMILES IDX 71 95 72 96 73 97 74 98 75 99 51 100 52 101 61 102 53 103
REMARK SMILES IDX 54 104 60 105 62 106 55 107 56 108 57 109 58 110 59 111
REMARK H PARENT 14 7 21 42 83 61 49 72
REMARK Flexibility Score: inf
ROOT
ATOM      1  C   UNL A   1      46.394  27.818  36.481  1.00  0.00     0.002 C 
ENDROOT
BRANCH   1   2
ATOM      2  C   UNL A   1      46.485  28.512  35.113  1.00  0.00     0.021 C 
BRANCH   2   3
ATOM      3  C   UNL A   1      45.201  29.231  34.733  1.00  0.00     0.116 C 
BRANCH   3   4
ATOM      4  N   UNL A   1      44.275  29.081  35.834  1.00  0.00    -0.356 N 
ATOM      5  C   UNL A   1      43.163  29.817  36.095  1.00  0.00     0.223 C 
ATOM      6  O   UNL A   1      42.795  29.904  37.270  1.00  0.00    -0.275 OA
ATOM      7  H   UNL A   1      44.475  28.359  36.472  1.00  0.00     0.163 HD
BRANCH   5   8
ATOM      8  C   UNL A   1      42.284  30.353  34.968  1.00  0.00     0.082 C 
ATOM      9  C   UNL A   1      38.630  31.708  33.955  1.00  0.00     0.222 C 
ATOM     10  O   UNL A   1      37.879  30.733  34.010  1.00  0.00    -0.275 OA
ATOM     11  N   UNL A   1      39.992  31.545  33.670  1.00  0.00    -0.343 N 
ATOM     12  C   UNL A   1      40.543  30.290  33.110  1.00  0.00     0.120 C 
ATOM     13  C   UNL A   1      40.963  32.335  34.384  1.00  0.00     0.120 C 
ATOM     14  C   UNL A   1      41.413  29.451  34.100  1.00  0.00     0.035 C 
ATOM     15  C   UNL A   1      41.390  31.438  35.533  1.00  0.00     0.035 C 
BRANCH   9  16
ATOM     16  C   UNL A   1      38.077  33.156  34.078  1.00  0.00     0.105 C 
BRANCH  16  17
ATOM     17  C   UNL A   1      37.317  33.597  35.359  1.00  0.00     0.053 C 
BRANCH  17  18
ATOM     18  C   UNL A   1      38.153  33.574  36.630  1.00  0.00     0.042 A 
ATOM     19  C   UNL A   1      39.628  35.572  36.085  1.00  0.00     0.046 C 
ATOM     20  C   UNL A   1      38.991  34.554  36.988  1.00  0.00    -0.030 A 
ATOM     21  C   UNL A   1      39.326  34.589  38.402  1.00  0.00     0.022 A 
ATOM     22  C   UNL A   1      38.206  32.347  37.509  1.00  0.00     0.339 A 
ATOM     23  C   UNL A   1      39.794  33.442  38.986  1.00  0.00     0.142 A 
ATOM     24  C   UNL A   1      39.113  35.678  39.216  1.00  0.00     0.024 A 
ATOM     25  O   UNL A   1      37.396  31.434  37.393  1.00  0.00    -0.246 OA
ATOM     26  O   UNL A   1      39.321  32.247  38.400  1.00  0.00    -0.422 OA
ATOM     27  C   UNL A   1      40.602  33.499  40.139  1.00  0.00     0.095 A 
ATOM     28  C   UNL A   1      39.936  35.844  40.309  1.00  0.00     0.025 A 
ATOM     29  C   UNL A   1      40.769  34.793  40.669  1.00  0.00     0.138 A 
ATOM     30  C   UNL A   1      40.297  36.991  41.032  1.00  0.00     0.001 A 
ATOM     31  O   UNL A   1      41.750  35.299  41.496  1.00  0.00    -0.461 OA
ATOM     32  C   UNL A   1      41.522  36.649  41.555  1.00  0.00     0.108 A 
ATOM     33  C   UNL A   1      39.896  38.413  40.827  1.00  0.00     0.040 C 
ATOM     34  C   UNL A   1      42.628  37.640  41.640  1.00  0.00     0.076 C 
ATOM     35  C   UNL A   1      41.072  39.228  40.250  1.00  0.00     0.005 C 
ATOM     36  C   UNL A   1      42.471  38.567  40.395  1.00  0.00     0.008 C 
ENDBRANCH  17  18
ENDBRANCH  16  17
ENDBRANCH   9  16
ENDBRANCH   5   8
ENDBRANCH   3   4
ENDBRANCH   2   3
ENDBRANCH   1   2
BRANCH   1  37
ATOM     37  C   UNL A   1      46.821  26.344  36.494  1.00  0.00     0.002 C 
BRANCH  37  38
ATOM     38  C   UNL A   1      45.908  25.416  37.296  1.00  0.00     0.021 C 
BRANCH  38  39
ATOM     39  C   UNL A   1      44.418  25.716  37.118  1.00  0.00     0.116 C 
BRANCH  39  40
ATOM     40  N   UNL A   1      43.640  24.576  36.687  1.00  0.00    -0.352 N 
ATOM     41  C   UNL A   1      43.402  24.160  35.394  1.00  0.00     0.251 C 
ATOM     42  H   UNL A   1      43.231  24.032  37.401  1.00  0.00     0.163 HD
ATOM     43  O   UNL A   1      42.737  23.176  35.150  1.00  0.00    -0.269 OA
BRANCH  41  44
ATOM     44  C   UNL A   1      43.960  25.004  34.318  1.00  0.00     0.039 A 
ATOM     45  C   UNL A   1      43.233  26.105  33.854  1.00  0.00     0.014 A 
ATOM     46  C   UNL A   1      45.113  24.563  33.670  1.00  0.00     0.014 A 
ATOM     47  C   UNL A   1      43.591  26.690  32.649  1.00  0.00     0.010 A 
ATOM     48  C   UNL A   1      45.497  25.183  32.487  1.00  0.00     0.010 A 
ATOM     49  C   UNL A   1      44.713  26.218  31.957  1.00  0.00    -0.014 A 
BRANCH  49  50
ATOM     50  C   UNL A   1      45.076  26.911  30.718  1.00  0.00     0.031 A 
ATOM     51  C   UNL A   1      45.058  26.027  29.521  1.00  0.00     0.074 A 
ATOM     52  C   UNL A   1      44.895  28.235  30.535  1.00  0.00     0.049 A 
ATOM     53  N   UNL A   1      43.942  25.692  28.945  1.00  0.00    -0.248 NA
ATOM     54  C   UNL A   1      46.217  25.257  29.081  1.00  0.00     0.031 C 
ATOM     55  C   UNL A   1      43.916  29.050  31.266  1.00  0.00     0.029 A 
ATOM     56  N   UNL A   1      45.349  29.063  29.538  1.00  0.00    -0.354 N 
ATOM     57  C   UNL A   1      44.222  24.633  28.110  1.00  0.00     0.074 A 
ATOM     58  C   UNL A   1      45.648  24.406  28.212  1.00  0.00     0.031 C 
ATOM     59  C   UNL A   1      43.695  30.181  30.566  1.00  0.00     0.029 A 
ATOM     60  C   UNL A   1      44.632  30.250  29.451  1.00  0.00     0.049 A 
ATOM     61  H   UNL A   1      46.104  28.837  28.948  1.00  0.00     0.167 HD
ATOM     62  C   UNL A   1      43.262  23.990  27.400  1.00  0.00     0.037 A 
ATOM     63  C   UNL A   1      44.431  30.961  28.308  1.00  0.00     0.037 A 
ATOM     64  C   UNL A   1      41.931  24.503  27.543  1.00  0.00     0.049 A 
ATOM     65  C   UNL A   1      43.556  30.009  27.525  1.00  0.00     0.074 A 
ATOM     66  C   UNL A   1      40.834  24.248  28.336  1.00  0.00     0.029 A 
ATOM     67  N   UNL A   1      41.584  25.609  26.802  1.00  0.00    -0.354 N 
ATOM     68  N   UNL A   1      42.269  29.841  27.691  1.00  0.00    -0.248 NA
ATOM     69  C   UNL A   1      44.211  28.947  26.757  1.00  0.00     0.031 C 
ATOM     70  C   UNL A   1      40.078  25.462  28.348  1.00  0.00     0.029 A 
ATOM     71  C   UNL A   1      40.797  26.397  27.606  1.00  0.00     0.049 A 
ATOM     72  H   UNL A   1      41.848  25.798  25.873  1.00  0.00     0.167 HD
ATOM     73  C   UNL A   1      42.010  28.529  27.287  1.00  0.00     0.074 A 
ATOM     74  C   UNL A   1      43.240  28.046  26.696  1.00  0.00     0.031 C 
ATOM     75  C   UNL A   1      40.877  27.843  27.618  1.00  0.00     0.037 A 
BRANCH  62  76
ATOM     76  C   UNL A   1      43.547  22.933  26.418  1.00  0.00     0.058 A 
ATOM     77  C   UNL A   1      43.102  21.633  26.695  1.00  0.00     0.135 A 
ATOM     78  C   UNL A   1      44.383  23.135  25.316  1.00  0.00     0.135 A 
ATOM     79  F   UNL A   1      42.300  21.410  27.749  1.00  0.00    -0.206 F 
ATOM     80  C   UNL A   1      43.517  20.552  25.934  1.00  0.00     0.059 A 
ATOM     81  C   UNL A   1      44.810  22.065  24.534  1.00  0.00     0.059 A 
ATOM     82  F   UNL A   1      44.827  24.368  25.018  1.00  0.00    -0.206 F 
ATOM     83  C   UNL A   1      44.390  20.776  24.868  1.00  0.00     0.060 A 
BRANCH  83  84
ATOM     84  S   UNL A   1      45.002  19.338  23.968  1.00  0.00     0.124 S 
ATOM     85  O   UNL A   1      44.375  19.514  22.662  1.00  0.00    -0.237 OA
ATOM     86  O   UNL A   1      46.445  19.546  24.014  1.00  0.00    -0.237 OA
ATOM     87  O   UNL A   1      44.509  18.211  24.754  1.00  0.00    -0.744 OA
ENDBRANCH  83  84
ENDBRANCH  62  76
BRANCH  63  88
ATOM     88  C   UNL A   1      45.681  31.591  27.762  1.00  0.00     0.058 A 
ATOM     89  C   UNL A   1      45.670  32.980  27.500  1.00  0.00     0.135 A 
ATOM     90  C   UNL A   1      46.892  30.930  27.507  1.00  0.00     0.135 A 
ATOM     91  F   UNL A   1      44.521  33.674  27.573  1.00  0.00    -0.206 F 
ATOM     92  C   UNL A   1      46.823  33.692  27.183  1.00  0.00     0.059 A 
ATOM     93  C   UNL A   1      48.067  31.623  27.209  1.00  0.00     0.059 A 
ATOM     94  F   UNL A   1      46.976  29.594  27.563  1.00  0.00    -0.206 F 
ATOM     95  C   UNL A   1      48.029  33.008  27.088  1.00  0.00     0.060 A 
BRANCH  95  96
ATOM     96  S   UNL A   1      49.544  33.964  26.867  1.00  0.00     0.124 S 
ATOM     97  O   UNL A   1      49.544  34.202  25.428  1.00  0.00    -0.237 OA
ATOM     98  O   UNL A   1      49.287  35.130  27.707  1.00  0.00    -0.237 OA
ATOM     99  O   UNL A   1      50.584  33.065  27.357  1.00  0.00    -0.744 OA
ENDBRANCH  95  96
ENDBRANCH  63  88
BRANCH  75 100
ATOM    100  C   UNL A   1      39.786  28.642  28.245  1.00  0.00     0.058 A 
ATOM    101  C   UNL A   1      39.663  28.687  29.640  1.00  0.00     0.135 A 
ATOM    102  C   UNL A   1      38.906  29.426  27.482  1.00  0.00     0.135 A 
ATOM    103  F   UNL A   1      40.486  27.962  30.416  1.00  0.00    -0.206 F 
ATOM    104  C   UNL A   1      38.729  29.510  30.261  1.00  0.00     0.059 A 
ATOM    105  C   UNL A   1      37.978  30.273  28.083  1.00  0.00     0.059 A 
ATOM    106  F   UNL A   1      38.961  29.412  26.139  1.00  0.00    -0.206 F 
ATOM    107  C   UNL A   1      37.902  30.313  29.475  1.00  0.00     0.060 A 
BRANCH 107 108
ATOM    108  S   UNL A   1      36.784  31.469  30.295  1.00  0.00     0.124 S 
ATOM    109  O   UNL A   1      37.700  32.510  30.748  1.00  0.00    -0.237 OA
ATOM    110  O   UNL A   1      35.878  31.847  29.215  1.00  0.00    -0.237 OA
ATOM    111  O   UNL A   1      36.179  30.666  31.355  1.00  0.00    -0.744 OA
ENDBRANCH 107 108
ENDBRANCH  75 100
ENDBRANCH  49  50
ENDBRANCH  41  44
ENDBRANCH  39  40
ENDBRANCH  38  39
ENDBRANCH  37  38
ENDBRANCH   1  37
TORSDOF 19
ENDMDL
