MODEL 1
REMARK VINA RESULT:      -9.3      0.000      0.000
REMARK SMILES CCCc1cc(OCC(=O)NCCCCCCNC(=O)c2ccc(-c3c4nc(c(-c5c(F)cc(S(=O)(=O)[O-])cc5F)c5ccc([nH]5)c(-c5c(F)cc(S(=O)(=O)[O-])cc5F)c5nc(c(-c6c(F)cc(S(=O)(=O)[O-])cc6F)c6ccc3[nH]6)C=C5)C=C4)cc2)nc(Nc2ccc(C#N)cc2)n1
REMARK SMILES IDX 13 1 12 2 11 3 9 4 10 5 8 7 7 8 6 9 4 10 5 11 98 12 88 13
REMARK SMILES IDX 87 14 3 15 2 16 1 17 89 18 90 20 91 21 97 22 92 23 96 24
REMARK SMILES IDX 93 25 94 26 95 27 14 28 15 29 16 30 17 31 18 32 19 33 20 35
REMARK SMILES IDX 21 36 22 37 86 38 23 39 85 40 24 41 25 42 26 43 79 44 27 45
REMARK SMILES IDX 84 46 78 47 80 48 28 49 83 50 77 51 76 52 29 54 63 55 42 56
REMARK SMILES IDX 62 57 43 58 46 59 61 60 81 61 44 62 45 63 60 65 82 66 47 67
REMARK SMILES IDX 30 68 31 69 40 70 32 71 33 72 39 73 41 74 34 75 35 76 36 77
REMARK SMILES IDX 37 78 38 79 64 80 65 81 74 82 66 83 67 84 73 85 75 86 68 87
REMARK SMILES IDX 69 88 70 89 71 90 72 91 48 92 49 93 58 94 50 95 51 96 57 97
REMARK SMILES IDX 59 98 52 99 53 100 54 101 55 102 56 103
REMARK H PARENT 11 6 89 19 18 34 80 53 46 64
REMARK Flexibility Score: inf
ROOT
ATOM      1  C   UNL A   1      36.379  31.033  28.282  1.00  0.00     0.021 C 
ENDROOT
BRANCH   1   2
ATOM      2  C   UNL A   1      34.983  30.603  27.839  1.00  0.00     0.116 C 
BRANCH   2   3
ATOM      3  N   UNL A   1      35.035  29.717  26.693  1.00  0.00    -0.353 N 
ATOM      4  C   UNL A   1      33.992  29.203  25.985  1.00  0.00     0.258 C 
ATOM      5  O   UNL A   1      34.223  28.463  25.027  1.00  0.00    -0.271 OA
ATOM      6  H   UNL A   1      35.935  29.454  26.389  1.00  0.00     0.163 HD
BRANCH   4   7
ATOM      7  C   UNL A   1      32.556  29.561  26.394  1.00  0.00     0.331 C 
BRANCH   7   8
ATOM      8  O   UNL A   1      31.768  30.261  25.444  1.00  0.00    -0.467 OA
BRANCH   8   9
ATOM      9  C   UNL A   1      30.958  29.532  24.620  1.00  0.00     0.218 A 
ATOM     10  C   UNL A   1      29.242  29.179  23.072  1.00  0.00     0.050 A 
ATOM     11  C   UNL A   1      29.965  30.063  23.837  1.00  0.00     0.092 A 
ATOM     12  N   UNL A   1      29.501  27.864  23.075  1.00  0.00    -0.218 NA
ATOM     13  C   UNL A   1      30.479  27.414  23.878  1.00  0.00     0.230 A 
ATOM     14  N   UNL A   1      31.216  28.212  24.663  1.00  0.00    -0.177 NA
BRANCH  10  15
ATOM     15  C   UNL A   1      28.062  29.663  22.275  1.00  0.00     0.056 C 
BRANCH  15  16
ATOM     16  C   UNL A   1      27.646  31.094  22.636  1.00  0.00     0.003 C 
ATOM     17  C   UNL A   1      28.262  32.171  21.747  1.00  0.00     0.004 C 
ENDBRANCH  15  16
ENDBRANCH  10  15
BRANCH  13  18
ATOM     18  N   UNL A   1      30.688  26.041  23.992  1.00  0.00    -0.324 N 
ATOM     19  H   UNL A   1      29.918  25.469  23.774  1.00  0.00     0.170 HD
BRANCH  18  20
ATOM     20  C   UNL A   1      31.857  25.378  24.375  1.00  0.00     0.041 A 
ATOM     21  C   UNL A   1      32.944  25.308  23.496  1.00  0.00     0.027 A 
ATOM     22  C   UNL A   1      32.021  24.885  25.677  1.00  0.00     0.027 A 
ATOM     23  C   UNL A   1      34.171  24.783  23.917  1.00  0.00     0.021 A 
ATOM     24  C   UNL A   1      33.235  24.335  26.097  1.00  0.00     0.021 A 
ATOM     25  C   UNL A   1      34.320  24.298  25.221  1.00  0.00     0.052 A 
BRANCH  25  26
ATOM     26  C   UNL A   1      35.585  23.798  25.670  1.00  0.00     0.099 C 
ATOM     27  N   UNL A   1      36.603  23.380  26.047  1.00  0.00    -0.192 NA
ENDBRANCH  25  26
ENDBRANCH  18  20
ENDBRANCH  13  18
ENDBRANCH   8   9
ENDBRANCH   7   8
ENDBRANCH   4   7
ENDBRANCH   2   3
ENDBRANCH   1   2
BRANCH   1  28
ATOM     28  C   UNL A   1      37.134  29.973  29.093  1.00  0.00     0.002 C 
BRANCH  28  29
ATOM     29  C   UNL A   1      36.534  29.661  30.468  1.00  0.00     0.002 C 
BRANCH  29  30
ATOM     30  C   UNL A   1      37.405  28.776  31.361  1.00  0.00     0.021 C 
BRANCH  30  31
ATOM     31  C   UNL A   1      37.362  29.143  32.839  1.00  0.00     0.116 C 
BRANCH  31  32
ATOM     32  N   UNL A   1      37.268  30.580  33.038  1.00  0.00    -0.352 N 
ATOM     33  C   UNL A   1      38.247  31.536  32.916  1.00  0.00     0.251 C 
ATOM     34  H   UNL A   1      36.379  30.916  33.297  1.00  0.00     0.163 HD
ATOM     35  O   UNL A   1      38.050  32.674  33.333  1.00  0.00    -0.269 OA
BRANCH  33  36
ATOM     36  C   UNL A   1      39.541  31.179  32.298  1.00  0.00     0.039 A 
ATOM     37  C   UNL A   1      40.486  30.482  33.054  1.00  0.00     0.014 A 
ATOM     38  C   UNL A   1      39.817  31.523  30.972  1.00  0.00     0.014 A 
ATOM     39  C   UNL A   1      41.683  30.077  32.459  1.00  0.00     0.010 A 
ATOM     40  C   UNL A   1      40.969  31.043  30.358  1.00  0.00     0.010 A 
ATOM     41  C   UNL A   1      41.920  30.322  31.096  1.00  0.00    -0.014 A 
BRANCH  41  42
ATOM     42  C   UNL A   1      43.156  29.842  30.426  1.00  0.00     0.031 A 
ATOM     43  C   UNL A   1      43.177  28.492  29.758  1.00  0.00     0.074 A 
ATOM     44  C   UNL A   1      44.273  30.597  30.461  1.00  0.00     0.049 A 
ATOM     45  N   UNL A   1      44.174  27.870  29.185  1.00  0.00    -0.248 NA
ATOM     46  C   UNL A   1      41.917  27.730  29.758  1.00  0.00     0.031 C 
ATOM     47  C   UNL A   1      44.390  31.908  31.104  1.00  0.00     0.029 A 
ATOM     48  N   UNL A   1      45.527  30.370  29.951  1.00  0.00    -0.354 N 
ATOM     49  C   UNL A   1      43.664  26.649  28.759  1.00  0.00     0.074 A 
ATOM     50  C   UNL A   1      42.288  26.588  29.200  1.00  0.00     0.031 C 
ATOM     51  C   UNL A   1      45.634  32.379  30.927  1.00  0.00     0.029 A 
ATOM     52  C   UNL A   1      46.421  31.386  30.202  1.00  0.00     0.049 A 
ATOM     53  H   UNL A   1      45.765  29.556  29.451  1.00  0.00     0.167 HD
ATOM     54  C   UNL A   1      44.277  25.679  28.040  1.00  0.00     0.037 A 
ATOM     55  C   UNL A   1      47.729  31.497  29.899  1.00  0.00     0.037 A 
ATOM     56  C   UNL A   1      45.646  25.751  27.597  1.00  0.00     0.049 A 
ATOM     57  C   UNL A   1      48.402  30.380  29.143  1.00  0.00     0.074 A 
ATOM     58  C   UNL A   1      46.351  24.835  26.835  1.00  0.00     0.029 A 
ATOM     59  N   UNL A   1      46.519  26.794  27.876  1.00  0.00    -0.354 N 
ATOM     60  N   UNL A   1      47.889  29.256  28.702  1.00  0.00    -0.248 NA
ATOM     61  C   UNL A   1      49.830  30.548  28.839  1.00  0.00     0.031 C 
ATOM     62  C   UNL A   1      47.665  25.293  26.709  1.00  0.00     0.029 A 
ATOM     63  C   UNL A   1      47.761  26.531  27.324  1.00  0.00     0.049 A 
ATOM     64  H   UNL A   1      46.288  27.601  28.390  1.00  0.00     0.167 HD
ATOM     65  C   UNL A   1      48.919  28.605  28.031  1.00  0.00     0.074 A 
ATOM     66  C   UNL A   1      50.081  29.466  28.117  1.00  0.00     0.031 C 
ATOM     67  C   UNL A   1      48.905  27.405  27.400  1.00  0.00     0.037 A 
BRANCH  54  68
ATOM     68  C   UNL A   1      43.477  24.455  27.680  1.00  0.00     0.058 A 
ATOM     69  C   UNL A   1      43.407  23.343  28.535  1.00  0.00     0.135 A 
ATOM     70  C   UNL A   1      42.724  24.416  26.496  1.00  0.00     0.135 A 
ATOM     71  F   UNL A   1      44.120  23.316  29.672  1.00  0.00    -0.206 F 
ATOM     72  C   UNL A   1      42.638  22.228  28.218  1.00  0.00     0.059 A 
ATOM     73  C   UNL A   1      41.919  23.326  26.176  1.00  0.00     0.059 A 
ATOM     74  F   UNL A   1      42.755  25.450  25.639  1.00  0.00    -0.206 F 
ATOM     75  C   UNL A   1      41.891  22.233  27.039  1.00  0.00     0.060 A 
BRANCH  75  76
ATOM     76  S   UNL A   1      40.875  20.790  26.662  1.00  0.00     0.124 S 
ATOM     77  O   UNL A   1      40.750  20.169  27.977  1.00  0.00    -0.237 OA
ATOM     78  O   UNL A   1      39.659  21.399  26.130  1.00  0.00    -0.237 OA
ATOM     79  O   UNL A   1      41.677  20.050  25.694  1.00  0.00    -0.744 OA
ENDBRANCH  75  76
ENDBRANCH  54  68
BRANCH  55  80
ATOM     80  C   UNL A   1      48.497  32.710  30.300  1.00  0.00     0.058 A 
ATOM     81  C   UNL A   1      48.639  33.800  29.428  1.00  0.00     0.135 A 
ATOM     82  C   UNL A   1      49.125  32.795  31.554  1.00  0.00     0.135 A 
ATOM     83  F   UNL A   1      48.063  33.768  28.216  1.00  0.00    -0.206 F 
ATOM     84  C   UNL A   1      49.404  34.912  29.766  1.00  0.00     0.059 A 
ATOM     85  C   UNL A   1      49.865  33.913  31.928  1.00  0.00     0.059 A 
ATOM     86  F   UNL A   1      49.009  31.790  32.435  1.00  0.00    -0.206 F 
ATOM     87  C   UNL A   1      50.014  34.958  31.019  1.00  0.00     0.060 A 
BRANCH  87  88
ATOM     88  S   UNL A   1      50.988  36.415  31.455  1.00  0.00     0.124 S 
ATOM     89  O   UNL A   1      52.208  35.808  31.974  1.00  0.00    -0.237 OA
ATOM     90  O   UNL A   1      51.109  37.094  30.168  1.00  0.00    -0.237 OA
ATOM     91  O   UNL A   1      50.153  37.097  32.439  1.00  0.00    -0.744 OA
ENDBRANCH  87  88
ENDBRANCH  55  80
BRANCH  67  92
ATOM     92  C   UNL A   1      50.164  26.970  26.695  1.00  0.00     0.058 A 
ATOM     93  C   UNL A   1      51.200  26.298  27.362  1.00  0.00     0.135 A 
ATOM     94  C   UNL A   1      50.306  27.180  25.312  1.00  0.00     0.135 A 
ATOM     95  F   UNL A   1      51.120  26.076  28.685  1.00  0.00    -0.206 F 
ATOM     96  C   UNL A   1      52.342  25.875  26.691  1.00  0.00     0.059 A 
ATOM     97  C   UNL A   1      51.422  26.732  24.615  1.00  0.00     0.059 A 
ATOM     98  F   UNL A   1      49.342  27.809  24.621  1.00  0.00    -0.206 F 
ATOM     99  C   UNL A   1      52.442  26.090  25.316  1.00  0.00     0.060 A 
BRANCH  99 100
ATOM    100  S   UNL A   1      53.912  25.497  24.453  1.00  0.00     0.124 S 
ATOM    101  O   UNL A   1      53.610  25.863  23.072  1.00  0.00    -0.237 OA
ATOM    102  O   UNL A   1      54.977  26.263  25.093  1.00  0.00    -0.237 OA
ATOM    103  O   UNL A   1      53.919  24.065  24.735  1.00  0.00    -0.744 OA
ENDBRANCH  99 100
ENDBRANCH  67  92
ENDBRANCH  41  42
ENDBRANCH  33  36
ENDBRANCH  31  32
ENDBRANCH  30  31
ENDBRANCH  29  30
ENDBRANCH  28  29
ENDBRANCH   1  28
TORSDOF 23
ENDMDL
MODEL 2
REMARK VINA RESULT:      -9.2      6.744     13.134
REMARK SMILES CCCc1cc(OCC(=O)NCCCCCCNC(=O)c2ccc(-c3c4nc(c(-c5c(F)cc(S(=O)(=O)[O-])cc5F)c5ccc([nH]5)c(-c5c(F)cc(S(=O)(=O)[O-])cc5F)c5nc(c(-c6c(F)cc(S(=O)(=O)[O-])cc6F)c6ccc3[nH]6)C=C5)C=C4)cc2)nc(Nc2ccc(C#N)cc2)n1
REMARK SMILES IDX 13 1 12 2 11 3 9 4 10 5 8 7 7 8 6 9 4 10 5 11 98 12 88 13
REMARK SMILES IDX 87 14 3 15 2 16 1 17 89 18 90 20 91 21 97 22 92 23 96 24
REMARK SMILES IDX 93 25 94 26 95 27 14 28 15 29 16 30 17 31 18 32 19 33 20 35
REMARK SMILES IDX 21 36 22 37 86 38 23 39 85 40 24 41 25 42 26 43 79 44 27 45
REMARK SMILES IDX 84 46 78 47 80 48 28 49 83 50 77 51 76 52 29 54 63 55 42 56
REMARK SMILES IDX 62 57 43 58 46 59 61 60 81 61 44 62 45 63 60 65 82 66 47 67
REMARK SMILES IDX 30 68 31 69 40 70 32 71 33 72 39 73 41 74 34 75 35 76 36 77
REMARK SMILES IDX 37 78 38 79 64 80 65 81 74 82 66 83 67 84 73 85 75 86 68 87
REMARK SMILES IDX 69 88 70 89 71 90 72 91 48 92 49 93 58 94 50 95 51 96 57 97
REMARK SMILES IDX 59 98 52 99 53 100 54 101 55 102 56 103
REMARK H PARENT 11 6 89 19 18 34 80 53 46 64
REMARK Flexibility Score: inf
ROOT
ATOM      1  C   UNL A   1      44.591  42.511  28.442  1.00  0.00     0.021 C 
ENDROOT
BRANCH   1   2
ATOM      2  C   UNL A   1      44.080  41.482  27.437  1.00  0.00     0.116 C 
BRANCH   2   3
ATOM      3  N   UNL A   1      42.679  41.176  27.650  1.00  0.00    -0.353 N 
ATOM      4  C   UNL A   1      41.734  40.889  26.714  1.00  0.00     0.258 C 
ATOM      5  O   UNL A   1      40.582  40.646  27.078  1.00  0.00    -0.271 OA
ATOM      6  H   UNL A   1      42.374  41.175  28.587  1.00  0.00     0.163 HD
BRANCH   4   7
ATOM      7  C   UNL A   1      42.126  40.873  25.230  1.00  0.00     0.331 C 
BRANCH   7   8
ATOM      8  O   UNL A   1      41.395  41.723  24.358  1.00  0.00    -0.467 OA
BRANCH   8   9
ATOM      9  C   UNL A   1      42.086  42.394  23.389  1.00  0.00     0.218 A 
ATOM     10  C   UNL A   1      42.635  43.035  21.210  1.00  0.00     0.050 A 
ATOM     11  C   UNL A   1      41.837  42.290  22.044  1.00  0.00     0.092 A 
ATOM     12  N   UNL A   1      43.599  43.838  21.681  1.00  0.00    -0.218 NA
ATOM     13  C   UNL A   1      43.794  43.878  23.010  1.00  0.00     0.230 A 
ATOM     14  N   UNL A   1      43.067  43.170  23.885  1.00  0.00    -0.177 NA
BRANCH  10  15
ATOM     15  C   UNL A   1      42.506  42.891  19.718  1.00  0.00     0.056 C 
BRANCH  15  16
ATOM     16  C   UNL A   1      41.233  43.543  19.164  1.00  0.00     0.003 C 
ATOM     17  C   UNL A   1      41.447  44.931  18.569  1.00  0.00     0.004 C 
ENDBRANCH  15  16
ENDBRANCH  10  15
BRANCH  13  18
ATOM     18  N   UNL A   1      44.866  44.609  23.518  1.00  0.00    -0.324 N 
ATOM     19  H   UNL A   1      45.105  45.425  23.022  1.00  0.00     0.170 HD
BRANCH  18  20
ATOM     20  C   UNL A   1      45.643  44.326  24.645  1.00  0.00     0.041 A 
ATOM     21  C   UNL A   1      46.390  43.144  24.703  1.00  0.00     0.027 A 
ATOM     22  C   UNL A   1      45.799  45.263  25.676  1.00  0.00     0.027 A 
ATOM     23  C   UNL A   1      47.289  42.916  25.752  1.00  0.00     0.021 A 
ATOM     24  C   UNL A   1      46.674  45.032  26.740  1.00  0.00     0.021 A 
ATOM     25  C   UNL A   1      47.435  43.863  26.771  1.00  0.00     0.052 A 
BRANCH  25  26
ATOM     26  C   UNL A   1      48.383  43.654  27.825  1.00  0.00     0.099 C 
ATOM     27  N   UNL A   1      49.154  43.504  28.682  1.00  0.00    -0.192 NA
ENDBRANCH  25  26
ENDBRANCH  18  20
ENDBRANCH  13  18
ENDBRANCH   8   9
ENDBRANCH   7   8
ENDBRANCH   4   7
ENDBRANCH   2   3
ENDBRANCH   1   2
BRANCH   1  28
ATOM     28  C   UNL A   1      45.291  41.901  29.663  1.00  0.00     0.002 C 
BRANCH  28  29
ATOM     29  C   UNL A   1      46.179  40.689  29.362  1.00  0.00     0.002 C 
BRANCH  29  30
ATOM     30  C   UNL A   1      45.787  39.409  30.102  1.00  0.00     0.021 C 
BRANCH  30  31
ATOM     31  C   UNL A   1      46.168  38.125  29.377  1.00  0.00     0.116 C 
BRANCH  31  32
ATOM     32  N   UNL A   1      47.595  38.060  29.103  1.00  0.00    -0.352 N 
ATOM     33  C   UNL A   1      48.392  36.956  28.929  1.00  0.00     0.251 C 
ATOM     34  H   UNL A   1      48.053  38.929  29.032  1.00  0.00     0.163 HD
ATOM     35  O   UNL A   1      49.615  37.075  28.924  1.00  0.00    -0.269 OA
BRANCH  33  36
ATOM     36  C   UNL A   1      47.770  35.624  28.770  1.00  0.00     0.039 A 
ATOM     37  C   UNL A   1      47.199  35.283  27.544  1.00  0.00     0.014 A 
ATOM     38  C   UNL A   1      47.761  34.712  29.829  1.00  0.00     0.014 A 
ATOM     39  C   UNL A   1      46.672  34.002  27.361  1.00  0.00     0.010 A 
ATOM     40  C   UNL A   1      47.317  33.411  29.618  1.00  0.00     0.010 A 
ATOM     41  C   UNL A   1      46.760  33.042  28.384  1.00  0.00    -0.014 A 
BRANCH  41  42
ATOM     42  C   UNL A   1      46.266  31.654  28.189  1.00  0.00     0.031 A 
ATOM     43  C   UNL A   1      47.163  30.617  27.566  1.00  0.00     0.074 A 
ATOM     44  C   UNL A   1      44.999  31.340  28.525  1.00  0.00     0.049 A 
ATOM     45  N   UNL A   1      46.894  29.376  27.249  1.00  0.00    -0.248 NA
ATOM     46  C   UNL A   1      48.534  31.035  27.231  1.00  0.00     0.031 C 
ATOM     47  C   UNL A   1      44.022  32.265  29.106  1.00  0.00     0.029 A 
ATOM     48  N   UNL A   1      44.308  30.158  28.420  1.00  0.00    -0.354 N 
ATOM     49  C   UNL A   1      48.057  28.870  26.680  1.00  0.00     0.074 A 
ATOM     50  C   UNL A   1      49.011  29.955  26.631  1.00  0.00     0.031 C 
ATOM     51  C   UNL A   1      42.873  31.610  29.331  1.00  0.00     0.029 A 
ATOM     52  C   UNL A   1      43.009  30.233  28.866  1.00  0.00     0.049 A 
ATOM     53  H   UNL A   1      44.707  29.333  28.061  1.00  0.00     0.167 HD
ATOM     54  C   UNL A   1      48.316  27.608  26.262  1.00  0.00     0.037 A 
ATOM     55  C   UNL A   1      42.033  29.304  28.881  1.00  0.00     0.037 A 
ATOM     56  C   UNL A   1      47.362  26.530  26.323  1.00  0.00     0.049 A 
ATOM     57  C   UNL A   1      42.331  27.921  28.363  1.00  0.00     0.074 A 
ATOM     58  C   UNL A   1      47.538  25.207  25.955  1.00  0.00     0.029 A 
ATOM     59  N   UNL A   1      46.056  26.648  26.776  1.00  0.00    -0.354 N 
ATOM     60  N   UNL A   1      43.454  27.446  27.878  1.00  0.00    -0.248 NA
ATOM     61  C   UNL A   1      41.233  26.945  28.399  1.00  0.00     0.031 C 
ATOM     62  C   UNL A   1      46.321  24.542  26.125  1.00  0.00     0.029 A 
ATOM     63  C   UNL A   1      45.408  25.429  26.672  1.00  0.00     0.049 A 
ATOM     64  H   UNL A   1      45.650  27.476  27.120  1.00  0.00     0.167 HD
ATOM     65  C   UNL A   1      43.209  26.107  27.592  1.00  0.00     0.074 A 
ATOM     66  C   UNL A   1      41.835  25.846  27.969  1.00  0.00     0.031 C 
ATOM     67  C   UNL A   1      44.044  25.177  27.069  1.00  0.00     0.037 A 
BRANCH  54  68
ATOM     68  C   UNL A   1      49.685  27.316  25.707  1.00  0.00     0.058 A 
ATOM     69  C   UNL A   1      50.755  26.947  26.538  1.00  0.00     0.135 A 
ATOM     70  C   UNL A   1      49.917  27.348  24.322  1.00  0.00     0.135 A 
ATOM     71  F   UNL A   1      50.598  26.918  27.872  1.00  0.00    -0.206 F 
ATOM     72  C   UNL A   1      52.009  26.643  26.020  1.00  0.00     0.059 A 
ATOM     73  C   UNL A   1      51.154  27.012  23.779  1.00  0.00     0.059 A 
ATOM     74  F   UNL A   1      48.931  27.696  23.479  1.00  0.00    -0.206 F 
ATOM     75  C   UNL A   1      52.196  26.670  24.638  1.00  0.00     0.060 A 
BRANCH  75  76
ATOM     76  S   UNL A   1      53.822  26.240  23.983  1.00  0.00     0.124 S 
ATOM     77  O   UNL A   1      53.567  26.240  22.545  1.00  0.00    -0.237 OA
ATOM     78  O   UNL A   1      54.653  27.334  24.479  1.00  0.00    -0.237 OA
ATOM     79  O   UNL A   1      54.093  24.933  24.571  1.00  0.00    -0.744 OA
ENDBRANCH  75  76
ENDBRANCH  54  68
BRANCH  55  80
ATOM     80  C   UNL A   1      40.680  29.640  29.409  1.00  0.00     0.058 A 
ATOM     81  C   UNL A   1      39.584  29.799  28.547  1.00  0.00     0.135 A 
ATOM     82  C   UNL A   1      40.459  29.835  30.783  1.00  0.00     0.135 A 
ATOM     83  F   UNL A   1      39.741  29.629  27.225  1.00  0.00    -0.206 F 
ATOM     84  C   UNL A   1      38.330  30.172  29.019  1.00  0.00     0.059 A 
ATOM     85  C   UNL A   1      39.205  30.173  31.282  1.00  0.00     0.059 A 
ATOM     86  F   UNL A   1      41.466  29.680  31.655  1.00  0.00    -0.206 F 
ATOM     87  C   UNL A   1      38.150  30.357  30.390  1.00  0.00     0.060 A 
BRANCH  87  88
ATOM     88  S   UNL A   1      36.514  30.824  30.994  1.00  0.00     0.124 S 
ATOM     89  O   UNL A   1      36.851  31.638  32.155  1.00  0.00    -0.237 OA
ATOM     90  O   UNL A   1      35.961  31.540  29.849  1.00  0.00    -0.237 OA
ATOM     91  O   UNL A   1      35.884  29.539  31.285  1.00  0.00    -0.744 OA
ENDBRANCH  87  88
ENDBRANCH  55  80
BRANCH  67  92
ATOM     92  C   UNL A   1      43.525  23.770  26.924  1.00  0.00     0.058 A 
ATOM     93  C   UNL A   1      43.357  22.918  28.027  1.00  0.00     0.135 A 
ATOM     94  C   UNL A   1      43.132  23.290  25.663  1.00  0.00     0.135 A 
ATOM     95  F   UNL A   1      43.721  23.323  29.256  1.00  0.00    -0.206 F 
ATOM     96  C   UNL A   1      42.846  21.633  27.882  1.00  0.00     0.059 A 
ATOM     97  C   UNL A   1      42.585  22.022  25.500  1.00  0.00     0.059 A 
ATOM     98  F   UNL A   1      43.261  24.064  24.573  1.00  0.00    -0.206 F 
ATOM     99  C   UNL A   1      42.457  21.195  26.615  1.00  0.00     0.060 A 
BRANCH  99 100
ATOM    100  S   UNL A   1      41.757  19.540  26.450  1.00  0.00     0.124 S 
ATOM    101  O   UNL A   1      42.155  18.925  27.712  1.00  0.00    -0.237 OA
ATOM    102  O   UNL A   1      40.333  19.820  26.302  1.00  0.00    -0.237 OA
ATOM    103  O   UNL A   1      42.414  19.008  25.260  1.00  0.00    -0.744 OA
ENDBRANCH  99 100
ENDBRANCH  67  92
ENDBRANCH  41  42
ENDBRANCH  33  36
ENDBRANCH  31  32
ENDBRANCH  30  31
ENDBRANCH  29  30
ENDBRANCH  28  29
ENDBRANCH   1  28
TORSDOF 23
ENDMDL
MODEL 3
REMARK VINA RESULT:      -9.1      5.159     10.844
REMARK SMILES CCCc1cc(OCC(=O)NCCCCCCNC(=O)c2ccc(-c3c4nc(c(-c5c(F)cc(S(=O)(=O)[O-])cc5F)c5ccc([nH]5)c(-c5c(F)cc(S(=O)(=O)[O-])cc5F)c5nc(c(-c6c(F)cc(S(=O)(=O)[O-])cc6F)c6ccc3[nH]6)C=C5)C=C4)cc2)nc(Nc2ccc(C#N)cc2)n1
REMARK SMILES IDX 13 1 12 2 11 3 9 4 10 5 8 7 7 8 6 9 4 10 5 11 98 12 88 13
REMARK SMILES IDX 87 14 3 15 2 16 1 17 89 18 90 20 91 21 97 22 92 23 96 24
REMARK SMILES IDX 93 25 94 26 95 27 14 28 15 29 16 30 17 31 18 32 19 33 20 35
REMARK SMILES IDX 21 36 22 37 86 38 23 39 85 40 24 41 25 42 26 43 79 44 27 45
REMARK SMILES IDX 84 46 78 47 80 48 28 49 83 50 77 51 76 52 29 54 63 55 42 56
REMARK SMILES IDX 62 57 43 58 46 59 61 60 81 61 44 62 45 63 60 65 82 66 47 67
REMARK SMILES IDX 30 68 31 69 40 70 32 71 33 72 39 73 41 74 34 75 35 76 36 77
REMARK SMILES IDX 37 78 38 79 64 80 65 81 74 82 66 83 67 84 73 85 75 86 68 87
REMARK SMILES IDX 69 88 70 89 71 90 72 91 48 92 49 93 58 94 50 95 51 96 57 97
REMARK SMILES IDX 59 98 52 99 53 100 54 101 55 102 56 103
REMARK H PARENT 11 6 89 19 18 34 80 53 46 64
REMARK Flexibility Score: inf
ROOT
ATOM      1  C   UNL A   1      38.190  28.504  28.608  1.00  0.00     0.021 C 
ENDROOT
BRANCH   1   2
ATOM      2  C   UNL A   1      39.713  28.470  28.700  1.00  0.00     0.116 C 
BRANCH   2   3
ATOM      3  N   UNL A   1      40.322  28.234  27.405  1.00  0.00    -0.353 N 
ATOM      4  C   UNL A   1      40.581  27.039  26.809  1.00  0.00     0.258 C 
ATOM      5  O   UNL A   1      41.102  27.024  25.692  1.00  0.00    -0.271 OA
ATOM      6  H   UNL A   1      40.579  29.037  26.895  1.00  0.00     0.163 HD
BRANCH   4   7
ATOM      7  C   UNL A   1      40.214  25.738  27.539  1.00  0.00     0.331 C 
BRANCH   7   8
ATOM      8  O   UNL A   1      38.916  25.211  27.310  1.00  0.00    -0.467 OA
BRANCH   8   9
ATOM      9  C   UNL A   1      38.817  23.986  26.713  1.00  0.00     0.218 A 
ATOM     10  C   UNL A   1      37.849  22.329  25.379  1.00  0.00     0.050 A 
ATOM     11  C   UNL A   1      37.790  23.604  25.888  1.00  0.00     0.092 A 
ATOM     12  N   UNL A   1      38.865  21.501  25.659  1.00  0.00    -0.218 NA
ATOM     13  C   UNL A   1      39.828  21.939  26.487  1.00  0.00     0.230 A 
ATOM     14  N   UNL A   1      39.832  23.163  27.033  1.00  0.00    -0.177 NA
BRANCH  10  15
ATOM     15  C   UNL A   1      36.708  21.792  24.560  1.00  0.00     0.056 C 
BRANCH  15  16
ATOM     16  C   UNL A   1      36.409  22.645  23.322  1.00  0.00     0.003 C 
ATOM     17  C   UNL A   1      35.031  23.298  23.327  1.00  0.00     0.004 C 
ENDBRANCH  15  16
ENDBRANCH  10  15
BRANCH  13  18
ATOM     18  N   UNL A   1      40.830  21.059  26.890  1.00  0.00    -0.324 N 
ATOM     19  H   UNL A   1      40.667  20.576  27.731  1.00  0.00     0.170 HD
BRANCH  18  20
ATOM     20  C   UNL A   1      42.038  20.777  26.246  1.00  0.00     0.041 A 
ATOM     21  C   UNL A   1      43.007  21.778  26.104  1.00  0.00     0.027 A 
ATOM     22  C   UNL A   1      42.365  19.474  25.847  1.00  0.00     0.027 A 
ATOM     23  C   UNL A   1      44.278  21.477  25.601  1.00  0.00     0.021 A 
ATOM     24  C   UNL A   1      43.623  19.170  25.320  1.00  0.00     0.021 A 
ATOM     25  C   UNL A   1      44.589  20.170  25.211  1.00  0.00     0.052 A 
BRANCH  25  26
ATOM     26  C   UNL A   1      45.901  19.848  24.733  1.00  0.00     0.099 C 
ATOM     27  N   UNL A   1      46.958  19.579  24.329  1.00  0.00    -0.192 NA
ENDBRANCH  25  26
ENDBRANCH  18  20
ENDBRANCH  13  18
ENDBRANCH   8   9
ENDBRANCH   7   8
ENDBRANCH   4   7
ENDBRANCH   2   3
ENDBRANCH   1   2
BRANCH   1  28
ATOM     28  C   UNL A   1      37.603  29.910  28.431  1.00  0.00     0.002 C 
BRANCH  28  29
ATOM     29  C   UNL A   1      36.338  29.980  27.569  1.00  0.00     0.002 C 
BRANCH  29  30
ATOM     30  C   UNL A   1      35.170  30.735  28.205  1.00  0.00     0.021 C 
BRANCH  30  31
ATOM     31  C   UNL A   1      35.142  32.225  27.890  1.00  0.00     0.116 C 
BRANCH  31  32
ATOM     32  N   UNL A   1      34.368  32.971  28.871  1.00  0.00    -0.352 N 
ATOM     33  C   UNL A   1      34.695  33.294  30.165  1.00  0.00     0.251 C 
ATOM     34  H   UNL A   1      33.488  33.289  28.564  1.00  0.00     0.163 HD
ATOM     35  O   UNL A   1      33.836  33.738  30.923  1.00  0.00    -0.269 OA
BRANCH  33  36
ATOM     36  C   UNL A   1      36.077  33.084  30.643  1.00  0.00     0.039 A 
ATOM     37  C   UNL A   1      37.052  34.039  30.347  1.00  0.00     0.014 A 
ATOM     38  C   UNL A   1      36.408  31.950  31.391  1.00  0.00     0.014 A 
ATOM     39  C   UNL A   1      38.344  33.885  30.854  1.00  0.00     0.010 A 
ATOM     40  C   UNL A   1      37.669  31.845  31.967  1.00  0.00     0.010 A 
ATOM     41  C   UNL A   1      38.655  32.806  31.699  1.00  0.00    -0.014 A 
BRANCH  41  42
ATOM     42  C   UNL A   1      40.004  32.660  32.304  1.00  0.00     0.031 A 
ATOM     43  C   UNL A   1      40.270  33.185  33.690  1.00  0.00     0.074 A 
ATOM     44  C   UNL A   1      41.002  32.100  31.589  1.00  0.00     0.049 A 
ATOM     45  N   UNL A   1      41.394  33.216  34.360  1.00  0.00    -0.248 NA
ATOM     46  C   UNL A   1      39.130  33.778  34.408  1.00  0.00     0.031 C 
ATOM     47  C   UNL A   1      40.878  31.582  30.224  1.00  0.00     0.029 A 
ATOM     48  N   UNL A   1      42.319  31.878  31.905  1.00  0.00    -0.354 N 
ATOM     49  C   UNL A   1      41.096  33.828  35.571  1.00  0.00     0.074 A 
ATOM     50  C   UNL A   1      39.704  34.216  35.518  1.00  0.00     0.031 C 
ATOM     51  C   UNL A   1      42.060  31.080  29.833  1.00  0.00     0.029 A 
ATOM     52  C   UNL A   1      43.040  31.283  30.895  1.00  0.00     0.049 A 
ATOM     53  H   UNL A   1      42.711  32.121  32.775  1.00  0.00     0.167 HD
ATOM     54  C   UNL A   1      41.901  34.024  36.643  1.00  0.00     0.037 A 
ATOM     55  C   UNL A   1      44.345  30.955  30.827  1.00  0.00     0.037 A 
ATOM     56  C   UNL A   1      43.285  33.626  36.691  1.00  0.00     0.049 A 
ATOM     57  C   UNL A   1      45.232  31.230  32.013  1.00  0.00     0.074 A 
ATOM     58  C   UNL A   1      44.177  33.751  37.742  1.00  0.00     0.029 A 
ATOM     59  N   UNL A   1      43.978  33.032  35.646  1.00  0.00    -0.354 N 
ATOM     60  N   UNL A   1      44.919  31.762  33.171  1.00  0.00    -0.248 NA
ATOM     61  C   UNL A   1      46.648  30.857  31.888  1.00  0.00     0.031 C 
ATOM     62  C   UNL A   1      45.424  33.291  37.311  1.00  0.00     0.029 A 
ATOM     63  C   UNL A   1      45.293  32.808  36.019  1.00  0.00     0.049 A 
ATOM     64  H   UNL A   1      43.593  32.802  34.770  1.00  0.00     0.167 HD
ATOM     65  C   UNL A   1      46.088  31.746  33.925  1.00  0.00     0.074 A 
ATOM     66  C   UNL A   1      47.110  31.143  33.095  1.00  0.00     0.031 C 
ATOM     67  C   UNL A   1      46.297  32.188  35.190  1.00  0.00     0.037 A 
BRANCH  54  68
ATOM     68  C   UNL A   1      41.310  34.693  37.855  1.00  0.00     0.058 A 
ATOM     69  C   UNL A   1      41.181  36.089  37.938  1.00  0.00     0.135 A 
ATOM     70  C   UNL A   1      40.813  33.929  38.923  1.00  0.00     0.135 A 
ATOM     71  F   UNL A   1      41.655  36.872  36.955  1.00  0.00    -0.206 F 
ATOM     72  C   UNL A   1      40.602  36.704  39.043  1.00  0.00     0.059 A 
ATOM     73  C   UNL A   1      40.198  34.520  40.023  1.00  0.00     0.059 A 
ATOM     74  F   UNL A   1      40.911  32.589  38.900  1.00  0.00    -0.206 F 
ATOM     75  C   UNL A   1      40.106  35.909  40.077  1.00  0.00     0.060 A 
BRANCH  75  76
ATOM     76  S   UNL A   1      39.330  36.724  41.488  1.00  0.00     0.124 S 
ATOM     77  O   UNL A   1      40.393  36.654  42.487  1.00  0.00    -0.237 OA
ATOM     78  O   UNL A   1      39.044  38.054  40.958  1.00  0.00    -0.237 OA
ATOM     79  O   UNL A   1      38.160  35.896  41.761  1.00  0.00    -0.744 OA
ENDBRANCH  75  76
ENDBRANCH  54  68
BRANCH  55  80
ATOM     80  C   UNL A   1      44.900  30.323  29.596  1.00  0.00     0.058 A 
ATOM     81  C   UNL A   1      45.438  31.103  28.561  1.00  0.00     0.135 A 
ATOM     82  C   UNL A   1      44.881  28.930  29.418  1.00  0.00     0.135 A 
ATOM     83  F   UNL A   1      45.475  32.439  28.677  1.00  0.00    -0.206 F 
ATOM     84  C   UNL A   1      45.903  30.531  27.381  1.00  0.00     0.059 A 
ATOM     85  C   UNL A   1      45.375  28.333  28.261  1.00  0.00     0.059 A 
ATOM     86  F   UNL A   1      44.394  28.134  30.381  1.00  0.00    -0.206 F 
ATOM     87  C   UNL A   1      45.867  29.144  27.241  1.00  0.00     0.060 A 
BRANCH  87  88
ATOM     88  S   UNL A   1      46.491  28.411  25.713  1.00  0.00     0.124 S 
ATOM     89  O   UNL A   1      45.490  27.384  25.449  1.00  0.00    -0.237 OA
ATOM     90  O   UNL A   1      46.489  29.554  24.805  1.00  0.00    -0.237 OA
ATOM     91  O   UNL A   1      47.814  27.921  26.090  1.00  0.00    -0.744 OA
ENDBRANCH  87  88
ENDBRANCH  55  80
BRANCH  67  92
ATOM     92  C   UNL A   1      47.665  31.984  35.786  1.00  0.00     0.058 A 
ATOM     93  C   UNL A   1      48.667  32.965  35.712  1.00  0.00     0.135 A 
ATOM     94  C   UNL A   1      47.957  30.806  36.496  1.00  0.00     0.135 A 
ATOM     95  F   UNL A   1      48.445  34.108  35.041  1.00  0.00    -0.206 F 
ATOM     96  C   UNL A   1      49.915  32.775  36.294  1.00  0.00     0.059 A 
ATOM     97  C   UNL A   1      49.185  30.611  37.118  1.00  0.00     0.059 A 
ATOM     98  F   UNL A   1      47.034  29.838  36.608  1.00  0.00    -0.206 F 
ATOM     99  C   UNL A   1      50.163  31.597  37.001  1.00  0.00     0.060 A 
BRANCH  99 100
ATOM    100  S   UNL A   1      51.774  31.384  37.787  1.00  0.00     0.124 S 
ATOM    101  O   UNL A   1      51.836  29.934  37.943  1.00  0.00    -0.237 OA
ATOM    102  O   UNL A   1      52.680  31.955  36.795  1.00  0.00    -0.237 OA
ATOM    103  O   UNL A   1      51.652  32.144  39.028  1.00  0.00    -0.744 OA
ENDBRANCH  99 100
ENDBRANCH  67  92
ENDBRANCH  41  42
ENDBRANCH  33  36
ENDBRANCH  31  32
ENDBRANCH  30  31
ENDBRANCH  29  30
ENDBRANCH  28  29
ENDBRANCH   1  28
TORSDOF 23
ENDMDL
