MODEL 1
REMARK VINA RESULT:     -11.2      0.000      0.000
REMARK SMILES Cc1nc(C)c(C(=O)N[C@@H](Cc2ccccc2)C(=O)NCCCCCCNC(=O)c2ccc(-c3c4nc(c(-c5c(F)cc(S(=O)(=O)[O-])cc5F)c5ccc([nH]5)c(-c5c(F)cc(S(=O)(=O)[O-])cc5F)c5nc(c(-c6c(F)cc(S(=O)(=O)[O-])cc6F)c6ccc3[nH]6)C=C5)C=C4)cc2)s1
REMARK SMILES IDX 24 1 23 2 22 3 21 4 20 5 18 6 19 7 10 9 9 10 7 11 8 12 6 14
REMARK SMILES IDX 1 15 2 16 3 17 96 18 4 19 5 20 11 21 12 22 13 23 17 24 14 25
REMARK SMILES IDX 16 26 15 27 25 28 26 29 27 30 28 31 29 33 30 34 31 35 95 36
REMARK SMILES IDX 32 37 94 38 33 39 34 40 35 41 88 42 36 43 93 44 87 45 89 46
REMARK SMILES IDX 37 47 92 48 86 49 85 50 38 52 72 53 51 54 71 55 52 56 55 57
REMARK SMILES IDX 70 58 90 59 53 60 54 61 69 63 91 64 56 65 39 66 40 67 49 68
REMARK SMILES IDX 41 69 42 70 48 71 50 72 43 73 44 74 45 75 46 76 47 77 73 78
REMARK SMILES IDX 74 79 83 80 75 81 76 82 82 83 84 84 77 85 78 86 79 87 80 88
REMARK SMILES IDX 81 89 57 90 58 91 67 92 59 93 60 94 66 95 68 96 61 97 62 98
REMARK SMILES IDX 63 99 64 100 65 101
REMARK H PARENT 20 8 9 13 27 32 89 51 55 62
REMARK Flexibility Score: inf
ROOT
ATOM      1  C   UNL A   1      31.478  27.480  26.149  1.00  0.00     0.002 C 
ENDROOT
BRANCH   1   2
ATOM      2  C   UNL A   1      30.636  26.750  25.097  1.00  0.00     0.002 C 
BRANCH   2   3
ATOM      3  C   UNL A   1      31.357  25.660  24.296  1.00  0.00     0.021 C 
BRANCH   3   4
ATOM      4  C   UNL A   1      30.730  24.277  24.393  1.00  0.00     0.116 C 
BRANCH   4   5
ATOM      5  N   UNL A   1      30.996  23.597  25.639  1.00  0.00    -0.354 N 
ATOM      6  C   UNL A   1      31.863  22.582  25.910  1.00  0.00     0.242 C 
ATOM      7  O   UNL A   1      32.202  22.445  27.092  1.00  0.00    -0.273 OA
ATOM      8  H   UNL A   1      30.473  23.915  26.410  1.00  0.00     0.163 HD
BRANCH   6   9
ATOM      9  C   UNL A   1      32.483  21.669  24.825  1.00  0.00     0.176 C 
BRANCH   9  10
ATOM     10  N   UNL A   1      33.084  22.396  23.701  1.00  0.00    -0.339 N 
ATOM     11  C   UNL A   1      34.334  22.876  23.395  1.00  0.00     0.263 C 
ATOM     12  O   UNL A   1      34.404  23.275  22.227  1.00  0.00    -0.268 OA
ATOM     13  H   UNL A   1      32.429  22.587  22.991  1.00  0.00     0.164 HD
BRANCH  11  14
ATOM     14  C   UNL A   1      35.472  22.970  24.305  1.00  0.00     0.115 A 
ATOM     15  C   UNL A   1      38.866  22.333  26.128  1.00  0.00     0.079 C 
ATOM     16  C   UNL A   1      37.542  22.755  25.598  1.00  0.00     0.091 A 
ATOM     17  N   UNL A   1      36.805  23.708  26.112  1.00  0.00    -0.246 NA
ATOM     18  S   UNL A   1      36.871  21.984  24.242  1.00  0.00    -0.113 S 
ATOM     19  C   UNL A   1      35.620  23.843  25.389  1.00  0.00     0.061 A 
ATOM     20  C   UNL A   1      34.682  24.886  25.896  1.00  0.00     0.068 C 
ENDBRANCH  11  14
ENDBRANCH   9  10
BRANCH   9  21
ATOM     21  C   UNL A   1      33.345  20.501  25.341  1.00  0.00     0.070 C 
BRANCH  21  22
ATOM     22  C   UNL A   1      33.478  19.271  24.478  1.00  0.00    -0.045 A 
ATOM     23  C   UNL A   1      34.569  18.402  24.614  1.00  0.00     0.004 A 
ATOM     24  C   UNL A   1      32.499  18.986  23.514  1.00  0.00     0.004 A 
ATOM     25  C   UNL A   1      34.651  17.245  23.835  1.00  0.00     0.000 A 
ATOM     26  C   UNL A   1      32.588  17.836  22.729  1.00  0.00     0.000 A 
ATOM     27  C   UNL A   1      33.660  16.962  22.895  1.00  0.00     0.000 A 
ENDBRANCH  21  22
ENDBRANCH   9  21
ENDBRANCH   6   9
ENDBRANCH   4   5
ENDBRANCH   3   4
ENDBRANCH   2   3
ENDBRANCH   1   2
BRANCH   1  28
ATOM     28  C   UNL A   1      32.918  27.807  25.747  1.00  0.00     0.021 C 
BRANCH  28  29
ATOM     29  C   UNL A   1      33.846  28.198  26.889  1.00  0.00     0.116 C 
BRANCH  29  30
ATOM     30  N   UNL A   1      33.628  29.561  27.339  1.00  0.00    -0.352 N 
ATOM     31  C   UNL A   1      34.462  30.391  28.041  1.00  0.00     0.251 C 
ATOM     32  H   UNL A   1      32.753  29.946  27.103  1.00  0.00     0.163 HD
ATOM     33  O   UNL A   1      34.028  31.460  28.475  1.00  0.00    -0.269 OA
BRANCH  31  34
ATOM     34  C   UNL A   1      35.864  30.002  28.302  1.00  0.00     0.039 A 
ATOM     35  C   UNL A   1      36.785  30.063  27.252  1.00  0.00     0.014 A 
ATOM     36  C   UNL A   1      36.273  29.556  29.563  1.00  0.00     0.014 A 
ATOM     37  C   UNL A   1      38.119  29.718  27.477  1.00  0.00     0.010 A 
ATOM     38  C   UNL A   1      37.619  29.291  29.805  1.00  0.00     0.010 A 
ATOM     39  C   UNL A   1      38.554  29.353  28.762  1.00  0.00    -0.014 A 
BRANCH  39  40
ATOM     40  C   UNL A   1      39.976  29.011  29.021  1.00  0.00     0.031 A 
ATOM     41  C   UNL A   1      40.906  30.036  29.615  1.00  0.00     0.074 A 
ATOM     42  C   UNL A   1      40.442  27.791  28.683  1.00  0.00     0.049 A 
ATOM     43  N   UNL A   1      42.182  29.939  29.880  1.00  0.00    -0.248 NA
ATOM     44  C   UNL A   1      40.329  31.354  29.929  1.00  0.00     0.031 C 
ATOM     45  C   UNL A   1      39.651  26.728  28.058  1.00  0.00     0.029 A 
ATOM     46  N   UNL A   1      41.691  27.239  28.816  1.00  0.00    -0.354 N 
ATOM     47  C   UNL A   1      42.563  31.180  30.379  1.00  0.00     0.074 A 
ATOM     48  C   UNL A   1      41.397  32.032  30.324  1.00  0.00     0.031 C 
ATOM     49  C   UNL A   1      40.427  25.646  27.886  1.00  0.00     0.029 A 
ATOM     50  C   UNL A   1      41.776  25.947  28.354  1.00  0.00     0.049 A 
ATOM     51  H   UNL A   1      42.455  27.723  29.206  1.00  0.00     0.167 HD
ATOM     52  C   UNL A   1      43.768  31.566  30.865  1.00  0.00     0.037 A 
ATOM     53  C   UNL A   1      42.824  25.101  28.309  1.00  0.00     0.037 A 
ATOM     54  C   UNL A   1      44.919  30.704  30.939  1.00  0.00     0.049 A 
ATOM     55  C   UNL A   1      44.152  25.552  28.857  1.00  0.00     0.074 A 
ATOM     56  C   UNL A   1      46.170  30.982  31.460  1.00  0.00     0.029 A 
ATOM     57  N   UNL A   1      44.960  29.395  30.479  1.00  0.00    -0.354 N 
ATOM     58  N   UNL A   1      44.477  26.710  29.381  1.00  0.00    -0.248 NA
ATOM     59  C   UNL A   1      45.251  24.578  28.819  1.00  0.00     0.031 C 
ATOM     60  C   UNL A   1      46.982  29.858  31.272  1.00  0.00     0.029 A 
ATOM     61  C   UNL A   1      46.220  28.859  30.688  1.00  0.00     0.049 A 
ATOM     62  H   UNL A   1      44.205  28.917  30.065  1.00  0.00     0.167 HD
ATOM     63  C   UNL A   1      45.808  26.592  29.766  1.00  0.00     0.074 A 
ATOM     64  C   UNL A   1      46.223  25.247  29.423  1.00  0.00     0.031 C 
ATOM     65  C   UNL A   1      46.614  27.513  30.351  1.00  0.00     0.037 A 
BRANCH  52  66
ATOM     66  C   UNL A   1      43.902  32.982  31.358  1.00  0.00     0.058 A 
ATOM     67  C   UNL A   1      44.275  34.030  30.501  1.00  0.00     0.135 A 
ATOM     68  C   UNL A   1      43.619  33.303  32.696  1.00  0.00     0.135 A 
ATOM     69  F   UNL A   1      44.572  33.781  29.216  1.00  0.00    -0.206 F 
ATOM     70  C   UNL A   1      44.392  35.340  30.958  1.00  0.00     0.059 A 
ATOM     71  C   UNL A   1      43.698  34.610  33.168  1.00  0.00     0.059 A 
ATOM     72  F   UNL A   1      43.258  32.341  33.560  1.00  0.00    -0.206 F 
ATOM     73  C   UNL A   1      44.100  35.620  32.294  1.00  0.00     0.060 A 
BRANCH  73  74
ATOM     74  S   UNL A   1      44.248  37.324  32.869  1.00  0.00     0.124 S 
ATOM     75  O   UNL A   1      44.162  38.063  31.614  1.00  0.00    -0.237 OA
ATOM     76  O   UNL A   1      43.099  37.454  33.759  1.00  0.00    -0.237 OA
ATOM     77  O   UNL A   1      45.551  37.351  33.525  1.00  0.00    -0.744 OA
ENDBRANCH  73  74
ENDBRANCH  52  66
BRANCH  53  78
ATOM     78  C   UNL A   1      42.654  23.732  27.750  1.00  0.00     0.058 A 
ATOM     79  C   UNL A   1      42.729  23.501  26.368  1.00  0.00     0.135 A 
ATOM     80  C   UNL A   1      42.420  22.628  28.584  1.00  0.00     0.135 A 
ATOM     81  F   UNL A   1      42.946  24.524  25.528  1.00  0.00    -0.206 F 
ATOM     82  C   UNL A   1      42.556  22.229  25.831  1.00  0.00     0.059 A 
ATOM     83  C   UNL A   1      42.273  21.342  28.072  1.00  0.00     0.059 A 
ATOM     84  F   UNL A   1      42.359  22.791  29.915  1.00  0.00    -0.206 F 
ATOM     85  C   UNL A   1      42.331  21.155  26.692  1.00  0.00     0.060 A 
BRANCH  85  86
ATOM     86  S   UNL A   1      42.151  19.502  25.988  1.00  0.00     0.124 S 
ATOM     87  O   UNL A   1      42.614  18.663  27.087  1.00  0.00    -0.237 OA
ATOM     88  O   UNL A   1      40.722  19.447  25.699  1.00  0.00    -0.237 OA
ATOM     89  O   UNL A   1      43.019  19.541  24.814  1.00  0.00    -0.744 OA
ENDBRANCH  85  86
ENDBRANCH  53  78
BRANCH  65  90
ATOM     90  C   UNL A   1      48.013  27.085  30.704  1.00  0.00     0.058 A 
ATOM     91  C   UNL A   1      48.301  26.392  31.891  1.00  0.00     0.135 A 
ATOM     92  C   UNL A   1      49.075  27.340  29.821  1.00  0.00     0.135 A 
ATOM     93  F   UNL A   1      47.324  26.126  32.772  1.00  0.00    -0.206 F 
ATOM     94  C   UNL A   1      49.597  25.996  32.204  1.00  0.00     0.059 A 
ATOM     95  C   UNL A   1      50.373  26.925  30.099  1.00  0.00     0.059 A 
ATOM     96  F   UNL A   1      48.854  27.988  28.666  1.00  0.00    -0.206 F 
ATOM     97  C   UNL A   1      50.627  26.268  31.302  1.00  0.00     0.060 A 
BRANCH  97  98
ATOM     98  S   UNL A   1      52.301  25.733  31.712  1.00  0.00     0.124 S 
ATOM     99  O   UNL A   1      52.985  25.904  30.434  1.00  0.00    -0.237 OA
ATOM    100  O   UNL A   1      52.681  26.670  32.765  1.00  0.00    -0.237 OA
ATOM    101  O   UNL A   1      52.120  24.351  32.147  1.00  0.00    -0.744 OA
ENDBRANCH  97  98
ENDBRANCH  65  90
ENDBRANCH  39  40
ENDBRANCH  31  34
ENDBRANCH  29  30
ENDBRANCH  28  29
ENDBRANCH   1  28
TORSDOF 20
ENDMDL
MODEL 2
REMARK VINA RESULT:     -11.1      4.613      6.584
REMARK SMILES Cc1nc(C)c(C(=O)N[C@@H](Cc2ccccc2)C(=O)NCCCCCCNC(=O)c2ccc(-c3c4nc(c(-c5c(F)cc(S(=O)(=O)[O-])cc5F)c5ccc([nH]5)c(-c5c(F)cc(S(=O)(=O)[O-])cc5F)c5nc(c(-c6c(F)cc(S(=O)(=O)[O-])cc6F)c6ccc3[nH]6)C=C5)C=C4)cc2)s1
REMARK SMILES IDX 24 1 23 2 22 3 21 4 20 5 18 6 19 7 10 9 9 10 7 11 8 12 6 14
REMARK SMILES IDX 1 15 2 16 3 17 96 18 4 19 5 20 11 21 12 22 13 23 17 24 14 25
REMARK SMILES IDX 16 26 15 27 25 28 26 29 27 30 28 31 29 33 30 34 31 35 95 36
REMARK SMILES IDX 32 37 94 38 33 39 34 40 35 41 88 42 36 43 93 44 87 45 89 46
REMARK SMILES IDX 37 47 92 48 86 49 85 50 38 52 72 53 51 54 71 55 52 56 55 57
REMARK SMILES IDX 70 58 90 59 53 60 54 61 69 63 91 64 56 65 39 66 40 67 49 68
REMARK SMILES IDX 41 69 42 70 48 71 50 72 43 73 44 74 45 75 46 76 47 77 73 78
REMARK SMILES IDX 74 79 83 80 75 81 76 82 82 83 84 84 77 85 78 86 79 87 80 88
REMARK SMILES IDX 81 89 57 90 58 91 67 92 59 93 60 94 66 95 68 96 61 97 62 98
REMARK SMILES IDX 63 99 64 100 65 101
REMARK H PARENT 20 8 9 13 27 32 89 51 55 62
REMARK Flexibility Score: inf
ROOT
ATOM      1  C   UNL A   1      31.851  30.610  26.861  1.00  0.00     0.002 C 
ENDROOT
BRANCH   1   2
ATOM      2  C   UNL A   1      31.474  29.923  25.544  1.00  0.00     0.002 C 
BRANCH   2   3
ATOM      3  C   UNL A   1      32.622  29.251  24.783  1.00  0.00     0.021 C 
BRANCH   3   4
ATOM      4  C   UNL A   1      32.657  27.734  24.891  1.00  0.00     0.116 C 
BRANCH   4   5
ATOM      5  N   UNL A   1      31.658  27.185  25.780  1.00  0.00    -0.354 N 
ATOM      6  C   UNL A   1      30.587  26.391  25.502  1.00  0.00     0.242 C 
ATOM      7  O   UNL A   1      30.126  25.734  26.444  1.00  0.00    -0.273 OA
ATOM      8  H   UNL A   1      31.768  27.420  26.730  1.00  0.00     0.163 HD
BRANCH   6   9
ATOM      9  C   UNL A   1      29.988  26.222  24.085  1.00  0.00     0.176 C 
BRANCH   9  10
ATOM     10  N   UNL A   1      29.982  24.838  23.597  1.00  0.00    -0.339 N 
ATOM     11  C   UNL A   1      30.923  23.853  23.418  1.00  0.00     0.263 C 
ATOM     12  O   UNL A   1      30.408  22.764  23.143  1.00  0.00    -0.268 OA
ATOM     13  H   UNL A   1      29.081  24.542  23.333  1.00  0.00     0.164 HD
BRANCH  11  14
ATOM     14  C   UNL A   1      32.373  24.017  23.490  1.00  0.00     0.115 A 
ATOM     15  C   UNL A   1      36.109  23.816  24.606  1.00  0.00     0.079 C 
ATOM     16  C   UNL A   1      34.769  24.036  24.000  1.00  0.00     0.091 A 
ATOM     17  N   UNL A   1      34.540  24.794  22.958  1.00  0.00    -0.246 NA
ATOM     18  S   UNL A   1      33.391  23.293  24.661  1.00  0.00    -0.113 S 
ATOM     19  C   UNL A   1      33.179  24.799  22.654  1.00  0.00     0.061 A 
ATOM     20  C   UNL A   1      32.789  25.651  21.494  1.00  0.00     0.068 C 
ENDBRANCH  11  14
ENDBRANCH   9  10
BRANCH   9  21
ATOM     21  C   UNL A   1      28.672  26.979  23.816  1.00  0.00     0.070 C 
BRANCH  21  22
ATOM     22  C   UNL A   1      28.742  28.307  23.106  1.00  0.00    -0.045 A 
ATOM     23  C   UNL A   1      29.906  28.716  22.441  1.00  0.00     0.004 A 
ATOM     24  C   UNL A   1      27.628  29.161  23.111  1.00  0.00     0.004 A 
ATOM     25  C   UNL A   1      29.935  29.931  21.752  1.00  0.00     0.000 A 
ATOM     26  C   UNL A   1      27.663  30.380  22.433  1.00  0.00     0.000 A 
ATOM     27  C   UNL A   1      28.814  30.761  21.747  1.00  0.00     0.000 A 
ENDBRANCH  21  22
ENDBRANCH   9  21
ENDBRANCH   6   9
ENDBRANCH   4   5
ENDBRANCH   3   4
ENDBRANCH   2   3
ENDBRANCH   1   2
BRANCH   1  28
ATOM     28  C   UNL A   1      31.713  32.134  26.886  1.00  0.00     0.021 C 
BRANCH  28  29
ATOM     29  C   UNL A   1      32.972  32.901  27.266  1.00  0.00     0.116 C 
BRANCH  29  30
ATOM     30  N   UNL A   1      32.678  34.217  27.805  1.00  0.00    -0.352 N 
ATOM     31  C   UNL A   1      33.216  34.853  28.893  1.00  0.00     0.251 C 
ATOM     32  H   UNL A   1      31.992  34.727  27.317  1.00  0.00     0.163 HD
ATOM     33  O   UNL A   1      32.712  35.906  29.289  1.00  0.00    -0.269 OA
BRANCH  31  34
ATOM     34  C   UNL A   1      34.375  34.275  29.605  1.00  0.00     0.039 A 
ATOM     35  C   UNL A   1      34.144  33.482  30.733  1.00  0.00     0.014 A 
ATOM     36  C   UNL A   1      35.686  34.526  29.187  1.00  0.00     0.014 A 
ATOM     37  C   UNL A   1      35.221  32.910  31.412  1.00  0.00     0.010 A 
ATOM     38  C   UNL A   1      36.753  33.890  29.816  1.00  0.00     0.010 A 
ATOM     39  C   UNL A   1      36.534  33.087  30.945  1.00  0.00    -0.014 A 
BRANCH  39  40
ATOM     40  C   UNL A   1      37.687  32.461  31.643  1.00  0.00     0.031 A 
ATOM     41  C   UNL A   1      38.163  33.011  32.962  1.00  0.00     0.074 A 
ATOM     42  C   UNL A   1      38.330  31.423  31.071  1.00  0.00     0.049 A 
ATOM     43  N   UNL A   1      39.169  32.626  33.702  1.00  0.00    -0.248 NA
ATOM     44  C   UNL A   1      37.426  34.163  33.507  1.00  0.00     0.031 C 
ATOM     45  C   UNL A   1      37.993  30.831  29.774  1.00  0.00     0.029 A 
ATOM     46  N   UNL A   1      39.402  30.684  31.503  1.00  0.00    -0.354 N 
ATOM     47  C   UNL A   1      39.194  33.491  34.791  1.00  0.00     0.074 A 
ATOM     48  C   UNL A   1      38.140  34.459  34.584  1.00  0.00     0.031 C 
ATOM     49  C   UNL A   1      38.824  29.804  29.530  1.00  0.00     0.029 A 
ATOM     50  C   UNL A   1      39.774  29.687  30.631  1.00  0.00     0.049 A 
ATOM     51  H   UNL A   1      39.862  30.851  32.358  1.00  0.00     0.167 HD
ATOM     52  C   UNL A   1      40.003  33.465  35.878  1.00  0.00     0.037 A 
ATOM     53  C   UNL A   1      40.770  28.783  30.709  1.00  0.00     0.037 A 
ATOM     54  C   UNL A   1      41.035  32.483  36.089  1.00  0.00     0.049 A 
ATOM     55  C   UNL A   1      41.654  28.773  31.928  1.00  0.00     0.074 A 
ATOM     56  C   UNL A   1      41.876  32.339  37.178  1.00  0.00     0.029 A 
ATOM     57  N   UNL A   1      41.368  31.478  35.192  1.00  0.00    -0.354 N 
ATOM     58  N   UNL A   1      41.623  29.561  32.975  1.00  0.00    -0.248 NA
ATOM     59  C   UNL A   1      42.701  27.743  31.980  1.00  0.00     0.031 C 
ATOM     60  C   UNL A   1      42.748  31.276  36.920  1.00  0.00     0.029 A 
ATOM     61  C   UNL A   1      42.413  30.721  35.695  1.00  0.00     0.049 A 
ATOM     62  H   UNL A   1      40.926  31.325  34.325  1.00  0.00     0.167 HD
ATOM     63  C   UNL A   1      42.623  29.102  33.827  1.00  0.00     0.074 A 
ATOM     64  C   UNL A   1      43.232  27.960  33.175  1.00  0.00     0.031 C 
ATOM     65  C   UNL A   1      43.001  29.580  35.038  1.00  0.00     0.037 A 
BRANCH  52  66
ATOM     66  C   UNL A   1      39.802  34.529  36.925  1.00  0.00     0.058 A 
ATOM     67  C   UNL A   1      38.986  34.314  38.047  1.00  0.00     0.135 A 
ATOM     68  C   UNL A   1      40.462  35.764  36.825  1.00  0.00     0.135 A 
ATOM     69  F   UNL A   1      38.318  33.158  38.187  1.00  0.00    -0.206 F 
ATOM     70  C   UNL A   1      38.806  35.296  39.017  1.00  0.00     0.059 A 
ATOM     71  C   UNL A   1      40.322  36.750  37.798  1.00  0.00     0.059 A 
ATOM     72  F   UNL A   1      41.254  36.024  35.773  1.00  0.00    -0.206 F 
ATOM     73  C   UNL A   1      39.480  36.511  38.883  1.00  0.00     0.060 A 
BRANCH  73  74
ATOM     74  S   UNL A   1      39.243  37.770  40.154  1.00  0.00     0.124 S 
ATOM     75  O   UNL A   1      38.095  38.503  39.627  1.00  0.00    -0.237 OA
ATOM     76  O   UNL A   1      38.987  36.967  41.346  1.00  0.00    -0.237 OA
ATOM     77  O   UNL A   1      40.506  38.500  40.152  1.00  0.00    -0.744 OA
ENDBRANCH  73  74
ENDBRANCH  52  66
BRANCH  53  78
ATOM     78  C   UNL A   1      40.967  27.795  29.614  1.00  0.00     0.058 A 
ATOM     79  C   UNL A   1      42.060  27.891  28.741  1.00  0.00     0.135 A 
ATOM     80  C   UNL A   1      40.071  26.731  29.422  1.00  0.00     0.135 A 
ATOM     81  F   UNL A   1      42.943  28.892  28.879  1.00  0.00    -0.206 F 
ATOM     82  C   UNL A   1      42.248  26.982  27.703  1.00  0.00     0.059 A 
ATOM     83  C   UNL A   1      40.253  25.794  28.410  1.00  0.00     0.059 A 
ATOM     84  F   UNL A   1      39.018  26.582  30.242  1.00  0.00    -0.206 F 
ATOM     85  C   UNL A   1      41.339  25.936  27.548  1.00  0.00     0.060 A 
BRANCH  85  86
ATOM     86  S   UNL A   1      41.614  24.738  26.225  1.00  0.00     0.124 S 
ATOM     87  O   UNL A   1      43.004  24.359  26.457  1.00  0.00    -0.237 OA
ATOM     88  O   UNL A   1      40.615  23.718  26.523  1.00  0.00    -0.237 OA
ATOM     89  O   UNL A   1      41.365  25.514  25.013  1.00  0.00    -0.744 OA
ENDBRANCH  85  86
ENDBRANCH  53  78
BRANCH  65  90
ATOM     90  C   UNL A   1      44.094  28.841  35.764  1.00  0.00     0.058 A 
ATOM     91  C   UNL A   1      43.819  27.775  36.634  1.00  0.00     0.135 A 
ATOM     92  C   UNL A   1      45.439  29.184  35.553  1.00  0.00     0.135 A 
ATOM     93  F   UNL A   1      42.550  27.409  36.875  1.00  0.00    -0.206 F 
ATOM     94  C   UNL A   1      44.838  27.096  37.295  1.00  0.00     0.059 A 
ATOM     95  C   UNL A   1      46.475  28.499  36.179  1.00  0.00     0.059 A 
ATOM     96  F   UNL A   1      45.760  30.188  34.721  1.00  0.00    -0.206 F 
ATOM     97  C   UNL A   1      46.163  27.466  37.061  1.00  0.00     0.060 A 
BRANCH  97  98
ATOM     98  S   UNL A   1      47.476  26.565  37.910  1.00  0.00     0.124 S 
ATOM     99  O   UNL A   1      46.753  25.984  39.036  1.00  0.00    -0.237 OA
ATOM    100  O   UNL A   1      47.922  25.623  36.888  1.00  0.00    -0.237 OA
ATOM    101  O   UNL A   1      48.439  27.609  38.253  1.00  0.00    -0.744 OA
ENDBRANCH  97  98
ENDBRANCH  65  90
ENDBRANCH  39  40
ENDBRANCH  31  34
ENDBRANCH  29  30
ENDBRANCH  28  29
ENDBRANCH   1  28
TORSDOF 20
ENDMDL
MODEL 3
REMARK VINA RESULT:     -11.1      4.567     10.166
REMARK SMILES Cc1nc(C)c(C(=O)N[C@@H](Cc2ccccc2)C(=O)NCCCCCCNC(=O)c2ccc(-c3c4nc(c(-c5c(F)cc(S(=O)(=O)[O-])cc5F)c5ccc([nH]5)c(-c5c(F)cc(S(=O)(=O)[O-])cc5F)c5nc(c(-c6c(F)cc(S(=O)(=O)[O-])cc6F)c6ccc3[nH]6)C=C5)C=C4)cc2)s1
REMARK SMILES IDX 24 1 23 2 22 3 21 4 20 5 18 6 19 7 10 9 9 10 7 11 8 12 6 14
REMARK SMILES IDX 1 15 2 16 3 17 96 18 4 19 5 20 11 21 12 22 13 23 17 24 14 25
REMARK SMILES IDX 16 26 15 27 25 28 26 29 27 30 28 31 29 33 30 34 31 35 95 36
REMARK SMILES IDX 32 37 94 38 33 39 34 40 35 41 88 42 36 43 93 44 87 45 89 46
REMARK SMILES IDX 37 47 92 48 86 49 85 50 38 52 72 53 51 54 71 55 52 56 55 57
REMARK SMILES IDX 70 58 90 59 53 60 54 61 69 63 91 64 56 65 39 66 40 67 49 68
REMARK SMILES IDX 41 69 42 70 48 71 50 72 43 73 44 74 45 75 46 76 47 77 73 78
REMARK SMILES IDX 74 79 83 80 75 81 76 82 82 83 84 84 77 85 78 86 79 87 80 88
REMARK SMILES IDX 81 89 57 90 58 91 67 92 59 93 60 94 66 95 68 96 61 97 62 98
REMARK SMILES IDX 63 99 64 100 65 101
REMARK H PARENT 20 8 9 13 27 32 89 51 55 62
REMARK Flexibility Score: inf
ROOT
ATOM      1  C   UNL A   1      40.693  21.550  27.147  1.00  0.00     0.002 C 
ENDROOT
BRANCH   1   2
ATOM      2  C   UNL A   1      39.470  22.007  26.344  1.00  0.00     0.002 C 
BRANCH   2   3
ATOM      3  C   UNL A   1      38.896  23.378  26.715  1.00  0.00     0.021 C 
BRANCH   3   4
ATOM      4  C   UNL A   1      37.625  23.760  25.971  1.00  0.00     0.116 C 
BRANCH   4   5
ATOM      5  N   UNL A   1      37.497  23.141  24.672  1.00  0.00    -0.354 N 
ATOM      6  C   UNL A   1      36.377  22.762  23.994  1.00  0.00     0.242 C 
ATOM      7  O   UNL A   1      36.490  22.632  22.769  1.00  0.00    -0.273 OA
ATOM      8  H   UNL A   1      38.346  22.966  24.205  1.00  0.00     0.163 HD
BRANCH   6   9
ATOM      9  C   UNL A   1      34.994  22.565  24.661  1.00  0.00     0.176 C 
BRANCH   9  10
ATOM     10  N   UNL A   1      33.858  22.759  23.754  1.00  0.00    -0.339 N 
ATOM     11  C   UNL A   1      32.777  23.604  23.695  1.00  0.00     0.263 C 
ATOM     12  O   UNL A   1      32.171  23.509  22.622  1.00  0.00    -0.268 OA
ATOM     13  H   UNL A   1      33.875  22.126  23.000  1.00  0.00     0.164 HD
BRANCH  11  14
ATOM     14  C   UNL A   1      32.321  24.501  24.754  1.00  0.00     0.115 A 
ATOM     15  C   UNL A   1      31.691  27.652  26.974  1.00  0.00     0.079 C 
ATOM     16  C   UNL A   1      31.801  26.331  26.297  1.00  0.00     0.091 A 
ATOM     17  N   UNL A   1      31.305  25.214  26.765  1.00  0.00    -0.246 NA
ATOM     18  S   UNL A   1      32.623  26.186  24.818  1.00  0.00    -0.113 S 
ATOM     19  C   UNL A   1      31.594  24.159  25.900  1.00  0.00     0.061 A 
ATOM     20  C   UNL A   1      31.100  22.822  26.339  1.00  0.00     0.068 C 
ENDBRANCH  11  14
ENDBRANCH   9  10
BRANCH   9  21
ATOM     21  C   UNL A   1      34.857  21.331  25.573  1.00  0.00     0.070 C 
BRANCH  21  22
ATOM     22  C   UNL A   1      34.326  20.053  24.975  1.00  0.00    -0.045 A 
ATOM     23  C   UNL A   1      32.958  19.883  24.720  1.00  0.00     0.004 A 
ATOM     24  C   UNL A   1      35.209  19.006  24.669  1.00  0.00     0.004 A 
ATOM     25  C   UNL A   1      32.492  18.708  24.125  1.00  0.00     0.000 A 
ATOM     26  C   UNL A   1      34.739  17.828  24.085  1.00  0.00     0.000 A 
ATOM     27  C   UNL A   1      33.382  17.683  23.806  1.00  0.00     0.000 A 
ENDBRANCH  21  22
ENDBRANCH   9  21
ENDBRANCH   6   9
ENDBRANCH   4   5
ENDBRANCH   3   4
ENDBRANCH   2   3
ENDBRANCH   1   2
BRANCH   1  28
ATOM     28  C   UNL A   1      41.271  22.571  28.128  1.00  0.00     0.021 C 
BRANCH  28  29
ATOM     29  C   UNL A   1      42.575  23.231  27.699  1.00  0.00     0.116 C 
BRANCH  29  30
ATOM     30  N   UNL A   1      42.451  23.934  26.435  1.00  0.00    -0.352 N 
ATOM     31  C   UNL A   1      42.027  25.213  26.187  1.00  0.00     0.251 C 
ATOM     32  H   UNL A   1      42.711  23.416  25.639  1.00  0.00     0.163 HD
ATOM     33  O   UNL A   1      41.833  25.573  25.024  1.00  0.00    -0.269 OA
BRANCH  31  34
ATOM     34  C   UNL A   1      41.778  26.152  27.302  1.00  0.00     0.039 A 
ATOM     35  C   UNL A   1      40.617  25.998  28.064  1.00  0.00     0.014 A 
ATOM     36  C   UNL A   1      42.665  27.195  27.586  1.00  0.00     0.014 A 
ATOM     37  C   UNL A   1      40.368  26.861  29.133  1.00  0.00     0.010 A 
ATOM     38  C   UNL A   1      42.456  28.003  28.701  1.00  0.00     0.010 A 
ATOM     39  C   UNL A   1      41.298  27.856  29.478  1.00  0.00    -0.014 A 
BRANCH  39  40
ATOM     40  C   UNL A   1      41.058  28.762  30.630  1.00  0.00     0.031 A 
ATOM     41  C   UNL A   1      41.900  28.645  31.874  1.00  0.00     0.074 A 
ATOM     42  C   UNL A   1      40.057  29.664  30.574  1.00  0.00     0.049 A 
ATOM     43  N   UNL A   1      41.820  29.317  32.992  1.00  0.00    -0.248 NA
ATOM     44  C   UNL A   1      42.953  27.616  31.869  1.00  0.00     0.031 C 
ATOM     45  C   UNL A   1      39.143  29.843  29.443  1.00  0.00     0.029 A 
ATOM     46  N   UNL A   1      39.639  30.598  31.487  1.00  0.00    -0.354 N 
ATOM     47  C   UNL A   1      42.800  28.789  33.825  1.00  0.00     0.074 A 
ATOM     48  C   UNL A   1      43.422  27.700  33.105  1.00  0.00     0.031 C 
ATOM     49  C   UNL A   1      38.291  30.842  29.720  1.00  0.00     0.029 A 
ATOM     50  C   UNL A   1      38.571  31.351  31.058  1.00  0.00     0.049 A 
ATOM     51  H   UNL A   1      40.063  30.718  32.367  1.00  0.00     0.167 HD
ATOM     52  C   UNL A   1      43.168  29.192  35.065  1.00  0.00     0.037 A 
ATOM     53  C   UNL A   1      37.892  32.339  31.675  1.00  0.00     0.037 A 
ATOM     54  C   UNL A   1      42.560  30.294  35.766  1.00  0.00     0.049 A 
ATOM     55  C   UNL A   1      38.321  32.771  33.052  1.00  0.00     0.074 A 
ATOM     56  C   UNL A   1      42.892  30.815  37.004  1.00  0.00     0.029 A 
ATOM     57  N   UNL A   1      41.495  31.045  35.290  1.00  0.00    -0.354 N 
ATOM     58  N   UNL A   1      39.291  32.300  33.800  1.00  0.00    -0.248 NA
ATOM     59  C   UNL A   1      37.572  33.877  33.664  1.00  0.00     0.031 C 
ATOM     60  C   UNL A   1      41.998  31.850  37.297  1.00  0.00     0.029 A 
ATOM     61  C   UNL A   1      41.145  32.013  36.217  1.00  0.00     0.049 A 
ATOM     62  H   UNL A   1      41.051  30.910  34.420  1.00  0.00     0.167 HD
ATOM     63  C   UNL A   1      39.290  33.073  34.956  1.00  0.00     0.074 A 
ATOM     64  C   UNL A   1      38.231  34.049  34.803  1.00  0.00     0.031 C 
ATOM     65  C   UNL A   1      40.094  32.985  36.044  1.00  0.00     0.037 A 
BRANCH  52  66
ATOM     66  C   UNL A   1      44.283  28.441  35.744  1.00  0.00     0.058 A 
ATOM     67  C   UNL A   1      45.629  28.795  35.562  1.00  0.00     0.135 A 
ATOM     68  C   UNL A   1      44.000  27.376  36.614  1.00  0.00     0.135 A 
ATOM     69  F   UNL A   1      45.959  29.796  34.730  1.00  0.00    -0.206 F 
ATOM     70  C   UNL A   1      46.657  28.103  36.195  1.00  0.00     0.059 A 
ATOM     71  C   UNL A   1      45.010  26.688  37.282  1.00  0.00     0.059 A 
ATOM     72  F   UNL A   1      42.731  26.993  36.824  1.00  0.00    -0.206 F 
ATOM     73  C   UNL A   1      46.337  27.051  37.054  1.00  0.00     0.060 A 
BRANCH  73  74
ATOM     74  S   UNL A   1      47.682  26.169  37.873  1.00  0.00     0.124 S 
ATOM     75  O   UNL A   1      47.078  24.859  38.095  1.00  0.00    -0.237 OA
ATOM     76  O   UNL A   1      48.742  26.215  36.870  1.00  0.00    -0.237 OA
ATOM     77  O   UNL A   1      47.926  26.958  39.076  1.00  0.00    -0.744 OA
ENDBRANCH  73  74
ENDBRANCH  52  66
BRANCH  53  78
ATOM     78  C   UNL A   1      36.755  33.005  30.985  1.00  0.00     0.058 A 
ATOM     79  C   UNL A   1      35.432  32.792  31.400  1.00  0.00     0.135 A 
ATOM     80  C   UNL A   1      36.966  33.873  29.902  1.00  0.00     0.135 A 
ATOM     81  F   UNL A   1      35.176  31.969  32.428  1.00  0.00    -0.206 F 
ATOM     82  C   UNL A   1      34.358  33.397  30.755  1.00  0.00     0.059 A 
ATOM     83  C   UNL A   1      35.911  34.512  29.259  1.00  0.00     0.059 A 
ATOM     84  F   UNL A   1      38.215  34.126  29.477  1.00  0.00    -0.206 F 
ATOM     85  C   UNL A   1      34.608  34.257  29.685  1.00  0.00     0.060 A 
BRANCH  85  86
ATOM     86  S   UNL A   1      33.211  35.070  28.881  1.00  0.00     0.124 S 
ATOM     87  O   UNL A   1      32.813  34.067  27.900  1.00  0.00    -0.237 OA
ATOM     88  O   UNL A   1      32.293  35.274  29.996  1.00  0.00    -0.237 OA
ATOM     89  O   UNL A   1      33.801  36.289  28.334  1.00  0.00    -0.744 OA
ENDBRANCH  85  86
ENDBRANCH  53  78
BRANCH  65  90
ATOM     90  C   UNL A   1      39.894  34.000  37.137  1.00  0.00     0.058 A 
ATOM     91  C   UNL A   1      39.146  33.713  38.291  1.00  0.00     0.135 A 
ATOM     92  C   UNL A   1      40.491  35.267  37.044  1.00  0.00     0.135 A 
ATOM     93  F   UNL A   1      38.550  32.519  38.429  1.00  0.00    -0.206 F 
ATOM     94  C   UNL A   1      38.973  34.658  39.297  1.00  0.00     0.059 A 
ATOM     95  C   UNL A   1      40.357  36.216  38.052  1.00  0.00     0.059 A 
ATOM     96  F   UNL A   1      41.227  35.591  35.968  1.00  0.00    -0.206 F 
ATOM     97  C   UNL A   1      39.582  35.907  39.168  1.00  0.00     0.060 A 
BRANCH  97  98
ATOM     98  S   UNL A   1      39.364  37.117  40.489  1.00  0.00     0.124 S 
ATOM     99  O   UNL A   1      40.747  37.433  40.828  1.00  0.00    -0.237 OA
ATOM    100  O   UNL A   1      38.616  38.178  39.822  1.00  0.00    -0.237 OA
ATOM    101  O   UNL A   1      38.620  36.380  41.507  1.00  0.00    -0.744 OA
ENDBRANCH  97  98
ENDBRANCH  65  90
ENDBRANCH  39  40
ENDBRANCH  31  34
ENDBRANCH  29  30
ENDBRANCH  28  29
ENDBRANCH   1  28
TORSDOF 20
ENDMDL
