MODEL 1
REMARK VINA RESULT:     -11.6      0.000      0.000
REMARK SMILES COc1ccc2cc([C@H](C)C(=O)NCCCCCCNC(=O)c3ccc(-c4c5nc(c(-c6c(F)cc(S(=O)(=O)[O-])cc6F)c6ccc([nH]6)c(-c6c(F)cc(S(=O)(=O)[O-])cc6F)c6nc(c(-c7c(F)cc(S(=O)(=O)[O-])cc7F)c7ccc4[nH]7)C=C6)C=C5)cc3)ccc2c1
REMARK SMILES IDX 17 1 16 2 15 3 14 4 13 5 11 6 12 7 9 9 10 10 8 11 3 12 4 13
REMARK SMILES IDX 92 14 5 15 91 16 6 17 90 18 7 19 89 20 2 21 1 22 18 23 19 24
REMARK SMILES IDX 20 25 21 26 22 28 23 29 24 30 88 31 25 32 87 33 26 34 27 35
REMARK SMILES IDX 28 36 81 37 29 38 86 39 80 40 82 41 30 42 85 43 79 44 78 45
REMARK SMILES IDX 31 47 65 48 44 49 64 50 45 51 48 52 63 53 83 54 46 55 47 56
REMARK SMILES IDX 62 58 84 59 49 60 32 61 33 62 42 63 34 64 35 65 41 66 43 67
REMARK SMILES IDX 36 68 37 69 38 70 39 71 40 72 66 73 67 74 76 75 68 76 69 77
REMARK SMILES IDX 75 78 77 79 70 80 71 81 72 82 73 83 74 84 50 85 51 86 60 87
REMARK SMILES IDX 52 88 53 89 59 90 61 91 54 92 55 93 56 94 57 95 58 96
REMARK H PARENT 13 8 20 27 82 46 48 57
REMARK Flexibility Score: inf
ROOT
ATOM      1  C   UNL A   1      34.778  29.290  27.252  1.00  0.00     0.002 C 
ENDROOT
BRANCH   1   2
ATOM      2  C   UNL A   1      33.766  28.699  26.266  1.00  0.00     0.002 C 
BRANCH   2   3
ATOM      3  C   UNL A   1      33.154  29.695  25.281  1.00  0.00     0.021 C 
BRANCH   3   4
ATOM      4  C   UNL A   1      31.645  29.579  25.107  1.00  0.00     0.116 C 
BRANCH   4   5
ATOM      5  N   UNL A   1      31.255  29.319  23.739  1.00  0.00    -0.356 N 
ATOM      6  C   UNL A   1      30.686  28.211  23.186  1.00  0.00     0.227 C 
ATOM      7  O   UNL A   1      30.336  28.292  22.001  1.00  0.00    -0.274 OA
ATOM      8  H   UNL A   1      31.427  30.056  23.109  1.00  0.00     0.163 HD
BRANCH   6   9
ATOM      9  C   UNL A   1      30.497  26.896  23.957  1.00  0.00     0.105 C 
ATOM     10  C   UNL A   1      29.067  26.359  23.876  1.00  0.00     0.023 C 
BRANCH   9  11
ATOM     11  C   UNL A   1      31.623  25.894  23.729  1.00  0.00    -0.035 A 
ATOM     12  C   UNL A   1      35.917  23.194  24.134  1.00  0.00     0.119 A 
ATOM     13  C   UNL A   1      35.787  23.882  25.338  1.00  0.00     0.047 A 
ATOM     14  C   UNL A   1      34.966  23.357  23.129  1.00  0.00     0.055 A 
ATOM     15  C   UNL A   1      34.700  24.738  25.534  1.00  0.00     0.012 A 
ATOM     16  C   UNL A   1      33.848  24.177  23.332  1.00  0.00    -0.015 A 
ATOM     17  C   UNL A   1      33.725  24.903  24.537  1.00  0.00    -0.018 A 
ATOM     18  C   UNL A   1      32.841  24.281  22.369  1.00  0.00     0.009 A 
ATOM     19  C   UNL A   1      32.633  25.776  24.702  1.00  0.00     0.013 A 
ATOM     20  C   UNL A   1      31.724  25.093  22.586  1.00  0.00     0.005 A 
BRANCH  12  21
ATOM     21  O   UNL A   1      36.992  22.400  23.842  1.00  0.00    -0.497 OA
ATOM     22  C   UNL A   1      37.585  21.823  25.001  1.00  0.00     0.278 C 
ENDBRANCH  12  21
ENDBRANCH   9  11
ENDBRANCH   6   9
ENDBRANCH   4   5
ENDBRANCH   3   4
ENDBRANCH   2   3
ENDBRANCH   1   2
BRANCH   1  23
ATOM     23  C   UNL A   1      34.557  30.758  27.627  1.00  0.00     0.021 C 
BRANCH  23  24
ATOM     24  C   UNL A   1      35.664  31.386  28.468  1.00  0.00     0.116 C 
BRANCH  24  25
ATOM     25  N   UNL A   1      35.550  31.043  29.875  1.00  0.00    -0.352 N 
ATOM     26  C   UNL A   1      36.456  30.415  30.693  1.00  0.00     0.251 C 
ATOM     27  H   UNL A   1      34.701  31.298  30.305  1.00  0.00     0.163 HD
ATOM     28  O   UNL A   1      36.114  30.044  31.815  1.00  0.00    -0.269 OA
BRANCH  26  29
ATOM     29  C   UNL A   1      37.833  30.166  30.216  1.00  0.00     0.039 A 
ATOM     30  C   UNL A   1      38.857  30.015  31.153  1.00  0.00     0.014 A 
ATOM     31  C   UNL A   1      38.113  30.082  28.849  1.00  0.00     0.014 A 
ATOM     32  C   UNL A   1      40.152  29.721  30.721  1.00  0.00     0.010 A 
ATOM     33  C   UNL A   1      39.386  29.712  28.425  1.00  0.00     0.010 A 
ATOM     34  C   UNL A   1      40.420  29.533  29.356  1.00  0.00    -0.014 A 
BRANCH  34  35
ATOM     35  C   UNL A   1      41.774  29.141  28.881  1.00  0.00     0.031 A 
ATOM     36  C   UNL A   1      42.879  30.159  28.816  1.00  0.00     0.074 A 
ATOM     37  C   UNL A   1      41.987  27.882  28.449  1.00  0.00     0.049 A 
ATOM     38  N   UNL A   1      44.108  30.019  28.390  1.00  0.00    -0.248 NA
ATOM     39  C   UNL A   1      42.553  31.521  29.265  1.00  0.00     0.031 C 
ATOM     40  C   UNL A   1      40.985  26.814  28.425  1.00  0.00     0.029 A 
ATOM     41  N   UNL A   1      43.116  27.288  27.942  1.00  0.00    -0.354 N 
ATOM     42  C   UNL A   1      44.694  31.275  28.499  1.00  0.00     0.074 A 
ATOM     43  C   UNL A   1      43.669  32.175  28.982  1.00  0.00     0.031 C 
ATOM     44  C   UNL A   1      41.553  25.687  27.969  1.00  0.00     0.029 A 
ATOM     45  C   UNL A   1      42.944  25.961  27.622  1.00  0.00     0.049 A 
ATOM     46  H   UNL A   1      43.967  27.765  27.819  1.00  0.00     0.167 HD
ATOM     47  C   UNL A   1      45.973  31.640  28.240  1.00  0.00     0.037 A 
ATOM     48  C   UNL A   1      43.810  25.067  27.107  1.00  0.00     0.037 A 
ATOM     49  C   UNL A   1      46.990  30.731  27.776  1.00  0.00     0.049 A 
ATOM     50  C   UNL A   1      45.219  25.500  26.804  1.00  0.00     0.074 A 
ATOM     51  C   UNL A   1      48.331  30.983  27.551  1.00  0.00     0.029 A 
ATOM     52  N   UNL A   1      46.774  29.399  27.451  1.00  0.00    -0.354 N 
ATOM     53  N   UNL A   1      45.778  26.673  26.985  1.00  0.00    -0.248 NA
ATOM     54  C   UNL A   1      46.115  24.488  26.229  1.00  0.00     0.031 C 
ATOM     55  C   UNL A   1      48.913  29.823  27.029  1.00  0.00     0.029 A 
ATOM     56  C   UNL A   1      47.950  28.826  26.992  1.00  0.00     0.049 A 
ATOM     57  H   UNL A   1      45.913  28.929  27.535  1.00  0.00     0.167 HD
ATOM     58  C   UNL A   1      47.100  26.531  26.577  1.00  0.00     0.074 A 
ATOM     59  C   UNL A   1      47.257  25.156  26.147  1.00  0.00     0.031 C 
ATOM     60  C   UNL A   1      48.094  27.454  26.565  1.00  0.00     0.037 A 
BRANCH  47  61
ATOM     61  C   UNL A   1      46.335  33.089  28.433  1.00  0.00     0.058 A 
ATOM     62  C   UNL A   1      46.772  33.591  29.670  1.00  0.00     0.135 A 
ATOM     63  C   UNL A   1      46.248  33.992  27.359  1.00  0.00     0.135 A 
ATOM     64  F   UNL A   1      46.865  32.780  30.735  1.00  0.00    -0.206 F 
ATOM     65  C   UNL A   1      47.059  34.940  29.849  1.00  0.00     0.059 A 
ATOM     66  C   UNL A   1      46.564  35.339  27.506  1.00  0.00     0.059 A 
ATOM     67  F   UNL A   1      45.842  33.570  26.152  1.00  0.00    -0.206 F 
ATOM     68  C   UNL A   1      46.945  35.809  28.762  1.00  0.00     0.060 A 
BRANCH  68  69
ATOM     69  S   UNL A   1      47.290  37.563  29.018  1.00  0.00     0.124 S 
ATOM     70  O   UNL A   1      46.253  37.923  29.980  1.00  0.00    -0.237 OA
ATOM     71  O   UNL A   1      48.654  37.540  29.535  1.00  0.00    -0.237 OA
ATOM     72  O   UNL A   1      47.136  38.138  27.686  1.00  0.00    -0.744 OA
ENDBRANCH  68  69
ENDBRANCH  47  61
BRANCH  48  73
ATOM     73  C   UNL A   1      43.379  23.659  26.890  1.00  0.00     0.058 A 
ATOM     74  C   UNL A   1      43.201  22.791  27.978  1.00  0.00     0.135 A 
ATOM     75  C   UNL A   1      43.106  23.163  25.605  1.00  0.00     0.135 A 
ATOM     76  F   UNL A   1      43.458  23.217  29.224  1.00  0.00    -0.206 F 
ATOM     77  C   UNL A   1      42.775  21.480  27.802  1.00  0.00     0.059 A 
ATOM     78  C   UNL A   1      42.653  21.862  25.406  1.00  0.00     0.059 A 
ATOM     79  F   UNL A   1      43.246  23.957  24.533  1.00  0.00    -0.206 F 
ATOM     80  C   UNL A   1      42.496  21.026  26.512  1.00  0.00     0.060 A 
BRANCH  80  81
ATOM     81  S   UNL A   1      41.879  19.341  26.305  1.00  0.00     0.124 S 
ATOM     82  O   UNL A   1      42.278  18.725  27.565  1.00  0.00    -0.237 OA
ATOM     83  O   UNL A   1      40.448  19.562  26.126  1.00  0.00    -0.237 OA
ATOM     84  O   UNL A   1      42.587  18.868  25.119  1.00  0.00    -0.744 OA
ENDBRANCH  80  81
ENDBRANCH  48  73
BRANCH  60  85
ATOM     85  C   UNL A   1      49.455  27.003  26.106  1.00  0.00     0.058 A 
ATOM     86  C   UNL A   1      50.361  26.375  26.975  1.00  0.00     0.135 A 
ATOM     87  C   UNL A   1      49.837  27.157  24.763  1.00  0.00     0.135 A 
ATOM     88  F   UNL A   1      50.050  26.208  28.271  1.00  0.00    -0.206 F 
ATOM     89  C   UNL A   1      51.607  25.937  26.535  1.00  0.00     0.059 A 
ATOM     90  C   UNL A   1      51.065  26.700  24.294  1.00  0.00     0.059 A 
ATOM     91  F   UNL A   1      49.006  27.744  23.887  1.00  0.00    -0.206 F 
ATOM     92  C   UNL A   1      51.948  26.101  25.191  1.00  0.00     0.060 A 
BRANCH  92  93
ATOM     93  S   UNL A   1      53.551  25.496  24.626  1.00  0.00     0.124 S 
ATOM     94  O   UNL A   1      53.405  25.582  23.177  1.00  0.00    -0.237 OA
ATOM     95  O   UNL A   1      54.475  26.453  25.228  1.00  0.00    -0.237 OA
ATOM     96  O   UNL A   1      53.617  24.143  25.170  1.00  0.00    -0.744 OA
ENDBRANCH  92  93
ENDBRANCH  60  85
ENDBRANCH  34  35
ENDBRANCH  26  29
ENDBRANCH  24  25
ENDBRANCH  23  24
ENDBRANCH   1  23
TORSDOF 18
ENDMDL
MODEL 2
REMARK VINA RESULT:     -11.5      6.749     12.089
REMARK SMILES COc1ccc2cc([C@H](C)C(=O)NCCCCCCNC(=O)c3ccc(-c4c5nc(c(-c6c(F)cc(S(=O)(=O)[O-])cc6F)c6ccc([nH]6)c(-c6c(F)cc(S(=O)(=O)[O-])cc6F)c6nc(c(-c7c(F)cc(S(=O)(=O)[O-])cc7F)c7ccc4[nH]7)C=C6)C=C5)cc3)ccc2c1
REMARK SMILES IDX 17 1 16 2 15 3 14 4 13 5 11 6 12 7 9 9 10 10 8 11 3 12 4 13
REMARK SMILES IDX 92 14 5 15 91 16 6 17 90 18 7 19 89 20 2 21 1 22 18 23 19 24
REMARK SMILES IDX 20 25 21 26 22 28 23 29 24 30 88 31 25 32 87 33 26 34 27 35
REMARK SMILES IDX 28 36 81 37 29 38 86 39 80 40 82 41 30 42 85 43 79 44 78 45
REMARK SMILES IDX 31 47 65 48 44 49 64 50 45 51 48 52 63 53 83 54 46 55 47 56
REMARK SMILES IDX 62 58 84 59 49 60 32 61 33 62 42 63 34 64 35 65 41 66 43 67
REMARK SMILES IDX 36 68 37 69 38 70 39 71 40 72 66 73 67 74 76 75 68 76 69 77
REMARK SMILES IDX 75 78 77 79 70 80 71 81 72 82 73 83 74 84 50 85 51 86 60 87
REMARK SMILES IDX 52 88 53 89 59 90 61 91 54 92 55 93 56 94 57 95 58 96
REMARK H PARENT 13 8 20 27 82 46 48 57
REMARK Flexibility Score: inf
ROOT
ATOM      1  C   UNL A   1      37.746  22.150  25.734  1.00  0.00     0.002 C 
ENDROOT
BRANCH   1   2
ATOM      2  C   UNL A   1      36.298  21.913  25.293  1.00  0.00     0.002 C 
BRANCH   2   3
ATOM      3  C   UNL A   1      35.879  22.634  24.012  1.00  0.00     0.021 C 
BRANCH   3   4
ATOM      4  C   UNL A   1      35.017  23.872  24.226  1.00  0.00     0.116 C 
BRANCH   4   5
ATOM      5  N   UNL A   1      34.340  24.300  23.023  1.00  0.00    -0.356 N 
ATOM      6  C   UNL A   1      33.022  24.225  22.686  1.00  0.00     0.227 C 
ATOM      7  O   UNL A   1      32.678  24.781  21.634  1.00  0.00    -0.274 OA
ATOM      8  H   UNL A   1      34.920  24.710  22.342  1.00  0.00     0.163 HD
BRANCH   6   9
ATOM      9  C   UNL A   1      31.986  23.467  23.531  1.00  0.00     0.105 C 
ATOM     10  C   UNL A   1      30.581  24.064  23.424  1.00  0.00     0.023 C 
BRANCH   9  11
ATOM     11  C   UNL A   1      32.101  21.952  23.414  1.00  0.00    -0.035 A 
ATOM     12  C   UNL A   1      32.945  17.028  24.380  1.00  0.00     0.119 A 
ATOM     13  C   UNL A   1      32.986  17.669  25.616  1.00  0.00     0.047 A 
ATOM     14  C   UNL A   1      32.723  17.763  23.218  1.00  0.00     0.055 A 
ATOM     15  C   UNL A   1      32.804  19.053  25.686  1.00  0.00     0.012 A 
ATOM     16  C   UNL A   1      32.495  19.145  23.281  1.00  0.00    -0.015 A 
ATOM     17  C   UNL A   1      32.566  19.807  24.526  1.00  0.00    -0.018 A 
ATOM     18  C   UNL A   1      32.182  19.880  22.135  1.00  0.00     0.009 A 
ATOM     19  C   UNL A   1      32.402  21.204  24.568  1.00  0.00     0.013 A 
ATOM     20  C   UNL A   1      31.945  21.256  22.211  1.00  0.00     0.005 A 
BRANCH  12  21
ATOM     21  O   UNL A   1      33.190  15.691  24.226  1.00  0.00    -0.497 OA
ATOM     22  C   UNL A   1      32.989  14.950  25.426  1.00  0.00     0.278 C 
ENDBRANCH  12  21
ENDBRANCH   9  11
ENDBRANCH   6   9
ENDBRANCH   4   5
ENDBRANCH   3   4
ENDBRANCH   2   3
ENDBRANCH   1   2
BRANCH   1  23
ATOM     23  C   UNL A   1      38.055  23.552  26.265  1.00  0.00     0.021 C 
BRANCH  23  24
ATOM     24  C   UNL A   1      39.424  23.711  26.919  1.00  0.00     0.116 C 
BRANCH  24  25
ATOM     25  N   UNL A   1      40.416  24.246  26.002  1.00  0.00    -0.352 N 
ATOM     26  C   UNL A   1      41.111  25.428  26.065  1.00  0.00     0.251 C 
ATOM     27  H   UNL A   1      40.620  23.679  25.223  1.00  0.00     0.163 HD
ATOM     28  O   UNL A   1      41.778  25.798  25.100  1.00  0.00    -0.269 OA
BRANCH  26  29
ATOM     29  C   UNL A   1      41.037  26.263  27.282  1.00  0.00     0.039 A 
ATOM     30  C   UNL A   1      41.919  27.338  27.420  1.00  0.00     0.014 A 
ATOM     31  C   UNL A   1      40.103  25.987  28.284  1.00  0.00     0.014 A 
ATOM     32  C   UNL A   1      41.823  28.172  28.536  1.00  0.00     0.010 A 
ATOM     33  C   UNL A   1      39.958  26.865  29.355  1.00  0.00     0.010 A 
ATOM     34  C   UNL A   1      40.819  27.963  29.495  1.00  0.00    -0.014 A 
BRANCH  34  35
ATOM     35  C   UNL A   1      40.649  28.886  30.649  1.00  0.00     0.031 A 
ATOM     36  C   UNL A   1      41.516  28.742  31.870  1.00  0.00     0.074 A 
ATOM     37  C   UNL A   1      39.670  29.812  30.619  1.00  0.00     0.049 A 
ATOM     38  N   UNL A   1      41.487  29.419  32.988  1.00  0.00    -0.248 NA
ATOM     39  C   UNL A   1      42.531  27.677  31.840  1.00  0.00     0.031 C 
ATOM     40  C   UNL A   1      38.739  30.024  29.509  1.00  0.00     0.029 A 
ATOM     41  N   UNL A   1      39.291  30.746  31.552  1.00  0.00    -0.354 N 
ATOM     42  C   UNL A   1      42.463  28.853  33.801  1.00  0.00     0.074 A 
ATOM     43  C   UNL A   1      43.028  27.742  33.066  1.00  0.00     0.031 C 
ATOM     44  C   UNL A   1      37.926  31.050  29.807  1.00  0.00     0.029 A 
ATOM     45  C   UNL A   1      38.242  31.537  31.145  1.00  0.00     0.049 A 
ATOM     46  H   UNL A   1      39.729  30.841  32.428  1.00  0.00     0.167 HD
ATOM     47  C   UNL A   1      42.864  29.236  35.038  1.00  0.00     0.037 A 
ATOM     48  C   UNL A   1      37.607  32.541  31.780  1.00  0.00     0.037 A 
ATOM     49  C   UNL A   1      42.305  30.354  35.753  1.00  0.00     0.049 A 
ATOM     50  C   UNL A   1      38.053  32.933  33.162  1.00  0.00     0.074 A 
ATOM     51  C   UNL A   1      42.687  30.868  36.979  1.00  0.00     0.029 A 
ATOM     52  N   UNL A   1      41.235  31.122  35.315  1.00  0.00    -0.354 N 
ATOM     53  N   UNL A   1      39.028  32.436  33.887  1.00  0.00    -0.248 NA
ATOM     54  C   UNL A   1      37.314  34.023  33.813  1.00  0.00     0.031 C 
ATOM     55  C   UNL A   1      41.809  31.905  37.312  1.00  0.00     0.029 A 
ATOM     56  C   UNL A   1      40.920  32.082  36.263  1.00  0.00     0.049 A 
ATOM     57  H   UNL A   1      40.769  31.003  34.456  1.00  0.00     0.167 HD
ATOM     58  C   UNL A   1      39.041  33.175  35.065  1.00  0.00     0.074 A 
ATOM     59  C   UNL A   1      37.981  34.157  34.952  1.00  0.00     0.031 C 
ATOM     60  C   UNL A   1      39.860  33.055  36.139  1.00  0.00     0.037 A 
BRANCH  47  61
ATOM     61  C   UNL A   1      43.944  28.422  35.701  1.00  0.00     0.058 A 
ATOM     62  C   UNL A   1      43.650  27.345  36.554  1.00  0.00     0.135 A 
ATOM     63  C   UNL A   1      45.299  28.720  35.476  1.00  0.00     0.135 A 
ATOM     64  F   UNL A   1      42.374  27.018  36.816  1.00  0.00    -0.206 F 
ATOM     65  C   UNL A   1      44.653  26.629  37.198  1.00  0.00     0.059 A 
ATOM     66  C   UNL A   1      46.320  27.996  36.081  1.00  0.00     0.059 A 
ATOM     67  F   UNL A   1      45.641  29.734  34.666  1.00  0.00    -0.206 F 
ATOM     68  C   UNL A   1      45.987  26.966  36.960  1.00  0.00     0.060 A 
BRANCH  68  69
ATOM     69  S   UNL A   1      47.278  26.049  37.828  1.00  0.00     0.124 S 
ATOM     70  O   UNL A   1      46.742  26.010  39.185  1.00  0.00    -0.237 OA
ATOM     71  O   UNL A   1      47.289  24.776  37.114  1.00  0.00    -0.237 OA
ATOM     72  O   UNL A   1      48.466  26.878  37.646  1.00  0.00    -0.744 OA
ENDBRANCH  68  69
ENDBRANCH  47  61
BRANCH  48  73
ATOM     73  C   UNL A   1      36.510  33.275  31.093  1.00  0.00     0.058 A 
ATOM     74  C   UNL A   1      36.794  34.161  30.041  1.00  0.00     0.135 A 
ATOM     75  C   UNL A   1      35.165  33.087  31.444  1.00  0.00     0.135 A 
ATOM     76  F   UNL A   1      38.066  34.380  29.675  1.00  0.00    -0.206 F 
ATOM     77  C   UNL A   1      35.785  34.839  29.368  1.00  0.00     0.059 A 
ATOM     78  C   UNL A   1      34.136  33.734  30.767  1.00  0.00     0.059 A 
ATOM     79  F   UNL A   1      34.839  32.240  32.433  1.00  0.00    -0.206 F 
ATOM     80  C   UNL A   1      34.457  34.613  29.733  1.00  0.00     0.060 A 
BRANCH  80  81
ATOM     81  S   UNL A   1      33.153  35.450  28.805  1.00  0.00     0.124 S 
ATOM     82  O   UNL A   1      32.373  36.058  29.877  1.00  0.00    -0.237 OA
ATOM     83  O   UNL A   1      33.918  36.371  27.970  1.00  0.00    -0.237 OA
ATOM     84  O   UNL A   1      32.498  34.361  28.088  1.00  0.00    -0.744 OA
ENDBRANCH  80  81
ENDBRANCH  48  73
BRANCH  60  85
ATOM     85  C   UNL A   1      39.671  34.032  37.270  1.00  0.00     0.058 A 
ATOM     86  C   UNL A   1      38.985  33.685  38.443  1.00  0.00     0.135 A 
ATOM     87  C   UNL A   1      40.230  35.319  37.195  1.00  0.00     0.135 A 
ATOM     88  F   UNL A   1      38.424  32.471  38.565  1.00  0.00    -0.206 F 
ATOM     89  C   UNL A   1      38.838  34.586  39.494  1.00  0.00     0.059 A 
ATOM     90  C   UNL A   1      40.123  36.226  38.245  1.00  0.00     0.059 A 
ATOM     91  F   UNL A   1      40.904  35.701  36.099  1.00  0.00    -0.206 F 
ATOM     92  C   UNL A   1      39.414  35.854  39.386  1.00  0.00     0.060 A 
BRANCH  92  93
ATOM     93  S   UNL A   1      39.248  37.000  40.771  1.00  0.00     0.124 S 
ATOM     94  O   UNL A   1      38.215  36.348  41.569  1.00  0.00    -0.237 OA
ATOM     95  O   UNL A   1      40.591  36.993  41.343  1.00  0.00    -0.237 OA
ATOM     96  O   UNL A   1      38.851  38.251  40.132  1.00  0.00    -0.744 OA
ENDBRANCH  92  93
ENDBRANCH  60  85
ENDBRANCH  34  35
ENDBRANCH  26  29
ENDBRANCH  24  25
ENDBRANCH  23  24
ENDBRANCH   1  23
TORSDOF 18
ENDMDL
MODEL 3
REMARK VINA RESULT:     -11.5      6.484     12.218
REMARK SMILES COc1ccc2cc([C@H](C)C(=O)NCCCCCCNC(=O)c3ccc(-c4c5nc(c(-c6c(F)cc(S(=O)(=O)[O-])cc6F)c6ccc([nH]6)c(-c6c(F)cc(S(=O)(=O)[O-])cc6F)c6nc(c(-c7c(F)cc(S(=O)(=O)[O-])cc7F)c7ccc4[nH]7)C=C6)C=C5)cc3)ccc2c1
REMARK SMILES IDX 17 1 16 2 15 3 14 4 13 5 11 6 12 7 9 9 10 10 8 11 3 12 4 13
REMARK SMILES IDX 92 14 5 15 91 16 6 17 90 18 7 19 89 20 2 21 1 22 18 23 19 24
REMARK SMILES IDX 20 25 21 26 22 28 23 29 24 30 88 31 25 32 87 33 26 34 27 35
REMARK SMILES IDX 28 36 81 37 29 38 86 39 80 40 82 41 30 42 85 43 79 44 78 45
REMARK SMILES IDX 31 47 65 48 44 49 64 50 45 51 48 52 63 53 83 54 46 55 47 56
REMARK SMILES IDX 62 58 84 59 49 60 32 61 33 62 42 63 34 64 35 65 41 66 43 67
REMARK SMILES IDX 36 68 37 69 38 70 39 71 40 72 66 73 67 74 76 75 68 76 69 77
REMARK SMILES IDX 75 78 77 79 70 80 71 81 72 82 73 83 74 84 50 85 51 86 60 87
REMARK SMILES IDX 52 88 53 89 59 90 61 91 54 92 55 93 56 94 57 95 58 96
REMARK H PARENT 13 8 20 27 82 46 48 57
REMARK Flexibility Score: inf
ROOT
ATOM      1  C   UNL A   1      40.520  21.616  26.554  1.00  0.00     0.002 C 
ENDROOT
BRANCH   1   2
ATOM      2  C   UNL A   1      39.054  21.857  26.180  1.00  0.00     0.002 C 
BRANCH   2   3
ATOM      3  C   UNL A   1      38.612  23.320  26.177  1.00  0.00     0.021 C 
BRANCH   3   4
ATOM      4  C   UNL A   1      37.156  23.549  25.790  1.00  0.00     0.116 C 
BRANCH   4   5
ATOM      5  N   UNL A   1      36.263  22.561  26.354  1.00  0.00    -0.356 N 
ATOM      6  C   UNL A   1      35.028  22.161  25.941  1.00  0.00     0.227 C 
ATOM      7  O   UNL A   1      34.521  21.200  26.536  1.00  0.00    -0.274 OA
ATOM      8  H   UNL A   1      36.600  22.107  27.160  1.00  0.00     0.163 HD
BRANCH   6   9
ATOM      9  C   UNL A   1      34.255  22.863  24.814  1.00  0.00     0.105 C 
ATOM     10  C   UNL A   1      33.498  21.885  23.913  1.00  0.00     0.023 C 
BRANCH   9  11
ATOM     11  C   UNL A   1      33.496  24.099  25.280  1.00  0.00    -0.035 A 
ATOM     12  C   UNL A   1      32.194  28.871  26.477  1.00  0.00     0.119 A 
ATOM     13  C   UNL A   1      33.365  28.974  25.731  1.00  0.00     0.047 A 
ATOM     14  C   UNL A   1      31.648  27.619  26.754  1.00  0.00     0.055 A 
ATOM     15  C   UNL A   1      33.992  27.816  25.261  1.00  0.00     0.012 A 
ATOM     16  C   UNL A   1      32.244  26.455  26.249  1.00  0.00    -0.015 A 
ATOM     17  C   UNL A   1      33.448  26.547  25.519  1.00  0.00    -0.018 A 
ATOM     18  C   UNL A   1      31.659  25.200  26.442  1.00  0.00     0.009 A 
ATOM     19  C   UNL A   1      34.073  25.367  25.076  1.00  0.00     0.013 A 
ATOM     20  C   UNL A   1      32.255  24.046  25.925  1.00  0.00     0.005 A 
BRANCH  12  21
ATOM     21  O   UNL A   1      31.568  29.952  27.034  1.00  0.00    -0.497 OA
ATOM     22  C   UNL A   1      32.406  31.102  27.102  1.00  0.00     0.278 C 
ENDBRANCH  12  21
ENDBRANCH   9  11
ENDBRANCH   6   9
ENDBRANCH   4   5
ENDBRANCH   3   4
ENDBRANCH   2   3
ENDBRANCH   1   2
BRANCH   1  23
ATOM     23  C   UNL A   1      40.954  22.164  27.916  1.00  0.00     0.021 C 
BRANCH  23  24
ATOM     24  C   UNL A   1      42.064  23.209  27.872  1.00  0.00     0.116 C 
BRANCH  24  25
ATOM     25  N   UNL A   1      42.151  23.868  26.579  1.00  0.00    -0.352 N 
ATOM     26  C   UNL A   1      41.852  25.164  26.242  1.00  0.00     0.251 C 
ATOM     27  H   UNL A   1      42.471  23.303  25.839  1.00  0.00     0.163 HD
ATOM     28  O   UNL A   1      41.813  25.495  25.058  1.00  0.00    -0.269 OA
BRANCH  26  29
ATOM     29  C   UNL A   1      41.555  26.153  27.300  1.00  0.00     0.039 A 
ATOM     30  C   UNL A   1      40.468  25.932  28.148  1.00  0.00     0.014 A 
ATOM     31  C   UNL A   1      42.348  27.294  27.455  1.00  0.00     0.014 A 
ATOM     32  C   UNL A   1      40.210  26.825  29.190  1.00  0.00     0.010 A 
ATOM     33  C   UNL A   1      42.136  28.140  28.541  1.00  0.00     0.010 A 
ATOM     34  C   UNL A   1      41.063  27.918  29.416  1.00  0.00    -0.014 A 
BRANCH  34  35
ATOM     35  C   UNL A   1      40.853  28.836  30.566  1.00  0.00     0.031 A 
ATOM     36  C   UNL A   1      41.699  28.707  31.804  1.00  0.00     0.074 A 
ATOM     37  C   UNL A   1      39.858  29.744  30.519  1.00  0.00     0.049 A 
ATOM     38  N   UNL A   1      41.636  29.383  32.922  1.00  0.00    -0.248 NA
ATOM     39  C   UNL A   1      42.735  27.663  31.793  1.00  0.00     0.031 C 
ATOM     40  C   UNL A   1      38.945  29.939  29.391  1.00  0.00     0.029 A 
ATOM     41  N   UNL A   1      39.443  30.669  31.445  1.00  0.00    -0.354 N 
ATOM     42  C   UNL A   1      42.606  28.835  33.753  1.00  0.00     0.074 A 
ATOM     43  C   UNL A   1      43.206  27.736  33.028  1.00  0.00     0.031 C 
ATOM     44  C   UNL A   1      38.106  30.949  29.674  1.00  0.00     0.029 A 
ATOM     45  C   UNL A   1      38.387  31.441  31.018  1.00  0.00     0.049 A 
ATOM     46  H   UNL A   1      39.863  30.771  32.329  1.00  0.00     0.167 HD
ATOM     47  C   UNL A   1      42.976  29.224  34.998  1.00  0.00     0.037 A 
ATOM     48  C   UNL A   1      37.721  32.431  31.641  1.00  0.00     0.037 A 
ATOM     49  C   UNL A   1      42.382  30.331  35.703  1.00  0.00     0.049 A 
ATOM     50  C   UNL A   1      38.132  32.830  33.033  1.00  0.00     0.074 A 
ATOM     51  C   UNL A   1      42.731  30.851  36.937  1.00  0.00     0.029 A 
ATOM     52  N   UNL A   1      41.307  31.078  35.244  1.00  0.00    -0.354 N 
ATOM     53  N   UNL A   1      39.103  32.351  33.775  1.00  0.00    -0.248 NA
ATOM     54  C   UNL A   1      37.361  33.905  33.670  1.00  0.00     0.031 C 
ATOM     55  C   UNL A   1      41.827  31.870  37.253  1.00  0.00     0.029 A 
ATOM     56  C   UNL A   1      40.955  32.031  36.187  1.00  0.00     0.049 A 
ATOM     57  H   UNL A   1      40.859  30.951  34.377  1.00  0.00     0.167 HD
ATOM     58  C   UNL A   1      39.079  33.089  34.954  1.00  0.00     0.074 A 
ATOM     59  C   UNL A   1      38.003  34.051  34.821  1.00  0.00     0.031 C 
ATOM     60  C   UNL A   1      39.880  32.984  36.044  1.00  0.00     0.037 A 
BRANCH  47  61
ATOM     61  C   UNL A   1      44.059  28.430  35.681  1.00  0.00     0.058 A 
ATOM     62  C   UNL A   1      45.422  28.663  35.436  1.00  0.00     0.135 A 
ATOM     63  C   UNL A   1      43.727  27.421  36.602  1.00  0.00     0.135 A 
ATOM     64  F   UNL A   1      45.801  29.606  34.559  1.00  0.00    -0.206 F 
ATOM     65  C   UNL A   1      46.413  27.893  36.036  1.00  0.00     0.059 A 
ATOM     66  C   UNL A   1      44.702  26.662  37.241  1.00  0.00     0.059 A 
ATOM     67  F   UNL A   1      42.441  27.157  36.881  1.00  0.00    -0.206 F 
ATOM     68  C   UNL A   1      46.043  26.889  36.934  1.00  0.00     0.060 A 
BRANCH  68  69
ATOM     69  S   UNL A   1      47.338  25.877  37.681  1.00  0.00     0.124 S 
ATOM     70  O   UNL A   1      48.212  25.637  36.537  1.00  0.00    -0.237 OA
ATOM     71  O   UNL A   1      47.871  26.764  38.710  1.00  0.00    -0.237 OA
ATOM     72  O   UNL A   1      46.615  24.709  38.175  1.00  0.00    -0.744 OA
ENDBRANCH  68  69
ENDBRANCH  47  61
BRANCH  48  73
ATOM     73  C   UNL A   1      36.624  33.145  30.934  1.00  0.00     0.058 A 
ATOM     74  C   UNL A   1      35.283  32.906  31.271  1.00  0.00     0.135 A 
ATOM     75  C   UNL A   1      36.888  34.098  29.937  1.00  0.00     0.135 A 
ATOM     76  F   UNL A   1      34.981  31.998  32.212  1.00  0.00    -0.206 F 
ATOM     77  C   UNL A   1      34.242  33.579  30.642  1.00  0.00     0.059 A 
ATOM     78  C   UNL A   1      35.864  34.802  29.311  1.00  0.00     0.059 A 
ATOM     79  F   UNL A   1      38.153  34.374  29.587  1.00  0.00    -0.206 F 
ATOM     80  C   UNL A   1      34.542  34.531  29.668  1.00  0.00     0.060 A 
BRANCH  80  81
ATOM     81  S   UNL A   1      33.183  35.445  28.906  1.00  0.00     0.124 S 
ATOM     82  O   UNL A   1      32.500  34.392  28.164  1.00  0.00    -0.237 OA
ATOM     83  O   UNL A   1      32.477  35.966  30.073  1.00  0.00    -0.237 OA
ATOM     84  O   UNL A   1      33.866  36.448  28.096  1.00  0.00    -0.744 OA
ENDBRANCH  80  81
ENDBRANCH  48  73
BRANCH  60  85
ATOM     85  C   UNL A   1      39.650  33.956  37.171  1.00  0.00     0.058 A 
ATOM     86  C   UNL A   1      38.918  33.605  38.316  1.00  0.00     0.135 A 
ATOM     87  C   UNL A   1      40.215  35.241  37.124  1.00  0.00     0.135 A 
ATOM     88  F   UNL A   1      38.350  32.392  38.410  1.00  0.00    -0.206 F 
ATOM     89  C   UNL A   1      38.734  34.502  39.365  1.00  0.00     0.059 A 
ATOM     90  C   UNL A   1      40.070  36.143  38.174  1.00  0.00     0.059 A 
ATOM     91  F   UNL A   1      40.932  35.626  36.057  1.00  0.00    -0.206 F 
ATOM     92  C   UNL A   1      39.317  35.767  39.286  1.00  0.00     0.060 A 
BRANCH  92  93
ATOM     93  S   UNL A   1      39.101  36.907  40.668  1.00  0.00     0.124 S 
ATOM     94  O   UNL A   1      38.407  36.066  41.637  1.00  0.00    -0.237 OA
ATOM     95  O   UNL A   1      40.479  37.255  41.003  1.00  0.00    -0.237 OA
ATOM     96  O   UNL A   1      38.308  37.991  40.096  1.00  0.00    -0.744 OA
ENDBRANCH  92  93
ENDBRANCH  60  85
ENDBRANCH  34  35
ENDBRANCH  26  29
ENDBRANCH  24  25
ENDBRANCH  23  24
ENDBRANCH   1  23
TORSDOF 18
ENDMDL
