MODEL 1
REMARK VINA RESULT:     -12.1      0.000      0.000
REMARK SMILES O=C(CC[N@@H+]1C[C@@H](c2ccccc2)[C@@H]2[C@H]1[C@H]1CC[N@H+]2CC1)NCCCCCCNC(=O)c1ccc(-c2c3nc(c(-c4c(F)cc(S(=O)(=O)[O-])cc4F)c4ccc([nH]4)c(-c4c(F)cc(S(=O)(=O)[O-])cc4F)c4nc(c(-c5c(F)cc(S(=O)(=O)[O-])cc5F)c5ccc2[nH]5)C=C4)C=C3)cc1
REMARK SMILES IDX 25 1 24 2 23 3 22 4 1 5 2 6 3 8 4 9 5 10 6 11 15 12 7 14
REMARK SMILES IDX 14 15 16 16 19 17 17 18 21 19 18 20 20 21 8 23 9 24 13 25
REMARK SMILES IDX 10 26 12 27 11 28 26 29 27 30 28 31 29 32 30 33 31 35 32 36
REMARK SMILES IDX 33 37 97 38 34 39 96 40 35 41 36 42 37 43 90 44 38 45 95 46
REMARK SMILES IDX 89 47 91 48 39 49 94 50 88 51 87 52 40 54 74 55 53 56 73 57
REMARK SMILES IDX 54 58 57 59 72 60 92 61 55 62 56 63 71 65 93 66 58 67 41 68
REMARK SMILES IDX 42 69 51 70 43 71 44 72 50 73 52 74 45 75 46 76 47 77 48 78
REMARK SMILES IDX 49 79 75 80 76 81 85 82 77 83 78 84 84 85 86 86 79 87 80 88
REMARK SMILES IDX 81 89 82 90 83 91 59 92 60 93 69 94 61 95 62 96 68 97 70 98
REMARK SMILES IDX 63 99 64 100 65 101 66 102 67 103
REMARK H PARENT 22 7 5 13 19 22 29 34 91 53 57 64
REMARK Flexibility Score: inf
ROOT
ATOM      1  C   UNL A   1      33.987  28.053  24.240  1.00  0.00     0.002 C 
ENDROOT
BRANCH   1   2
ATOM      2  C   UNL A   1      33.508  27.455  22.894  1.00  0.00     0.021 C 
BRANCH   2   3
ATOM      3  C   UNL A   1      32.204  26.626  22.808  1.00  0.00     0.116 C 
BRANCH   3   4
ATOM      4  N   UNL A   1      31.916  25.870  24.023  1.00  0.00    -0.356 N 
ATOM      5  O   UNL A   1      29.786  26.584  24.441  1.00  0.00    -0.275 OA
ATOM      6  C   UNL A   1      30.751  25.898  24.776  1.00  0.00     0.225 C 
ATOM      7  H   UNL A   1      32.629  25.272  24.345  1.00  0.00     0.163 HD
BRANCH   6   8
ATOM      8  C   UNL A   1      30.732  25.123  26.144  1.00  0.00     0.161 C 
BRANCH   8   9
ATOM      9  C   UNL A   1      31.778  23.984  26.445  1.00  0.00     0.272 C 
BRANCH   9  10
ATOM     10  N   UNL A   1      32.326  23.112  25.344  1.00  0.00    -0.326 N 
ATOM     11  C   UNL A   1      31.848  21.672  25.313  1.00  0.00     0.277 C 
ATOM     12  C   UNL A   1      33.774  23.127  25.422  1.00  0.00     0.247 C 
ATOM     13  H   UNL A   1      31.963  23.518  24.481  1.00  0.00     0.348 HD
ATOM     14  C   UNL A   1      32.950  20.548  25.526  1.00  0.00     0.139 C 
ATOM     15  C   UNL A   1      34.170  21.382  25.964  1.00  0.00     0.256 C 
ATOM     16  C   UNL A   1      34.882  23.651  24.128  1.00  0.00     0.065 C 
ATOM     17  N   UNL A   1      35.762  20.969  25.693  1.00  0.00    -0.327 N 
ATOM     18  C   UNL A   1      34.840  22.264  24.019  1.00  0.00     0.071 C 
ATOM     19  C   UNL A   1      36.549  23.134  23.798  1.00  0.00     0.071 C 
ATOM     20  C   UNL A   1      35.794  22.333  25.708  1.00  0.00     0.263 C 
ATOM     21  C   UNL A   1      36.780  21.340  24.418  1.00  0.00     0.263 C 
ATOM     22  H   UNL A   1      35.966  20.040  26.064  1.00  0.00     0.348 HD
BRANCH  14  23
ATOM     23  C   UNL A   1      33.407  19.514  24.488  1.00  0.00    -0.033 A 
ATOM     24  C   UNL A   1      34.413  18.564  24.705  1.00  0.00     0.004 A 
ATOM     25  C   UNL A   1      32.547  19.316  23.382  1.00  0.00     0.004 A 
ATOM     26  C   UNL A   1      34.413  17.361  23.981  1.00  0.00     0.000 A 
ATOM     27  C   UNL A   1      32.557  18.125  22.655  1.00  0.00     0.000 A 
ATOM     28  C   UNL A   1      33.466  17.128  22.983  1.00  0.00     0.000 A 
ENDBRANCH  14  23
ENDBRANCH   9  10
ENDBRANCH   8   9
ENDBRANCH   6   8
ENDBRANCH   3   4
ENDBRANCH   2   3
ENDBRANCH   1   2
BRANCH   1  29
ATOM     29  C   UNL A   1      33.204  29.227  24.838  1.00  0.00     0.002 C 
BRANCH  29  30
ATOM     30  C   UNL A   1      32.481  29.049  26.166  1.00  0.00     0.021 C 
BRANCH  30  31
ATOM     31  C   UNL A   1      33.377  29.097  27.410  1.00  0.00     0.116 C 
BRANCH  31  32
ATOM     32  N   UNL A   1      33.628  30.425  27.990  1.00  0.00    -0.352 N 
ATOM     33  C   UNL A   1      34.823  30.948  28.459  1.00  0.00     0.251 C 
ATOM     34  H   UNL A   1      32.846  31.020  28.053  1.00  0.00     0.163 HD
ATOM     35  O   UNL A   1      34.881  32.081  28.930  1.00  0.00    -0.269 OA
BRANCH  33  36
ATOM     36  C   UNL A   1      36.020  30.083  28.436  1.00  0.00     0.039 A 
ATOM     37  C   UNL A   1      36.866  30.101  27.325  1.00  0.00     0.014 A 
ATOM     38  C   UNL A   1      36.397  29.429  29.606  1.00  0.00     0.014 A 
ATOM     39  C   UNL A   1      38.167  29.603  27.454  1.00  0.00     0.010 A 
ATOM     40  C   UNL A   1      37.724  29.073  29.773  1.00  0.00     0.010 A 
ATOM     41  C   UNL A   1      38.633  29.170  28.707  1.00  0.00    -0.014 A 
BRANCH  41  42
ATOM     42  C   UNL A   1      40.059  28.823  28.948  1.00  0.00     0.031 A 
ATOM     43  C   UNL A   1      40.997  29.878  29.477  1.00  0.00     0.074 A 
ATOM     44  C   UNL A   1      40.538  27.613  28.584  1.00  0.00     0.049 A 
ATOM     45  N   UNL A   1      42.298  29.848  29.591  1.00  0.00    -0.248 NA
ATOM     46  C   UNL A   1      40.392  31.163  29.871  1.00  0.00     0.031 C 
ATOM     47  C   UNL A   1      39.760  26.533  27.967  1.00  0.00     0.029 A 
ATOM     48  N   UNL A   1      41.806  27.091  28.668  1.00  0.00    -0.354 N 
ATOM     49  C   UNL A   1      42.665  31.114  30.034  1.00  0.00     0.074 A 
ATOM     50  C   UNL A   1      41.462  31.912  30.080  1.00  0.00     0.031 C 
ATOM     51  C   UNL A   1      40.557  25.470  27.766  1.00  0.00     0.029 A 
ATOM     52  C   UNL A   1      41.909  25.799  28.204  1.00  0.00     0.049 A 
ATOM     53  H   UNL A   1      42.571  27.596  29.028  1.00  0.00     0.167 HD
ATOM     54  C   UNL A   1      43.883  31.560  30.421  1.00  0.00     0.037 A 
ATOM     55  C   UNL A   1      42.973  24.975  28.144  1.00  0.00     0.037 A 
ATOM     56  C   UNL A   1      45.063  30.739  30.444  1.00  0.00     0.049 A 
ATOM     57  C   UNL A   1      44.301  25.467  28.660  1.00  0.00     0.074 A 
ATOM     58  C   UNL A   1      46.340  31.075  30.856  1.00  0.00     0.029 A 
ATOM     59  N   UNL A   1      45.098  29.405  30.069  1.00  0.00    -0.354 N 
ATOM     60  N   UNL A   1      44.619  26.656  29.113  1.00  0.00    -0.248 NA
ATOM     61  C   UNL A   1      45.409  24.501  28.675  1.00  0.00     0.031 C 
ATOM     62  C   UNL A   1      47.150  29.942  30.727  1.00  0.00     0.029 A 
ATOM     63  C   UNL A   1      46.370  28.896  30.263  1.00  0.00     0.049 A 
ATOM     64  H   UNL A   1      44.332  28.896  29.718  1.00  0.00     0.167 HD
ATOM     65  C   UNL A   1      45.952  26.569  29.501  1.00  0.00     0.074 A 
ATOM     66  C   UNL A   1      46.377  25.211  29.239  1.00  0.00     0.031 C 
ATOM     67  C   UNL A   1      46.755  27.528  30.025  1.00  0.00     0.037 A 
BRANCH  54  68
ATOM     68  C   UNL A   1      43.974  32.981  30.900  1.00  0.00     0.058 A 
ATOM     69  C   UNL A   1      43.792  33.304  32.256  1.00  0.00     0.135 A 
ATOM     70  C   UNL A   1      44.244  34.030  30.008  1.00  0.00     0.135 A 
ATOM     71  F   UNL A   1      43.508  32.342  33.148  1.00  0.00    -0.206 F 
ATOM     72  C   UNL A   1      43.835  34.619  32.703  1.00  0.00     0.059 A 
ATOM     73  C   UNL A   1      44.323  35.351  30.439  1.00  0.00     0.059 A 
ATOM     74  F   UNL A   1      44.423  33.778  28.702  1.00  0.00    -0.206 F 
ATOM     75  C   UNL A   1      44.100  35.637  31.787  1.00  0.00     0.060 A 
BRANCH  75  76
ATOM     76  S   UNL A   1      44.155  37.338  32.386  1.00  0.00     0.124 S 
ATOM     77  O   UNL A   1      43.130  37.312  33.425  1.00  0.00    -0.237 OA
ATOM     78  O   UNL A   1      45.530  37.459  32.857  1.00  0.00    -0.237 OA
ATOM     79  O   UNL A   1      43.829  38.125  31.201  1.00  0.00    -0.744 OA
ENDBRANCH  75  76
ENDBRANCH  54  68
BRANCH  55  80
ATOM     80  C   UNL A   1      42.830  23.587  27.625  1.00  0.00     0.058 A 
ATOM     81  C   UNL A   1      42.995  23.309  26.259  1.00  0.00     0.135 A 
ATOM     82  C   UNL A   1      42.502  22.518  28.471  1.00  0.00     0.135 A 
ATOM     83  F   UNL A   1      43.310  24.298  25.408  1.00  0.00    -0.206 F 
ATOM     84  C   UNL A   1      42.802  22.031  25.744  1.00  0.00     0.059 A 
ATOM     85  C   UNL A   1      42.327  21.225  27.983  1.00  0.00     0.059 A 
ATOM     86  F   UNL A   1      42.356  22.724  29.789  1.00  0.00    -0.206 F 
ATOM     87  C   UNL A   1      42.461  20.996  26.614  1.00  0.00     0.060 A 
BRANCH  87  88
ATOM     88  S   UNL A   1      42.221  19.337  25.940  1.00  0.00     0.124 S 
ATOM     89  O   UNL A   1      42.706  18.503  27.033  1.00  0.00    -0.237 OA
ATOM     90  O   UNL A   1      40.781  19.304  25.702  1.00  0.00    -0.237 OA
ATOM     91  O   UNL A   1      43.045  19.345  24.735  1.00  0.00    -0.744 OA
ENDBRANCH  87  88
ENDBRANCH  55  80
BRANCH  67  92
ATOM     92  C   UNL A   1      48.148  27.125  30.410  1.00  0.00     0.058 A 
ATOM     93  C   UNL A   1      49.210  27.174  29.495  1.00  0.00     0.135 A 
ATOM     94  C   UNL A   1      48.429  26.730  31.727  1.00  0.00     0.135 A 
ATOM     95  F   UNL A   1      48.992  27.544  28.224  1.00  0.00    -0.206 F 
ATOM     96  C   UNL A   1      50.502  26.818  29.867  1.00  0.00     0.059 A 
ATOM     97  C   UNL A   1      49.718  26.392  32.127  1.00  0.00     0.059 A 
ATOM     98  F   UNL A   1      47.448  26.678  32.642  1.00  0.00    -0.206 F 
ATOM     99  C   UNL A   1      50.745  26.426  31.185  1.00  0.00     0.060 A 
BRANCH  99 100
ATOM    100  S   UNL A   1      52.429  25.990  31.664  1.00  0.00     0.124 S 
ATOM    101  O   UNL A   1      52.244  24.642  32.191  1.00  0.00    -0.237 OA
ATOM    102  O   UNL A   1      53.150  26.082  30.399  1.00  0.00    -0.237 OA
ATOM    103  O   UNL A   1      52.776  27.009  32.650  1.00  0.00    -0.744 OA
ENDBRANCH  99 100
ENDBRANCH  67  92
ENDBRANCH  41  42
ENDBRANCH  33  36
ENDBRANCH  31  32
ENDBRANCH  30  31
ENDBRANCH  29  30
ENDBRANCH   1  29
TORSDOF 19
ENDMDL
MODEL 2
REMARK VINA RESULT:     -11.9      4.809     10.768
REMARK SMILES O=C(CC[N@@H+]1C[C@@H](c2ccccc2)[C@@H]2[C@H]1[C@H]1CC[N@H+]2CC1)NCCCCCCNC(=O)c1ccc(-c2c3nc(c(-c4c(F)cc(S(=O)(=O)[O-])cc4F)c4ccc([nH]4)c(-c4c(F)cc(S(=O)(=O)[O-])cc4F)c4nc(c(-c5c(F)cc(S(=O)(=O)[O-])cc5F)c5ccc2[nH]5)C=C4)C=C3)cc1
REMARK SMILES IDX 25 1 24 2 23 3 22 4 1 5 2 6 3 8 4 9 5 10 6 11 15 12 7 14
REMARK SMILES IDX 14 15 16 16 19 17 17 18 21 19 18 20 20 21 8 23 9 24 13 25
REMARK SMILES IDX 10 26 12 27 11 28 26 29 27 30 28 31 29 32 30 33 31 35 32 36
REMARK SMILES IDX 33 37 97 38 34 39 96 40 35 41 36 42 37 43 90 44 38 45 95 46
REMARK SMILES IDX 89 47 91 48 39 49 94 50 88 51 87 52 40 54 74 55 53 56 73 57
REMARK SMILES IDX 54 58 57 59 72 60 92 61 55 62 56 63 71 65 93 66 58 67 41 68
REMARK SMILES IDX 42 69 51 70 43 71 44 72 50 73 52 74 45 75 46 76 47 77 48 78
REMARK SMILES IDX 49 79 75 80 76 81 85 82 77 83 78 84 84 85 86 86 79 87 80 88
REMARK SMILES IDX 81 89 82 90 83 91 59 92 60 93 69 94 61 95 62 96 68 97 70 98
REMARK SMILES IDX 63 99 64 100 65 101 66 102 67 103
REMARK H PARENT 22 7 5 13 19 22 29 34 91 53 57 64
REMARK Flexibility Score: inf
ROOT
ATOM      1  C   UNL A   1      38.905  21.499  25.785  1.00  0.00     0.002 C 
ENDROOT
BRANCH   1   2
ATOM      2  C   UNL A   1      37.610  22.018  25.113  1.00  0.00     0.021 C 
BRANCH   2   3
ATOM      3  C   UNL A   1      36.279  21.238  25.237  1.00  0.00     0.116 C 
BRANCH   3   4
ATOM      4  N   UNL A   1      35.119  22.100  25.450  1.00  0.00    -0.356 N 
ATOM      5  O   UNL A   1      33.543  20.945  24.266  1.00  0.00    -0.275 OA
ATOM      6  C   UNL A   1      33.837  21.925  24.950  1.00  0.00     0.225 C 
ATOM      7  H   UNL A   1      35.264  22.895  26.012  1.00  0.00     0.163 HD
BRANCH   6   8
ATOM      8  C   UNL A   1      32.789  23.075  25.174  1.00  0.00     0.161 C 
BRANCH   8   9
ATOM      9  C   UNL A   1      32.712  24.305  24.193  1.00  0.00     0.272 C 
BRANCH   9  10
ATOM     10  N   UNL A   1      31.696  25.401  24.390  1.00  0.00    -0.326 N 
ATOM     11  C   UNL A   1      30.976  25.894  23.148  1.00  0.00     0.277 C 
ATOM     12  C   UNL A   1      32.350  26.525  25.033  1.00  0.00     0.247 C 
ATOM     13  H   UNL A   1      30.961  24.980  24.959  1.00  0.00     0.348 HD
ATOM     14  C   UNL A   1      31.208  27.412  22.742  1.00  0.00     0.139 C 
ATOM     15  C   UNL A   1      32.359  27.818  23.682  1.00  0.00     0.256 C 
ATOM     16  C   UNL A   1      31.883  27.248  26.593  1.00  0.00     0.065 C 
ATOM     17  N   UNL A   1      32.626  29.356  24.265  1.00  0.00    -0.327 N 
ATOM     18  C   UNL A   1      31.290  28.063  25.633  1.00  0.00     0.071 C 
ATOM     19  C   UNL A   1      32.093  28.916  27.167  1.00  0.00     0.071 C 
ATOM     20  C   UNL A   1      33.127  28.559  25.252  1.00  0.00     0.263 C 
ATOM     21  C   UNL A   1      32.086  30.099  25.664  1.00  0.00     0.263 C 
ATOM     22  H   UNL A   1      32.699  30.028  23.500  1.00  0.00     0.348 HD
BRANCH  14  23
ATOM     23  C   UNL A   1      30.152  28.526  22.748  1.00  0.00    -0.033 A 
ATOM     24  C   UNL A   1      30.267  29.731  22.043  1.00  0.00     0.004 A 
ATOM     25  C   UNL A   1      28.871  28.172  23.233  1.00  0.00     0.004 A 
ATOM     26  C   UNL A   1      29.115  30.432  21.653  1.00  0.00     0.000 A 
ATOM     27  C   UNL A   1      27.727  28.877  22.855  1.00  0.00     0.000 A 
ATOM     28  C   UNL A   1      27.847  29.987  22.029  1.00  0.00     0.000 A 
ENDBRANCH  14  23
ENDBRANCH   9  10
ENDBRANCH   8   9
ENDBRANCH   6   8
ENDBRANCH   3   4
ENDBRANCH   2   3
ENDBRANCH   1   2
BRANCH   1  29
ATOM     29  C   UNL A   1      39.665  22.435  26.732  1.00  0.00     0.002 C 
BRANCH  29  30
ATOM     30  C   UNL A   1      41.080  22.079  27.164  1.00  0.00     0.021 C 
BRANCH  30  31
ATOM     31  C   UNL A   1      42.137  23.156  26.890  1.00  0.00     0.116 C 
BRANCH  31  32
ATOM     32  N   UNL A   1      41.800  24.168  25.879  1.00  0.00    -0.352 N 
ATOM     33  C   UNL A   1      41.591  25.527  26.056  1.00  0.00     0.251 C 
ATOM     34  H   UNL A   1      41.712  23.839  24.955  1.00  0.00     0.163 HD
ATOM     35  O   UNL A   1      41.304  26.256  25.109  1.00  0.00    -0.269 OA
BRANCH  33  36
ATOM     36  C   UNL A   1      41.660  26.070  27.427  1.00  0.00     0.039 A 
ATOM     37  C   UNL A   1      42.726  26.895  27.793  1.00  0.00     0.014 A 
ATOM     38  C   UNL A   1      40.555  25.926  28.262  1.00  0.00     0.014 A 
ATOM     39  C   UNL A   1      42.599  27.707  28.924  1.00  0.00     0.010 A 
ATOM     40  C   UNL A   1      40.374  26.832  29.292  1.00  0.00     0.010 A 
ATOM     41  C   UNL A   1      41.384  27.748  29.628  1.00  0.00    -0.014 A 
BRANCH  41  42
ATOM     42  C   UNL A   1      41.125  28.736  30.710  1.00  0.00     0.031 A 
ATOM     43  C   UNL A   1      41.937  28.672  31.978  1.00  0.00     0.074 A 
ATOM     44  C   UNL A   1      40.094  29.604  30.609  1.00  0.00     0.049 A 
ATOM     45  N   UNL A   1      41.762  29.309  33.106  1.00  0.00    -0.248 NA
ATOM     46  C   UNL A   1      43.056  27.714  32.000  1.00  0.00     0.031 C 
ATOM     47  C   UNL A   1      39.166  29.705  29.478  1.00  0.00     0.029 A 
ATOM     48  N   UNL A   1      39.643  30.562  31.483  1.00  0.00    -0.354 N 
ATOM     49  C   UNL A   1      42.725  28.805  33.973  1.00  0.00     0.074 A 
ATOM     50  C   UNL A   1      43.416  27.748  33.272  1.00  0.00     0.031 C 
ATOM     51  C   UNL A   1      38.285  30.693  29.711  1.00  0.00     0.029 A 
ATOM     52  C   UNL A   1      38.559  31.273  31.021  1.00  0.00     0.049 A 
ATOM     53  H   UNL A   1      40.058  30.725  32.361  1.00  0.00     0.167 HD
ATOM     54  C   UNL A   1      43.044  29.217  35.223  1.00  0.00     0.037 A 
ATOM     55  C   UNL A   1      37.869  32.282  31.589  1.00  0.00     0.037 A 
ATOM     56  C   UNL A   1      42.402  30.318  35.888  1.00  0.00     0.049 A 
ATOM     57  C   UNL A   1      38.298  32.780  32.945  1.00  0.00     0.074 A 
ATOM     58  C   UNL A   1      42.672  30.848  37.136  1.00  0.00     0.029 A 
ATOM     59  N   UNL A   1      41.383  31.080  35.338  1.00  0.00    -0.354 N 
ATOM     60  N   UNL A   1      39.237  32.315  33.734  1.00  0.00    -0.248 NA
ATOM     61  C   UNL A   1      37.587  33.950  33.480  1.00  0.00     0.031 C 
ATOM     62  C   UNL A   1      41.812  31.932  37.344  1.00  0.00     0.029 A 
ATOM     63  C   UNL A   1      41.028  32.092  36.213  1.00  0.00     0.049 A 
ATOM     64  H   UNL A   1      40.972  30.925  34.457  1.00  0.00     0.167 HD
ATOM     65  C   UNL A   1      39.255  33.158  34.840  1.00  0.00     0.074 A 
ATOM     66  C   UNL A   1      38.240  34.165  34.614  1.00  0.00     0.031 C 
ATOM     67  C   UNL A   1      40.038  33.103  35.946  1.00  0.00     0.037 A 
BRANCH  54  68
ATOM     68  C   UNL A   1      44.170  28.504  35.915  1.00  0.00     0.058 A 
ATOM     69  C   UNL A   1      45.505  28.901  35.728  1.00  0.00     0.135 A 
ATOM     70  C   UNL A   1      43.924  27.419  36.771  1.00  0.00     0.135 A 
ATOM     71  F   UNL A   1      45.799  29.918  34.903  1.00  0.00    -0.206 F 
ATOM     72  C   UNL A   1      46.558  28.224  36.333  1.00  0.00     0.059 A 
ATOM     73  C   UNL A   1      44.961  26.746  37.412  1.00  0.00     0.059 A 
ATOM     74  F   UNL A   1      42.668  26.996  36.983  1.00  0.00    -0.206 F 
ATOM     75  C   UNL A   1      46.276  27.146  37.171  1.00  0.00     0.060 A 
BRANCH  75  76
ATOM     76  S   UNL A   1      47.655  26.281  37.950  1.00  0.00     0.124 S 
ATOM     77  O   UNL A   1      47.497  24.936  37.405  1.00  0.00    -0.237 OA
ATOM     78  O   UNL A   1      48.809  27.030  37.465  1.00  0.00    -0.237 OA
ATOM     79  O   UNL A   1      47.377  26.417  39.377  1.00  0.00    -0.744 OA
ENDBRANCH  75  76
ENDBRANCH  54  68
BRANCH  55  80
ATOM     80  C   UNL A   1      36.736  32.927  30.869  1.00  0.00     0.058 A 
ATOM     81  C   UNL A   1      36.969  33.780  29.779  1.00  0.00     0.135 A 
ATOM     82  C   UNL A   1      35.406  32.728  31.269  1.00  0.00     0.135 A 
ATOM     83  F   UNL A   1      38.223  34.003  29.359  1.00  0.00    -0.206 F 
ATOM     84  C   UNL A   1      35.929  34.444  29.135  1.00  0.00     0.059 A 
ATOM     85  C   UNL A   1      34.347  33.362  30.624  1.00  0.00     0.059 A 
ATOM     86  F   UNL A   1      35.126  31.903  32.290  1.00  0.00    -0.206 F 
ATOM     87  C   UNL A   1      34.620  34.233  29.570  1.00  0.00     0.060 A 
BRANCH  87  88
ATOM     88  S   UNL A   1      33.274  35.091  28.723  1.00  0.00     0.124 S 
ATOM     89  O   UNL A   1      32.449  35.520  29.845  1.00  0.00    -0.237 OA
ATOM     90  O   UNL A   1      33.982  36.149  28.010  1.00  0.00    -0.237 OA
ATOM     91  O   UNL A   1      32.699  34.051  27.875  1.00  0.00    -0.744 OA
ENDBRANCH  87  88
ENDBRANCH  55  80
BRANCH  67  92
ATOM     92  C   UNL A   1      39.874  34.196  36.960  1.00  0.00     0.058 A 
ATOM     93  C   UNL A   1      39.053  34.042  38.087  1.00  0.00     0.135 A 
ATOM     94  C   UNL A   1      40.588  35.397  36.824  1.00  0.00     0.135 A 
ATOM     95  F   UNL A   1      38.349  32.912  38.261  1.00  0.00    -0.206 F 
ATOM     96  C   UNL A   1      38.923  35.053  39.032  1.00  0.00     0.059 A 
ATOM     97  C   UNL A   1      40.492  36.413  37.769  1.00  0.00     0.059 A 
ATOM     98  F   UNL A   1      41.396  35.588  35.769  1.00  0.00    -0.206 F 
ATOM     99  C   UNL A   1      39.646  36.236  38.863  1.00  0.00     0.060 A 
BRANCH  99 100
ATOM    100  S   UNL A   1      39.491  37.533  40.108  1.00  0.00     0.124 S 
ATOM    101  O   UNL A   1      38.544  38.440  39.469  1.00  0.00    -0.237 OA
ATOM    102  O   UNL A   1      38.984  36.801  41.264  1.00  0.00    -0.237 OA
ATOM    103  O   UNL A   1      40.854  38.038  40.243  1.00  0.00    -0.744 OA
ENDBRANCH  99 100
ENDBRANCH  67  92
ENDBRANCH  41  42
ENDBRANCH  33  36
ENDBRANCH  31  32
ENDBRANCH  30  31
ENDBRANCH  29  30
ENDBRANCH   1  29
TORSDOF 19
ENDMDL
MODEL 3
REMARK VINA RESULT:     -11.7      2.435      3.282
REMARK SMILES O=C(CC[N@@H+]1C[C@@H](c2ccccc2)[C@@H]2[C@H]1[C@H]1CC[N@H+]2CC1)NCCCCCCNC(=O)c1ccc(-c2c3nc(c(-c4c(F)cc(S(=O)(=O)[O-])cc4F)c4ccc([nH]4)c(-c4c(F)cc(S(=O)(=O)[O-])cc4F)c4nc(c(-c5c(F)cc(S(=O)(=O)[O-])cc5F)c5ccc2[nH]5)C=C4)C=C3)cc1
REMARK SMILES IDX 25 1 24 2 23 3 22 4 1 5 2 6 3 8 4 9 5 10 6 11 15 12 7 14
REMARK SMILES IDX 14 15 16 16 19 17 17 18 21 19 18 20 20 21 8 23 9 24 13 25
REMARK SMILES IDX 10 26 12 27 11 28 26 29 27 30 28 31 29 32 30 33 31 35 32 36
REMARK SMILES IDX 33 37 97 38 34 39 96 40 35 41 36 42 37 43 90 44 38 45 95 46
REMARK SMILES IDX 89 47 91 48 39 49 94 50 88 51 87 52 40 54 74 55 53 56 73 57
REMARK SMILES IDX 54 58 57 59 72 60 92 61 55 62 56 63 71 65 93 66 58 67 41 68
REMARK SMILES IDX 42 69 51 70 43 71 44 72 50 73 52 74 45 75 46 76 47 77 48 78
REMARK SMILES IDX 49 79 75 80 76 81 85 82 77 83 78 84 84 85 86 86 79 87 80 88
REMARK SMILES IDX 81 89 82 90 83 91 59 92 60 93 69 94 61 95 62 96 68 97 70 98
REMARK SMILES IDX 63 99 64 100 65 101 66 102 67 103
REMARK H PARENT 22 7 5 13 19 22 29 34 91 53 57 64
REMARK Flexibility Score: inf
ROOT
ATOM      1  C   UNL A   1      32.573  29.836  27.100  1.00  0.00     0.002 C 
ENDROOT
BRANCH   1   2
ATOM      2  C   UNL A   1      31.876  30.144  25.752  1.00  0.00     0.021 C 
BRANCH   2   3
ATOM      3  C   UNL A   1      31.462  29.005  24.790  1.00  0.00     0.116 C 
BRANCH   3   4
ATOM      4  N   UNL A   1      31.085  27.773  25.478  1.00  0.00    -0.356 N 
ATOM      5  O   UNL A   1      32.368  26.269  24.332  1.00  0.00    -0.275 OA
ATOM      6  C   UNL A   1      31.534  26.488  25.210  1.00  0.00     0.225 C 
ATOM      7  H   UNL A   1      30.439  27.866  26.215  1.00  0.00     0.163 HD
BRANCH   6   8
ATOM      8  C   UNL A   1      30.858  25.292  25.973  1.00  0.00     0.161 C 
BRANCH   8   9
ATOM      9  C   UNL A   1      31.676  23.994  26.332  1.00  0.00     0.272 C 
BRANCH   9  10
ATOM     10  N   UNL A   1      32.250  23.107  25.256  1.00  0.00    -0.326 N 
ATOM     11  C   UNL A   1      31.778  21.665  25.237  1.00  0.00     0.277 C 
ATOM     12  C   UNL A   1      33.696  23.129  25.364  1.00  0.00     0.247 C 
ATOM     13  H   UNL A   1      31.904  23.499  24.380  1.00  0.00     0.348 HD
ATOM     14  C   UNL A   1      32.880  20.549  25.491  1.00  0.00     0.139 C 
ATOM     15  C   UNL A   1      34.087  21.394  25.941  1.00  0.00     0.256 C 
ATOM     16  C   UNL A   1      34.828  23.638  24.086  1.00  0.00     0.065 C 
ATOM     17  N   UNL A   1      35.686  20.983  25.709  1.00  0.00    -0.327 N 
ATOM     18  C   UNL A   1      34.794  22.249  23.997  1.00  0.00     0.071 C 
ATOM     19  C   UNL A   1      36.504  23.123  23.798  1.00  0.00     0.071 C 
ATOM     20  C   UNL A   1      35.712  22.347  25.704  1.00  0.00     0.263 C 
ATOM     21  C   UNL A   1      36.729  21.339  24.451  1.00  0.00     0.263 C 
ATOM     22  H   UNL A   1      35.885  20.062  26.099  1.00  0.00     0.348 HD
BRANCH  14  23
ATOM     23  C   UNL A   1      33.362  19.501  24.478  1.00  0.00    -0.033 A 
ATOM     24  C   UNL A   1      34.338  18.532  24.744  1.00  0.00     0.004 A 
ATOM     25  C   UNL A   1      32.548  19.314  23.336  1.00  0.00     0.004 A 
ATOM     26  C   UNL A   1      34.347  17.326  24.026  1.00  0.00     0.000 A 
ATOM     27  C   UNL A   1      32.567  18.119  22.615  1.00  0.00     0.000 A 
ATOM     28  C   UNL A   1      33.441  17.106  22.988  1.00  0.00     0.000 A 
ENDBRANCH  14  23
ENDBRANCH   9  10
ENDBRANCH   8   9
ENDBRANCH   6   8
ENDBRANCH   3   4
ENDBRANCH   2   3
ENDBRANCH   1   2
BRANCH   1  29
ATOM     29  C   UNL A   1      34.013  30.319  27.307  1.00  0.00     0.002 C 
BRANCH  29  30
ATOM     30  C   UNL A   1      35.156  29.314  27.265  1.00  0.00     0.021 C 
BRANCH  30  31
ATOM     31  C   UNL A   1      36.204  29.469  28.373  1.00  0.00     0.116 C 
BRANCH  31  32
ATOM     32  N   UNL A   1      35.739  30.043  29.645  1.00  0.00    -0.352 N 
ATOM     33  C   UNL A   1      36.495  30.578  30.676  1.00  0.00     0.251 C 
ATOM     34  H   UNL A   1      34.764  30.048  29.782  1.00  0.00     0.163 HD
ATOM     35  O   UNL A   1      35.964  31.017  31.694  1.00  0.00    -0.269 OA
BRANCH  33  36
ATOM     36  C   UNL A   1      37.966  30.552  30.548  1.00  0.00     0.039 A 
ATOM     37  C   UNL A   1      38.724  29.772  31.424  1.00  0.00     0.014 A 
ATOM     38  C   UNL A   1      38.551  31.134  29.427  1.00  0.00     0.014 A 
ATOM     39  C   UNL A   1      40.036  29.439  31.074  1.00  0.00     0.010 A 
ATOM     40  C   UNL A   1      39.795  30.685  29.015  1.00  0.00     0.010 A 
ATOM     41  C   UNL A   1      40.549  29.818  29.822  1.00  0.00    -0.014 A 
BRANCH  41  42
ATOM     42  C   UNL A   1      41.857  29.324  29.315  1.00  0.00     0.031 A 
ATOM     43  C   UNL A   1      43.017  30.281  29.207  1.00  0.00     0.074 A 
ATOM     44  C   UNL A   1      41.974  28.063  28.843  1.00  0.00     0.049 A 
ATOM     45  N   UNL A   1      44.178  30.113  28.633  1.00  0.00    -0.248 NA
ATOM     46  C   UNL A   1      42.815  31.630  29.765  1.00  0.00     0.031 C 
ATOM     47  C   UNL A   1      40.902  27.063  28.795  1.00  0.00     0.029 A 
ATOM     48  N   UNL A   1      43.051  27.410  28.296  1.00  0.00    -0.354 N 
ATOM     49  C   UNL A   1      44.826  31.340  28.732  1.00  0.00     0.074 A 
ATOM     50  C   UNL A   1      43.894  32.264  29.337  1.00  0.00     0.031 C 
ATOM     51  C   UNL A   1      41.386  25.917  28.287  1.00  0.00     0.029 A 
ATOM     52  C   UNL A   1      42.790  26.107  27.937  1.00  0.00     0.049 A 
ATOM     53  H   UNL A   1      43.930  27.835  28.171  1.00  0.00     0.167 HD
ATOM     54  C   UNL A   1      46.099  31.659  28.401  1.00  0.00     0.037 A 
ATOM     55  C   UNL A   1      43.593  25.172  27.394  1.00  0.00     0.037 A 
ATOM     56  C   UNL A   1      47.045  30.717  27.869  1.00  0.00     0.049 A 
ATOM     57  C   UNL A   1      45.031  25.527  27.113  1.00  0.00     0.074 A 
ATOM     58  C   UNL A   1      48.372  30.920  27.536  1.00  0.00     0.029 A 
ATOM     59  N   UNL A   1      46.768  29.380  27.625  1.00  0.00    -0.354 N 
ATOM     60  N   UNL A   1      45.636  26.682  27.251  1.00  0.00    -0.248 NA
ATOM     61  C   UNL A   1      45.899  24.448  26.621  1.00  0.00     0.031 C 
ATOM     62  C   UNL A   1      48.899  29.705  27.087  1.00  0.00     0.029 A 
ATOM     63  C   UNL A   1      47.907  28.740  27.168  1.00  0.00     0.049 A 
ATOM     64  H   UNL A   1      45.893  28.950  27.757  1.00  0.00     0.167 HD
ATOM     65  C   UNL A   1      46.963  26.460  26.899  1.00  0.00     0.074 A 
ATOM     66  C   UNL A   1      47.074  25.059  26.552  1.00  0.00     0.031 C 
ATOM     67  C   UNL A   1      47.997  27.336  26.863  1.00  0.00     0.037 A 
BRANCH  54  68
ATOM     68  C   UNL A   1      46.544  33.070  28.662  1.00  0.00     0.058 A 
ATOM     69  C   UNL A   1      46.499  34.045  27.652  1.00  0.00     0.135 A 
ATOM     70  C   UNL A   1      47.018  33.457  29.926  1.00  0.00     0.135 A 
ATOM     71  F   UNL A   1      46.075  33.723  26.420  1.00  0.00    -0.206 F 
ATOM     72  C   UNL A   1      46.944  35.343  27.872  1.00  0.00     0.059 A 
ATOM     73  C   UNL A   1      47.441  34.760  30.177  1.00  0.00     0.059 A 
ATOM     74  F   UNL A   1      47.086  32.565  30.926  1.00  0.00    -0.206 F 
ATOM     75  C   UNL A   1      47.416  35.690  29.138  1.00  0.00     0.060 A 
BRANCH  75  76
ATOM     76  S   UNL A   1      47.988  37.381  29.406  1.00  0.00     0.124 S 
ATOM     77  O   UNL A   1      47.068  38.135  28.561  1.00  0.00    -0.237 OA
ATOM     78  O   UNL A   1      47.808  37.548  30.844  1.00  0.00    -0.237 OA
ATOM     79  O   UNL A   1      49.374  37.345  28.951  1.00  0.00    -0.744 OA
ENDBRANCH  75  76
ENDBRANCH  54  68
BRANCH  55  80
ATOM     80  C   UNL A   1      43.086  23.798  27.123  1.00  0.00     0.058 A 
ATOM     81  C   UNL A   1      43.039  22.835  28.143  1.00  0.00     0.135 A 
ATOM     82  C   UNL A   1      42.666  23.412  25.842  1.00  0.00     0.135 A 
ATOM     83  F   UNL A   1      43.431  23.155  29.385  1.00  0.00    -0.206 F 
ATOM     84  C   UNL A   1      42.630  21.527  27.895  1.00  0.00     0.059 A 
ATOM     85  C   UNL A   1      42.230  22.116  25.575  1.00  0.00     0.059 A 
ATOM     86  F   UNL A   1      42.668  24.301  24.837  1.00  0.00    -0.206 F 
ATOM     87  C   UNL A   1      42.233  21.176  26.605  1.00  0.00     0.060 A 
BRANCH  87  88
ATOM     88  S   UNL A   1      41.695  19.480  26.293  1.00  0.00     0.124 S 
ATOM     89  O   UNL A   1      42.578  19.089  25.201  1.00  0.00    -0.237 OA
ATOM     90  O   UNL A   1      41.944  18.835  27.578  1.00  0.00    -0.237 OA
ATOM     91  O   UNL A   1      40.286  19.637  25.942  1.00  0.00    -0.744 OA
ENDBRANCH  87  88
ENDBRANCH  55  80
BRANCH  67  92
ATOM     92  C   UNL A   1      49.348  26.791  26.500  1.00  0.00     0.058 A 
ATOM     93  C   UNL A   1      49.798  26.760  25.172  1.00  0.00     0.135 A 
ATOM     94  C   UNL A   1      50.219  26.340  27.503  1.00  0.00     0.135 A 
ATOM     95  F   UNL A   1      49.001  27.180  24.177  1.00  0.00    -0.206 F 
ATOM     96  C   UNL A   1      51.059  26.273  24.847  1.00  0.00     0.059 A 
ATOM     97  C   UNL A   1      51.494  25.871  27.204  1.00  0.00     0.059 A 
ATOM     98  F   UNL A   1      49.838  26.361  28.791  1.00  0.00    -0.206 F 
ATOM     99  C   UNL A   1      51.899  25.829  25.870  1.00  0.00     0.060 A 
BRANCH  99 100
ATOM    100  S   UNL A   1      53.543  25.221  25.441  1.00  0.00     0.124 S 
ATOM    101  O   UNL A   1      53.319  23.781  25.388  1.00  0.00    -0.237 OA
ATOM    102  O   UNL A   1      53.794  25.871  24.159  1.00  0.00    -0.237 OA
ATOM    103  O   UNL A   1      54.376  25.688  26.546  1.00  0.00    -0.744 OA
ENDBRANCH  99 100
ENDBRANCH  67  92
ENDBRANCH  41  42
ENDBRANCH  33  36
ENDBRANCH  31  32
ENDBRANCH  30  31
ENDBRANCH  29  30
ENDBRANCH   1  29
TORSDOF 19
ENDMDL
