MODEL 1
REMARK VINA RESULT:     -10.4      0.000      0.000
REMARK SMILES C[C@@H](Sc1nncn1C)[C@@H](C)C(=O)NCCCCCCNC(=O)c1ccc(-c2c3nc(c(-c4c(F)cc(S(=O)(=O)[O-])cc4F)c4ccc([nH]4)c(-c4c(F)cc(S(=O)(=O)[O-])cc4F)c4nc(c(-c5c(F)cc(S(=O)(=O)[O-])cc5F)c5ccc2[nH]5)C=C4)C=C3)cc1
REMARK SMILES IDX 17 1 16 2 15 3 14 4 12 5 13 6 10 8 11 9 2 10 1 11 3 12 4 13
REMARK SMILES IDX 5 14 8 15 6 16 7 17 9 18 18 19 19 20 20 21 21 22 22 23 23 25
REMARK SMILES IDX 24 26 25 27 89 28 26 29 88 30 27 31 28 32 29 33 82 34 30 35
REMARK SMILES IDX 87 36 81 37 83 38 31 39 86 40 80 41 79 42 32 44 66 45 45 46
REMARK SMILES IDX 65 47 46 48 49 49 64 50 84 51 47 52 48 53 63 55 85 56 50 57
REMARK SMILES IDX 33 58 34 59 43 60 35 61 36 62 42 63 44 64 37 65 38 66 39 67
REMARK SMILES IDX 40 68 41 69 67 70 68 71 77 72 69 73 70 74 76 75 78 76 71 77
REMARK SMILES IDX 72 78 73 79 74 80 75 81 51 82 52 83 61 84 53 85 54 86 60 87
REMARK SMILES IDX 62 88 55 89 56 90 57 91 58 92 59 93
REMARK H PARENT 14 7 21 24 83 43 49 54
REMARK Flexibility Score: inf
ROOT
ATOM      1  C   UNL A   1      34.937  22.906  25.149  1.00  0.00     0.002 C 
ENDROOT
BRANCH   1   2
ATOM      2  C   UNL A   1      33.750  23.841  25.413  1.00  0.00     0.021 C 
BRANCH   2   3
ATOM      3  C   UNL A   1      34.068  25.316  25.181  1.00  0.00     0.116 C 
BRANCH   3   4
ATOM      4  N   UNL A   1      34.249  25.573  23.767  1.00  0.00    -0.356 N 
ATOM      5  C   UNL A   1      33.427  26.114  22.835  1.00  0.00     0.223 C 
ATOM      6  O   UNL A   1      33.829  26.127  21.667  1.00  0.00    -0.275 OA
ATOM      7  H   UNL A   1      35.131  25.307  23.419  1.00  0.00     0.163 HD
BRANCH   5   8
ATOM      8  C   UNL A   1      32.119  26.800  23.205  1.00  0.00     0.088 C 
ATOM      9  C   UNL A   1      31.089  26.488  22.105  1.00  0.00     0.019 C 
BRANCH   8  10
ATOM     10  C   UNL A   1      32.201  28.299  23.608  1.00  0.00     0.064 C 
ATOM     11  C   UNL A   1      31.326  29.122  22.652  1.00  0.00     0.021 C 
BRANCH  10  12
ATOM     12  S   UNL A   1      31.541  28.580  25.295  1.00  0.00    -0.082 SA
BRANCH  12  13
ATOM     13  C   UNL A   1      32.714  29.567  26.109  1.00  0.00     0.191 A 
ATOM     14  N   UNL A   1      33.898  29.127  26.479  1.00  0.00    -0.124 NA
ATOM     15  N   UNL A   1      32.509  30.799  26.670  1.00  0.00    -0.312 N 
ATOM     16  N   UNL A   1      34.469  30.067  27.309  1.00  0.00    -0.138 NA
ATOM     17  C   UNL A   1      33.614  31.052  27.431  1.00  0.00     0.226 A 
ATOM     18  C   UNL A   1      31.394  31.696  26.557  1.00  0.00     0.153 C 
ENDBRANCH  12  13
ENDBRANCH  10  12
ENDBRANCH   8  10
ENDBRANCH   5   8
ENDBRANCH   3   4
ENDBRANCH   2   3
ENDBRANCH   1   2
BRANCH   1  19
ATOM     19  C   UNL A   1      36.085  23.014  26.159  1.00  0.00     0.002 C 
BRANCH  19  20
ATOM     20  C   UNL A   1      37.427  23.439  25.562  1.00  0.00     0.021 C 
BRANCH  20  21
ATOM     21  C   UNL A   1      38.365  24.117  26.553  1.00  0.00     0.116 C 
BRANCH  21  22
ATOM     22  N   UNL A   1      39.760  23.972  26.168  1.00  0.00    -0.352 N 
ATOM     23  C   UNL A   1      40.829  24.777  26.484  1.00  0.00     0.251 C 
ATOM     24  H   UNL A   1      39.967  23.191  25.606  1.00  0.00     0.163 HD
ATOM     25  O   UNL A   1      41.901  24.633  25.915  1.00  0.00    -0.269 OA
BRANCH  23  26
ATOM     26  C   UNL A   1      40.655  25.833  27.505  1.00  0.00     0.039 A 
ATOM     27  C   UNL A   1      39.715  25.651  28.519  1.00  0.00     0.014 A 
ATOM     28  C   UNL A   1      41.437  26.992  27.463  1.00  0.00     0.014 A 
ATOM     29  C   UNL A   1      39.596  26.609  29.528  1.00  0.00     0.010 A 
ATOM     30  C   UNL A   1      41.373  27.904  28.511  1.00  0.00     0.010 A 
ATOM     31  C   UNL A   1      40.445  27.728  29.549  1.00  0.00    -0.014 A 
BRANCH  31  32
ATOM     32  C   UNL A   1      40.371  28.741  30.633  1.00  0.00     0.031 A 
ATOM     33  C   UNL A   1      41.256  28.603  31.843  1.00  0.00     0.074 A 
ATOM     34  C   UNL A   1      39.464  29.735  30.565  1.00  0.00     0.049 A 
ATOM     35  N   UNL A   1      41.272  29.315  32.940  1.00  0.00    -0.248 NA
ATOM     36  C   UNL A   1      42.231  27.501  31.830  1.00  0.00     0.031 C 
ATOM     37  C   UNL A   1      38.525  29.950  29.461  1.00  0.00     0.029 A 
ATOM     38  N   UNL A   1      39.171  30.743  31.448  1.00  0.00    -0.354 N 
ATOM     39  C   UNL A   1      42.241  28.738  33.752  1.00  0.00     0.074 A 
ATOM     40  C   UNL A   1      42.751  27.583  33.045  1.00  0.00     0.031 C 
ATOM     41  C   UNL A   1      37.775  31.031  29.726  1.00  0.00     0.029 A 
ATOM     42  C   UNL A   1      38.146  31.561  31.035  1.00  0.00     0.049 A 
ATOM     43  H   UNL A   1      39.652  30.870  32.298  1.00  0.00     0.167 HD
ATOM     44  C   UNL A   1      42.683  29.146  34.964  1.00  0.00     0.037 A 
ATOM     45  C   UNL A   1      37.560  32.609  31.647  1.00  0.00     0.037 A 
ATOM     46  C   UNL A   1      42.187  30.312  35.648  1.00  0.00     0.049 A 
ATOM     47  C   UNL A   1      38.062  33.039  33.001  1.00  0.00     0.074 A 
ATOM     48  C   UNL A   1      42.606  30.842  36.856  1.00  0.00     0.029 A 
ATOM     49  N   UNL A   1      41.166  31.128  35.186  1.00  0.00    -0.354 N 
ATOM     50  N   UNL A   1      39.016  32.514  33.731  1.00  0.00    -0.248 NA
ATOM     51  C   UNL A   1      37.412  34.207  33.612  1.00  0.00     0.031 C 
ATOM     52  C   UNL A   1      41.801  31.948  37.149  1.00  0.00     0.029 A 
ATOM     53  C   UNL A   1      40.924  32.145  36.094  1.00  0.00     0.049 A 
ATOM     54  H   UNL A   1      40.684  31.003  34.336  1.00  0.00     0.167 HD
ATOM     55  C   UNL A   1      39.107  33.308  34.869  1.00  0.00     0.074 A 
ATOM     56  C   UNL A   1      38.112  34.352  34.728  1.00  0.00     0.031 C 
ATOM     57  C   UNL A   1      39.940  33.188  35.932  1.00  0.00     0.037 A 
BRANCH  44  58
ATOM     58  C   UNL A   1      43.755  28.327  35.632  1.00  0.00     0.058 A 
ATOM     59  C   UNL A   1      45.119  28.552  35.384  1.00  0.00     0.135 A 
ATOM     60  C   UNL A   1      43.417  27.327  36.558  1.00  0.00     0.135 A 
ATOM     61  F   UNL A   1      45.502  29.484  34.497  1.00  0.00    -0.206 F 
ATOM     62  C   UNL A   1      46.107  27.795  36.006  1.00  0.00     0.059 A 
ATOM     63  C   UNL A   1      44.388  26.580  37.216  1.00  0.00     0.059 A 
ATOM     64  F   UNL A   1      42.128  27.068  36.832  1.00  0.00    -0.206 F 
ATOM     65  C   UNL A   1      45.731  26.812  36.923  1.00  0.00     0.060 A 
BRANCH  65  66
ATOM     66  S   UNL A   1      47.026  25.844  37.727  1.00  0.00     0.124 S 
ATOM     67  O   UNL A   1      46.254  24.744  38.297  1.00  0.00    -0.237 OA
ATOM     68  O   UNL A   1      47.894  25.495  36.607  1.00  0.00    -0.237 OA
ATOM     69  O   UNL A   1      47.596  26.776  38.694  1.00  0.00    -0.744 OA
ENDBRANCH  65  66
ENDBRANCH  44  58
BRANCH  45  70
ATOM     70  C   UNL A   1      36.447  33.335  30.979  1.00  0.00     0.058 A 
ATOM     71  C   UNL A   1      35.129  33.225  31.445  1.00  0.00     0.135 A 
ATOM     72  C   UNL A   1      36.678  34.160  29.866  1.00  0.00     0.135 A 
ATOM     73  F   UNL A   1      34.854  32.444  32.501  1.00  0.00    -0.206 F 
ATOM     74  C   UNL A   1      34.076  33.889  30.823  1.00  0.00     0.059 A 
ATOM     75  C   UNL A   1      35.647  34.857  29.244  1.00  0.00     0.059 A 
ATOM     76  F   UNL A   1      37.924  34.315  29.390  1.00  0.00    -0.206 F 
ATOM     77  C   UNL A   1      34.346  34.706  29.724  1.00  0.00     0.060 A 
BRANCH  77  78
ATOM     78  S   UNL A   1      32.979  35.598  28.950  1.00  0.00     0.124 S 
ATOM     79  O   UNL A   1      32.184  35.981  30.110  1.00  0.00    -0.237 OA
ATOM     80  O   UNL A   1      33.674  36.682  28.263  1.00  0.00    -0.237 OA
ATOM     81  O   UNL A   1      32.379  34.595  28.075  1.00  0.00    -0.744 OA
ENDBRANCH  77  78
ENDBRANCH  45  70
BRANCH  57  82
ATOM     82  C   UNL A   1      39.858  34.235  37.008  1.00  0.00     0.058 A 
ATOM     83  C   UNL A   1      40.392  35.521  36.837  1.00  0.00     0.135 A 
ATOM     84  C   UNL A   1      39.172  33.965  38.204  1.00  0.00     0.135 A 
ATOM     85  F   UNL A   1      41.064  35.830  35.715  1.00  0.00    -0.206 F 
ATOM     86  C   UNL A   1      40.265  36.497  37.820  1.00  0.00     0.059 A 
ATOM     87  C   UNL A   1      39.005  34.934  39.188  1.00  0.00     0.059 A 
ATOM     88  F   UNL A   1      38.632  32.753  38.415  1.00  0.00    -0.206 F 
ATOM     89  C   UNL A   1      39.565  36.196  38.990  1.00  0.00     0.060 A 
BRANCH  89  90
ATOM     90  S   UNL A   1      39.366  37.486  40.237  1.00  0.00     0.124 S 
ATOM     91  O   UNL A   1      38.667  36.765  41.296  1.00  0.00    -0.237 OA
ATOM     92  O   UNL A   1      40.749  37.855  40.526  1.00  0.00    -0.237 OA
ATOM     93  O   UNL A   1      38.583  38.507  39.549  1.00  0.00    -0.744 OA
ENDBRANCH  89  90
ENDBRANCH  57  82
ENDBRANCH  31  32
ENDBRANCH  23  26
ENDBRANCH  21  22
ENDBRANCH  20  21
ENDBRANCH  19  20
ENDBRANCH   1  19
TORSDOF 19
ENDMDL
MODEL 2
REMARK VINA RESULT:     -10.3      4.753     10.495
REMARK SMILES C[C@@H](Sc1nncn1C)[C@@H](C)C(=O)NCCCCCCNC(=O)c1ccc(-c2c3nc(c(-c4c(F)cc(S(=O)(=O)[O-])cc4F)c4ccc([nH]4)c(-c4c(F)cc(S(=O)(=O)[O-])cc4F)c4nc(c(-c5c(F)cc(S(=O)(=O)[O-])cc5F)c5ccc2[nH]5)C=C4)C=C3)cc1
REMARK SMILES IDX 17 1 16 2 15 3 14 4 12 5 13 6 10 8 11 9 2 10 1 11 3 12 4 13
REMARK SMILES IDX 5 14 8 15 6 16 7 17 9 18 18 19 19 20 20 21 21 22 22 23 23 25
REMARK SMILES IDX 24 26 25 27 89 28 26 29 88 30 27 31 28 32 29 33 82 34 30 35
REMARK SMILES IDX 87 36 81 37 83 38 31 39 86 40 80 41 79 42 32 44 66 45 45 46
REMARK SMILES IDX 65 47 46 48 49 49 64 50 84 51 47 52 48 53 63 55 85 56 50 57
REMARK SMILES IDX 33 58 34 59 43 60 35 61 36 62 42 63 44 64 37 65 38 66 39 67
REMARK SMILES IDX 40 68 41 69 67 70 68 71 77 72 69 73 70 74 76 75 78 76 71 77
REMARK SMILES IDX 72 78 73 79 74 80 75 81 51 82 52 83 61 84 53 85 54 86 60 87
REMARK SMILES IDX 62 88 55 89 56 90 57 91 58 92 59 93
REMARK H PARENT 14 7 21 24 83 43 49 54
REMARK Flexibility Score: inf
ROOT
ATOM      1  C   UNL A   1      31.698  25.103  26.869  1.00  0.00     0.002 C 
ENDROOT
BRANCH   1   2
ATOM      2  C   UNL A   1      31.731  23.636  26.421  1.00  0.00     0.021 C 
BRANCH   2   3
ATOM      3  C   UNL A   1      32.551  22.732  27.338  1.00  0.00     0.116 C 
BRANCH   3   4
ATOM      4  N   UNL A   1      33.954  23.089  27.268  1.00  0.00    -0.356 N 
ATOM      5  C   UNL A   1      34.887  22.898  26.303  1.00  0.00     0.223 C 
ATOM      6  O   UNL A   1      36.045  23.238  26.563  1.00  0.00    -0.275 OA
ATOM      7  H   UNL A   1      34.290  23.557  28.066  1.00  0.00     0.163 HD
BRANCH   5   8
ATOM      8  C   UNL A   1      34.524  22.410  24.907  1.00  0.00     0.088 C 
ATOM      9  C   UNL A   1      35.027  20.962  24.762  1.00  0.00     0.019 C 
BRANCH   8  10
ATOM     10  C   UNL A   1      34.891  23.344  23.719  1.00  0.00     0.064 C 
ATOM     11  C   UNL A   1      36.231  22.890  23.123  1.00  0.00     0.021 C 
BRANCH  10  12
ATOM     12  S   UNL A   1      33.653  23.235  22.371  1.00  0.00    -0.082 SA
BRANCH  12  13
ATOM     13  C   UNL A   1      33.000  24.832  22.192  1.00  0.00     0.191 A 
ATOM     14  N   UNL A   1      33.711  25.864  21.790  1.00  0.00    -0.124 NA
ATOM     15  N   UNL A   1      31.789  25.284  22.644  1.00  0.00    -0.312 N 
ATOM     16  N   UNL A   1      32.972  27.008  22.000  1.00  0.00    -0.138 NA
ATOM     17  C   UNL A   1      31.831  26.644  22.534  1.00  0.00     0.226 A 
ATOM     18  C   UNL A   1      30.664  24.560  23.162  1.00  0.00     0.153 C 
ENDBRANCH  12  13
ENDBRANCH  10  12
ENDBRANCH   8  10
ENDBRANCH   5   8
ENDBRANCH   3   4
ENDBRANCH   2   3
ENDBRANCH   1   2
BRANCH   1  19
ATOM     19  C   UNL A   1      32.637  26.037  26.099  1.00  0.00     0.002 C 
BRANCH  19  20
ATOM     20  C   UNL A   1      32.502  27.519  26.454  1.00  0.00     0.021 C 
BRANCH  20  21
ATOM     21  C   UNL A   1      33.822  28.207  26.779  1.00  0.00     0.116 C 
BRANCH  21  22
ATOM     22  N   UNL A   1      33.632  29.597  27.159  1.00  0.00    -0.352 N 
ATOM     23  C   UNL A   1      34.471  30.417  27.876  1.00  0.00     0.251 C 
ATOM     24  H   UNL A   1      32.788  30.008  26.862  1.00  0.00     0.163 HD
ATOM     25  O   UNL A   1      34.077  31.498  28.288  1.00  0.00    -0.269 OA
BRANCH  23  26
ATOM     26  C   UNL A   1      35.849  29.961  28.161  1.00  0.00     0.039 A 
ATOM     27  C   UNL A   1      36.826  30.091  27.174  1.00  0.00     0.014 A 
ATOM     28  C   UNL A   1      36.172  29.423  29.411  1.00  0.00     0.014 A 
ATOM     29  C   UNL A   1      38.145  29.731  27.459  1.00  0.00     0.010 A 
ATOM     30  C   UNL A   1      37.498  29.141  29.718  1.00  0.00     0.010 A 
ATOM     31  C   UNL A   1      38.498  29.282  28.742  1.00  0.00    -0.014 A 
BRANCH  31  32
ATOM     32  C   UNL A   1      39.900  28.934  29.087  1.00  0.00     0.031 A 
ATOM     33  C   UNL A   1      40.785  29.963  29.737  1.00  0.00     0.074 A 
ATOM     34  C   UNL A   1      40.395  27.727  28.752  1.00  0.00     0.049 A 
ATOM     35  N   UNL A   1      42.060  29.896  30.021  1.00  0.00    -0.248 NA
ATOM     36  C   UNL A   1      40.161  31.250  30.087  1.00  0.00     0.031 C 
ATOM     37  C   UNL A   1      39.646  26.660  28.084  1.00  0.00     0.029 A 
ATOM     38  N   UNL A   1      41.651  27.197  28.912  1.00  0.00    -0.354 N 
ATOM     39  C   UNL A   1      42.393  31.131  30.563  1.00  0.00     0.074 A 
ATOM     40  C   UNL A   1      41.201  31.949  30.516  1.00  0.00     0.031 C 
ATOM     41  C   UNL A   1      40.452  25.600  27.909  1.00  0.00     0.029 A 
ATOM     42  C   UNL A   1      41.783  25.924  28.410  1.00  0.00     0.049 A 
ATOM     43  H   UNL A   1      42.388  27.684  29.348  1.00  0.00     0.167 HD
ATOM     44  C   UNL A   1      43.578  31.540  31.075  1.00  0.00     0.037 A 
ATOM     45  C   UNL A   1      42.860  25.115  28.346  1.00  0.00     0.037 A 
ATOM     46  C   UNL A   1      44.752  30.710  31.141  1.00  0.00     0.049 A 
ATOM     47  C   UNL A   1      44.170  25.595  28.912  1.00  0.00     0.074 A 
ATOM     48  C   UNL A   1      45.987  31.011  31.690  1.00  0.00     0.029 A 
ATOM     49  N   UNL A   1      44.840  29.418  30.644  1.00  0.00    -0.354 N 
ATOM     50  N   UNL A   1      44.454  26.748  29.471  1.00  0.00    -0.248 NA
ATOM     51  C   UNL A   1      45.306  24.664  28.847  1.00  0.00     0.031 C 
ATOM     52  C   UNL A   1      46.836  29.919  31.476  1.00  0.00     0.029 A 
ATOM     53  C   UNL A   1      46.113  28.915  30.852  1.00  0.00     0.049 A 
ATOM     54  H   UNL A   1      44.104  28.930  30.208  1.00  0.00     0.167 HD
ATOM     55  C   UNL A   1      45.788  26.667  29.856  1.00  0.00     0.074 A 
ATOM     56  C   UNL A   1      46.253  25.349  29.471  1.00  0.00     0.031 C 
ATOM     57  C   UNL A   1      46.557  27.595  30.477  1.00  0.00     0.037 A 
BRANCH  44  58
ATOM     58  C   UNL A   1      43.665  32.946  31.604  1.00  0.00     0.058 A 
ATOM     59  C   UNL A   1      43.949  34.036  30.764  1.00  0.00     0.135 A 
ATOM     60  C   UNL A   1      43.426  33.214  32.962  1.00  0.00     0.135 A 
ATOM     61  F   UNL A   1      44.202  33.839  29.461  1.00  0.00    -0.206 F 
ATOM     62  C   UNL A   1      44.026  35.335  31.257  1.00  0.00     0.059 A 
ATOM     63  C   UNL A   1      43.465  34.508  33.471  1.00  0.00     0.059 A 
ATOM     64  F   UNL A   1      43.151  32.210  33.811  1.00  0.00    -0.206 F 
ATOM     65  C   UNL A   1      43.780  35.561  32.612  1.00  0.00     0.060 A 
BRANCH  65  66
ATOM     66  S   UNL A   1      43.875  37.253  33.234  1.00  0.00     0.124 S 
ATOM     67  O   UNL A   1      43.866  38.020  31.992  1.00  0.00    -0.237 OA
ATOM     68  O   UNL A   1      42.667  37.353  34.048  1.00  0.00    -0.237 OA
ATOM     69  O   UNL A   1      45.132  37.274  33.974  1.00  0.00    -0.744 OA
ENDBRANCH  65  66
ENDBRANCH  44  58
BRANCH  45  70
ATOM     70  C   UNL A   1      42.740  23.763  27.737  1.00  0.00     0.058 A 
ATOM     71  C   UNL A   1      42.503  22.631  28.530  1.00  0.00     0.135 A 
ATOM     72  C   UNL A   1      42.851  23.575  26.350  1.00  0.00     0.135 A 
ATOM     73  F   UNL A   1      42.396  22.756  29.862  1.00  0.00    -0.206 F 
ATOM     74  C   UNL A   1      42.400  21.359  27.977  1.00  0.00     0.059 A 
ATOM     75  C   UNL A   1      42.723  22.318  25.769  1.00  0.00     0.059 A 
ATOM     76  F   UNL A   1      43.061  24.627  25.542  1.00  0.00    -0.206 F 
ATOM     77  C   UNL A   1      42.508  21.213  26.592  1.00  0.00     0.060 A 
BRANCH  77  78
ATOM     78  S   UNL A   1      42.330  19.563  25.878  1.00  0.00     0.124 S 
ATOM     79  O   UNL A   1      43.315  19.600  24.804  1.00  0.00    -0.237 OA
ATOM     80  O   UNL A   1      42.653  18.705  27.013  1.00  0.00    -0.237 OA
ATOM     81  O   UNL A   1      40.933  19.532  25.455  1.00  0.00    -0.744 OA
ENDBRANCH  77  78
ENDBRANCH  45  70
BRANCH  57  82
ATOM     82  C   UNL A   1      47.968  27.213  30.831  1.00  0.00     0.058 A 
ATOM     83  C   UNL A   1      48.299  26.663  32.079  1.00  0.00     0.135 A 
ATOM     84  C   UNL A   1      48.992  27.337  29.877  1.00  0.00     0.135 A 
ATOM     85  F   UNL A   1      47.359  26.528  33.029  1.00  0.00    -0.206 F 
ATOM     86  C   UNL A   1      49.598  26.266  32.375  1.00  0.00     0.059 A 
ATOM     87  C   UNL A   1      50.292  26.918  30.140  1.00  0.00     0.059 A 
ATOM     88  F   UNL A   1      48.728  27.848  28.664  1.00  0.00    -0.206 F 
ATOM     89  C   UNL A   1      50.588  26.393  31.397  1.00  0.00     0.060 A 
BRANCH  89  90
ATOM     90  S   UNL A   1      52.260  25.830  31.780  1.00  0.00     0.124 S 
ATOM     91  O   UNL A   1      52.956  26.104  30.527  1.00  0.00    -0.237 OA
ATOM     92  O   UNL A   1      52.625  26.682  32.907  1.00  0.00    -0.237 OA
ATOM     93  O   UNL A   1      52.079  24.418  32.102  1.00  0.00    -0.744 OA
ENDBRANCH  89  90
ENDBRANCH  57  82
ENDBRANCH  31  32
ENDBRANCH  23  26
ENDBRANCH  21  22
ENDBRANCH  20  21
ENDBRANCH  19  20
ENDBRANCH   1  19
TORSDOF 19
ENDMDL
MODEL 3
REMARK VINA RESULT:     -10.3      6.855     11.992
REMARK SMILES C[C@@H](Sc1nncn1C)[C@@H](C)C(=O)NCCCCCCNC(=O)c1ccc(-c2c3nc(c(-c4c(F)cc(S(=O)(=O)[O-])cc4F)c4ccc([nH]4)c(-c4c(F)cc(S(=O)(=O)[O-])cc4F)c4nc(c(-c5c(F)cc(S(=O)(=O)[O-])cc5F)c5ccc2[nH]5)C=C4)C=C3)cc1
REMARK SMILES IDX 17 1 16 2 15 3 14 4 12 5 13 6 10 8 11 9 2 10 1 11 3 12 4 13
REMARK SMILES IDX 5 14 8 15 6 16 7 17 9 18 18 19 19 20 20 21 21 22 22 23 23 25
REMARK SMILES IDX 24 26 25 27 89 28 26 29 88 30 27 31 28 32 29 33 82 34 30 35
REMARK SMILES IDX 87 36 81 37 83 38 31 39 86 40 80 41 79 42 32 44 66 45 45 46
REMARK SMILES IDX 65 47 46 48 49 49 64 50 84 51 47 52 48 53 63 55 85 56 50 57
REMARK SMILES IDX 33 58 34 59 43 60 35 61 36 62 42 63 44 64 37 65 38 66 39 67
REMARK SMILES IDX 40 68 41 69 67 70 68 71 77 72 69 73 70 74 76 75 78 76 71 77
REMARK SMILES IDX 72 78 73 79 74 80 75 81 51 82 52 83 61 84 53 85 54 86 60 87
REMARK SMILES IDX 62 88 55 89 56 90 57 91 58 92 59 93
REMARK H PARENT 14 7 21 24 83 43 49 54
REMARK Flexibility Score: inf
ROOT
ATOM      1  C   UNL A   1      35.832  33.198  28.544  1.00  0.00     0.002 C 
ENDROOT
BRANCH   1   2
ATOM      2  C   UNL A   1      34.379  33.316  28.067  1.00  0.00     0.021 C 
BRANCH   2   3
ATOM      3  C   UNL A   1      33.707  31.970  27.809  1.00  0.00     0.116 C 
BRANCH   3   4
ATOM      4  N   UNL A   1      34.702  30.920  27.730  1.00  0.00    -0.356 N 
ATOM      5  C   UNL A   1      34.649  29.662  27.230  1.00  0.00     0.223 C 
ATOM      6  O   UNL A   1      35.648  28.951  27.382  1.00  0.00    -0.275 OA
ATOM      7  H   UNL A   1      35.577  31.167  28.107  1.00  0.00     0.163 HD
BRANCH   5   8
ATOM      8  C   UNL A   1      33.474  29.166  26.397  1.00  0.00     0.088 C 
ATOM      9  C   UNL A   1      32.326  28.808  27.358  1.00  0.00     0.019 C 
BRANCH   8  10
ATOM     10  C   UNL A   1      33.780  28.085  25.323  1.00  0.00     0.064 C 
ATOM     11  C   UNL A   1      32.828  26.897  25.525  1.00  0.00     0.021 C 
BRANCH  10  12
ATOM     12  S   UNL A   1      33.477  28.716  23.628  1.00  0.00    -0.082 SA
BRANCH  12  13
ATOM     13  C   UNL A   1      33.074  27.328  22.667  1.00  0.00     0.191 A 
ATOM     14  N   UNL A   1      33.971  26.599  22.038  1.00  0.00    -0.124 NA
ATOM     15  N   UNL A   1      31.828  26.948  22.247  1.00  0.00    -0.312 N 
ATOM     16  N   UNL A   1      33.312  25.747  21.178  1.00  0.00    -0.138 NA
ATOM     17  C   UNL A   1      32.029  25.986  21.300  1.00  0.00     0.226 A 
ATOM     18  C   UNL A   1      30.532  27.420  22.644  1.00  0.00     0.153 C 
ENDBRANCH  12  13
ENDBRANCH  10  12
ENDBRANCH   8  10
ENDBRANCH   5   8
ENDBRANCH   3   4
ENDBRANCH   2   3
ENDBRANCH   1   2
BRANCH   1  19
ATOM     19  C   UNL A   1      36.120  33.833  29.908  1.00  0.00     0.002 C 
BRANCH  19  20
ATOM     20  C   UNL A   1      37.569  33.710  30.382  1.00  0.00     0.021 C 
BRANCH  20  21
ATOM     21  C   UNL A   1      37.742  32.905  31.663  1.00  0.00     0.116 C 
BRANCH  21  22
ATOM     22  N   UNL A   1      36.812  31.791  31.736  1.00  0.00    -0.352 N 
ATOM     23  C   UNL A   1      36.917  30.542  31.169  1.00  0.00     0.251 C 
ATOM     24  H   UNL A   1      35.995  31.951  32.262  1.00  0.00     0.163 HD
ATOM     25  O   UNL A   1      35.956  29.787  31.152  1.00  0.00    -0.269 OA
BRANCH  23  26
ATOM     26  C   UNL A   1      38.202  30.136  30.560  1.00  0.00     0.039 A 
ATOM     27  C   UNL A   1      38.367  30.251  29.180  1.00  0.00     0.014 A 
ATOM     28  C   UNL A   1      39.244  29.659  31.361  1.00  0.00     0.014 A 
ATOM     29  C   UNL A   1      39.601  29.939  28.605  1.00  0.00     0.010 A 
ATOM     30  C   UNL A   1      40.494  29.426  30.798  1.00  0.00     0.010 A 
ATOM     31  C   UNL A   1      40.684  29.553  29.413  1.00  0.00    -0.014 A 
BRANCH  31  32
ATOM     32  C   UNL A   1      42.020  29.257  28.835  1.00  0.00     0.031 A 
ATOM     33  C   UNL A   1      42.333  27.865  28.356  1.00  0.00     0.074 A 
ATOM     34  C   UNL A   1      42.968  30.214  28.809  1.00  0.00     0.049 A 
ATOM     35  N   UNL A   1      43.465  27.376  27.920  1.00  0.00    -0.248 NA
ATOM     36  C   UNL A   1      41.235  26.885  28.402  1.00  0.00     0.031 C 
ATOM     37  C   UNL A   1      42.797  31.590  29.281  1.00  0.00     0.029 A 
ATOM     38  N   UNL A   1      44.272  30.172  28.382  1.00  0.00    -0.354 N 
ATOM     39  C   UNL A   1      43.222  26.033  27.658  1.00  0.00     0.074 A 
ATOM     40  C   UNL A   1      41.850  25.770  28.038  1.00  0.00     0.031 C 
ATOM     41  C   UNL A   1      43.944  32.263  29.100  1.00  0.00     0.029 A 
ATOM     42  C   UNL A   1      44.946  31.359  28.543  1.00  0.00     0.049 A 
ATOM     43  H   UNL A   1      44.685  29.366  27.995  1.00  0.00     0.167 HD
ATOM     44  C   UNL A   1      44.056  25.109  27.128  1.00  0.00     0.037 A 
ATOM     45  C   UNL A   1      46.230  31.680  28.286  1.00  0.00     0.037 A 
ATOM     46  C   UNL A   1      45.411  25.387  26.728  1.00  0.00     0.049 A 
ATOM     47  C   UNL A   1      47.143  30.632  27.705  1.00  0.00     0.074 A 
ATOM     48  C   UNL A   1      46.323  24.534  26.131  1.00  0.00     0.029 A 
ATOM     49  N   UNL A   1      46.050  26.609  26.885  1.00  0.00    -0.354 N 
ATOM     50  N   UNL A   1      46.881  29.381  27.414  1.00  0.00    -0.248 NA
ATOM     51  C   UNL A   1      48.524  31.041  27.413  1.00  0.00     0.031 C 
ATOM     52  C   UNL A   1      47.529  25.226  25.975  1.00  0.00     0.029 A 
ATOM     53  C   UNL A   1      47.350  26.527  26.416  1.00  0.00     0.049 A 
ATOM     54  H   UNL A   1      45.638  27.415  27.272  1.00  0.00     0.167 HD
ATOM     55  C   UNL A   1      48.052  28.863  26.869  1.00  0.00     0.074 A 
ATOM     56  C   UNL A   1      49.022  29.939  26.869  1.00  0.00     0.031 C 
ATOM     57  C   UNL A   1      48.300  27.613  26.407  1.00  0.00     0.037 A 
BRANCH  44  58
ATOM     58  C   UNL A   1      43.530  23.711  26.948  1.00  0.00     0.058 A 
ATOM     59  C   UNL A   1      43.355  22.841  28.037  1.00  0.00     0.135 A 
ATOM     60  C   UNL A   1      43.162  23.244  25.676  1.00  0.00     0.135 A 
ATOM     61  F   UNL A   1      43.704  23.226  29.275  1.00  0.00    -0.206 F 
ATOM     62  C   UNL A   1      42.866  21.550  27.867  1.00  0.00     0.059 A 
ATOM     63  C   UNL A   1      42.640  21.969  25.486  1.00  0.00     0.059 A 
ATOM     64  F   UNL A   1      43.309  24.033  24.598  1.00  0.00    -0.206 F 
ATOM     65  C   UNL A   1      42.509  21.124  26.587  1.00  0.00     0.060 A 
BRANCH  65  66
ATOM     66  S   UNL A   1      41.867  19.448  26.384  1.00  0.00     0.124 S 
ATOM     67  O   UNL A   1      42.353  18.802  27.599  1.00  0.00    -0.237 OA
ATOM     68  O   UNL A   1      40.426  19.673  26.320  1.00  0.00    -0.237 OA
ATOM     69  O   UNL A   1      42.485  18.995  25.143  1.00  0.00    -0.744 OA
ENDBRANCH  65  66
ENDBRANCH  44  58
BRANCH  45  70
ATOM     70  C   UNL A   1      46.722  33.057  28.559  1.00  0.00     0.058 A 
ATOM     71  C   UNL A   1      46.628  34.065  27.588  1.00  0.00     0.135 A 
ATOM     72  C   UNL A   1      47.289  33.397  29.798  1.00  0.00     0.135 A 
ATOM     73  F   UNL A   1      46.101  33.790  26.385  1.00  0.00    -0.206 F 
ATOM     74  C   UNL A   1      47.095  35.354  27.825  1.00  0.00     0.059 A 
ATOM     75  C   UNL A   1      47.737  34.685  30.070  1.00  0.00     0.059 A 
ATOM     76  F   UNL A   1      47.388  32.474  30.769  1.00  0.00    -0.206 F 
ATOM     77  C   UNL A   1      47.645  35.655  29.073  1.00  0.00     0.060 A 
BRANCH  77  78
ATOM     78  S   UNL A   1      48.209  37.343  29.386  1.00  0.00     0.124 S 
ATOM     79  O   UNL A   1      49.655  37.197  29.262  1.00  0.00    -0.237 OA
ATOM     80  O   UNL A   1      47.547  38.087  28.319  1.00  0.00    -0.237 OA
ATOM     81  O   UNL A   1      47.713  37.615  30.732  1.00  0.00    -0.744 OA
ENDBRANCH  77  78
ENDBRANCH  45  70
BRANCH  57  82
ATOM     82  C   UNL A   1      49.655  27.343  25.812  1.00  0.00     0.058 A 
ATOM     83  C   UNL A   1      50.764  27.014  26.607  1.00  0.00     0.135 A 
ATOM     84  C   UNL A   1      49.826  27.348  24.418  1.00  0.00     0.135 A 
ATOM     85  F   UNL A   1      50.656  27.001  27.946  1.00  0.00    -0.206 F 
ATOM     86  C   UNL A   1      51.999  26.717  26.041  1.00  0.00     0.059 A 
ATOM     87  C   UNL A   1      51.043  27.023  23.829  1.00  0.00     0.059 A 
ATOM     88  F   UNL A   1      48.795  27.646  23.611  1.00  0.00    -0.206 F 
ATOM     89  C   UNL A   1      52.128  26.719  24.650  1.00  0.00     0.060 A 
BRANCH  89  90
ATOM     90  S   UNL A   1      53.725  26.285  23.929  1.00  0.00     0.124 S 
ATOM     91  O   UNL A   1      53.351  25.981  22.551  1.00  0.00    -0.237 OA
ATOM     92  O   UNL A   1      54.496  27.509  24.121  1.00  0.00    -0.237 OA
ATOM     93  O   UNL A   1      54.161  25.144  24.727  1.00  0.00    -0.744 OA
ENDBRANCH  89  90
ENDBRANCH  57  82
ENDBRANCH  31  32
ENDBRANCH  23  26
ENDBRANCH  21  22
ENDBRANCH  20  21
ENDBRANCH  19  20
ENDBRANCH   1  19
TORSDOF 19
ENDMDL
