MODEL 1
REMARK VINA RESULT:     -10.5      0.000      0.000
REMARK SMILES [NH3+][C@@H](C(=O)NCCCCCCNC(=O)c1ccc(-c2c3nc(c(-c4c(F)cc(S(=O)(=O)[O-])cc4F)c4ccc([nH]4)c(-c4c(F)cc(S(=O)(=O)[O-])cc4F)c4nc(c(-c5c(F)cc(S(=O)(=O)[O-])cc5F)c5ccc2[nH]5)C=C4)C=C3)cc1)C(C(F)(F)F)C(F)(F)F
REMARK SMILES IDX 9 1 8 2 7 3 6 4 5 5 3 6 4 7 2 9 1 10 81 14 82 15 83 16 84 17
REMARK SMILES IDX 85 18 86 19 87 20 88 21 89 22 10 23 11 24 12 25 13 26 14 28
REMARK SMILES IDX 15 29 16 30 80 31 17 32 79 33 18 34 19 35 20 36 73 37 21 38
REMARK SMILES IDX 78 39 72 40 74 41 22 42 77 43 71 44 70 45 23 47 57 48 36 49
REMARK SMILES IDX 56 50 37 51 40 52 55 53 75 54 38 55 39 56 54 58 76 59 41 60
REMARK SMILES IDX 24 61 25 62 34 63 26 64 27 65 33 66 35 67 28 68 29 69 30 70
REMARK SMILES IDX 31 71 32 72 58 73 59 74 68 75 60 76 61 77 67 78 69 79 62 80
REMARK SMILES IDX 63 81 64 82 65 83 66 84 42 85 43 86 52 87 44 88 45 89 51 90
REMARK SMILES IDX 53 91 46 92 47 93 48 94 49 95 50 96
REMARK H PARENT 5 8 1 11 1 12 1 13 12 27 74 46 40 57
REMARK Flexibility Score: inf
ROOT
ATOM      1  C   UNL A   1      40.395  20.498  26.658  1.00  0.00     0.002 C 
ENDROOT
BRANCH   1   2
ATOM      2  C   UNL A   1      41.683  20.278  27.458  1.00  0.00     0.002 C 
BRANCH   2   3
ATOM      3  C   UNL A   1      42.460  19.004  27.097  1.00  0.00     0.021 C 
BRANCH   3   4
ATOM      4  C   UNL A   1      42.894  18.936  25.629  1.00  0.00     0.116 C 
BRANCH   4   5
ATOM      5  N   UNL A   1      44.344  18.973  25.536  1.00  0.00    -0.351 N 
ATOM      6  C   UNL A   1      45.156  20.025  25.236  1.00  0.00     0.279 C 
ATOM      7  O   UNL A   1      46.286  19.798  24.805  1.00  0.00    -0.268 OA
ATOM      8  H   UNL A   1      44.802  18.120  25.714  1.00  0.00     0.163 HD
BRANCH   6   9
ATOM      9  C   UNL A   1      44.612  21.464  25.366  1.00  0.00     0.292 C 
BRANCH   9  10
ATOM     10  N   UNL A   1      44.222  21.903  24.008  1.00  0.00    -0.346 N 
ATOM     11  H   UNL A   1      43.488  22.609  24.077  1.00  0.00     0.345 HD
ATOM     12  H   UNL A   1      43.877  21.103  23.478  1.00  0.00     0.345 HD
ATOM     13  H   UNL A   1      45.033  22.302  23.534  1.00  0.00     0.345 HD
ENDBRANCH   9  10
BRANCH   9  14
ATOM     14  C   UNL A   1      45.663  22.405  25.976  1.00  0.00     0.267 C 
BRANCH  14  15
ATOM     15  C   UNL A   1      46.191  23.378  24.958  1.00  0.00     0.406 C 
ATOM     16  F   UNL A   1      47.098  24.228  25.485  1.00  0.00    -0.170 F 
ATOM     17  F   UNL A   1      46.787  22.744  23.922  1.00  0.00    -0.170 F 
ATOM     18  F   UNL A   1      45.212  24.128  24.405  1.00  0.00    -0.170 F 
ENDBRANCH  14  15
BRANCH  14  19
ATOM     19  C   UNL A   1      45.068  23.269  27.058  1.00  0.00     0.406 C 
ATOM     20  F   UNL A   1      44.067  22.658  27.726  1.00  0.00    -0.170 F 
ATOM     21  F   UNL A   1      45.982  23.602  27.998  1.00  0.00    -0.170 F 
ATOM     22  F   UNL A   1      44.552  24.414  26.567  1.00  0.00    -0.170 F 
ENDBRANCH  14  19
ENDBRANCH   9  14
ENDBRANCH   6   9
ENDBRANCH   4   5
ENDBRANCH   3   4
ENDBRANCH   2   3
ENDBRANCH   1   2
BRANCH   1  23
ATOM     23  C   UNL A   1      39.839  21.922  26.711  1.00  0.00     0.021 C 
BRANCH  23  24
ATOM     24  C   UNL A   1      40.830  22.974  27.203  1.00  0.00     0.116 C 
BRANCH  24  25
ATOM     25  N   UNL A   1      41.291  23.837  26.126  1.00  0.00    -0.352 N 
ATOM     26  C   UNL A   1      41.455  25.201  26.110  1.00  0.00     0.251 C 
ATOM     27  H   UNL A   1      41.518  23.377  25.285  1.00  0.00     0.163 HD
ATOM     28  O   UNL A   1      41.656  25.782  25.046  1.00  0.00    -0.269 OA
BRANCH  26  29
ATOM     29  C   UNL A   1      41.363  25.969  27.369  1.00  0.00     0.039 A 
ATOM     30  C   UNL A   1      42.502  26.622  27.848  1.00  0.00     0.014 A 
ATOM     31  C   UNL A   1      40.156  26.059  28.069  1.00  0.00     0.014 A 
ATOM     32  C   UNL A   1      42.408  27.435  28.980  1.00  0.00     0.010 A 
ATOM     33  C   UNL A   1      40.049  26.921  29.159  1.00  0.00     0.010 A 
ATOM     34  C   UNL A   1      41.169  27.632  29.614  1.00  0.00    -0.014 A 
BRANCH  34  35
ATOM     35  C   UNL A   1      41.018  28.631  30.706  1.00  0.00     0.031 A 
ATOM     36  C   UNL A   1      41.835  28.522  31.965  1.00  0.00     0.074 A 
ATOM     37  C   UNL A   1      40.080  29.593  30.588  1.00  0.00     0.049 A 
ATOM     38  N   UNL A   1      41.779  29.258  33.045  1.00  0.00    -0.248 NA
ATOM     39  C   UNL A   1      42.828  27.437  32.030  1.00  0.00     0.031 C 
ATOM     40  C   UNL A   1      39.188  29.767  29.438  1.00  0.00     0.029 A 
ATOM     41  N   UNL A   1      39.702  30.596  31.448  1.00  0.00    -0.354 N 
ATOM     42  C   UNL A   1      42.715  28.720  33.922  1.00  0.00     0.074 A 
ATOM     43  C   UNL A   1      43.302  27.574  33.262  1.00  0.00     0.031 C 
ATOM     44  C   UNL A   1      38.378  30.814  29.659  1.00  0.00     0.029 A 
ATOM     45  C   UNL A   1      38.656  31.359  30.982  1.00  0.00     0.049 A 
ATOM     46  H   UNL A   1      40.140  30.753  32.316  1.00  0.00     0.167 HD
ATOM     47  C   UNL A   1      43.058  29.153  35.158  1.00  0.00     0.037 A 
ATOM     48  C   UNL A   1      37.979  32.369  31.565  1.00  0.00     0.037 A 
ATOM     49  C   UNL A   1      42.490  30.314  35.796  1.00  0.00     0.049 A 
ATOM     50  C   UNL A   1      38.379  32.818  32.946  1.00  0.00     0.074 A 
ATOM     51  C   UNL A   1      42.844  30.885  37.006  1.00  0.00     0.029 A 
ATOM     52  N   UNL A   1      41.446  31.071  35.288  1.00  0.00    -0.354 N 
ATOM     53  N   UNL A   1      39.338  32.361  33.714  1.00  0.00    -0.248 NA
ATOM     54  C   UNL A   1      37.606  33.920  33.539  1.00  0.00     0.031 C 
ATOM     55  C   UNL A   1      41.971  31.946  37.261  1.00  0.00     0.029 A 
ATOM     56  C   UNL A   1      41.113  32.075  36.182  1.00  0.00     0.049 A 
ATOM     57  H   UNL A   1      41.006  30.918  34.420  1.00  0.00     0.167 HD
ATOM     58  C   UNL A   1      39.294  33.130  34.873  1.00  0.00     0.074 A 
ATOM     59  C   UNL A   1      38.233  34.099  34.692  1.00  0.00     0.031 C 
ATOM     60  C   UNL A   1      40.057  33.037  35.989  1.00  0.00     0.037 A 
BRANCH  47  61
ATOM     61  C   UNL A   1      44.100  28.385  35.923  1.00  0.00     0.058 A 
ATOM     62  C   UNL A   1      43.760  27.315  36.763  1.00  0.00     0.135 A 
ATOM     63  C   UNL A   1      45.466  28.647  35.716  1.00  0.00     0.135 A 
ATOM     64  F   UNL A   1      42.471  27.030  37.007  1.00  0.00    -0.206 F 
ATOM     65  C   UNL A   1      44.734  26.530  37.372  1.00  0.00     0.059 A 
ATOM     66  C   UNL A   1      46.458  27.859  36.295  1.00  0.00     0.059 A 
ATOM     67  F   UNL A   1      45.847  29.661  34.924  1.00  0.00    -0.206 F 
ATOM     68  C   UNL A   1      46.080  26.802  37.121  1.00  0.00     0.060 A 
BRANCH  68  69
ATOM     69  S   UNL A   1      47.328  25.731  37.867  1.00  0.00     0.124 S 
ATOM     70  O   UNL A   1      47.887  25.072  36.691  1.00  0.00    -0.237 OA
ATOM     71  O   UNL A   1      48.203  26.692  38.532  1.00  0.00    -0.237 OA
ATOM     72  O   UNL A   1      46.553  24.872  38.757  1.00  0.00    -0.744 OA
ENDBRANCH  68  69
ENDBRANCH  47  61
BRANCH  48  73
ATOM     73  C   UNL A   1      36.831  33.010  30.865  1.00  0.00     0.058 A 
ATOM     74  C   UNL A   1      37.034  33.949  29.843  1.00  0.00     0.135 A 
ATOM     75  C   UNL A   1      35.506  32.724  31.232  1.00  0.00     0.135 A 
ATOM     76  F   UNL A   1      38.281  34.262  29.458  1.00  0.00    -0.206 F 
ATOM     77  C   UNL A   1      35.970  34.612  29.238  1.00  0.00     0.059 A 
ATOM     78  C   UNL A   1      34.425  33.349  30.619  1.00  0.00     0.059 A 
ATOM     79  F   UNL A   1      35.253  31.820  32.191  1.00  0.00    -0.206 F 
ATOM     80  C   UNL A   1      34.669  34.307  29.638  1.00  0.00     0.060 A 
BRANCH  80  81
ATOM     81  S   UNL A   1      33.293  35.171  28.849  1.00  0.00     0.124 S 
ATOM     82  O   UNL A   1      33.992  36.198  28.085  1.00  0.00    -0.237 OA
ATOM     83  O   UNL A   1      32.669  34.107  28.069  1.00  0.00    -0.237 OA
ATOM     84  O   UNL A   1      32.507  35.651  29.981  1.00  0.00    -0.744 OA
ENDBRANCH  80  81
ENDBRANCH  48  73
BRANCH  60  85
ATOM     85  C   UNL A   1      39.785  34.015  37.099  1.00  0.00     0.058 A 
ATOM     86  C   UNL A   1      38.926  33.698  38.163  1.00  0.00     0.135 A 
ATOM     87  C   UNL A   1      40.434  35.261  37.129  1.00  0.00     0.135 A 
ATOM     88  F   UNL A   1      38.274  32.524  38.178  1.00  0.00    -0.206 F 
ATOM     89  C   UNL A   1      38.703  34.589  39.207  1.00  0.00     0.059 A 
ATOM     90  C   UNL A   1      40.250  36.154  38.179  1.00  0.00     0.059 A 
ATOM     91  F   UNL A   1      41.272  35.611  36.141  1.00  0.00    -0.206 F 
ATOM     92  C   UNL A   1      39.374  35.813  39.209  1.00  0.00     0.060 A 
BRANCH  92  93
ATOM     93  S   UNL A   1      39.107  36.941  40.593  1.00  0.00     0.124 S 
ATOM     94  O   UNL A   1      38.466  36.064  41.568  1.00  0.00    -0.237 OA
ATOM     95  O   UNL A   1      40.465  37.363  40.917  1.00  0.00    -0.237 OA
ATOM     96  O   UNL A   1      38.253  37.979  40.025  1.00  0.00    -0.744 OA
ENDBRANCH  92  93
ENDBRANCH  60  85
ENDBRANCH  34  35
ENDBRANCH  26  29
ENDBRANCH  24  25
ENDBRANCH  23  24
ENDBRANCH   1  23
TORSDOF 20
ENDMDL
MODEL 2
REMARK VINA RESULT:     -10.4      6.046     11.355
REMARK SMILES [NH3+][C@@H](C(=O)NCCCCCCNC(=O)c1ccc(-c2c3nc(c(-c4c(F)cc(S(=O)(=O)[O-])cc4F)c4ccc([nH]4)c(-c4c(F)cc(S(=O)(=O)[O-])cc4F)c4nc(c(-c5c(F)cc(S(=O)(=O)[O-])cc5F)c5ccc2[nH]5)C=C4)C=C3)cc1)C(C(F)(F)F)C(F)(F)F
REMARK SMILES IDX 9 1 8 2 7 3 6 4 5 5 3 6 4 7 2 9 1 10 81 14 82 15 83 16 84 17
REMARK SMILES IDX 85 18 86 19 87 20 88 21 89 22 10 23 11 24 12 25 13 26 14 28
REMARK SMILES IDX 15 29 16 30 80 31 17 32 79 33 18 34 19 35 20 36 73 37 21 38
REMARK SMILES IDX 78 39 72 40 74 41 22 42 77 43 71 44 70 45 23 47 57 48 36 49
REMARK SMILES IDX 56 50 37 51 40 52 55 53 75 54 38 55 39 56 54 58 76 59 41 60
REMARK SMILES IDX 24 61 25 62 34 63 26 64 27 65 33 66 35 67 28 68 29 69 30 70
REMARK SMILES IDX 31 71 32 72 58 73 59 74 68 75 60 76 61 77 67 78 69 79 62 80
REMARK SMILES IDX 63 81 64 82 65 83 66 84 42 85 43 86 52 87 44 88 45 89 51 90
REMARK SMILES IDX 53 91 46 92 47 93 48 94 49 95 50 96
REMARK H PARENT 5 8 1 11 1 12 1 13 12 27 74 46 40 57
REMARK Flexibility Score: inf
ROOT
ATOM      1  C   UNL A   1      31.446  28.781  25.941  1.00  0.00     0.002 C 
ENDROOT
BRANCH   1   2
ATOM      2  C   UNL A   1      31.264  27.910  24.693  1.00  0.00     0.002 C 
BRANCH   2   3
ATOM      3  C   UNL A   1      31.510  26.410  24.907  1.00  0.00     0.021 C 
BRANCH   3   4
ATOM      4  C   UNL A   1      30.236  25.560  24.874  1.00  0.00     0.116 C 
BRANCH   4   5
ATOM      5  N   UNL A   1      30.028  24.926  26.165  1.00  0.00    -0.351 N 
ATOM      6  C   UNL A   1      30.483  23.722  26.611  1.00  0.00     0.279 C 
ATOM      7  O   UNL A   1      29.891  23.169  27.539  1.00  0.00    -0.268 OA
ATOM      8  H   UNL A   1      29.482  25.437  26.806  1.00  0.00     0.163 HD
BRANCH   6   9
ATOM      9  C   UNL A   1      31.670  23.046  25.893  1.00  0.00     0.292 C 
BRANCH   9  10
ATOM     10  N   UNL A   1      31.466  21.585  25.997  1.00  0.00    -0.346 N 
ATOM     11  H   UNL A   1      30.591  21.398  26.488  1.00  0.00     0.345 HD
ATOM     12  H   UNL A   1      32.242  21.169  26.513  1.00  0.00     0.345 HD
ATOM     13  H   UNL A   1      31.423  21.180  25.061  1.00  0.00     0.345 HD
ENDBRANCH   9  10
BRANCH   9  14
ATOM     14  C   UNL A   1      33.012  23.467  26.514  1.00  0.00     0.267 C 
BRANCH  14  15
ATOM     15  C   UNL A   1      33.523  22.432  27.478  1.00  0.00     0.406 C 
ATOM     16  F   UNL A   1      33.711  21.232  26.889  1.00  0.00    -0.170 F 
ATOM     17  F   UNL A   1      34.703  22.800  28.030  1.00  0.00    -0.170 F 
ATOM     18  F   UNL A   1      32.685  22.240  28.520  1.00  0.00    -0.170 F 
ENDBRANCH  14  15
BRANCH  14  19
ATOM     19  C   UNL A   1      34.092  23.584  25.470  1.00  0.00     0.406 C 
ATOM     20  F   UNL A   1      35.057  24.464  25.811  1.00  0.00    -0.170 F 
ATOM     21  F   UNL A   1      34.727  22.408  25.267  1.00  0.00    -0.170 F 
ATOM     22  F   UNL A   1      33.606  23.998  24.281  1.00  0.00    -0.170 F 
ENDBRANCH  14  19
ENDBRANCH   9  14
ENDBRANCH   6   9
ENDBRANCH   4   5
ENDBRANCH   3   4
ENDBRANCH   2   3
ENDBRANCH   1   2
BRANCH   1  23
ATOM     23  C   UNL A   1      32.206  28.111  27.088  1.00  0.00     0.021 C 
BRANCH  23  24
ATOM     24  C   UNL A   1      33.625  28.632  27.301  1.00  0.00     0.116 C 
BRANCH  24  25
ATOM     25  N   UNL A   1      33.638  30.025  27.723  1.00  0.00    -0.352 N 
ATOM     26  C   UNL A   1      34.631  30.737  28.351  1.00  0.00     0.251 C 
ATOM     27  H   UNL A   1      32.816  30.531  27.531  1.00  0.00     0.163 HD
ATOM     28  O   UNL A   1      34.388  31.848  28.818  1.00  0.00    -0.269 OA
BRANCH  26  29
ATOM     29  C   UNL A   1      35.982  30.154  28.487  1.00  0.00     0.039 A 
ATOM     30  C   UNL A   1      36.849  30.192  27.393  1.00  0.00     0.014 A 
ATOM     31  C   UNL A   1      36.400  29.586  29.694  1.00  0.00     0.014 A 
ATOM     32  C   UNL A   1      38.163  29.739  27.535  1.00  0.00     0.010 A 
ATOM     33  C   UNL A   1      37.729  29.195  29.853  1.00  0.00     0.010 A 
ATOM     34  C   UNL A   1      38.628  29.285  28.781  1.00  0.00    -0.014 A 
BRANCH  34  35
ATOM     35  C   UNL A   1      40.066  28.969  28.993  1.00  0.00     0.031 A 
ATOM     36  C   UNL A   1      40.622  27.625  28.612  1.00  0.00     0.074 A 
ATOM     37  C   UNL A   1      40.852  29.878  29.606  1.00  0.00     0.049 A 
ATOM     38  N   UNL A   1      41.829  27.154  28.793  1.00  0.00    -0.248 NA
ATOM     39  C   UNL A   1      39.702  26.678  27.961  1.00  0.00     0.031 C 
ATOM     40  C   UNL A   1      40.413  31.197  30.074  1.00  0.00     0.029 A 
ATOM     41  N   UNL A   1      42.178  29.831  29.963  1.00  0.00    -0.354 N 
ATOM     42  C   UNL A   1      41.812  25.856  28.296  1.00  0.00     0.074 A 
ATOM     43  C   UNL A   1      40.465  25.599  27.833  1.00  0.00     0.031 C 
ATOM     44  C   UNL A   1      41.449  31.833  30.643  1.00  0.00     0.029 A 
ATOM     45  C   UNL A   1      42.614  30.955  30.627  1.00  0.00     0.049 A 
ATOM     46  H   UNL A   1      42.762  29.063  29.763  1.00  0.00     0.167 HD
ATOM     47  C   UNL A   1      42.832  24.968  28.221  1.00  0.00     0.037 A 
ATOM     48  C   UNL A   1      43.808  31.239  31.183  1.00  0.00     0.037 A 
ATOM     49  C   UNL A   1      44.178  25.243  28.656  1.00  0.00     0.049 A 
ATOM     50  C   UNL A   1      44.918  30.224  31.092  1.00  0.00     0.074 A 
ATOM     51  C   UNL A   1      45.298  24.440  28.532  1.00  0.00     0.029 A 
ATOM     52  N   UNL A   1      44.585  26.397  29.306  1.00  0.00    -0.354 N 
ATOM     53  N   UNL A   1      44.908  29.043  30.523  1.00  0.00    -0.248 NA
ATOM     54  C   UNL A   1      46.199  30.580  31.719  1.00  0.00     0.031 C 
ATOM     55  C   UNL A   1      46.367  25.079  29.166  1.00  0.00     0.029 A 
ATOM     56  C   UNL A   1      45.929  26.307  29.631  1.00  0.00     0.049 A 
ATOM     57  H   UNL A   1      44.005  27.167  29.508  1.00  0.00     0.167 HD
ATOM     58  C   UNL A   1      46.185  28.523  30.708  1.00  0.00     0.074 A 
ATOM     59  C   UNL A   1      46.948  29.528  31.417  1.00  0.00     0.031 C 
ATOM     60  C   UNL A   1      46.678  27.318  30.334  1.00  0.00     0.037 A 
BRANCH  47  61
ATOM     61  C   UNL A   1      42.555  23.606  27.646  1.00  0.00     0.058 A 
ATOM     62  C   UNL A   1      42.588  23.367  26.264  1.00  0.00     0.135 A 
ATOM     63  C   UNL A   1      42.375  22.502  28.498  1.00  0.00     0.135 A 
ATOM     64  F   UNL A   1      42.742  24.387  25.405  1.00  0.00    -0.206 F 
ATOM     65  C   UNL A   1      42.454  22.083  25.746  1.00  0.00     0.059 A 
ATOM     66  C   UNL A   1      42.263  21.207  28.002  1.00  0.00     0.059 A 
ATOM     67  F   UNL A   1      42.333  22.676  29.828  1.00  0.00    -0.206 F 
ATOM     68  C   UNL A   1      42.304  21.008  26.623  1.00  0.00     0.060 A 
BRANCH  68  69
ATOM     69  S   UNL A   1      42.198  19.343  25.933  1.00  0.00     0.124 S 
ATOM     70  O   UNL A   1      42.744  18.540  27.023  1.00  0.00    -0.237 OA
ATOM     71  O   UNL A   1      40.766  19.197  25.694  1.00  0.00    -0.237 OA
ATOM     72  O   UNL A   1      43.027  19.416  24.734  1.00  0.00    -0.744 OA
ENDBRANCH  68  69
ENDBRANCH  47  61
BRANCH  48  73
ATOM     73  C   UNL A   1      44.018  32.525  31.904  1.00  0.00     0.058 A 
ATOM     74  C   UNL A   1      44.468  33.672  31.232  1.00  0.00     0.135 A 
ATOM     75  C   UNL A   1      43.810  32.623  33.290  1.00  0.00     0.135 A 
ATOM     76  F   UNL A   1      44.687  33.630  29.909  1.00  0.00    -0.206 F 
ATOM     77  C   UNL A   1      44.743  34.855  31.911  1.00  0.00     0.059 A 
ATOM     78  C   UNL A   1      44.046  33.805  33.985  1.00  0.00     0.059 A 
ATOM     79  F   UNL A   1      43.362  31.562  33.980  1.00  0.00    -0.206 F 
ATOM     80  C   UNL A   1      44.533  34.909  33.289  1.00  0.00     0.060 A 
BRANCH  80  81
ATOM     81  S   UNL A   1      44.892  36.448  34.162  1.00  0.00     0.124 S 
ATOM     82  O   UNL A   1      44.849  37.418  33.075  1.00  0.00    -0.237 OA
ATOM     83  O   UNL A   1      43.797  36.517  35.126  1.00  0.00    -0.237 OA
ATOM     84  O   UNL A   1      46.210  36.204  34.741  1.00  0.00    -0.744 OA
ENDBRANCH  80  81
ENDBRANCH  48  73
BRANCH  60  85
ATOM     85  C   UNL A   1      48.115  27.021  30.668  1.00  0.00     0.058 A 
ATOM     86  C   UNL A   1      48.481  26.459  31.900  1.00  0.00     0.135 A 
ATOM     87  C   UNL A   1      49.130  27.250  29.724  1.00  0.00     0.135 A 
ATOM     88  F   UNL A   1      47.550  26.228  32.841  1.00  0.00    -0.206 F 
ATOM     89  C   UNL A   1      49.805  26.152  32.195  1.00  0.00     0.059 A 
ATOM     90  C   UNL A   1      50.457  26.923  29.985  1.00  0.00     0.059 A 
ATOM     91  F   UNL A   1      48.834  27.778  28.526  1.00  0.00    -0.206 F 
ATOM     92  C   UNL A   1      50.786  26.383  31.228  1.00  0.00     0.060 A 
BRANCH  92  93
ATOM     93  S   UNL A   1      52.494  25.941  31.610  1.00  0.00     0.124 S 
ATOM     94  O   UNL A   1      52.834  26.931  32.626  1.00  0.00    -0.237 OA
ATOM     95  O   UNL A   1      52.360  24.567  32.083  1.00  0.00    -0.237 OA
ATOM     96  O   UNL A   1      53.179  26.093  30.330  1.00  0.00    -0.744 OA
ENDBRANCH  92  93
ENDBRANCH  60  85
ENDBRANCH  34  35
ENDBRANCH  26  29
ENDBRANCH  24  25
ENDBRANCH  23  24
ENDBRANCH   1  23
TORSDOF 20
ENDMDL
MODEL 3
REMARK VINA RESULT:     -10.4      6.195     11.767
REMARK SMILES [NH3+][C@@H](C(=O)NCCCCCCNC(=O)c1ccc(-c2c3nc(c(-c4c(F)cc(S(=O)(=O)[O-])cc4F)c4ccc([nH]4)c(-c4c(F)cc(S(=O)(=O)[O-])cc4F)c4nc(c(-c5c(F)cc(S(=O)(=O)[O-])cc5F)c5ccc2[nH]5)C=C4)C=C3)cc1)C(C(F)(F)F)C(F)(F)F
REMARK SMILES IDX 9 1 8 2 7 3 6 4 5 5 3 6 4 7 2 9 1 10 81 14 82 15 83 16 84 17
REMARK SMILES IDX 85 18 86 19 87 20 88 21 89 22 10 23 11 24 12 25 13 26 14 28
REMARK SMILES IDX 15 29 16 30 80 31 17 32 79 33 18 34 19 35 20 36 73 37 21 38
REMARK SMILES IDX 78 39 72 40 74 41 22 42 77 43 71 44 70 45 23 47 57 48 36 49
REMARK SMILES IDX 56 50 37 51 40 52 55 53 75 54 38 55 39 56 54 58 76 59 41 60
REMARK SMILES IDX 24 61 25 62 34 63 26 64 27 65 33 66 35 67 28 68 29 69 30 70
REMARK SMILES IDX 31 71 32 72 58 73 59 74 68 75 60 76 61 77 67 78 69 79 62 80
REMARK SMILES IDX 63 81 64 82 65 83 66 84 42 85 43 86 52 87 44 88 45 89 51 90
REMARK SMILES IDX 53 91 46 92 47 93 48 94 49 95 50 96
REMARK H PARENT 5 8 1 11 1 12 1 13 12 27 74 46 40 57
REMARK Flexibility Score: inf
ROOT
ATOM      1  C   UNL A   1      31.478  28.327  25.571  1.00  0.00     0.002 C 
ENDROOT
BRANCH   1   2
ATOM      2  C   UNL A   1      31.877  27.239  24.568  1.00  0.00     0.002 C 
BRANCH   2   3
ATOM      3  C   UNL A   1      30.708  26.610  23.796  1.00  0.00     0.021 C 
BRANCH   3   4
ATOM      4  C   UNL A   1      30.264  25.249  24.342  1.00  0.00     0.116 C 
BRANCH   4   5
ATOM      5  N   UNL A   1      30.765  25.068  25.694  1.00  0.00    -0.351 N 
ATOM      6  C   UNL A   1      31.557  24.075  26.188  1.00  0.00     0.279 C 
ATOM      7  O   UNL A   1      31.544  23.851  27.398  1.00  0.00    -0.268 OA
ATOM      8  H   UNL A   1      30.493  25.756  26.343  1.00  0.00     0.163 HD
BRANCH   6   9
ATOM      9  C   UNL A   1      32.383  23.209  25.214  1.00  0.00     0.292 C 
BRANCH   9  10
ATOM     10  N   UNL A   1      31.785  21.855  25.224  1.00  0.00    -0.346 N 
ATOM     11  H   UNL A   1      32.426  21.197  24.781  1.00  0.00     0.345 HD
ATOM     12  H   UNL A   1      30.903  21.870  24.711  1.00  0.00     0.345 HD
ATOM     13  H   UNL A   1      31.614  21.567  26.187  1.00  0.00     0.345 HD
ENDBRANCH   9  10
BRANCH   9  14
ATOM     14  C   UNL A   1      33.865  23.166  25.621  1.00  0.00     0.267 C 
BRANCH  14  15
ATOM     15  C   UNL A   1      34.653  22.235  24.742  1.00  0.00     0.406 C 
ATOM     16  F   UNL A   1      34.270  22.306  23.449  1.00  0.00    -0.170 F 
ATOM     17  F   UNL A   1      35.978  22.506  24.787  1.00  0.00    -0.170 F 
ATOM     18  F   UNL A   1      34.538  20.944  25.124  1.00  0.00    -0.170 F 
ENDBRANCH  14  15
BRANCH  14  19
ATOM     19  C   UNL A   1      34.525  24.509  25.447  1.00  0.00     0.406 C 
ATOM     20  F   UNL A   1      33.960  25.473  26.203  1.00  0.00    -0.170 F 
ATOM     21  F   UNL A   1      35.828  24.482  25.806  1.00  0.00    -0.170 F 
ATOM     22  F   UNL A   1      34.461  24.943  24.171  1.00  0.00    -0.170 F 
ENDBRANCH  14  19
ENDBRANCH   9  14
ENDBRANCH   6   9
ENDBRANCH   4   5
ENDBRANCH   3   4
ENDBRANCH   2   3
ENDBRANCH   1   2
BRANCH   1  23
ATOM     23  C   UNL A   1      31.976  28.101  27.000  1.00  0.00     0.021 C 
BRANCH  23  24
ATOM     24  C   UNL A   1      33.390  28.609  27.268  1.00  0.00     0.116 C 
BRANCH  24  25
ATOM     25  N   UNL A   1      33.406  30.019  27.625  1.00  0.00    -0.352 N 
ATOM     26  C   UNL A   1      34.391  30.752  28.241  1.00  0.00     0.251 C 
ATOM     27  H   UNL A   1      32.592  30.522  27.392  1.00  0.00     0.163 HD
ATOM     28  O   UNL A   1      34.147  31.886  28.651  1.00  0.00    -0.269 OA
BRANCH  26  29
ATOM     29  C   UNL A   1      35.734  30.167  28.435  1.00  0.00     0.039 A 
ATOM     30  C   UNL A   1      36.612  30.115  27.350  1.00  0.00     0.014 A 
ATOM     31  C   UNL A   1      36.133  29.683  29.685  1.00  0.00     0.014 A 
ATOM     32  C   UNL A   1      37.919  29.660  27.540  1.00  0.00     0.010 A 
ATOM     33  C   UNL A   1      37.455  29.291  29.886  1.00  0.00     0.010 A 
ATOM     34  C   UNL A   1      38.366  29.292  28.820  1.00  0.00    -0.014 A 
BRANCH  34  35
ATOM     35  C   UNL A   1      39.799  28.978  29.071  1.00  0.00     0.031 A 
ATOM     36  C   UNL A   1      40.743  30.038  29.567  1.00  0.00     0.074 A 
ATOM     37  C   UNL A   1      40.260  27.746  28.771  1.00  0.00     0.049 A 
ATOM     38  N   UNL A   1      42.033  29.961  29.767  1.00  0.00    -0.248 NA
ATOM     39  C   UNL A   1      40.171  31.364  29.858  1.00  0.00     0.031 C 
ATOM     40  C   UNL A   1      39.452  26.649  28.230  1.00  0.00     0.029 A 
ATOM     41  N   UNL A   1      41.522  27.210  28.857  1.00  0.00    -0.354 N 
ATOM     42  C   UNL A   1      42.431  31.223  30.192  1.00  0.00     0.074 A 
ATOM     43  C   UNL A   1      41.251  32.061  30.190  1.00  0.00     0.031 C 
ATOM     44  C   UNL A   1      40.233  25.574  28.043  1.00  0.00     0.029 A 
ATOM     45  C   UNL A   1      41.605  25.913  28.404  1.00  0.00     0.049 A 
ATOM     46  H   UNL A   1      42.296  27.708  29.209  1.00  0.00     0.167 HD
ATOM     47  C   UNL A   1      43.666  31.638  30.562  1.00  0.00     0.037 A 
ATOM     48  C   UNL A   1      42.668  25.096  28.269  1.00  0.00     0.037 A 
ATOM     49  C   UNL A   1      44.830  30.789  30.590  1.00  0.00     0.049 A 
ATOM     50  C   UNL A   1      44.030  25.593  28.679  1.00  0.00     0.074 A 
ATOM     51  C   UNL A   1      46.102  31.096  31.041  1.00  0.00     0.029 A 
ATOM     52  N   UNL A   1      44.871  29.478  30.141  1.00  0.00    -0.354 N 
ATOM     53  N   UNL A   1      44.365  26.759  29.177  1.00  0.00    -0.248 NA
ATOM     54  C   UNL A   1      45.158  24.665  28.507  1.00  0.00     0.031 C 
ATOM     55  C   UNL A   1      46.928  29.994  30.804  1.00  0.00     0.029 A 
ATOM     56  C   UNL A   1      46.158  28.979  30.262  1.00  0.00     0.049 A 
ATOM     57  H   UNL A   1      44.101  28.976  29.789  1.00  0.00     0.167 HD
ATOM     58  C   UNL A   1      45.737  26.697  29.395  1.00  0.00     0.074 A 
ATOM     59  C   UNL A   1      46.165  25.371  29.000  1.00  0.00     0.031 C 
ATOM     60  C   UNL A   1      46.570  27.655  29.869  1.00  0.00     0.037 A 
BRANCH  47  61
ATOM     61  C   UNL A   1      43.846  33.073  30.973  1.00  0.00     0.058 A 
ATOM     62  C   UNL A   1      43.753  33.473  32.315  1.00  0.00     0.135 A 
ATOM     63  C   UNL A   1      44.237  34.037  30.027  1.00  0.00     0.135 A 
ATOM     64  F   UNL A   1      43.370  32.597  33.257  1.00  0.00    -0.206 F 
ATOM     65  C   UNL A   1      44.042  34.777  32.705  1.00  0.00     0.059 A 
ATOM     66  C   UNL A   1      44.554  35.340  30.399  1.00  0.00     0.059 A 
ATOM     67  F   UNL A   1      44.338  33.707  28.730  1.00  0.00    -0.206 F 
ATOM     68  C   UNL A   1      44.453  35.700  31.742  1.00  0.00     0.060 A 
BRANCH  68  69
ATOM     69  S   UNL A   1      44.887  37.368  32.279  1.00  0.00     0.124 S 
ATOM     70  O   UNL A   1      43.942  38.176  31.515  1.00  0.00    -0.237 OA
ATOM     71  O   UNL A   1      44.648  37.303  33.718  1.00  0.00    -0.237 OA
ATOM     72  O   UNL A   1      46.287  37.501  31.885  1.00  0.00    -0.744 OA
ENDBRANCH  68  69
ENDBRANCH  47  61
BRANCH  48  73
ATOM     73  C   UNL A   1      42.503  23.731  27.695  1.00  0.00     0.058 A 
ATOM     74  C   UNL A   1      42.356  22.607  28.521  1.00  0.00     0.135 A 
ATOM     75  C   UNL A   1      42.528  23.520  26.307  1.00  0.00     0.135 A 
ATOM     76  F   UNL A   1      42.332  22.753  29.854  1.00  0.00    -0.206 F 
ATOM     77  C   UNL A   1      42.282  21.320  27.996  1.00  0.00     0.059 A 
ATOM     78  C   UNL A   1      42.421  22.247  25.757  1.00  0.00     0.059 A 
ATOM     79  F   UNL A   1      42.648  24.563  25.469  1.00  0.00    -0.206 F 
ATOM     80  C   UNL A   1      42.320  21.152  26.611  1.00  0.00     0.060 A 
BRANCH  80  81
ATOM     81  S   UNL A   1      42.223  19.479  25.937  1.00  0.00     0.124 S 
ATOM     82  O   UNL A   1      42.721  18.684  27.053  1.00  0.00    -0.237 OA
ATOM     83  O   UNL A   1      40.799  19.348  25.644  1.00  0.00    -0.237 OA
ATOM     84  O   UNL A   1      43.092  19.540  24.766  1.00  0.00    -0.744 OA
ENDBRANCH  80  81
ENDBRANCH  48  73
BRANCH  60  85
ATOM     85  C   UNL A   1      48.027  27.304  30.004  1.00  0.00     0.058 A 
ATOM     86  C   UNL A   1      48.966  27.677  29.030  1.00  0.00     0.135 A 
ATOM     87  C   UNL A   1      48.498  26.636  31.147  1.00  0.00     0.135 A 
ATOM     88  F   UNL A   1      48.566  28.310  27.914  1.00  0.00    -0.206 F 
ATOM     89  C   UNL A   1      50.317  27.383  29.172  1.00  0.00     0.059 A 
ATOM     90  C   UNL A   1      49.850  26.359  31.324  1.00  0.00     0.059 A 
ATOM     91  F   UNL A   1      47.645  26.263  32.113  1.00  0.00    -0.206 F 
ATOM     92  C   UNL A   1      50.751  26.728  30.326  1.00  0.00     0.060 A 
BRANCH  92  93
ATOM     93  S   UNL A   1      52.514  26.392  30.515  1.00  0.00     0.124 S 
ATOM     94  O   UNL A   1      52.509  25.365  31.552  1.00  0.00    -0.237 OA
ATOM     95  O   UNL A   1      52.890  25.941  29.179  1.00  0.00    -0.237 OA
ATOM     96  O   UNL A   1      53.066  27.683  30.913  1.00  0.00    -0.744 OA
ENDBRANCH  92  93
ENDBRANCH  60  85
ENDBRANCH  34  35
ENDBRANCH  26  29
ENDBRANCH  24  25
ENDBRANCH  23  24
ENDBRANCH   1  23
TORSDOF 20
ENDMDL
