MODEL 1
REMARK VINA RESULT:     -11.7      0.000      0.000
REMARK SMILES Cc1c(-c2ccc(O)cc2)nc(N)c(C#N)c1-c1ccccc1OCC(=O)NCCCCCCNC(=O)c1ccc(-c2c3nc(c(-c4c(F)cc(S(=O)(=O)[O-])cc4F)c4ccc([nH]4)c(-c4c(F)cc(S(=O)(=O)[O-])cc4F)c4nc(c(-c5c(F)cc(S(=O)(=O)[O-])cc5F)c5ccc2[nH]5)C=C4)C=C3)cc1
REMARK SMILES IDX 30 1 29 2 28 3 26 4 27 5 25 7 24 8 23 9 18 10 19 11 20 12
REMARK SMILES IDX 22 13 21 14 17 15 1 16 2 17 3 18 11 19 14 20 12 21 4 22 5 23
REMARK SMILES IDX 10 24 6 25 9 26 7 27 8 28 15 30 16 31 13 32 31 35 32 36
REMARK SMILES IDX 33 37 34 38 35 39 36 40 37 42 38 43 39 44 103 45 40 46
REMARK SMILES IDX 102 47 41 48 42 49 43 50 96 51 44 52 101 53 95 54 97 55
REMARK SMILES IDX 45 56 100 57 94 58 93 59 46 61 80 62 59 63 79 64 60 65 63 66
REMARK SMILES IDX 78 67 98 68 61 69 62 70 77 72 99 73 64 74 47 75 48 76 57 77
REMARK SMILES IDX 49 78 50 79 56 80 58 81 51 82 52 83 53 84 54 85 55 86 81 87
REMARK SMILES IDX 82 88 91 89 83 90 84 91 90 92 92 93 85 94 86 95 87 96 88 97
REMARK SMILES IDX 89 98 65 99 66 100 75 101 67 102 68 103 74 104 76 105 69 106
REMARK SMILES IDX 70 107 71 108 72 109 73 110
REMARK H PARENT 28 6 8 29 13 33 13 34 35 41 97 60 63 71
REMARK Flexibility Score: inf
ROOT
ATOM      1  C   UNL A   1      39.304  21.440  25.728  1.00  0.00     0.021 C 
ENDROOT
BRANCH   1   2
ATOM      2  C   UNL A   1      37.821  21.788  25.864  1.00  0.00     0.116 C 
BRANCH   2   3
ATOM      3  N   UNL A   1      37.143  22.104  24.624  1.00  0.00    -0.353 N 
ATOM      4  C   UNL A   1      36.474  23.251  24.307  1.00  0.00     0.257 C 
ATOM      5  O   UNL A   1      36.418  23.579  23.119  1.00  0.00    -0.271 OA
ATOM      6  H   UNL A   1      37.169  21.410  23.928  1.00  0.00     0.163 HD
BRANCH   4   7
ATOM      7  C   UNL A   1      35.840  24.138  25.378  1.00  0.00     0.329 C 
BRANCH   7   8
ATOM      8  O   UNL A   1      34.624  24.761  25.052  1.00  0.00    -0.483 OA
BRANCH   8   9
ATOM      9  C   UNL A   1      33.392  24.330  25.441  1.00  0.00     0.127 A 
ATOM     10  C   UNL A   1      32.104  24.583  24.920  1.00  0.00     0.026 A 
ATOM     11  C   UNL A   1      31.016  23.889  25.507  1.00  0.00     0.012 A 
ATOM     12  C   UNL A   1      31.186  23.001  26.572  1.00  0.00     0.001 A 
ATOM     13  C   UNL A   1      33.540  23.427  26.513  1.00  0.00     0.047 A 
ATOM     14  C   UNL A   1      32.453  22.773  27.081  1.00  0.00     0.004 A 
BRANCH  10  15
ATOM     15  C   UNL A   1      31.782  25.501  23.796  1.00  0.00     0.012 A 
ATOM     16  C   UNL A   1      30.966  27.277  25.411  1.00  0.00     0.047 C 
ATOM     17  C   UNL A   1      31.138  26.745  24.015  1.00  0.00    -0.015 A 
ATOM     18  C   UNL A   1      30.713  27.484  22.891  1.00  0.00     0.076 A 
ATOM     19  N   UNL A   1      31.034  27.110  21.625  1.00  0.00    -0.230 NA
ATOM     20  C   UNL A   1      32.130  25.155  22.471  1.00  0.00     0.102 A 
ATOM     21  C   UNL A   1      31.760  25.998  21.427  1.00  0.00     0.142 A 
BRANCH  18  22
ATOM     22  C   UNL A   1      29.736  28.602  22.945  1.00  0.00     0.001 A 
ATOM     23  C   UNL A   1      28.358  28.302  23.012  1.00  0.00     0.014 A 
ATOM     24  C   UNL A   1      30.098  29.957  23.020  1.00  0.00     0.014 A 
ATOM     25  C   UNL A   1      27.398  29.290  23.239  1.00  0.00     0.047 A 
ATOM     26  C   UNL A   1      29.141  30.953  23.259  1.00  0.00     0.047 A 
ATOM     27  C   UNL A   1      27.801  30.607  23.384  1.00  0.00     0.115 A 
BRANCH  27  28
ATOM     28  O   UNL A   1      26.843  31.537  23.660  1.00  0.00    -0.508 OA
ATOM     29  H   UNL A   1      27.017  32.219  24.279  1.00  0.00     0.293 HD
ENDBRANCH  27  28
ENDBRANCH  18  22
BRANCH  20  30
ATOM     30  C   UNL A   1      32.896  23.977  22.179  1.00  0.00     0.104 C 
ATOM     31  N   UNL A   1      33.472  23.011  21.894  1.00  0.00    -0.192 NA
ENDBRANCH  20  30
BRANCH  21  32
ATOM     32  N   UNL A   1      32.031  25.727  20.098  1.00  0.00    -0.383 N 
ATOM     33  H   UNL A   1      31.463  25.097  19.599  1.00  0.00     0.158 HD
ATOM     34  H   UNL A   1      32.792  26.163  19.653  1.00  0.00     0.158 HD
ENDBRANCH  21  32
ENDBRANCH  10  15
ENDBRANCH   8   9
ENDBRANCH   7   8
ENDBRANCH   4   7
ENDBRANCH   2   3
ENDBRANCH   1   2
BRANCH   1  35
ATOM     35  C   UNL A   1      40.247  21.879  26.856  1.00  0.00     0.002 C 
BRANCH  35  36
ATOM     36  C   UNL A   1      41.411  20.950  27.203  1.00  0.00     0.002 C 
BRANCH  36  37
ATOM     37  C   UNL A   1      41.571  19.719  26.317  1.00  0.00     0.021 C 
BRANCH  37  38
ATOM     38  C   UNL A   1      42.885  18.968  26.484  1.00  0.00     0.116 C 
BRANCH  38  39
ATOM     39  N   UNL A   1      43.590  18.792  25.226  1.00  0.00    -0.352 N 
ATOM     40  C   UNL A   1      44.197  19.742  24.439  1.00  0.00     0.251 C 
ATOM     41  H   UNL A   1      43.640  17.867  24.892  1.00  0.00     0.163 HD
ATOM     42  O   UNL A   1      44.599  19.449  23.317  1.00  0.00    -0.269 OA
BRANCH  40  43
ATOM     43  C   UNL A   1      44.336  21.127  24.944  1.00  0.00     0.039 A 
ATOM     44  C   UNL A   1      45.075  21.354  26.106  1.00  0.00     0.014 A 
ATOM     45  C   UNL A   1      43.760  22.199  24.256  1.00  0.00     0.014 A 
ATOM     46  C   UNL A   1      45.292  22.664  26.542  1.00  0.00     0.010 A 
ATOM     47  C   UNL A   1      44.044  23.505  24.646  1.00  0.00     0.010 A 
ATOM     48  C   UNL A   1      44.809  23.752  25.795  1.00  0.00    -0.014 A 
BRANCH  48  49
ATOM     49  C   UNL A   1      45.085  25.153  26.203  1.00  0.00     0.031 A 
ATOM     50  C   UNL A   1      46.478  25.708  26.089  1.00  0.00     0.074 A 
ATOM     51  C   UNL A   1      44.094  25.908  26.717  1.00  0.00     0.049 A 
ATOM     52  N   UNL A   1      46.934  26.878  26.455  1.00  0.00    -0.248 NA
ATOM     53  C   UNL A   1      47.500  24.823  25.504  1.00  0.00     0.031 C 
ATOM     54  C   UNL A   1      42.706  25.475  26.897  1.00  0.00     0.029 A 
ATOM     55  N   UNL A   1      44.100  27.198  27.187  1.00  0.00    -0.354 N 
ATOM     56  C   UNL A   1      48.288  26.871  26.142  1.00  0.00     0.074 A 
ATOM     57  C   UNL A   1      48.595  25.559  25.620  1.00  0.00     0.031 C 
ATOM     58  C   UNL A   1      41.991  26.490  27.407  1.00  0.00     0.029 A 
ATOM     59  C   UNL A   1      42.874  27.630  27.635  1.00  0.00     0.049 A 
ATOM     60  H   UNL A   1      44.907  27.762  27.201  1.00  0.00     0.167 HD
ATOM     61  C   UNL A   1      49.187  27.878  26.254  1.00  0.00     0.037 A 
ATOM     62  C   UNL A   1      42.503  28.809  28.175  1.00  0.00     0.037 A 
ATOM     63  C   UNL A   1      48.872  29.185  26.769  1.00  0.00     0.049 A 
ATOM     64  C   UNL A   1      43.534  29.894  28.339  1.00  0.00     0.074 A 
ATOM     65  C   UNL A   1      49.707  30.280  26.905  1.00  0.00     0.029 A 
ATOM     66  N   UNL A   1      47.623  29.576  27.232  1.00  0.00    -0.354 N 
ATOM     67  N   UNL A   1      44.805  29.881  28.013  1.00  0.00    -0.248 NA
ATOM     68  C   UNL A   1      43.082  31.155  28.943  1.00  0.00     0.031 C 
ATOM     69  C   UNL A   1      48.979  31.315  27.498  1.00  0.00     0.029 A 
ATOM     70  C   UNL A   1      47.672  30.888  27.673  1.00  0.00     0.049 A 
ATOM     71  H   UNL A   1      46.821  29.007  27.244  1.00  0.00     0.167 HD
ATOM     72  C   UNL A   1      45.296  31.140  28.341  1.00  0.00     0.074 A 
ATOM     73  C   UNL A   1      44.183  31.893  28.881  1.00  0.00     0.031 C 
ATOM     74  C   UNL A   1      46.554  31.629  28.205  1.00  0.00     0.037 A 
BRANCH  61  75
ATOM     75  C   UNL A   1      50.598  27.612  25.801  1.00  0.00     0.058 A 
ATOM     76  C   UNL A   1      51.590  27.187  26.701  1.00  0.00     0.135 A 
ATOM     77  C   UNL A   1      50.950  27.725  24.446  1.00  0.00     0.135 A 
ATOM     78  F   UNL A   1      51.314  27.078  28.010  1.00  0.00    -0.206 F 
ATOM     79  C   UNL A   1      52.884  26.904  26.276  1.00  0.00     0.059 A 
ATOM     80  C   UNL A   1      52.230  27.417  23.994  1.00  0.00     0.059 A 
ATOM     81  F   UNL A   1      50.044  28.131  23.543  1.00  0.00    -0.206 F 
ATOM     82  C   UNL A   1      53.193  27.016  24.920  1.00  0.00     0.060 A 
BRANCH  82  83
ATOM     83  S   UNL A   1      54.873  26.623  24.389  1.00  0.00     0.124 S 
ATOM     84  O   UNL A   1      55.639  27.683  25.037  1.00  0.00    -0.237 OA
ATOM     85  O   UNL A   1      55.063  25.282  24.932  1.00  0.00    -0.237 OA
ATOM     86  O   UNL A   1      54.799  26.704  22.934  1.00  0.00    -0.744 OA
ENDBRANCH  82  83
ENDBRANCH  61  75
BRANCH  62  87
ATOM     87  C   UNL A   1      41.085  29.034  28.570  1.00  0.00     0.058 A 
ATOM     88  C   UNL A   1      40.707  29.037  29.920  1.00  0.00     0.135 A 
ATOM     89  C   UNL A   1      40.087  29.273  27.612  1.00  0.00     0.135 A 
ATOM     90  F   UNL A   1      41.623  28.805  30.873  1.00  0.00    -0.206 F 
ATOM     91  C   UNL A   1      39.390  29.257  30.309  1.00  0.00     0.059 A 
ATOM     92  C   UNL A   1      38.767  29.524  27.978  1.00  0.00     0.059 A 
ATOM     93  F   UNL A   1      40.396  29.294  26.306  1.00  0.00    -0.206 F 
ATOM     94  C   UNL A   1      38.427  29.508  29.329  1.00  0.00     0.060 A 
BRANCH  94  95
ATOM     95  S   UNL A   1      36.733  29.848  29.853  1.00  0.00     0.124 S 
ATOM     96  O   UNL A   1      36.753  31.299  29.995  1.00  0.00    -0.237 OA
ATOM     97  O   UNL A   1      35.960  29.326  28.730  1.00  0.00    -0.237 OA
ATOM     98  O   UNL A   1      36.607  29.094  31.097  1.00  0.00    -0.744 OA
ENDBRANCH  94  95
ENDBRANCH  62  87
BRANCH  74  99
ATOM     99  C   UNL A   1      46.796  33.058  28.614  1.00  0.00     0.058 A 
ATOM    100  C   UNL A   1      47.206  33.396  29.913  1.00  0.00     0.135 A 
ATOM    101  C   UNL A   1      46.679  34.094  27.673  1.00  0.00     0.135 A 
ATOM    102  F   UNL A   1      47.331  32.445  30.852  1.00  0.00    -0.206 F 
ATOM    103  C   UNL A   1      47.466  34.715  30.273  1.00  0.00     0.059 A 
ATOM    104  C   UNL A   1      46.967  35.416  28.002  1.00  0.00     0.059 A 
ATOM    105  F   UNL A   1      46.304  33.826  26.413  1.00  0.00    -0.206 F 
ATOM    106  C   UNL A   1      47.347  35.717  29.308  1.00  0.00     0.060 A 
BRANCH 106 107
ATOM    107  S   UNL A   1      47.717  37.419  29.784  1.00  0.00     0.124 S 
ATOM    108  O   UNL A   1      49.099  37.557  29.335  1.00  0.00    -0.237 OA
ATOM    109  O   UNL A   1      46.724  38.175  29.026  1.00  0.00    -0.237 OA
ATOM    110  O   UNL A   1      47.525  37.418  31.231  1.00  0.00    -0.744 OA
ENDBRANCH 106 107
ENDBRANCH  74  99
ENDBRANCH  48  49
ENDBRANCH  40  43
ENDBRANCH  38  39
ENDBRANCH  37  38
ENDBRANCH  36  37
ENDBRANCH  35  36
ENDBRANCH   1  35
TORSDOF 23
ENDMDL
MODEL 2
REMARK VINA RESULT:     -11.7      5.971     10.361
REMARK SMILES Cc1c(-c2ccc(O)cc2)nc(N)c(C#N)c1-c1ccccc1OCC(=O)NCCCCCCNC(=O)c1ccc(-c2c3nc(c(-c4c(F)cc(S(=O)(=O)[O-])cc4F)c4ccc([nH]4)c(-c4c(F)cc(S(=O)(=O)[O-])cc4F)c4nc(c(-c5c(F)cc(S(=O)(=O)[O-])cc5F)c5ccc2[nH]5)C=C4)C=C3)cc1
REMARK SMILES IDX 30 1 29 2 28 3 26 4 27 5 25 7 24 8 23 9 18 10 19 11 20 12
REMARK SMILES IDX 22 13 21 14 17 15 1 16 2 17 3 18 11 19 14 20 12 21 4 22 5 23
REMARK SMILES IDX 10 24 6 25 9 26 7 27 8 28 15 30 16 31 13 32 31 35 32 36
REMARK SMILES IDX 33 37 34 38 35 39 36 40 37 42 38 43 39 44 103 45 40 46
REMARK SMILES IDX 102 47 41 48 42 49 43 50 96 51 44 52 101 53 95 54 97 55
REMARK SMILES IDX 45 56 100 57 94 58 93 59 46 61 80 62 59 63 79 64 60 65 63 66
REMARK SMILES IDX 78 67 98 68 61 69 62 70 77 72 99 73 64 74 47 75 48 76 57 77
REMARK SMILES IDX 49 78 50 79 56 80 58 81 51 82 52 83 53 84 54 85 55 86 81 87
REMARK SMILES IDX 82 88 91 89 83 90 84 91 90 92 92 93 85 94 86 95 87 96 88 97
REMARK SMILES IDX 89 98 65 99 66 100 75 101 67 102 68 103 74 104 76 105 69 106
REMARK SMILES IDX 70 107 71 108 72 109 73 110
REMARK H PARENT 28 6 8 29 13 33 13 34 35 41 97 60 63 71
REMARK Flexibility Score: inf
ROOT
ATOM      1  C   UNL A   1      39.658  21.806  26.079  1.00  0.00     0.021 C 
ENDROOT
BRANCH   1   2
ATOM      2  C   UNL A   1      38.140  21.998  26.053  1.00  0.00     0.116 C 
BRANCH   2   3
ATOM      3  N   UNL A   1      37.577  22.313  24.758  1.00  0.00    -0.353 N 
ATOM      4  C   UNL A   1      36.694  23.307  24.450  1.00  0.00     0.257 C 
ATOM      5  O   UNL A   1      36.718  23.770  23.307  1.00  0.00    -0.271 OA
ATOM      6  H   UNL A   1      37.866  21.743  24.010  1.00  0.00     0.163 HD
BRANCH   4   7
ATOM      7  C   UNL A   1      35.724  23.874  25.486  1.00  0.00     0.329 C 
BRANCH   7   8
ATOM      8  O   UNL A   1      34.531  24.436  25.002  1.00  0.00    -0.483 OA
BRANCH   8   9
ATOM      9  C   UNL A   1      33.284  24.154  25.471  1.00  0.00     0.127 A 
ATOM     10  C   UNL A   1      32.004  24.554  25.027  1.00  0.00     0.026 A 
ATOM     11  C   UNL A   1      30.882  23.996  25.688  1.00  0.00     0.012 A 
ATOM     12  C   UNL A   1      31.012  23.101  26.753  1.00  0.00     0.001 A 
ATOM     13  C   UNL A   1      33.391  23.247  26.545  1.00  0.00     0.047 A 
ATOM     14  C   UNL A   1      32.273  22.729  27.186  1.00  0.00     0.004 A 
BRANCH  10  15
ATOM     15  C   UNL A   1      31.722  25.496  23.912  1.00  0.00     0.012 A 
ATOM     16  C   UNL A   1      30.992  27.293  25.545  1.00  0.00     0.047 C 
ATOM     17  C   UNL A   1      31.136  26.766  24.144  1.00  0.00    -0.015 A 
ATOM     18  C   UNL A   1      30.743  27.535  23.028  1.00  0.00     0.076 A 
ATOM     19  N   UNL A   1      31.044  27.158  21.758  1.00  0.00    -0.230 NA
ATOM     20  C   UNL A   1      32.050  25.147  22.583  1.00  0.00     0.102 A 
ATOM     21  C   UNL A   1      31.717  26.016  21.548  1.00  0.00     0.142 A 
BRANCH  18  22
ATOM     22  C   UNL A   1      29.819  28.696  23.095  1.00  0.00     0.001 A 
ATOM     23  C   UNL A   1      28.444  28.490  22.849  1.00  0.00     0.014 A 
ATOM     24  C   UNL A   1      30.212  29.989  23.475  1.00  0.00     0.014 A 
ATOM     25  C   UNL A   1      27.497  29.493  23.063  1.00  0.00     0.047 A 
ATOM     26  C   UNL A   1      29.265  30.999  23.703  1.00  0.00     0.047 A 
ATOM     27  C   UNL A   1      27.914  30.735  23.511  1.00  0.00     0.115 A 
BRANCH  27  28
ATOM     28  O   UNL A   1      26.958  31.672  23.763  1.00  0.00    -0.508 OA
ATOM     29  H   UNL A   1      26.744  31.898  24.647  1.00  0.00     0.293 HD
ENDBRANCH  27  28
ENDBRANCH  18  22
BRANCH  20  30
ATOM     30  C   UNL A   1      32.760  23.938  22.278  1.00  0.00     0.104 C 
ATOM     31  N   UNL A   1      33.372  22.995  21.989  1.00  0.00    -0.192 NA
ENDBRANCH  20  30
BRANCH  21  32
ATOM     32  N   UNL A   1      31.972  25.745  20.216  1.00  0.00    -0.383 N 
ATOM     33  H   UNL A   1      31.815  26.437  19.534  1.00  0.00     0.158 HD
ATOM     34  H   UNL A   1      32.310  24.860  19.951  1.00  0.00     0.158 HD
ENDBRANCH  21  32
ENDBRANCH  10  15
ENDBRANCH   8   9
ENDBRANCH   7   8
ENDBRANCH   4   7
ENDBRANCH   2   3
ENDBRANCH   1   2
BRANCH   1  35
ATOM     35  C   UNL A   1      40.476  22.704  27.016  1.00  0.00     0.002 C 
BRANCH  35  36
ATOM     36  C   UNL A   1      41.451  22.019  27.974  1.00  0.00     0.002 C 
BRANCH  36  37
ATOM     37  C   UNL A   1      42.933  22.195  27.657  1.00  0.00     0.021 C 
BRANCH  37  38
ATOM     38  C   UNL A   1      43.433  23.633  27.680  1.00  0.00     0.116 C 
BRANCH  38  39
ATOM     39  N   UNL A   1      43.289  24.294  26.394  1.00  0.00    -0.352 N 
ATOM     40  C   UNL A   1      42.720  25.514  26.113  1.00  0.00     0.251 C 
ATOM     41  H   UNL A   1      43.646  23.801  25.620  1.00  0.00     0.163 HD
ATOM     42  O   UNL A   1      42.523  25.849  24.949  1.00  0.00    -0.269 OA
BRANCH  40  43
ATOM     43  C   UNL A   1      42.324  26.408  27.225  1.00  0.00     0.039 A 
ATOM     44  C   UNL A   1      41.269  26.028  28.057  1.00  0.00     0.014 A 
ATOM     45  C   UNL A   1      43.008  27.604  27.458  1.00  0.00     0.014 A 
ATOM     46  C   UNL A   1      40.945  26.816  29.165  1.00  0.00     0.010 A 
ATOM     47  C   UNL A   1      42.737  28.345  28.605  1.00  0.00     0.010 A 
ATOM     48  C   UNL A   1      41.700  27.961  29.469  1.00  0.00    -0.014 A 
BRANCH  48  49
ATOM     49  C   UNL A   1      41.416  28.776  30.677  1.00  0.00     0.031 A 
ATOM     50  C   UNL A   1      40.290  29.774  30.662  1.00  0.00     0.074 A 
ATOM     51  C   UNL A   1      42.198  28.653  31.768  1.00  0.00     0.049 A 
ATOM     52  N   UNL A   1      39.927  30.624  31.587  1.00  0.00    -0.248 NA
ATOM     53  C   UNL A   1      39.474  29.837  29.437  1.00  0.00     0.031 C 
ATOM     54  C   UNL A   1      43.333  27.736  31.895  1.00  0.00     0.029 A 
ATOM     55  N   UNL A   1      42.162  29.302  32.977  1.00  0.00    -0.354 N 
ATOM     56  C   UNL A   1      38.844  31.318  31.061  1.00  0.00     0.074 A 
ATOM     57  C   UNL A   1      38.650  30.838  29.711  1.00  0.00     0.031 C 
ATOM     58  C   UNL A   1      43.863  27.858  33.123  1.00  0.00     0.029 A 
ATOM     59  C   UNL A   1      43.139  28.894  33.855  1.00  0.00     0.049 A 
ATOM     60  H   UNL A   1      41.497  29.995  33.196  1.00  0.00     0.167 HD
ATOM     61  C   UNL A   1      38.065  32.250  31.659  1.00  0.00     0.037 A 
ATOM     62  C   UNL A   1      43.424  29.311  35.105  1.00  0.00     0.037 A 
ATOM     63  C   UNL A   1      38.260  32.718  33.006  1.00  0.00     0.049 A 
ATOM     64  C   UNL A   1      42.575  30.387  35.728  1.00  0.00     0.074 A 
ATOM     65  C   UNL A   1      37.514  33.647  33.711  1.00  0.00     0.029 A 
ATOM     66  N   UNL A   1      39.274  32.295  33.855  1.00  0.00    -0.354 N 
ATOM     67  N   UNL A   1      41.538  31.013  35.225  1.00  0.00    -0.248 NA
ATOM     68  C   UNL A   1      42.935  30.814  37.087  1.00  0.00     0.031 C 
ATOM     69  C   UNL A   1      38.105  33.823  34.964  1.00  0.00     0.029 A 
ATOM     70  C   UNL A   1      39.184  32.959  35.067  1.00  0.00     0.049 A 
ATOM     71  H   UNL A   1      39.955  31.622  33.630  1.00  0.00     0.167 HD
ATOM     72  C   UNL A   1      41.100  31.883  36.219  1.00  0.00     0.074 A 
ATOM     73  C   UNL A   1      41.979  31.695  37.354  1.00  0.00     0.031 C 
ATOM     74  C   UNL A   1      40.063  32.757  36.193  1.00  0.00     0.037 A 
BRANCH  61  75
ATOM     75  C   UNL A   1      36.920  32.821  30.866  1.00  0.00     0.058 A 
ATOM     76  C   UNL A   1      37.115  33.853  29.933  1.00  0.00     0.135 A 
ATOM     77  C   UNL A   1      35.625  32.292  30.993  1.00  0.00     0.135 A 
ATOM     78  F   UNL A   1      38.328  34.408  29.782  1.00  0.00    -0.206 F 
ATOM     79  C   UNL A   1      36.064  34.354  29.172  1.00  0.00     0.059 A 
ATOM     80  C   UNL A   1      34.565  32.757  30.219  1.00  0.00     0.059 A 
ATOM     81  F   UNL A   1      35.380  31.307  31.871  1.00  0.00    -0.206 F 
ATOM     82  C   UNL A   1      34.794  33.795  29.317  1.00  0.00     0.060 A 
BRANCH  82  83
ATOM     83  S   UNL A   1      33.450  34.447  28.304  1.00  0.00     0.124 S 
ATOM     84  O   UNL A   1      32.621  35.107  29.308  1.00  0.00    -0.237 OA
ATOM     85  O   UNL A   1      34.158  35.333  27.386  1.00  0.00    -0.237 OA
ATOM     86  O   UNL A   1      32.869  33.254  27.699  1.00  0.00    -0.744 OA
ENDBRANCH  82  83
ENDBRANCH  61  75
BRANCH  62  87
ATOM     87  C   UNL A   1      44.543  28.684  35.860  1.00  0.00     0.058 A 
ATOM     88  C   UNL A   1      45.850  29.179  35.749  1.00  0.00     0.135 A 
ATOM     89  C   UNL A   1      44.328  27.599  36.724  1.00  0.00     0.135 A 
ATOM     90  F   UNL A   1      46.110  30.210  34.930  1.00  0.00    -0.206 F 
ATOM     91  C   UNL A   1      46.908  28.616  36.456  1.00  0.00     0.059 A 
ATOM     92  C   UNL A   1      45.365  27.036  37.465  1.00  0.00     0.059 A 
ATOM     93  F   UNL A   1      43.094  27.094  36.879  1.00  0.00    -0.206 F 
ATOM     94  C   UNL A   1      46.653  27.548  37.319  1.00  0.00     0.060 A 
BRANCH  94  95
ATOM     95  S   UNL A   1      48.025  26.864  38.272  1.00  0.00     0.124 S 
ATOM     96  O   UNL A   1      47.819  25.431  38.100  1.00  0.00    -0.237 OA
ATOM     97  O   UNL A   1      49.182  27.430  37.585  1.00  0.00    -0.237 OA
ATOM     98  O   UNL A   1      47.789  27.379  39.618  1.00  0.00    -0.744 OA
ENDBRANCH  94  95
ENDBRANCH  62  87
BRANCH  74  99
ATOM     99  C   UNL A   1      39.793  33.558  37.440  1.00  0.00     0.058 A 
ATOM    100  C   UNL A   1      40.466  34.760  37.707  1.00  0.00     0.135 A 
ATOM    101  C   UNL A   1      38.801  33.148  38.345  1.00  0.00     0.135 A 
ATOM    102  F   UNL A   1      41.427  35.197  36.877  1.00  0.00    -0.206 F 
ATOM    103  C   UNL A   1      40.184  35.514  38.842  1.00  0.00     0.059 A 
ATOM    104  C   UNL A   1      38.478  33.903  39.468  1.00  0.00     0.059 A 
ATOM    105  F   UNL A   1      38.116  32.013  38.131  1.00  0.00    -0.206 F 
ATOM    106  C   UNL A   1      39.184  35.079  39.714  1.00  0.00     0.060 A 
BRANCH 106 107
ATOM    107  S   UNL A   1      38.810  36.085  41.165  1.00  0.00     0.124 S 
ATOM    108  O   UNL A   1      40.053  35.983  41.923  1.00  0.00    -0.237 OA
ATOM    109  O   UNL A   1      38.533  37.391  40.573  1.00  0.00    -0.237 OA
ATOM    110  O   UNL A   1      37.657  35.414  41.759  1.00  0.00    -0.744 OA
ENDBRANCH 106 107
ENDBRANCH  74  99
ENDBRANCH  48  49
ENDBRANCH  40  43
ENDBRANCH  38  39
ENDBRANCH  37  38
ENDBRANCH  36  37
ENDBRANCH  35  36
ENDBRANCH   1  35
TORSDOF 23
ENDMDL
MODEL 3
REMARK VINA RESULT:     -11.3      0.749      7.844
REMARK SMILES Cc1c(-c2ccc(O)cc2)nc(N)c(C#N)c1-c1ccccc1OCC(=O)NCCCCCCNC(=O)c1ccc(-c2c3nc(c(-c4c(F)cc(S(=O)(=O)[O-])cc4F)c4ccc([nH]4)c(-c4c(F)cc(S(=O)(=O)[O-])cc4F)c4nc(c(-c5c(F)cc(S(=O)(=O)[O-])cc5F)c5ccc2[nH]5)C=C4)C=C3)cc1
REMARK SMILES IDX 30 1 29 2 28 3 26 4 27 5 25 7 24 8 23 9 18 10 19 11 20 12
REMARK SMILES IDX 22 13 21 14 17 15 1 16 2 17 3 18 11 19 14 20 12 21 4 22 5 23
REMARK SMILES IDX 10 24 6 25 9 26 7 27 8 28 15 30 16 31 13 32 31 35 32 36
REMARK SMILES IDX 33 37 34 38 35 39 36 40 37 42 38 43 39 44 103 45 40 46
REMARK SMILES IDX 102 47 41 48 42 49 43 50 96 51 44 52 101 53 95 54 97 55
REMARK SMILES IDX 45 56 100 57 94 58 93 59 46 61 80 62 59 63 79 64 60 65 63 66
REMARK SMILES IDX 78 67 98 68 61 69 62 70 77 72 99 73 64 74 47 75 48 76 57 77
REMARK SMILES IDX 49 78 50 79 56 80 58 81 51 82 52 83 53 84 54 85 55 86 81 87
REMARK SMILES IDX 82 88 91 89 83 90 84 91 90 92 92 93 85 94 86 95 87 96 88 97
REMARK SMILES IDX 89 98 65 99 66 100 75 101 67 102 68 103 74 104 76 105 69 106
REMARK SMILES IDX 70 107 71 108 72 109 73 110
REMARK H PARENT 28 6 8 29 13 33 13 34 35 41 97 60 63 71
REMARK Flexibility Score: inf
ROOT
ATOM      1  C   UNL A   1      39.366  22.870  26.143  1.00  0.00     0.021 C 
ENDROOT
BRANCH   1   2
ATOM      2  C   UNL A   1      37.985  23.529  26.150  1.00  0.00     0.116 C 
BRANCH   2   3
ATOM      3  N   UNL A   1      36.870  22.635  25.921  1.00  0.00    -0.353 N 
ATOM      4  C   UNL A   1      35.798  22.829  25.099  1.00  0.00     0.257 C 
ATOM      5  O   UNL A   1      35.247  21.835  24.622  1.00  0.00    -0.271 OA
ATOM      6  H   UNL A   1      36.887  21.787  26.419  1.00  0.00     0.163 HD
BRANCH   4   7
ATOM      7  C   UNL A   1      35.305  24.229  24.732  1.00  0.00     0.329 C 
BRANCH   7   8
ATOM      8  O   UNL A   1      34.342  24.806  25.577  1.00  0.00    -0.483 OA
BRANCH   8   9
ATOM      9  C   UNL A   1      33.093  24.311  25.796  1.00  0.00     0.127 A 
ATOM     10  C   UNL A   1      31.867  24.533  25.130  1.00  0.00     0.026 A 
ATOM     11  C   UNL A   1      30.748  23.775  25.554  1.00  0.00     0.012 A 
ATOM     12  C   UNL A   1      30.826  22.853  26.601  1.00  0.00     0.001 A 
ATOM     13  C   UNL A   1      33.148  23.373  26.847  1.00  0.00     0.047 A 
ATOM     14  C   UNL A   1      32.031  22.655  27.253  1.00  0.00     0.004 A 
BRANCH  10  15
ATOM     15  C   UNL A   1      31.644  25.481  24.006  1.00  0.00     0.012 A 
ATOM     16  C   UNL A   1      30.964  27.315  25.619  1.00  0.00     0.047 C 
ATOM     17  C   UNL A   1      31.109  26.776  24.223  1.00  0.00    -0.015 A 
ATOM     18  C   UNL A   1      30.768  27.555  23.097  1.00  0.00     0.076 A 
ATOM     19  N   UNL A   1      31.074  27.160  21.834  1.00  0.00    -0.230 NA
ATOM     20  C   UNL A   1      31.980  25.112  22.685  1.00  0.00     0.102 A 
ATOM     21  C   UNL A   1      31.701  25.990  21.640  1.00  0.00     0.142 A 
BRANCH  18  22
ATOM     22  C   UNL A   1      29.893  28.755  23.144  1.00  0.00     0.001 A 
ATOM     23  C   UNL A   1      28.561  28.647  22.687  1.00  0.00     0.014 A 
ATOM     24  C   UNL A   1      30.279  29.986  23.697  1.00  0.00     0.014 A 
ATOM     25  C   UNL A   1      27.635  29.677  22.860  1.00  0.00     0.047 A 
ATOM     26  C   UNL A   1      29.352  31.022  23.884  1.00  0.00     0.047 A 
ATOM     27  C   UNL A   1      28.034  30.850  23.479  1.00  0.00     0.115 A 
BRANCH  27  28
ATOM     28  O   UNL A   1      27.091  31.813  23.682  1.00  0.00    -0.508 OA
ATOM     29  H   UNL A   1      26.181  31.589  23.666  1.00  0.00     0.293 HD
ENDBRANCH  27  28
ENDBRANCH  18  22
BRANCH  20  30
ATOM     30  C   UNL A   1      32.643  23.873  22.397  1.00  0.00     0.104 C 
ATOM     31  N   UNL A   1      33.237  22.903  22.162  1.00  0.00    -0.192 NA
ENDBRANCH  20  30
BRANCH  21  32
ATOM     32  N   UNL A   1      31.967  25.701  20.314  1.00  0.00    -0.383 N 
ATOM     33  H   UNL A   1      31.359  26.021  19.610  1.00  0.00     0.158 HD
ATOM     34  H   UNL A   1      32.764  25.176  20.076  1.00  0.00     0.158 HD
ENDBRANCH  21  32
ENDBRANCH  10  15
ENDBRANCH   8   9
ENDBRANCH   7   8
ENDBRANCH   4   7
ENDBRANCH   2   3
ENDBRANCH   1   2
BRANCH   1  35
ATOM     35  C   UNL A   1      40.265  23.079  27.368  1.00  0.00     0.002 C 
BRANCH  35  36
ATOM     36  C   UNL A   1      40.958  21.849  27.952  1.00  0.00     0.002 C 
BRANCH  36  37
ATOM     37  C   UNL A   1      40.840  20.565  27.137  1.00  0.00     0.021 C 
BRANCH  37  38
ATOM     38  C   UNL A   1      41.913  19.521  27.413  1.00  0.00     0.116 C 
BRANCH  38  39
ATOM     39  N   UNL A   1      42.646  19.145  26.216  1.00  0.00    -0.352 N 
ATOM     40  C   UNL A   1      43.390  19.941  25.376  1.00  0.00     0.251 C 
ATOM     41  H   UNL A   1      42.605  18.191  25.974  1.00  0.00     0.163 HD
ATOM     42  O   UNL A   1      43.802  19.495  24.310  1.00  0.00    -0.269 OA
BRANCH  40  43
ATOM     43  C   UNL A   1      43.664  21.345  25.755  1.00  0.00     0.039 A 
ATOM     44  C   UNL A   1      44.361  21.605  26.937  1.00  0.00     0.014 A 
ATOM     45  C   UNL A   1      43.256  22.399  24.932  1.00  0.00     0.014 A 
ATOM     46  C   UNL A   1      44.707  22.920  27.259  1.00  0.00     0.010 A 
ATOM     47  C   UNL A   1      43.671  23.698  25.214  1.00  0.00     0.010 A 
ATOM     48  C   UNL A   1      44.397  23.973  26.382  1.00  0.00    -0.014 A 
BRANCH  48  49
ATOM     49  C   UNL A   1      44.814  25.369  26.672  1.00  0.00     0.031 A 
ATOM     50  C   UNL A   1      43.798  26.374  27.139  1.00  0.00     0.074 A 
ATOM     51  C   UNL A   1      46.093  25.742  26.469  1.00  0.00     0.049 A 
ATOM     52  N   UNL A   1      43.948  27.651  27.378  1.00  0.00    -0.248 NA
ATOM     53  C   UNL A   1      42.425  25.883  27.349  1.00  0.00     0.031 C 
ATOM     54  C   UNL A   1      47.167  24.863  25.998  1.00  0.00     0.029 A 
ATOM     55  N   UNL A   1      46.711  26.958  26.632  1.00  0.00    -0.354 N 
ATOM     56  C   UNL A   1      42.696  28.114  27.768  1.00  0.00     0.074 A 
ATOM     57  C   UNL A   1      41.783  26.997  27.669  1.00  0.00     0.031 C 
ATOM     58  C   UNL A   1      48.313  25.560  25.940  1.00  0.00     0.029 A 
ATOM     59  C   UNL A   1      48.051  26.944  26.324  1.00  0.00     0.049 A 
ATOM     60  H   UNL A   1      46.238  27.764  26.940  1.00  0.00     0.167 HD
ATOM     61  C   UNL A   1      42.347  29.350  28.196  1.00  0.00     0.037 A 
ATOM     62  C   UNL A   1      48.964  27.936  26.341  1.00  0.00     0.037 A 
ATOM     63  C   UNL A   1      43.264  30.455  28.298  1.00  0.00     0.049 A 
ATOM     64  C   UNL A   1      48.538  29.315  26.770  1.00  0.00     0.074 A 
ATOM     65  C   UNL A   1      43.012  31.743  28.739  1.00  0.00     0.029 A 
ATOM     66  N   UNL A   1      44.608  30.406  27.957  1.00  0.00    -0.354 N 
ATOM     67  N   UNL A   1      47.356  29.728  27.161  1.00  0.00    -0.248 NA
ATOM     68  C   UNL A   1      49.569  30.362  26.760  1.00  0.00     0.031 C 
ATOM     69  C   UNL A   1      44.189  32.486  28.614  1.00  0.00     0.029 A 
ATOM     70  C   UNL A   1      45.193  31.646  28.157  1.00  0.00     0.049 A 
ATOM     71  H   UNL A   1      45.078  29.609  27.622  1.00  0.00     0.167 HD
ATOM     72  C   UNL A   1      47.509  31.074  27.476  1.00  0.00     0.074 A 
ATOM     73  C   UNL A   1      48.900  31.402  27.240  1.00  0.00     0.031 C 
ATOM     74  C   UNL A   1      46.582  31.958  27.923  1.00  0.00     0.037 A 
BRANCH  61  75
ATOM     75  C   UNL A   1      40.914  29.574  28.598  1.00  0.00     0.058 A 
ATOM     76  C   UNL A   1      39.871  29.528  27.657  1.00  0.00     0.135 A 
ATOM     77  C   UNL A   1      40.570  29.777  29.945  1.00  0.00     0.135 A 
ATOM     78  F   UNL A   1      40.143  29.355  26.354  1.00  0.00    -0.206 F 
ATOM     79  C   UNL A   1      38.543  29.696  28.035  1.00  0.00     0.059 A 
ATOM     80  C   UNL A   1      39.245  29.916  30.349  1.00  0.00     0.059 A 
ATOM     81  F   UNL A   1      41.525  29.833  30.886  1.00  0.00    -0.206 F 
ATOM     82  C   UNL A   1      38.239  29.883  29.383  1.00  0.00     0.060 A 
BRANCH  82  83
ATOM     83  S   UNL A   1      36.507  30.078  29.852  1.00  0.00     0.124 S 
ATOM     84  O   UNL A   1      36.427  29.227  31.035  1.00  0.00    -0.237 OA
ATOM     85  O   UNL A   1      36.413  31.513  30.098  1.00  0.00    -0.237 OA
ATOM     86  O   UNL A   1      35.780  29.595  28.683  1.00  0.00    -0.744 OA
ENDBRANCH  82  83
ENDBRANCH  61  75
BRANCH  62  87
ATOM     87  C   UNL A   1      50.378  27.651  25.972  1.00  0.00     0.058 A 
ATOM     88  C   UNL A   1      51.342  27.399  26.958  1.00  0.00     0.135 A 
ATOM     89  C   UNL A   1      50.790  27.602  24.630  1.00  0.00     0.135 A 
ATOM     90  F   UNL A   1      51.001  27.443  28.256  1.00  0.00    -0.206 F 
ATOM     91  C   UNL A   1      52.665  27.119  26.633  1.00  0.00     0.059 A 
ATOM     92  C   UNL A   1      52.102  27.296  24.278  1.00  0.00     0.059 A 
ATOM     93  F   UNL A   1      49.906  27.822  23.645  1.00  0.00    -0.206 F 
ATOM     94  C   UNL A   1      53.034  27.062  25.288  1.00  0.00     0.060 A 
BRANCH  94  95
ATOM     95  S   UNL A   1      54.742  26.641  24.879  1.00  0.00     0.124 S 
ATOM     96  O   UNL A   1      54.641  25.209  24.629  1.00  0.00    -0.237 OA
ATOM     97  O   UNL A   1      54.987  27.480  23.710  1.00  0.00    -0.237 OA
ATOM     98  O   UNL A   1      55.479  27.022  26.081  1.00  0.00    -0.744 OA
ENDBRANCH  94  95
ENDBRANCH  62  87
BRANCH  74  99
ATOM     99  C   UNL A   1      47.040  33.362  28.221  1.00  0.00     0.058 A 
ATOM    100  C   UNL A   1      47.113  34.344  27.221  1.00  0.00     0.135 A 
ATOM    101  C   UNL A   1      47.347  33.742  29.537  1.00  0.00     0.135 A 
ATOM    102  F   UNL A   1      46.834  34.033  25.945  1.00  0.00    -0.206 F 
ATOM    103  C   UNL A   1      47.501  35.648  27.511  1.00  0.00     0.059 A 
ATOM    104  C   UNL A   1      47.703  35.049  29.856  1.00  0.00     0.059 A 
ATOM    105  F   UNL A   1      47.280  32.847  30.535  1.00  0.00    -0.206 F 
ATOM    106  C   UNL A   1      47.789  35.992  28.834  1.00  0.00     0.060 A 
BRANCH 106 107
ATOM    107  S   UNL A   1      48.261  37.696  29.197  1.00  0.00     0.124 S 
ATOM    108  O   UNL A   1      48.851  37.562  30.525  1.00  0.00    -0.237 OA
ATOM    109  O   UNL A   1      49.195  37.996  28.115  1.00  0.00    -0.237 OA
ATOM    110  O   UNL A   1      46.995  38.420  29.144  1.00  0.00    -0.744 OA
ENDBRANCH 106 107
ENDBRANCH  74  99
ENDBRANCH  48  49
ENDBRANCH  40  43
ENDBRANCH  38  39
ENDBRANCH  37  38
ENDBRANCH  36  37
ENDBRANCH  35  36
ENDBRANCH   1  35
TORSDOF 23
ENDMDL
