MODEL 1
REMARK VINA RESULT:     -13.7      0.000      0.000
REMARK SMILES Cc1ccc(C(=O)NCCCCCCNC(=O)c2ccc(-c3c4nc(c(-c5c(F)cc(S(=O)(=O)[O-])cc5F)c5ccc([nH]5)c(-c5c(F)cc(S(=O)(=O)[O-])cc5F)c5nc(c(-c6c(F)cc(S(=O)(=O)[O-])cc6F)c6ccc3[nH]6)C=C5)C=C4)cc2)c(Oc2cccc(F)c2C(N)=O)c1
REMARK SMILES IDX 11 1 10 2 9 3 8 4 6 5 7 6 5 8 1 9 2 10 3 11 96 12 4 13 84 14
REMARK SMILES IDX 85 15 86 16 87 17 92 18 88 19 90 20 89 21 91 22 93 23 94 24
REMARK SMILES IDX 95 25 12 28 13 29 14 30 15 31 16 32 17 34 18 35 19 36 83 37
REMARK SMILES IDX 20 38 82 39 21 40 22 41 23 42 76 43 24 44 81 45 75 46 77 47
REMARK SMILES IDX 25 48 80 49 74 50 73 51 26 53 60 54 39 55 59 56 40 57 43 58
REMARK SMILES IDX 58 59 78 60 41 61 42 62 57 64 79 65 44 66 27 67 28 68 37 69
REMARK SMILES IDX 29 70 30 71 36 72 38 73 31 74 32 75 33 76 34 77 35 78 61 79
REMARK SMILES IDX 62 80 71 81 63 82 64 83 70 84 72 85 65 86 66 87 67 88 68 89
REMARK SMILES IDX 69 90 45 91 46 92 55 93 47 94 48 95 54 96 56 97 49 98 50 99
REMARK SMILES IDX 51 100 52 101 53 102
REMARK H PARENT 8 7 94 26 94 27 15 33 77 52 43 63
REMARK Flexibility Score: inf
ROOT
ATOM      1  C   UNL A   1      32.980  27.416  24.973  1.00  0.00     0.002 C 
ENDROOT
BRANCH   1   2
ATOM      2  C   UNL A   1      31.959  26.958  26.016  1.00  0.00     0.021 C 
BRANCH   2   3
ATOM      3  C   UNL A   1      31.131  25.713  25.720  1.00  0.00     0.116 C 
BRANCH   3   4
ATOM      4  N   UNL A   1      31.239  24.622  26.650  1.00  0.00    -0.352 N 
ATOM      5  C   UNL A   1      32.217  23.664  26.793  1.00  0.00     0.255 C 
ATOM      6  O   UNL A   1      32.128  22.936  27.790  1.00  0.00    -0.269 OA
ATOM      7  H   UNL A   1      30.492  24.548  27.289  1.00  0.00     0.163 HD
BRANCH   5   8
ATOM      8  C   UNL A   1      33.327  23.374  25.819  1.00  0.00     0.082 A 
ATOM      9  C   UNL A   1      36.731  23.136  23.124  1.00  0.00     0.044 C 
ATOM     10  C   UNL A   1      35.554  23.241  24.047  1.00  0.00    -0.047 A 
ATOM     11  C   UNL A   1      35.555  24.141  25.108  1.00  0.00     0.004 A 
ATOM     12  C   UNL A   1      34.420  22.452  23.842  1.00  0.00     0.051 A 
ATOM     13  C   UNL A   1      34.453  24.213  25.968  1.00  0.00     0.018 A 
ATOM     14  C   UNL A   1      33.339  22.465  24.746  1.00  0.00     0.140 A 
BRANCH  14  15
ATOM     15  O   UNL A   1      32.251  21.674  24.489  1.00  0.00    -0.456 OA
BRANCH  15  16
ATOM     16  C   UNL A   1      32.300  20.635  23.575  1.00  0.00     0.143 A 
ATOM     17  C   UNL A   1      31.832  21.042  22.312  1.00  0.00     0.048 A 
ATOM     18  C   UNL A   1      32.645  19.284  23.766  1.00  0.00     0.117 A 
ATOM     19  C   UNL A   1      31.728  20.144  21.249  1.00  0.00     0.007 A 
ATOM     20  C   UNL A   1      32.534  18.394  22.688  1.00  0.00     0.139 A 
ATOM     21  C   UNL A   1      32.079  18.814  21.441  1.00  0.00     0.040 A 
ATOM     22  F   UNL A   1      32.843  17.098  22.836  1.00  0.00    -0.206 F 
BRANCH  18  23
ATOM     23  C   UNL A   1      33.211  18.695  24.992  1.00  0.00     0.255 C 
ATOM     24  N   UNL A   1      34.565  18.555  25.075  1.00  0.00    -0.365 N 
ATOM     25  O   UNL A   1      32.474  18.355  25.910  1.00  0.00    -0.269 OA
ATOM     26  H   UNL A   1      35.136  18.835  24.324  1.00  0.00     0.159 HD
ATOM     27  H   UNL A   1      34.972  18.175  25.888  1.00  0.00     0.159 HD
ENDBRANCH  18  23
ENDBRANCH  15  16
ENDBRANCH  14  15
ENDBRANCH   5   8
ENDBRANCH   3   4
ENDBRANCH   2   3
ENDBRANCH   1   2
BRANCH   1  28
ATOM     28  C   UNL A   1      34.004  28.487  25.373  1.00  0.00     0.002 C 
BRANCH  28  29
ATOM     29  C   UNL A   1      33.529  29.626  26.274  1.00  0.00     0.021 C 
BRANCH  29  30
ATOM     30  C   UNL A   1      34.198  29.698  27.640  1.00  0.00     0.116 C 
BRANCH  30  31
ATOM     31  N   UNL A   1      34.919  30.945  27.856  1.00  0.00    -0.352 N 
ATOM     32  C   UNL A   1      36.213  31.108  28.328  1.00  0.00     0.251 C 
ATOM     33  H   UNL A   1      34.429  31.770  27.641  1.00  0.00     0.163 HD
ATOM     34  O   UNL A   1      36.664  32.185  28.659  1.00  0.00    -0.269 OA
BRANCH  32  35
ATOM     35  C   UNL A   1      37.067  29.902  28.313  1.00  0.00     0.039 A 
ATOM     36  C   UNL A   1      37.207  29.206  29.518  1.00  0.00     0.014 A 
ATOM     37  C   UNL A   1      37.916  29.670  27.236  1.00  0.00     0.014 A 
ATOM     38  C   UNL A   1      38.322  28.395  29.708  1.00  0.00     0.010 A 
ATOM     39  C   UNL A   1      39.064  28.935  27.455  1.00  0.00     0.010 A 
ATOM     40  C   UNL A   1      39.288  28.334  28.703  1.00  0.00    -0.014 A 
BRANCH  40  41
ATOM     41  C   UNL A   1      40.606  27.746  28.898  1.00  0.00     0.031 A 
ATOM     42  C   UNL A   1      40.870  26.349  28.493  1.00  0.00     0.074 A 
ATOM     43  C   UNL A   1      41.621  28.492  29.386  1.00  0.00     0.049 A 
ATOM     44  N   UNL A   1      41.796  25.615  29.016  1.00  0.00    -0.248 NA
ATOM     45  C   UNL A   1      40.087  25.653  27.477  1.00  0.00     0.031 C 
ATOM     46  C   UNL A   1      43.044  28.166  29.356  1.00  0.00     0.029 A 
ATOM     47  N   UNL A   1      41.542  29.624  30.199  1.00  0.00    -0.354 N 
ATOM     48  C   UNL A   1      41.928  24.502  28.225  1.00  0.00     0.074 A 
ATOM     49  C   UNL A   1      40.797  24.531  27.327  1.00  0.00     0.031 C 
ATOM     50  C   UNL A   1      43.678  28.892  30.289  1.00  0.00     0.029 A 
ATOM     51  C   UNL A   1      42.664  29.602  31.046  1.00  0.00     0.049 A 
ATOM     52  H   UNL A   1      40.834  30.308  30.183  1.00  0.00     0.167 HD
ATOM     53  C   UNL A   1      43.057  23.744  28.293  1.00  0.00     0.037 A 
ATOM     54  C   UNL A   1      42.531  29.549  32.404  1.00  0.00     0.037 A 
ATOM     55  C   UNL A   1      44.000  24.254  29.282  1.00  0.00     0.049 A 
ATOM     56  C   UNL A   1      43.166  28.333  33.039  1.00  0.00     0.074 A 
ATOM     57  C   UNL A   1      45.128  25.052  29.178  1.00  0.00     0.029 A 
ATOM     58  N   UNL A   1      43.669  24.226  30.633  1.00  0.00    -0.354 N 
ATOM     59  N   UNL A   1      43.503  27.254  32.388  1.00  0.00    -0.248 NA
ATOM     60  C   UNL A   1      43.475  28.236  34.462  1.00  0.00     0.031 C 
ATOM     61  C   UNL A   1      45.470  25.515  30.471  1.00  0.00     0.029 A 
ATOM     62  C   UNL A   1      44.553  24.996  31.366  1.00  0.00     0.049 A 
ATOM     63  H   UNL A   1      42.911  23.727  31.013  1.00  0.00     0.167 HD
ATOM     64  C   UNL A   1      44.042  26.329  33.254  1.00  0.00     0.074 A 
ATOM     65  C   UNL A   1      44.026  27.011  34.535  1.00  0.00     0.031 C 
ATOM     66  C   UNL A   1      44.448  25.095  32.818  1.00  0.00     0.037 A 
BRANCH  53  67
ATOM     67  C   UNL A   1      43.386  22.745  27.213  1.00  0.00     0.058 A 
ATOM     68  C   UNL A   1      42.778  21.474  27.177  1.00  0.00     0.135 A 
ATOM     69  C   UNL A   1      44.362  22.975  26.224  1.00  0.00     0.135 A 
ATOM     70  F   UNL A   1      41.797  21.138  28.024  1.00  0.00    -0.206 F 
ATOM     71  C   UNL A   1      43.176  20.473  26.293  1.00  0.00     0.059 A 
ATOM     72  C   UNL A   1      44.812  21.974  25.359  1.00  0.00     0.059 A 
ATOM     73  F   UNL A   1      44.921  24.189  26.085  1.00  0.00    -0.206 F 
ATOM     74  C   UNL A   1      44.218  20.718  25.408  1.00  0.00     0.060 A 
BRANCH  74  75
ATOM     75  S   UNL A   1      44.802  19.364  24.370  1.00  0.00     0.124 S 
ATOM     76  O   UNL A   1      44.039  18.228  24.880  1.00  0.00    -0.237 OA
ATOM     77  O   UNL A   1      44.435  19.827  23.036  1.00  0.00    -0.237 OA
ATOM     78  O   UNL A   1      46.235  19.318  24.649  1.00  0.00    -0.744 OA
ENDBRANCH  74  75
ENDBRANCH  53  67
BRANCH  54  79
ATOM     79  C   UNL A   1      41.330  30.273  32.900  1.00  0.00     0.058 A 
ATOM     80  C   UNL A   1      40.180  29.509  33.186  1.00  0.00     0.135 A 
ATOM     81  C   UNL A   1      41.429  31.540  33.492  1.00  0.00     0.135 A 
ATOM     82  F   UNL A   1      40.032  28.291  32.638  1.00  0.00    -0.206 F 
ATOM     83  C   UNL A   1      39.252  29.910  34.140  1.00  0.00     0.059 A 
ATOM     84  C   UNL A   1      40.502  31.966  34.448  1.00  0.00     0.059 A 
ATOM     85  F   UNL A   1      42.499  32.313  33.258  1.00  0.00    -0.206 F 
ATOM     86  C   UNL A   1      39.456  31.113  34.810  1.00  0.00     0.060 A 
BRANCH  86  87
ATOM     87  S   UNL A   1      38.441  31.445  36.270  1.00  0.00     0.124 S 
ATOM     88  O   UNL A   1      37.325  32.191  35.699  1.00  0.00    -0.237 OA
ATOM     89  O   UNL A   1      38.126  30.094  36.730  1.00  0.00    -0.237 OA
ATOM     90  O   UNL A   1      39.335  32.208  37.134  1.00  0.00    -0.744 OA
ENDBRANCH  86  87
ENDBRANCH  54  79
BRANCH  66  91
ATOM     91  C   UNL A   1      44.893  23.889  33.643  1.00  0.00     0.058 A 
ATOM     92  C   UNL A   1      44.089  22.786  33.975  1.00  0.00     0.135 A 
ATOM     93  C   UNL A   1      46.253  23.765  34.048  1.00  0.00     0.135 A 
ATOM     94  F   UNL A   1      42.816  22.695  33.575  1.00  0.00    -0.206 F 
ATOM     95  C   UNL A   1      44.571  21.685  34.694  1.00  0.00     0.059 A 
ATOM     96  C   UNL A   1      46.767  22.652  34.713  1.00  0.00     0.059 A 
ATOM     97  F   UNL A   1      47.159  24.721  33.798  1.00  0.00    -0.206 F 
ATOM     98  C   UNL A   1      45.912  21.623  35.056  1.00  0.00     0.060 A 
BRANCH  98  99
ATOM     99  S   UNL A   1      46.547  20.165  35.902  1.00  0.00     0.124 S 
ATOM    100  O   UNL A   1      47.980  20.439  35.920  1.00  0.00    -0.237 OA
ATOM    101  O   UNL A   1      45.876  20.232  37.198  1.00  0.00    -0.237 OA
ATOM    102  O   UNL A   1      46.124  19.063  35.044  1.00  0.00    -0.744 OA
ENDBRANCH  98  99
ENDBRANCH  66  91
ENDBRANCH  40  41
ENDBRANCH  32  35
ENDBRANCH  30  31
ENDBRANCH  29  30
ENDBRANCH  28  29
ENDBRANCH   1  28
TORSDOF 19
ENDMDL
MODEL 2
REMARK VINA RESULT:     -13.6      1.725      2.582
REMARK SMILES Cc1ccc(C(=O)NCCCCCCNC(=O)c2ccc(-c3c4nc(c(-c5c(F)cc(S(=O)(=O)[O-])cc5F)c5ccc([nH]5)c(-c5c(F)cc(S(=O)(=O)[O-])cc5F)c5nc(c(-c6c(F)cc(S(=O)(=O)[O-])cc6F)c6ccc3[nH]6)C=C5)C=C4)cc2)c(Oc2cccc(F)c2C(N)=O)c1
REMARK SMILES IDX 11 1 10 2 9 3 8 4 6 5 7 6 5 8 1 9 2 10 3 11 96 12 4 13 84 14
REMARK SMILES IDX 85 15 86 16 87 17 92 18 88 19 90 20 89 21 91 22 93 23 94 24
REMARK SMILES IDX 95 25 12 28 13 29 14 30 15 31 16 32 17 34 18 35 19 36 83 37
REMARK SMILES IDX 20 38 82 39 21 40 22 41 23 42 76 43 24 44 81 45 75 46 77 47
REMARK SMILES IDX 25 48 80 49 74 50 73 51 26 53 60 54 39 55 59 56 40 57 43 58
REMARK SMILES IDX 58 59 78 60 41 61 42 62 57 64 79 65 44 66 27 67 28 68 37 69
REMARK SMILES IDX 29 70 30 71 36 72 38 73 31 74 32 75 33 76 34 77 35 78 61 79
REMARK SMILES IDX 62 80 71 81 63 82 64 83 70 84 72 85 65 86 66 87 67 88 68 89
REMARK SMILES IDX 69 90 45 91 46 92 55 93 47 94 48 95 54 96 56 97 49 98 50 99
REMARK SMILES IDX 51 100 52 101 53 102
REMARK H PARENT 8 7 94 26 94 27 15 33 77 52 43 63
REMARK Flexibility Score: inf
ROOT
ATOM      1  C   UNL A   1      32.870  28.824  23.992  1.00  0.00     0.002 C 
ENDROOT
BRANCH   1   2
ATOM      2  C   UNL A   1      33.869  27.718  23.647  1.00  0.00     0.021 C 
BRANCH   2   3
ATOM      3  C   UNL A   1      33.702  26.980  22.323  1.00  0.00     0.116 C 
BRANCH   3   4
ATOM      4  N   UNL A   1      32.921  25.773  22.344  1.00  0.00    -0.352 N 
ATOM      5  C   UNL A   1      33.099  24.606  23.054  1.00  0.00     0.255 C 
ATOM      6  O   UNL A   1      32.175  23.785  22.995  1.00  0.00    -0.269 OA
ATOM      7  H   UNL A   1      32.130  25.782  21.756  1.00  0.00     0.163 HD
BRANCH   5   8
ATOM      8  C   UNL A   1      34.332  24.210  23.820  1.00  0.00     0.082 A 
ATOM      9  C   UNL A   1      37.932  22.571  25.624  1.00  0.00     0.044 C 
ATOM     10  C   UNL A   1      36.682  23.113  24.998  1.00  0.00    -0.047 A 
ATOM     11  C   UNL A   1      36.367  22.834  23.672  1.00  0.00     0.004 A 
ATOM     12  C   UNL A   1      35.796  23.892  25.745  1.00  0.00     0.051 A 
ATOM     13  C   UNL A   1      35.204  23.363  23.100  1.00  0.00     0.018 A 
ATOM     14  C   UNL A   1      34.663  24.489  25.157  1.00  0.00     0.140 A 
BRANCH  14  15
ATOM     15  O   UNL A   1      33.827  25.237  25.942  1.00  0.00    -0.456 OA
BRANCH  15  16
ATOM     16  C   UNL A   1      32.485  24.925  26.089  1.00  0.00     0.143 A 
ATOM     17  C   UNL A   1      31.671  26.052  25.867  1.00  0.00     0.048 A 
ATOM     18  C   UNL A   1      31.881  23.724  26.503  1.00  0.00     0.117 A 
ATOM     19  C   UNL A   1      30.286  25.992  26.024  1.00  0.00     0.007 A 
ATOM     20  C   UNL A   1      30.488  23.680  26.658  1.00  0.00     0.139 A 
ATOM     21  C   UNL A   1      29.694  24.800  26.424  1.00  0.00     0.040 A 
ATOM     22  F   UNL A   1      29.879  22.556  27.061  1.00  0.00    -0.206 F 
BRANCH  18  23
ATOM     23  C   UNL A   1      32.562  22.435  26.718  1.00  0.00     0.255 C 
ATOM     24  N   UNL A   1      32.969  22.124  27.982  1.00  0.00    -0.365 N 
ATOM     25  O   UNL A   1      32.741  21.667  25.781  1.00  0.00    -0.269 OA
ATOM     26  H   UNL A   1      32.815  22.757  28.719  1.00  0.00     0.159 HD
ATOM     27  H   UNL A   1      33.417  21.264  28.158  1.00  0.00     0.159 HD
ENDBRANCH  18  23
ENDBRANCH  15  16
ENDBRANCH  14  15
ENDBRANCH   5   8
ENDBRANCH   3   4
ENDBRANCH   2   3
ENDBRANCH   1   2
BRANCH   1  28
ATOM     28  C   UNL A   1      32.990  29.517  25.355  1.00  0.00     0.002 C 
BRANCH  28  29
ATOM     29  C   UNL A   1      34.242  29.241  26.189  1.00  0.00     0.021 C 
BRANCH  29  30
ATOM     30  C   UNL A   1      34.127  29.581  27.668  1.00  0.00     0.116 C 
BRANCH  30  31
ATOM     31  N   UNL A   1      34.808  30.819  28.022  1.00  0.00    -0.352 N 
ATOM     32  C   UNL A   1      36.082  30.968  28.547  1.00  0.00     0.251 C 
ATOM     33  H   UNL A   1      34.301  31.649  27.871  1.00  0.00     0.163 HD
ATOM     34  O   UNL A   1      36.495  32.019  28.992  1.00  0.00    -0.269 OA
BRANCH  32  35
ATOM     35  C   UNL A   1      36.970  29.791  28.446  1.00  0.00     0.039 A 
ATOM     36  C   UNL A   1      37.127  29.010  29.596  1.00  0.00     0.014 A 
ATOM     37  C   UNL A   1      37.825  29.663  27.356  1.00  0.00     0.014 A 
ATOM     38  C   UNL A   1      38.264  28.218  29.728  1.00  0.00     0.010 A 
ATOM     39  C   UNL A   1      38.993  28.945  27.524  1.00  0.00     0.010 A 
ATOM     40  C   UNL A   1      39.232  28.259  28.724  1.00  0.00    -0.014 A 
BRANCH  40  41
ATOM     41  C   UNL A   1      40.566  27.694  28.879  1.00  0.00     0.031 A 
ATOM     42  C   UNL A   1      40.839  26.299  28.476  1.00  0.00     0.074 A 
ATOM     43  C   UNL A   1      41.583  28.461  29.327  1.00  0.00     0.049 A 
ATOM     44  N   UNL A   1      41.794  25.585  28.972  1.00  0.00    -0.248 NA
ATOM     45  C   UNL A   1      40.034  25.582  27.491  1.00  0.00     0.031 C 
ATOM     46  C   UNL A   1      43.010  28.158  29.252  1.00  0.00     0.029 A 
ATOM     47  N   UNL A   1      41.513  29.597  30.134  1.00  0.00    -0.354 N 
ATOM     48  C   UNL A   1      41.918  24.467  28.185  1.00  0.00     0.074 A 
ATOM     49  C   UNL A   1      40.757  24.470  27.325  1.00  0.00     0.031 C 
ATOM     50  C   UNL A   1      43.662  28.902  30.157  1.00  0.00     0.029 A 
ATOM     51  C   UNL A   1      42.663  29.601  30.943  1.00  0.00     0.049 A 
ATOM     52  H   UNL A   1      40.793  30.269  30.137  1.00  0.00     0.167 HD
ATOM     53  C   UNL A   1      43.061  23.728  28.221  1.00  0.00     0.037 A 
ATOM     54  C   UNL A   1      42.577  29.556  32.305  1.00  0.00     0.037 A 
ATOM     55  C   UNL A   1      44.028  24.262  29.174  1.00  0.00     0.049 A 
ATOM     56  C   UNL A   1      43.253  28.355  32.927  1.00  0.00     0.074 A 
ATOM     57  C   UNL A   1      45.139  25.078  29.026  1.00  0.00     0.029 A 
ATOM     58  N   UNL A   1      43.743  24.238  30.535  1.00  0.00    -0.354 N 
ATOM     59  N   UNL A   1      43.586  27.277  32.273  1.00  0.00    -0.248 NA
ATOM     60  C   UNL A   1      43.611  28.274  34.339  1.00  0.00     0.031 C 
ATOM     61  C   UNL A   1      45.516  25.556  30.304  1.00  0.00     0.029 A 
ATOM     62  C   UNL A   1      44.639  25.029  31.233  1.00  0.00     0.049 A 
ATOM     63  H   UNL A   1      43.007  23.730  30.945  1.00  0.00     0.167 HD
ATOM     64  C   UNL A   1      44.169  26.368  33.127  1.00  0.00     0.074 A 
ATOM     65  C   UNL A   1      44.185  27.059  34.403  1.00  0.00     0.031 C 
ATOM     66  C   UNL A   1      44.580  25.137  32.687  1.00  0.00     0.037 A 
BRANCH  53  67
ATOM     67  C   UNL A   1      43.370  22.727  27.138  1.00  0.00     0.058 A 
ATOM     68  C   UNL A   1      42.714  21.481  27.079  1.00  0.00     0.135 A 
ATOM     69  C   UNL A   1      44.372  22.928  26.168  1.00  0.00     0.135 A 
ATOM     70  F   UNL A   1      41.706  21.176  27.906  1.00  0.00    -0.206 F 
ATOM     71  C   UNL A   1      43.089  20.472  26.193  1.00  0.00     0.059 A 
ATOM     72  C   UNL A   1      44.798  21.916  25.301  1.00  0.00     0.059 A 
ATOM     73  F   UNL A   1      44.980  24.120  26.050  1.00  0.00    -0.206 F 
ATOM     74  C   UNL A   1      44.155  20.685  25.329  1.00  0.00     0.060 A 
BRANCH  74  75
ATOM     75  S   UNL A   1      44.705  19.318  24.289  1.00  0.00     0.124 S 
ATOM     76  O   UNL A   1      43.834  18.228  24.720  1.00  0.00    -0.237 OA
ATOM     77  O   UNL A   1      44.453  19.838  22.950  1.00  0.00    -0.237 OA
ATOM     78  O   UNL A   1      46.112  19.163  24.650  1.00  0.00    -0.744 OA
ENDBRANCH  74  75
ENDBRANCH  53  67
BRANCH  54  79
ATOM     79  C   UNL A   1      41.381  30.264  32.837  1.00  0.00     0.058 A 
ATOM     80  C   UNL A   1      40.259  29.482  33.178  1.00  0.00     0.135 A 
ATOM     81  C   UNL A   1      41.477  31.541  33.406  1.00  0.00     0.135 A 
ATOM     82  F   UNL A   1      40.114  28.253  32.653  1.00  0.00    -0.206 F 
ATOM     83  C   UNL A   1      39.359  29.879  34.160  1.00  0.00     0.059 A 
ATOM     84  C   UNL A   1      40.578  31.964  34.390  1.00  0.00     0.059 A 
ATOM     85  F   UNL A   1      42.521  32.332  33.119  1.00  0.00    -0.206 F 
ATOM     86  C   UNL A   1      39.564  31.097  34.804  1.00  0.00     0.060 A 
BRANCH  86  87
ATOM     87  S   UNL A   1      38.599  31.431  36.297  1.00  0.00     0.124 S 
ATOM     88  O   UNL A   1      38.180  30.091  36.691  1.00  0.00    -0.237 OA
ATOM     89  O   UNL A   1      39.594  32.061  37.163  1.00  0.00    -0.237 OA
ATOM     90  O   UNL A   1      37.538  32.311  35.820  1.00  0.00    -0.744 OA
ENDBRANCH  86  87
ENDBRANCH  54  79
BRANCH  66  91
ATOM     91  C   UNL A   1      45.074  23.946  33.505  1.00  0.00     0.058 A 
ATOM     92  C   UNL A   1      46.345  23.831  34.093  1.00  0.00     0.135 A 
ATOM     93  C   UNL A   1      44.184  22.880  33.822  1.00  0.00     0.135 A 
ATOM     94  F   UNL A   1      47.262  24.797  33.985  1.00  0.00    -0.206 F 
ATOM     95  C   UNL A   1      46.722  22.733  34.876  1.00  0.00     0.059 A 
ATOM     96  C   UNL A   1      44.520  21.806  34.646  1.00  0.00     0.059 A 
ATOM     97  F   UNL A   1      42.928  22.840  33.354  1.00  0.00    -0.206 F 
ATOM     98  C   UNL A   1      45.803  21.726  35.152  1.00  0.00     0.060 A 
BRANCH  98  99
ATOM     99  S   UNL A   1      46.265  20.361  36.232  1.00  0.00     0.124 S 
ATOM    100  O   UNL A   1      45.465  19.271  35.683  1.00  0.00    -0.237 OA
ATOM    101  O   UNL A   1      47.705  20.257  36.015  1.00  0.00    -0.237 OA
ATOM    102  O   UNL A   1      45.871  20.828  37.557  1.00  0.00    -0.744 OA
ENDBRANCH  98  99
ENDBRANCH  66  91
ENDBRANCH  40  41
ENDBRANCH  32  35
ENDBRANCH  30  31
ENDBRANCH  29  30
ENDBRANCH  28  29
ENDBRANCH   1  28
TORSDOF 19
ENDMDL
MODEL 3
REMARK VINA RESULT:     -12.9      2.277      3.097
REMARK SMILES Cc1ccc(C(=O)NCCCCCCNC(=O)c2ccc(-c3c4nc(c(-c5c(F)cc(S(=O)(=O)[O-])cc5F)c5ccc([nH]5)c(-c5c(F)cc(S(=O)(=O)[O-])cc5F)c5nc(c(-c6c(F)cc(S(=O)(=O)[O-])cc6F)c6ccc3[nH]6)C=C5)C=C4)cc2)c(Oc2cccc(F)c2C(N)=O)c1
REMARK SMILES IDX 11 1 10 2 9 3 8 4 6 5 7 6 5 8 1 9 2 10 3 11 96 12 4 13 84 14
REMARK SMILES IDX 85 15 86 16 87 17 92 18 88 19 90 20 89 21 91 22 93 23 94 24
REMARK SMILES IDX 95 25 12 28 13 29 14 30 15 31 16 32 17 34 18 35 19 36 83 37
REMARK SMILES IDX 20 38 82 39 21 40 22 41 23 42 76 43 24 44 81 45 75 46 77 47
REMARK SMILES IDX 25 48 80 49 74 50 73 51 26 53 60 54 39 55 59 56 40 57 43 58
REMARK SMILES IDX 58 59 78 60 41 61 42 62 57 64 79 65 44 66 27 67 28 68 37 69
REMARK SMILES IDX 29 70 30 71 36 72 38 73 31 74 32 75 33 76 34 77 35 78 61 79
REMARK SMILES IDX 62 80 71 81 63 82 64 83 70 84 72 85 65 86 66 87 67 88 68 89
REMARK SMILES IDX 69 90 45 91 46 92 55 93 47 94 48 95 54 96 56 97 49 98 50 99
REMARK SMILES IDX 51 100 52 101 53 102
REMARK H PARENT 8 7 94 26 94 27 15 33 77 52 43 63
REMARK Flexibility Score: inf
ROOT
ATOM      1  C   UNL A   1      32.808  28.933  23.707  1.00  0.00     0.002 C 
ENDROOT
BRANCH   1   2
ATOM      2  C   UNL A   1      33.760  27.747  23.549  1.00  0.00     0.021 C 
BRANCH   2   3
ATOM      3  C   UNL A   1      33.674  26.916  22.273  1.00  0.00     0.116 C 
BRANCH   3   4
ATOM      4  N   UNL A   1      32.901  25.705  22.336  1.00  0.00    -0.352 N 
ATOM      5  C   UNL A   1      33.085  24.565  23.086  1.00  0.00     0.255 C 
ATOM      6  O   UNL A   1      32.167  23.737  23.055  1.00  0.00    -0.269 OA
ATOM      7  H   UNL A   1      32.112  25.688  21.745  1.00  0.00     0.163 HD
BRANCH   5   8
ATOM      8  C   UNL A   1      34.319  24.205  23.869  1.00  0.00     0.082 A 
ATOM      9  C   UNL A   1      37.930  22.661  25.734  1.00  0.00     0.044 C 
ATOM     10  C   UNL A   1      36.677  23.170  25.087  1.00  0.00    -0.047 A 
ATOM     11  C   UNL A   1      36.375  22.858  23.765  1.00  0.00     0.004 A 
ATOM     12  C   UNL A   1      35.773  23.951  25.811  1.00  0.00     0.051 A 
ATOM     13  C   UNL A   1      35.209  23.357  23.174  1.00  0.00     0.018 A 
ATOM     14  C   UNL A   1      34.635  24.518  25.202  1.00  0.00     0.140 A 
BRANCH  14  15
ATOM     15  O   UNL A   1      33.782  25.269  25.965  1.00  0.00    -0.456 OA
BRANCH  15  16
ATOM     16  C   UNL A   1      32.441  24.948  26.099  1.00  0.00     0.143 A 
ATOM     17  C   UNL A   1      31.620  26.065  25.852  1.00  0.00     0.048 A 
ATOM     18  C   UNL A   1      31.841  23.747  26.519  1.00  0.00     0.117 A 
ATOM     19  C   UNL A   1      30.234  25.995  25.991  1.00  0.00     0.007 A 
ATOM     20  C   UNL A   1      30.447  23.693  26.655  1.00  0.00     0.139 A 
ATOM     21  C   UNL A   1      29.647  24.803  26.397  1.00  0.00     0.040 A 
ATOM     22  F   UNL A   1      29.842  22.569  27.064  1.00  0.00    -0.206 F 
BRANCH  18  23
ATOM     23  C   UNL A   1      32.530  22.466  26.759  1.00  0.00     0.255 C 
ATOM     24  N   UNL A   1      33.010  22.217  28.011  1.00  0.00    -0.365 N 
ATOM     25  O   UNL A   1      32.651  21.652  25.853  1.00  0.00    -0.269 OA
ATOM     26  H   UNL A   1      32.900  22.887  28.723  1.00  0.00     0.159 HD
ATOM     27  H   UNL A   1      33.464  21.364  28.204  1.00  0.00     0.159 HD
ENDBRANCH  18  23
ENDBRANCH  15  16
ENDBRANCH  14  15
ENDBRANCH   5   8
ENDBRANCH   3   4
ENDBRANCH   2   3
ENDBRANCH   1   2
BRANCH   1  28
ATOM     28  C   UNL A   1      32.699  29.603  25.084  1.00  0.00     0.002 C 
BRANCH  28  29
ATOM     29  C   UNL A   1      33.644  29.127  26.186  1.00  0.00     0.021 C 
BRANCH  29  30
ATOM     30  C   UNL A   1      33.287  29.586  27.593  1.00  0.00     0.116 C 
BRANCH  30  31
ATOM     31  N   UNL A   1      33.774  30.925  27.896  1.00  0.00    -0.352 N 
ATOM     32  C   UNL A   1      34.968  31.278  28.504  1.00  0.00     0.251 C 
ATOM     33  H   UNL A   1      33.182  31.668  27.637  1.00  0.00     0.163 HD
ATOM     34  O   UNL A   1      35.205  32.404  28.890  1.00  0.00    -0.269 OA
BRANCH  32  35
ATOM     35  C   UNL A   1      36.002  30.224  28.569  1.00  0.00     0.039 A 
ATOM     36  C   UNL A   1      36.208  29.609  29.808  1.00  0.00     0.014 A 
ATOM     37  C   UNL A   1      36.913  30.084  27.527  1.00  0.00     0.014 A 
ATOM     38  C   UNL A   1      37.429  28.994  30.066  1.00  0.00     0.010 A 
ATOM     39  C   UNL A   1      38.154  29.550  27.811  1.00  0.00     0.010 A 
ATOM     40  C   UNL A   1      38.426  29.045  29.092  1.00  0.00    -0.014 A 
BRANCH  40  41
ATOM     41  C   UNL A   1      39.813  28.682  29.351  1.00  0.00     0.031 A 
ATOM     42  C   UNL A   1      40.358  27.402  28.850  1.00  0.00     0.074 A 
ATOM     43  C   UNL A   1      40.636  29.542  29.989  1.00  0.00     0.049 A 
ATOM     44  N   UNL A   1      41.363  26.794  29.386  1.00  0.00    -0.248 NA
ATOM     45  C   UNL A   1      39.790  26.686  27.711  1.00  0.00     0.031 C 
ATOM     46  C   UNL A   1      42.093  29.477  30.057  1.00  0.00     0.029 A 
ATOM     47  N   UNL A   1      40.293  30.553  30.888  1.00  0.00    -0.354 N 
ATOM     48  C   UNL A   1      41.754  25.808  28.516  1.00  0.00     0.074 A 
ATOM     49  C   UNL A   1      40.703  25.728  27.527  1.00  0.00     0.031 C 
ATOM     50  C   UNL A   1      42.515  30.204  31.102  1.00  0.00     0.029 A 
ATOM     51  C   UNL A   1      41.336  30.643  31.826  1.00  0.00     0.049 A 
ATOM     52  H   UNL A   1      39.474  31.099  30.869  1.00  0.00     0.167 HD
ATOM     53  C   UNL A   1      42.996  25.258  28.617  1.00  0.00     0.037 A 
ATOM     54  C   UNL A   1      41.120  30.430  33.157  1.00  0.00     0.037 A 
ATOM     55  C   UNL A   1      43.756  25.823  29.726  1.00  0.00     0.049 A 
ATOM     56  C   UNL A   1      41.921  29.286  33.737  1.00  0.00     0.074 A 
ATOM     57  C   UNL A   1      44.722  26.815  29.792  1.00  0.00     0.029 A 
ATOM     58  N   UNL A   1      43.340  25.599  31.034  1.00  0.00    -0.354 N 
ATOM     59  N   UNL A   1      42.496  28.356  33.026  1.00  0.00    -0.248 NA
ATOM     60  C   UNL A   1      42.141  29.101  35.167  1.00  0.00     0.031 C 
ATOM     61  C   UNL A   1      44.881  27.196  31.146  1.00  0.00     0.029 A 
ATOM     62  C   UNL A   1      44.014  26.435  31.907  1.00  0.00     0.049 A 
ATOM     63  H   UNL A   1      42.662  24.938  31.301  1.00  0.00     0.167 HD
ATOM     64  C   UNL A   1      43.134  27.457  33.852  1.00  0.00     0.074 A 
ATOM     65  C   UNL A   1      42.901  27.991  35.182  1.00  0.00     0.031 C 
ATOM     66  C   UNL A   1      43.789  26.365  33.347  1.00  0.00     0.037 A 
BRANCH  53  67
ATOM     67  C   UNL A   1      43.578  24.448  27.487  1.00  0.00     0.058 A 
ATOM     68  C   UNL A   1      43.288  23.077  27.338  1.00  0.00     0.135 A 
ATOM     69  C   UNL A   1      44.498  24.974  26.559  1.00  0.00     0.135 A 
ATOM     70  F   UNL A   1      42.392  22.459  28.117  1.00  0.00    -0.206 F 
ATOM     71  C   UNL A   1      43.934  22.266  26.407  1.00  0.00     0.059 A 
ATOM     72  C   UNL A   1      45.194  24.174  25.647  1.00  0.00     0.059 A 
ATOM     73  F   UNL A   1      44.759  26.292  26.526  1.00  0.00    -0.206 F 
ATOM     74  C   UNL A   1      44.911  22.814  25.586  1.00  0.00     0.060 A 
BRANCH  74  75
ATOM     75  S   UNL A   1      45.825  21.717  24.485  1.00  0.00     0.124 S 
ATOM     76  O   UNL A   1      46.813  22.617  23.896  1.00  0.00    -0.237 OA
ATOM     77  O   UNL A   1      46.348  20.723  25.416  1.00  0.00    -0.237 OA
ATOM     78  O   UNL A   1      44.801  21.237  23.560  1.00  0.00    -0.744 OA
ENDBRANCH  74  75
ENDBRANCH  53  67
BRANCH  54  79
ATOM     79  C   UNL A   1      39.773  30.876  33.607  1.00  0.00     0.058 A 
ATOM     80  C   UNL A   1      39.601  32.247  33.884  1.00  0.00     0.135 A 
ATOM     81  C   UNL A   1      38.624  30.118  33.345  1.00  0.00     0.135 A 
ATOM     82  F   UNL A   1      40.670  33.018  34.149  1.00  0.00    -0.206 F 
ATOM     83  C   UNL A   1      38.367  32.873  33.748  1.00  0.00     0.059 A 
ATOM     84  C   UNL A   1      37.372  30.726  33.213  1.00  0.00     0.059 A 
ATOM     85  F   UNL A   1      38.724  28.809  33.075  1.00  0.00    -0.206 F 
ATOM     86  C   UNL A   1      37.270  32.112  33.352  1.00  0.00     0.060 A 
BRANCH  86  87
ATOM     87  S   UNL A   1      35.772  32.996  32.851  1.00  0.00     0.124 S 
ATOM     88  O   UNL A   1      36.317  34.083  32.047  1.00  0.00    -0.237 OA
ATOM     89  O   UNL A   1      35.049  31.964  32.110  1.00  0.00    -0.237 OA
ATOM     90  O   UNL A   1      35.174  33.387  34.122  1.00  0.00    -0.744 OA
ENDBRANCH  86  87
ENDBRANCH  54  79
BRANCH  66  91
ATOM     91  C   UNL A   1      44.390  25.179  34.100  1.00  0.00     0.058 A 
ATOM     92  C   UNL A   1      43.658  24.163  34.738  1.00  0.00     0.135 A 
ATOM     93  C   UNL A   1      45.799  24.973  34.100  1.00  0.00     0.135 A 
ATOM     94  F   UNL A   1      42.321  24.148  34.735  1.00  0.00    -0.206 F 
ATOM     95  C   UNL A   1      44.267  23.072  35.371  1.00  0.00     0.059 A 
ATOM     96  C   UNL A   1      46.422  23.865  34.673  1.00  0.00     0.059 A 
ATOM     97  F   UNL A   1      46.643  25.839  33.521  1.00  0.00    -0.206 F 
ATOM     98  C   UNL A   1      45.650  22.928  35.330  1.00  0.00     0.060 A 
BRANCH  98  99
ATOM     99  S   UNL A   1      46.422  21.477  36.068  1.00  0.00     0.124 S 
ATOM    100  O   UNL A   1      47.749  21.988  36.396  1.00  0.00    -0.237 OA
ATOM    101  O   UNL A   1      45.554  21.200  37.209  1.00  0.00    -0.237 OA
ATOM    102  O   UNL A   1      46.372  20.486  34.999  1.00  0.00    -0.744 OA
ENDBRANCH  98  99
ENDBRANCH  66  91
ENDBRANCH  40  41
ENDBRANCH  32  35
ENDBRANCH  30  31
ENDBRANCH  29  30
ENDBRANCH  28  29
ENDBRANCH   1  28
TORSDOF 19
ENDMDL
