MODEL 1
REMARK VINA RESULT:     -11.6      0.000      0.000
REMARK SMILES CCC[C@@H](C(=O)N1CC[C@@](C)(C(=O)NCCCCCCNC(=O)c2ccc(-c3c4nc(c(-c5c(F)cc(S(=O)(=O)[O-])cc5F)c5ccc([nH]5)c(-c5c(F)cc(S(=O)(=O)[O-])cc5F)c5nc(c(-c6c(F)cc(S(=O)(=O)[O-])cc6F)c6ccc3[nH]6)C=C5)C=C4)cc2)C1)c1ccccc1
REMARK SMILES IDX 17 1 16 2 15 3 14 4 12 5 13 6 10 8 7 9 8 10 90 11 9 12 11 13
REMARK SMILES IDX 5 14 6 15 4 16 3 17 2 18 1 19 91 20 92 21 96 22 93 23 95 24
REMARK SMILES IDX 94 25 18 26 19 27 20 28 21 29 22 30 23 32 24 33 25 34 89 35
REMARK SMILES IDX 26 36 88 37 27 38 28 39 29 40 82 41 30 42 87 43 81 44 83 45
REMARK SMILES IDX 31 46 86 47 80 48 79 49 32 51 66 52 45 53 65 54 46 55 49 56
REMARK SMILES IDX 64 57 84 58 47 59 48 60 63 62 85 63 50 64 33 65 34 66 43 67
REMARK SMILES IDX 35 68 36 69 42 70 44 71 37 72 38 73 39 74 40 75 41 76 67 77
REMARK SMILES IDX 68 78 77 79 69 80 70 81 76 82 78 83 71 84 72 85 73 86 74 87
REMARK SMILES IDX 75 88 51 89 52 90 61 91 53 92 54 93 60 94 62 95 55 96 56 97
REMARK SMILES IDX 57 98 58 99 59 100
REMARK H PARENT 14 7 21 31 83 50 49 61
REMARK Flexibility Score: inf
ROOT
ATOM      1  C   UNL A   1      35.899  21.422  25.252  1.00  0.00     0.002 C 
ENDROOT
BRANCH   1   2
ATOM      2  C   UNL A   1      34.504  20.883  25.579  1.00  0.00     0.021 C 
BRANCH   2   3
ATOM      3  C   UNL A   1      33.331  21.690  25.034  1.00  0.00     0.116 C 
BRANCH   3   4
ATOM      4  N   UNL A   1      33.593  22.229  23.718  1.00  0.00    -0.356 N 
ATOM      5  C   UNL A   1      33.558  23.498  23.243  1.00  0.00     0.227 C 
ATOM      6  O   UNL A   1      33.852  23.621  22.050  1.00  0.00    -0.274 OA
ATOM      7  H   UNL A   1      33.841  21.552  23.047  1.00  0.00     0.163 HD
BRANCH   5   8
ATOM      8  C   UNL A   1      33.086  24.702  24.085  1.00  0.00     0.066 C 
ATOM      9  N   UNL A   1      31.409  26.170  23.177  1.00  0.00    -0.341 N 
ATOM     10  C   UNL A   1      30.704  25.036  23.741  1.00  0.00     0.120 C 
ATOM     11  C   UNL A   1      32.819  25.891  23.130  1.00  0.00     0.136 C 
ATOM     12  C   UNL A   1      31.702  24.402  24.699  1.00  0.00     0.040 C 
ATOM     13  C   UNL A   1      34.077  25.182  25.157  1.00  0.00     0.024 C 
BRANCH   9  14
ATOM     14  C   UNL A   1      30.768  27.345  22.864  1.00  0.00     0.230 C 
ATOM     15  O   UNL A   1      30.697  27.669  21.670  1.00  0.00    -0.274 OA
BRANCH  14  16
ATOM     16  C   UNL A   1      30.309  28.357  23.977  1.00  0.00     0.108 C 
BRANCH  16  17
ATOM     17  C   UNL A   1      29.925  29.835  23.699  1.00  0.00     0.018 C 
BRANCH  17  18
ATOM     18  C   UNL A   1      28.633  30.211  22.948  1.00  0.00    -0.002 C 
ATOM     19  C   UNL A   1      27.708  31.220  23.606  1.00  0.00     0.004 C 
ENDBRANCH  17  18
ENDBRANCH  16  17
BRANCH  16  20
ATOM     20  C   UNL A   1      31.407  28.427  25.068  1.00  0.00    -0.036 A 
ATOM     21  C   UNL A   1      31.224  27.784  26.301  1.00  0.00     0.004 A 
ATOM     22  C   UNL A   1      32.587  29.164  24.856  1.00  0.00     0.004 A 
ATOM     23  C   UNL A   1      32.193  27.888  27.302  1.00  0.00     0.000 A 
ATOM     24  C   UNL A   1      33.551  29.266  25.859  1.00  0.00     0.000 A 
ATOM     25  C   UNL A   1      33.352  28.632  27.083  1.00  0.00     0.000 A 
ENDBRANCH  16  20
ENDBRANCH  14  16
ENDBRANCH   9  14
ENDBRANCH   5   8
ENDBRANCH   3   4
ENDBRANCH   2   3
ENDBRANCH   1   2
BRANCH   1  26
ATOM     26  C   UNL A   1      36.370  22.619  26.080  1.00  0.00     0.002 C 
BRANCH  26  27
ATOM     27  C   UNL A   1      37.534  23.419  25.493  1.00  0.00     0.021 C 
BRANCH  27  28
ATOM     28  C   UNL A   1      38.448  24.091  26.512  1.00  0.00     0.116 C 
BRANCH  28  29
ATOM     29  N   UNL A   1      39.857  23.923  26.202  1.00  0.00    -0.352 N 
ATOM     30  C   UNL A   1      40.927  24.682  26.606  1.00  0.00     0.251 C 
ATOM     31  H   UNL A   1      40.075  23.159  25.621  1.00  0.00     0.163 HD
ATOM     32  O   UNL A   1      42.040  24.476  26.123  1.00  0.00    -0.269 OA
BRANCH  30  33
ATOM     33  C   UNL A   1      40.737  25.763  27.596  1.00  0.00     0.039 A 
ATOM     34  C   UNL A   1      39.735  25.625  28.560  1.00  0.00     0.014 A 
ATOM     35  C   UNL A   1      41.545  26.905  27.584  1.00  0.00     0.014 A 
ATOM     36  C   UNL A   1      39.584  26.603  29.548  1.00  0.00     0.010 A 
ATOM     37  C   UNL A   1      41.443  27.838  28.613  1.00  0.00     0.010 A 
ATOM     38  C   UNL A   1      40.461  27.700  29.604  1.00  0.00    -0.014 A 
BRANCH  38  39
ATOM     39  C   UNL A   1      40.365  28.705  30.695  1.00  0.00     0.031 A 
ATOM     40  C   UNL A   1      41.225  28.575  31.925  1.00  0.00     0.074 A 
ATOM     41  C   UNL A   1      39.461  29.701  30.605  1.00  0.00     0.049 A 
ATOM     42  N   UNL A   1      41.240  29.316  33.003  1.00  0.00    -0.248 NA
ATOM     43  C   UNL A   1      42.173  27.449  31.959  1.00  0.00     0.031 C 
ATOM     44  C   UNL A   1      38.536  29.905  29.487  1.00  0.00     0.029 A 
ATOM     45  N   UNL A   1      39.161  30.724  31.471  1.00  0.00    -0.354 N 
ATOM     46  C   UNL A   1      42.184  28.742  33.846  1.00  0.00     0.074 A 
ATOM     47  C   UNL A   1      42.682  27.560  33.177  1.00  0.00     0.031 C 
ATOM     48  C   UNL A   1      37.789  30.994  29.726  1.00  0.00     0.029 A 
ATOM     49  C   UNL A   1      38.147  31.543  31.030  1.00  0.00     0.049 A 
ATOM     50  H   UNL A   1      39.628  30.858  32.327  1.00  0.00     0.167 HD
ATOM     51  C   UNL A   1      42.612  29.172  35.057  1.00  0.00     0.037 A 
ATOM     52  C   UNL A   1      37.562  32.606  31.615  1.00  0.00     0.037 A 
ATOM     53  C   UNL A   1      42.127  30.363  35.705  1.00  0.00     0.049 A 
ATOM     54  C   UNL A   1      38.052  33.064  32.963  1.00  0.00     0.074 A 
ATOM     55  C   UNL A   1      42.544  30.920  36.901  1.00  0.00     0.029 A 
ATOM     56  N   UNL A   1      41.115  31.178  35.218  1.00  0.00    -0.354 N 
ATOM     57  N   UNL A   1      38.998  32.550  33.713  1.00  0.00    -0.248 NA
ATOM     58  C   UNL A   1      37.404  34.248  33.542  1.00  0.00     0.031 C 
ATOM     59  C   UNL A   1      41.745  32.037  37.166  1.00  0.00     0.029 A 
ATOM     60  C   UNL A   1      40.874  32.215  36.104  1.00  0.00     0.049 A 
ATOM     61  H   UNL A   1      40.638  31.039  34.368  1.00  0.00     0.167 HD
ATOM     62  C   UNL A   1      39.078  33.366  34.836  1.00  0.00     0.074 A 
ATOM     63  C   UNL A   1      38.094  34.413  34.662  1.00  0.00     0.031 C 
ATOM     64  C   UNL A   1      39.895  33.257  35.914  1.00  0.00     0.037 A 
BRANCH  51  65
ATOM     65  C   UNL A   1      43.657  28.352  35.765  1.00  0.00     0.058 A 
ATOM     66  C   UNL A   1      45.030  28.576  35.574  1.00  0.00     0.135 A 
ATOM     67  C   UNL A   1      43.280  27.360  36.687  1.00  0.00     0.135 A 
ATOM     68  F   UNL A   1      45.449  29.500  34.696  1.00  0.00    -0.206 F 
ATOM     69  C   UNL A   1      45.991  27.829  36.248  1.00  0.00     0.059 A 
ATOM     70  C   UNL A   1      44.223  26.622  37.395  1.00  0.00     0.059 A 
ATOM     71  F   UNL A   1      41.981  27.102  36.909  1.00  0.00    -0.206 F 
ATOM     72  C   UNL A   1      45.577  26.855  37.159  1.00  0.00     0.060 A 
BRANCH  72  73
ATOM     73  S   UNL A   1      46.837  25.904  38.034  1.00  0.00     0.124 S 
ATOM     74  O   UNL A   1      47.637  26.966  38.638  1.00  0.00    -0.237 OA
ATOM     75  O   UNL A   1      46.039  25.108  38.961  1.00  0.00    -0.237 OA
ATOM     76  O   UNL A   1      47.496  25.151  36.972  1.00  0.00    -0.744 OA
ENDBRANCH  72  73
ENDBRANCH  51  65
BRANCH  52  77
ATOM     77  C   UNL A   1      36.452  33.319  30.924  1.00  0.00     0.058 A 
ATOM     78  C   UNL A   1      35.126  33.200  31.366  1.00  0.00     0.135 A 
ATOM     79  C   UNL A   1      36.697  34.139  29.811  1.00  0.00     0.135 A 
ATOM     80  F   UNL A   1      34.838  32.422  32.421  1.00  0.00    -0.206 F 
ATOM     81  C   UNL A   1      34.080  33.851  30.718  1.00  0.00     0.059 A 
ATOM     82  C   UNL A   1      35.672  34.824  29.166  1.00  0.00     0.059 A 
ATOM     83  F   UNL A   1      37.950  34.302  29.358  1.00  0.00    -0.206 F 
ATOM     84  C   UNL A   1      34.364  34.664  29.620  1.00  0.00     0.060 A 
BRANCH  84  85
ATOM     85  S   UNL A   1      33.005  35.539  28.814  1.00  0.00     0.124 S 
ATOM     86  O   UNL A   1      32.250  36.029  29.961  1.00  0.00    -0.237 OA
ATOM     87  O   UNL A   1      33.714  36.550  28.035  1.00  0.00    -0.237 OA
ATOM     88  O   UNL A   1      32.355  34.494  28.028  1.00  0.00    -0.744 OA
ENDBRANCH  84  85
ENDBRANCH  52  77
BRANCH  64  89
ATOM     89  C   UNL A   1      39.790  34.318  36.976  1.00  0.00     0.058 A 
ATOM     90  C   UNL A   1      39.036  34.128  38.145  1.00  0.00     0.135 A 
ATOM     91  C   UNL A   1      40.501  35.523  36.845  1.00  0.00     0.135 A 
ATOM     92  F   UNL A   1      38.331  32.999  38.318  1.00  0.00    -0.206 F 
ATOM     93  C   UNL A   1      38.971  35.104  39.135  1.00  0.00     0.059 A 
ATOM     94  C   UNL A   1      40.477  36.498  37.837  1.00  0.00     0.059 A 
ATOM     95  F   UNL A   1      41.246  35.753  35.753  1.00  0.00    -0.206 F 
ATOM     96  C   UNL A   1      39.698  36.285  38.973  1.00  0.00     0.060 A 
BRANCH  96  97
ATOM     97  S   UNL A   1      39.633  37.527  40.281  1.00  0.00     0.124 S 
ATOM     98  O   UNL A   1      41.046  37.838  40.463  1.00  0.00    -0.237 OA
ATOM     99  O   UNL A   1      38.825  38.579  39.672  1.00  0.00    -0.237 OA
ATOM    100  O   UNL A   1      38.998  36.820  41.390  1.00  0.00    -0.744 OA
ENDBRANCH  96  97
ENDBRANCH  64  89
ENDBRANCH  38  39
ENDBRANCH  30  33
ENDBRANCH  28  29
ENDBRANCH  27  28
ENDBRANCH  26  27
ENDBRANCH   1  26
TORSDOF 21
ENDMDL
MODEL 2
REMARK VINA RESULT:     -11.0      0.856      2.179
REMARK SMILES CCC[C@@H](C(=O)N1CC[C@@](C)(C(=O)NCCCCCCNC(=O)c2ccc(-c3c4nc(c(-c5c(F)cc(S(=O)(=O)[O-])cc5F)c5ccc([nH]5)c(-c5c(F)cc(S(=O)(=O)[O-])cc5F)c5nc(c(-c6c(F)cc(S(=O)(=O)[O-])cc6F)c6ccc3[nH]6)C=C5)C=C4)cc2)C1)c1ccccc1
REMARK SMILES IDX 17 1 16 2 15 3 14 4 12 5 13 6 10 8 7 9 8 10 90 11 9 12 11 13
REMARK SMILES IDX 5 14 6 15 4 16 3 17 2 18 1 19 91 20 92 21 96 22 93 23 95 24
REMARK SMILES IDX 94 25 18 26 19 27 20 28 21 29 22 30 23 32 24 33 25 34 89 35
REMARK SMILES IDX 26 36 88 37 27 38 28 39 29 40 82 41 30 42 87 43 81 44 83 45
REMARK SMILES IDX 31 46 86 47 80 48 79 49 32 51 66 52 45 53 65 54 46 55 49 56
REMARK SMILES IDX 64 57 84 58 47 59 48 60 63 62 85 63 50 64 33 65 34 66 43 67
REMARK SMILES IDX 35 68 36 69 42 70 44 71 37 72 38 73 39 74 40 75 41 76 67 77
REMARK SMILES IDX 68 78 77 79 69 80 70 81 76 82 78 83 71 84 72 85 73 86 74 87
REMARK SMILES IDX 75 88 51 89 52 90 61 91 53 92 54 93 60 94 62 95 55 96 56 97
REMARK SMILES IDX 57 98 58 99 59 100
REMARK H PARENT 14 7 21 31 83 50 49 61
REMARK Flexibility Score: inf
ROOT
ATOM      1  C   UNL A   1      36.677  21.111  25.170  1.00  0.00     0.002 C 
ENDROOT
BRANCH   1   2
ATOM      2  C   UNL A   1      35.418  21.418  25.985  1.00  0.00     0.021 C 
BRANCH   2   3
ATOM      3  C   UNL A   1      34.107  20.893  25.413  1.00  0.00     0.116 C 
BRANCH   3   4
ATOM      4  N   UNL A   1      32.955  21.594  25.933  1.00  0.00    -0.356 N 
ATOM      5  C   UNL A   1      32.219  22.614  25.427  1.00  0.00     0.227 C 
ATOM      6  O   UNL A   1      31.273  22.980  26.133  1.00  0.00    -0.274 OA
ATOM      7  H   UNL A   1      32.650  21.272  26.812  1.00  0.00     0.163 HD
BRANCH   5   8
ATOM      8  C   UNL A   1      32.581  23.348  24.120  1.00  0.00     0.066 C 
ATOM      9  N   UNL A   1      32.558  25.755  24.093  1.00  0.00    -0.341 N 
ATOM     10  C   UNL A   1      33.836  25.360  24.652  1.00  0.00     0.120 C 
ATOM     11  C   UNL A   1      31.691  24.610  24.006  1.00  0.00     0.136 C 
ATOM     12  C   UNL A   1      34.014  23.914  24.216  1.00  0.00     0.040 C 
ATOM     13  C   UNL A   1      32.391  22.531  22.833  1.00  0.00     0.024 C 
BRANCH   9  14
ATOM     14  C   UNL A   1      32.325  27.030  23.634  1.00  0.00     0.230 C 
ATOM     15  O   UNL A   1      32.792  27.345  22.530  1.00  0.00    -0.274 OA
BRANCH  14  16
ATOM     16  C   UNL A   1      31.664  28.128  24.546  1.00  0.00     0.108 C 
BRANCH  16  17
ATOM     17  C   UNL A   1      31.356  27.929  26.054  1.00  0.00     0.018 C 
BRANCH  17  18
ATOM     18  C   UNL A   1      31.965  28.843  27.135  1.00  0.00    -0.002 C 
ATOM     19  C   UNL A   1      32.039  30.330  26.834  1.00  0.00     0.004 C 
ENDBRANCH  17  18
ENDBRANCH  16  17
BRANCH  16  20
ATOM     20  C   UNL A   1      30.315  28.552  23.915  1.00  0.00    -0.036 A 
ATOM     21  C   UNL A   1      30.050  29.904  23.650  1.00  0.00     0.004 A 
ATOM     22  C   UNL A   1      29.321  27.598  23.630  1.00  0.00     0.004 A 
ATOM     23  C   UNL A   1      28.814  30.292  23.126  1.00  0.00     0.000 A 
ATOM     24  C   UNL A   1      28.088  27.990  23.107  1.00  0.00     0.000 A 
ATOM     25  C   UNL A   1      27.833  29.337  22.860  1.00  0.00     0.000 A 
ENDBRANCH  16  20
ENDBRANCH  14  16
ENDBRANCH   9  14
ENDBRANCH   5   8
ENDBRANCH   3   4
ENDBRANCH   2   3
ENDBRANCH   1   2
BRANCH   1  26
ATOM     26  C   UNL A   1      37.781  22.169  25.211  1.00  0.00     0.002 C 
BRANCH  26  27
ATOM     27  C   UNL A   1      37.388  23.519  25.813  1.00  0.00     0.021 C 
BRANCH  27  28
ATOM     28  C   UNL A   1      38.445  24.179  26.691  1.00  0.00     0.116 C 
BRANCH  28  29
ATOM     29  N   UNL A   1      39.756  24.209  26.068  1.00  0.00    -0.352 N 
ATOM     30  C   UNL A   1      40.835  25.005  26.361  1.00  0.00     0.251 C 
ATOM     31  H   UNL A   1      39.890  23.569  25.332  1.00  0.00     0.163 HD
ATOM     32  O   UNL A   1      41.822  24.993  25.627  1.00  0.00    -0.269 OA
BRANCH  30  33
ATOM     33  C   UNL A   1      40.798  25.898  27.539  1.00  0.00     0.039 A 
ATOM     34  C   UNL A   1      41.806  26.852  27.693  1.00  0.00     0.014 A 
ATOM     35  C   UNL A   1      39.772  25.804  28.484  1.00  0.00     0.014 A 
ATOM     36  C   UNL A   1      41.752  27.752  28.762  1.00  0.00     0.010 A 
ATOM     37  C   UNL A   1      39.678  26.749  29.503  1.00  0.00     0.010 A 
ATOM     38  C   UNL A   1      40.667  27.732  29.655  1.00  0.00    -0.014 A 
BRANCH  38  39
ATOM     39  C   UNL A   1      40.554  28.733  30.748  1.00  0.00     0.031 A 
ATOM     40  C   UNL A   1      41.413  28.614  31.979  1.00  0.00     0.074 A 
ATOM     41  C   UNL A   1      39.635  29.716  30.658  1.00  0.00     0.049 A 
ATOM     42  N   UNL A   1      41.415  29.352  33.059  1.00  0.00    -0.248 NA
ATOM     43  C   UNL A   1      42.378  27.502  32.013  1.00  0.00     0.031 C 
ATOM     44  C   UNL A   1      38.710  29.908  29.539  1.00  0.00     0.029 A 
ATOM     45  N   UNL A   1      39.318  30.731  31.526  1.00  0.00    -0.354 N 
ATOM     46  C   UNL A   1      42.365  28.790  33.903  1.00  0.00     0.074 A 
ATOM     47  C   UNL A   1      42.882  27.618  33.232  1.00  0.00     0.031 C 
ATOM     48  C   UNL A   1      37.946  30.985  29.779  1.00  0.00     0.029 A 
ATOM     49  C   UNL A   1      38.292  31.536  31.085  1.00  0.00     0.049 A 
ATOM     50  H   UNL A   1      39.781  30.871  32.383  1.00  0.00     0.167 HD
ATOM     51  C   UNL A   1      42.785  29.224  35.115  1.00  0.00     0.037 A 
ATOM     52  C   UNL A   1      37.691  32.589  31.671  1.00  0.00     0.037 A 
ATOM     53  C   UNL A   1      42.281  30.407  35.765  1.00  0.00     0.049 A 
ATOM     54  C   UNL A   1      38.171  33.051  33.020  1.00  0.00     0.074 A 
ATOM     55  C   UNL A   1      42.686  30.967  36.964  1.00  0.00     0.029 A 
ATOM     56  N   UNL A   1      41.257  31.207  35.278  1.00  0.00    -0.354 N 
ATOM     57  N   UNL A   1      39.123  32.550  33.771  1.00  0.00    -0.248 NA
ATOM     58  C   UNL A   1      37.504  34.224  33.601  1.00  0.00     0.031 C 
ATOM     59  C   UNL A   1      41.870  32.071  37.229  1.00  0.00     0.029 A 
ATOM     60  C   UNL A   1      40.999  32.238  36.166  1.00  0.00     0.049 A 
ATOM     61  H   UNL A   1      40.784  31.063  34.427  1.00  0.00     0.167 HD
ATOM     62  C   UNL A   1      39.188  33.365  34.897  1.00  0.00     0.074 A 
ATOM     63  C   UNL A   1      38.189  34.397  34.723  1.00  0.00     0.031 C 
ATOM     64  C   UNL A   1      40.004  33.266  35.976  1.00  0.00     0.037 A 
BRANCH  51  65
ATOM     65  C   UNL A   1      43.840  28.419  35.825  1.00  0.00     0.058 A 
ATOM     66  C   UNL A   1      45.210  28.678  35.654  1.00  0.00     0.135 A 
ATOM     67  C   UNL A   1      43.476  27.404  36.726  1.00  0.00     0.135 A 
ATOM     68  F   UNL A   1      45.617  29.626  34.796  1.00  0.00    -0.206 F 
ATOM     69  C   UNL A   1      46.180  27.944  36.328  1.00  0.00     0.059 A 
ATOM     70  C   UNL A   1      44.428  26.678  37.435  1.00  0.00     0.059 A 
ATOM     71  F   UNL A   1      42.181  27.111  36.928  1.00  0.00    -0.206 F 
ATOM     72  C   UNL A   1      45.779  26.946  37.219  1.00  0.00     0.060 A 
BRANCH  72  73
ATOM     73  S   UNL A   1      47.051  26.012  38.095  1.00  0.00     0.124 S 
ATOM     74  O   UNL A   1      47.220  24.858  37.217  1.00  0.00    -0.237 OA
ATOM     75  O   UNL A   1      48.165  26.955  38.123  1.00  0.00    -0.237 OA
ATOM     76  O   UNL A   1      46.438  25.730  39.389  1.00  0.00    -0.744 OA
ENDBRANCH  72  73
ENDBRANCH  51  65
BRANCH  52  77
ATOM     77  C   UNL A   1      36.571  33.287  30.979  1.00  0.00     0.058 A 
ATOM     78  C   UNL A   1      35.251  33.178  31.441  1.00  0.00     0.135 A 
ATOM     79  C   UNL A   1      36.802  34.082  29.844  1.00  0.00     0.135 A 
ATOM     80  F   UNL A   1      34.977  32.425  32.517  1.00  0.00    -0.206 F 
ATOM     81  C   UNL A   1      34.197  33.815  30.793  1.00  0.00     0.059 A 
ATOM     82  C   UNL A   1      35.768  34.752  29.198  1.00  0.00     0.059 A 
ATOM     83  F   UNL A   1      38.048  34.234  29.371  1.00  0.00    -0.206 F 
ATOM     84  C   UNL A   1      34.466  34.603  29.674  1.00  0.00     0.060 A 
BRANCH  84  85
ATOM     85  S   UNL A   1      33.097  35.460  28.867  1.00  0.00     0.124 S 
ATOM     86  O   UNL A   1      32.307  35.896  30.012  1.00  0.00    -0.237 OA
ATOM     87  O   UNL A   1      33.789  36.513  28.129  1.00  0.00    -0.237 OA
ATOM     88  O   UNL A   1      32.492  34.419  28.039  1.00  0.00    -0.744 OA
ENDBRANCH  84  85
ENDBRANCH  52  77
BRANCH  64  89
ATOM     89  C   UNL A   1      39.881  34.323  37.040  1.00  0.00     0.058 A 
ATOM     90  C   UNL A   1      40.575  35.541  36.961  1.00  0.00     0.135 A 
ATOM     91  C   UNL A   1      39.012  34.135  38.128  1.00  0.00     0.135 A 
ATOM     92  F   UNL A   1      41.424  35.769  35.946  1.00  0.00    -0.206 F 
ATOM     93  C   UNL A   1      40.431  36.525  37.933  1.00  0.00     0.059 A 
ATOM     94  C   UNL A   1      38.827  35.119  39.094  1.00  0.00     0.059 A 
ATOM     95  F   UNL A   1      38.316  32.995  38.248  1.00  0.00    -0.206 F 
ATOM     96  C   UNL A   1      39.551  36.306  38.996  1.00  0.00     0.060 A 
BRANCH  96  97
ATOM     97  S   UNL A   1      39.347  37.606  40.231  1.00  0.00     0.124 S 
ATOM     98  O   UNL A   1      38.270  38.399  39.649  1.00  0.00    -0.237 OA
ATOM     99  O   UNL A   1      38.999  36.846  41.428  1.00  0.00    -0.237 OA
ATOM    100  O   UNL A   1      40.656  38.252  40.265  1.00  0.00    -0.744 OA
ENDBRANCH  96  97
ENDBRANCH  64  89
ENDBRANCH  38  39
ENDBRANCH  30  33
ENDBRANCH  28  29
ENDBRANCH  27  28
ENDBRANCH  26  27
ENDBRANCH   1  26
TORSDOF 21
ENDMDL
MODEL 3
REMARK VINA RESULT:     -10.8      0.624      8.077
REMARK SMILES CCC[C@@H](C(=O)N1CC[C@@](C)(C(=O)NCCCCCCNC(=O)c2ccc(-c3c4nc(c(-c5c(F)cc(S(=O)(=O)[O-])cc5F)c5ccc([nH]5)c(-c5c(F)cc(S(=O)(=O)[O-])cc5F)c5nc(c(-c6c(F)cc(S(=O)(=O)[O-])cc6F)c6ccc3[nH]6)C=C5)C=C4)cc2)C1)c1ccccc1
REMARK SMILES IDX 17 1 16 2 15 3 14 4 12 5 13 6 10 8 7 9 8 10 90 11 9 12 11 13
REMARK SMILES IDX 5 14 6 15 4 16 3 17 2 18 1 19 91 20 92 21 96 22 93 23 95 24
REMARK SMILES IDX 94 25 18 26 19 27 20 28 21 29 22 30 23 32 24 33 25 34 89 35
REMARK SMILES IDX 26 36 88 37 27 38 28 39 29 40 82 41 30 42 87 43 81 44 83 45
REMARK SMILES IDX 31 46 86 47 80 48 79 49 32 51 66 52 45 53 65 54 46 55 49 56
REMARK SMILES IDX 64 57 84 58 47 59 48 60 63 62 85 63 50 64 33 65 34 66 43 67
REMARK SMILES IDX 35 68 36 69 42 70 44 71 37 72 38 73 39 74 40 75 41 76 67 77
REMARK SMILES IDX 68 78 77 79 69 80 70 81 76 82 78 83 71 84 72 85 73 86 74 87
REMARK SMILES IDX 75 88 51 89 52 90 61 91 53 92 54 93 60 94 62 95 55 96 56 97
REMARK SMILES IDX 57 98 58 99 59 100
REMARK H PARENT 14 7 21 31 83 50 49 61
REMARK Flexibility Score: inf
ROOT
ATOM      1  C   UNL A   1      36.502  22.175  24.753  1.00  0.00     0.002 C 
ENDROOT
BRANCH   1   2
ATOM      2  C   UNL A   1      35.302  21.224  24.713  1.00  0.00     0.021 C 
BRANCH   2   3
ATOM      3  C   UNL A   1      33.938  21.876  24.528  1.00  0.00     0.116 C 
BRANCH   3   4
ATOM      4  N   UNL A   1      33.746  22.390  23.190  1.00  0.00    -0.356 N 
ATOM      5  C   UNL A   1      33.412  23.625  22.741  1.00  0.00     0.227 C 
ATOM      6  O   UNL A   1      33.340  23.735  21.512  1.00  0.00    -0.274 OA
ATOM      7  H   UNL A   1      33.882  21.723  22.478  1.00  0.00     0.163 HD
BRANCH   5   8
ATOM      8  C   UNL A   1      33.043  24.793  23.678  1.00  0.00     0.066 C 
ATOM      9  N   UNL A   1      31.330  26.338  22.991  1.00  0.00    -0.341 N 
ATOM     10  C   UNL A   1      30.649  25.191  23.557  1.00  0.00     0.120 C 
ATOM     11  C   UNL A   1      32.724  26.034  22.809  1.00  0.00     0.136 C 
ATOM     12  C   UNL A   1      31.708  24.490  24.393  1.00  0.00     0.040 C 
ATOM     13  C   UNL A   1      34.132  25.199  24.683  1.00  0.00     0.024 C 
BRANCH   9  14
ATOM     14  C   UNL A   1      30.693  27.540  22.791  1.00  0.00     0.230 C 
ATOM     15  O   UNL A   1      30.559  27.942  21.626  1.00  0.00    -0.274 OA
BRANCH  14  16
ATOM     16  C   UNL A   1      30.318  28.484  23.993  1.00  0.00     0.108 C 
BRANCH  16  17
ATOM     17  C   UNL A   1      29.955  29.985  23.833  1.00  0.00     0.018 C 
BRANCH  17  18
ATOM     18  C   UNL A   1      28.665  30.438  23.123  1.00  0.00    -0.002 C 
ATOM     19  C   UNL A   1      27.488  29.477  23.127  1.00  0.00     0.004 C 
ENDBRANCH  17  18
ENDBRANCH  16  17
BRANCH  16  20
ATOM     20  C   UNL A   1      31.471  28.457  25.024  1.00  0.00    -0.036 A 
ATOM     21  C   UNL A   1      32.674  29.130  24.762  1.00  0.00     0.004 A 
ATOM     22  C   UNL A   1      31.350  27.729  26.223  1.00  0.00     0.004 A 
ATOM     23  C   UNL A   1      33.732  29.065  25.672  1.00  0.00     0.000 A 
ATOM     24  C   UNL A   1      32.410  27.666  27.128  1.00  0.00     0.000 A 
ATOM     25  C   UNL A   1      33.602  28.330  26.850  1.00  0.00     0.000 A 
ENDBRANCH  16  20
ENDBRANCH  14  16
ENDBRANCH   9  14
ENDBRANCH   5   8
ENDBRANCH   3   4
ENDBRANCH   2   3
ENDBRANCH   1   2
BRANCH   1  26
ATOM     26  C   UNL A   1      36.637  23.035  26.011  1.00  0.00     0.002 C 
BRANCH  26  27
ATOM     27  C   UNL A   1      37.734  24.100  25.975  1.00  0.00     0.021 C 
BRANCH  27  28
ATOM     28  C   UNL A   1      38.959  23.810  26.835  1.00  0.00     0.116 C 
BRANCH  28  29
ATOM     29  N   UNL A   1      40.209  24.079  26.146  1.00  0.00    -0.352 N 
ATOM     30  C   UNL A   1      41.084  25.123  26.317  1.00  0.00     0.251 C 
ATOM     31  H   UNL A   1      40.464  23.421  25.460  1.00  0.00     0.163 HD
ATOM     32  O   UNL A   1      42.024  25.267  25.537  1.00  0.00    -0.269 OA
BRANCH  30  33
ATOM     33  C   UNL A   1      40.878  26.088  27.418  1.00  0.00     0.039 A 
ATOM     34  C   UNL A   1      39.929  25.798  28.400  1.00  0.00     0.014 A 
ATOM     35  C   UNL A   1      41.621  27.271  27.490  1.00  0.00     0.014 A 
ATOM     36  C   UNL A   1      39.768  26.662  29.487  1.00  0.00     0.010 A 
ATOM     37  C   UNL A   1      41.514  28.091  28.610  1.00  0.00     0.010 A 
ATOM     38  C   UNL A   1      40.585  27.798  29.620  1.00  0.00    -0.014 A 
BRANCH  38  39
ATOM     39  C   UNL A   1      40.482  28.684  30.810  1.00  0.00     0.031 A 
ATOM     40  C   UNL A   1      39.475  29.803  30.837  1.00  0.00     0.074 A 
ATOM     41  C   UNL A   1      41.334  28.516  31.840  1.00  0.00     0.049 A 
ATOM     42  N   UNL A   1      39.277  30.712  31.756  1.00  0.00    -0.248 NA
ATOM     43  C   UNL A   1      38.593  29.935  29.666  1.00  0.00     0.031 C 
ATOM     44  C   UNL A   1      42.386  27.499  31.911  1.00  0.00     0.029 A 
ATOM     45  N   UNL A   1      41.461  29.203  33.022  1.00  0.00    -0.354 N 
ATOM     46  C   UNL A   1      38.263  31.530  31.272  1.00  0.00     0.074 A 
ATOM     47  C   UNL A   1      37.922  31.040  29.954  1.00  0.00     0.031 C 
ATOM     48  C   UNL A   1      43.035  27.616  33.080  1.00  0.00     0.029 A 
ATOM     49  C   UNL A   1      42.479  28.741  33.825  1.00  0.00     0.049 A 
ATOM     50  H   UNL A   1      40.879  29.956  33.272  1.00  0.00     0.167 HD
ATOM     51  C   UNL A   1      37.656  32.577  31.878  1.00  0.00     0.037 A 
ATOM     52  C   UNL A   1      42.923  29.181  35.018  1.00  0.00     0.037 A 
ATOM     53  C   UNL A   1      37.985  33.043  33.201  1.00  0.00     0.049 A 
ATOM     54  C   UNL A   1      42.235  30.349  35.672  1.00  0.00     0.074 A 
ATOM     55  C   UNL A   1      37.385  34.054  33.930  1.00  0.00     0.029 A 
ATOM     56  N   UNL A   1      39.008  32.536  33.991  1.00  0.00    -0.354 N 
ATOM     57  N   UNL A   1      41.227  31.064  35.229  1.00  0.00    -0.248 NA
ATOM     58  C   UNL A   1      42.736  30.768  36.987  1.00  0.00     0.031 C 
ATOM     59  C   UNL A   1      38.080  34.197  35.135  1.00  0.00     0.029 A 
ATOM     60  C   UNL A   1      39.073  33.233  35.186  1.00  0.00     0.049 A 
ATOM     61  H   UNL A   1      39.600  31.791  33.738  1.00  0.00     0.167 HD
ATOM     62  C   UNL A   1      40.956  31.996  36.226  1.00  0.00     0.074 A 
ATOM     63  C   UNL A   1      41.897  31.746  37.297  1.00  0.00     0.031 C 
ATOM     64  C   UNL A   1      40.011  32.969  36.249  1.00  0.00     0.037 A 
BRANCH  51  65
ATOM     65  C   UNL A   1      36.573  33.298  31.121  1.00  0.00     0.058 A 
ATOM     66  C   UNL A   1      36.859  34.115  30.016  1.00  0.00     0.135 A 
ATOM     67  C   UNL A   1      35.223  33.132  31.477  1.00  0.00     0.135 A 
ATOM     68  F   UNL A   1      38.130  34.322  29.638  1.00  0.00    -0.206 F 
ATOM     69  C   UNL A   1      35.851  34.762  29.308  1.00  0.00     0.059 A 
ATOM     70  C   UNL A   1      34.197  33.743  30.765  1.00  0.00     0.059 A 
ATOM     71  F   UNL A   1      34.891  32.363  32.527  1.00  0.00    -0.206 F 
ATOM     72  C   UNL A   1      34.522  34.568  29.689  1.00  0.00     0.060 A 
BRANCH  72  73
ATOM     73  S   UNL A   1      33.226  35.405  28.751  1.00  0.00     0.124 S 
ATOM     74  O   UNL A   1      32.621  34.289  28.030  1.00  0.00    -0.237 OA
ATOM     75  O   UNL A   1      32.408  35.993  29.807  1.00  0.00    -0.237 OA
ATOM     76  O   UNL A   1      33.962  36.358  27.927  1.00  0.00    -0.744 OA
ENDBRANCH  72  73
ENDBRANCH  51  65
BRANCH  52  77
ATOM     77  C   UNL A   1      44.075  28.506  35.679  1.00  0.00     0.058 A 
ATOM     78  C   UNL A   1      45.395  28.901  35.419  1.00  0.00     0.135 A 
ATOM     79  C   UNL A   1      43.876  27.454  36.589  1.00  0.00     0.135 A 
ATOM     80  F   UNL A   1      45.639  29.896  34.552  1.00  0.00    -0.206 F 
ATOM     81  C   UNL A   1      46.478  28.268  36.021  1.00  0.00     0.059 A 
ATOM     82  C   UNL A   1      44.941  26.826  37.225  1.00  0.00     0.059 A 
ATOM     83  F   UNL A   1      42.632  27.048  36.886  1.00  0.00    -0.206 F 
ATOM     84  C   UNL A   1      46.240  27.233  36.926  1.00  0.00     0.060 A 
BRANCH  84  85
ATOM     85  S   UNL A   1      47.651  26.446  37.734  1.00  0.00     0.124 S 
ATOM     86  O   UNL A   1      48.158  27.533  38.564  1.00  0.00    -0.237 OA
ATOM     87  O   UNL A   1      47.017  25.340  38.446  1.00  0.00    -0.237 OA
ATOM     88  O   UNL A   1      48.503  26.055  36.614  1.00  0.00    -0.744 OA
ENDBRANCH  84  85
ENDBRANCH  52  77
BRANCH  64  89
ATOM     89  C   UNL A   1      39.917  33.816  37.490  1.00  0.00     0.058 A 
ATOM     90  C   UNL A   1      39.070  33.478  38.558  1.00  0.00     0.135 A 
ATOM     91  C   UNL A   1      40.729  34.954  37.633  1.00  0.00     0.135 A 
ATOM     92  F   UNL A   1      38.268  32.405  38.470  1.00  0.00    -0.206 F 
ATOM     93  C   UNL A   1      39.014  34.251  39.713  1.00  0.00     0.059 A 
ATOM     94  C   UNL A   1      40.712  35.722  38.793  1.00  0.00     0.059 A 
ATOM     95  F   UNL A   1      41.565  35.317  36.648  1.00  0.00    -0.206 F 
ATOM     96  C   UNL A   1      39.842  35.371  39.823  1.00  0.00     0.060 A 
BRANCH  96  97
ATOM     97  S   UNL A   1      39.784  36.343  41.342  1.00  0.00     0.124 S 
ATOM     98  O   UNL A   1      41.125  36.917  41.376  1.00  0.00    -0.237 OA
ATOM     99  O   UNL A   1      38.699  37.282  41.069  1.00  0.00    -0.237 OA
ATOM    100  O   UNL A   1      39.500  35.349  42.372  1.00  0.00    -0.744 OA
ENDBRANCH  96  97
ENDBRANCH  64  89
ENDBRANCH  38  39
ENDBRANCH  30  33
ENDBRANCH  28  29
ENDBRANCH  27  28
ENDBRANCH  26  27
ENDBRANCH   1  26
TORSDOF 21
ENDMDL
