MODEL 1
REMARK VINA RESULT:     -10.7      0.000      0.000
REMARK SMILES CC(C)C[C@@H](C[NH3+])C(=O)N1CCC(CC(=O)NCCCCCCNC(=O)c2ccc(-c3c4nc(c(-c5c(F)cc(S(=O)(=O)[O-])cc5F)c5ccc([nH]5)c(-c5c(F)cc(S(=O)(=O)[O-])cc5F)c5nc(c(-c6c(F)cc(S(=O)(=O)[O-])cc6F)c6ccc3[nH]6)C=C5)C=C4)cc2)CC1
REMARK SMILES IDX 20 1 19 2 18 3 17 4 15 5 16 6 14 8 13 9 8 10 9 11 10 12
REMARK SMILES IDX 11 13 94 14 12 15 93 16 5 17 4 18 2 19 1 20 3 21 6 22 7 23
REMARK SMILES IDX 21 27 22 28 23 29 24 30 25 31 26 33 27 34 28 35 92 36 29 37
REMARK SMILES IDX 91 38 30 39 31 40 32 41 85 42 33 43 90 44 84 45 86 46 34 47
REMARK SMILES IDX 89 48 83 49 82 50 35 52 69 53 48 54 68 55 49 56 52 57 67 58
REMARK SMILES IDX 87 59 50 60 51 61 66 63 88 64 53 65 36 66 37 67 46 68 38 69
REMARK SMILES IDX 39 70 45 71 47 72 40 73 41 74 42 75 43 76 44 77 70 78 71 79
REMARK SMILES IDX 80 80 72 81 73 82 79 83 81 84 74 85 75 86 76 87 77 88 78 89
REMARK SMILES IDX 54 90 55 91 64 92 56 93 57 94 63 95 65 96 58 97 59 98 60 99
REMARK SMILES IDX 61 100 62 101
REMARK H PARENT 17 7 7 24 7 25 7 26 24 32 86 51 52 62
REMARK Flexibility Score: inf
ROOT
ATOM      1  C   UNL A   1      37.417  22.846  25.416  1.00  0.00     0.002 C 
ENDROOT
BRANCH   1   2
ATOM      2  C   UNL A   1      37.543  21.357  25.109  1.00  0.00     0.021 C 
BRANCH   2   3
ATOM      3  C   UNL A   1      36.208  20.611  24.990  1.00  0.00     0.116 C 
BRANCH   3   4
ATOM      4  N   UNL A   1      35.335  20.936  26.109  1.00  0.00    -0.356 N 
ATOM      5  C   UNL A   1      34.031  21.332  26.134  1.00  0.00     0.220 C 
ATOM      6  O   UNL A   1      33.540  21.662  27.216  1.00  0.00    -0.275 OA
ATOM      7  H   UNL A   1      35.757  20.857  26.995  1.00  0.00     0.163 HD
BRANCH   5   8
ATOM      8  C   UNL A   1      33.192  21.353  24.868  1.00  0.00     0.103 C 
BRANCH   8   9
ATOM      9  C   UNL A   1      32.939  22.761  24.291  1.00  0.00     0.002 C 
ATOM     10  C   UNL A   1      32.187  26.419  25.989  1.00  0.00     0.231 C 
ATOM     11  O   UNL A   1      31.447  26.080  26.920  1.00  0.00    -0.274 OA
ATOM     12  N   UNL A   1      32.453  25.553  24.948  1.00  0.00    -0.342 N 
ATOM     13  C   UNL A   1      31.361  24.764  24.431  1.00  0.00     0.120 C 
ATOM     14  C   UNL A   1      33.771  25.189  24.453  1.00  0.00     0.120 C 
ATOM     15  C   UNL A   1      31.579  23.300  24.738  1.00  0.00     0.026 C 
ATOM     16  C   UNL A   1      34.071  23.712  24.723  1.00  0.00     0.026 C 
BRANCH  10  17
ATOM     17  C   UNL A   1      32.567  27.896  25.823  1.00  0.00     0.133 C 
BRANCH  17  18
ATOM     18  C   UNL A   1      33.872  28.325  26.500  1.00  0.00     0.022 C 
BRANCH  18  19
ATOM     19  C   UNL A   1      34.069  29.835  26.725  1.00  0.00    -0.016 C 
ATOM     20  C   UNL A   1      32.834  30.522  27.305  1.00  0.00     0.007 C 
ATOM     21  C   UNL A   1      35.265  30.038  27.662  1.00  0.00     0.007 C 
ENDBRANCH  18  19
ENDBRANCH  17  18
BRANCH  17  22
ATOM     22  C   UNL A   1      32.460  28.258  24.326  1.00  0.00     0.272 C 
BRANCH  22  23
ATOM     23  N   UNL A   1      31.885  29.577  24.043  1.00  0.00    -0.357 N 
ATOM     24  H   UNL A   1      30.926  29.466  23.712  1.00  0.00     0.344 HD
ATOM     25  H   UNL A   1      32.441  30.043  23.325  1.00  0.00     0.344 HD
ATOM     26  H   UNL A   1      31.889  30.139  24.895  1.00  0.00     0.344 HD
ENDBRANCH  22  23
ENDBRANCH  17  22
ENDBRANCH  10  17
ENDBRANCH   8   9
ENDBRANCH   5   8
ENDBRANCH   3   4
ENDBRANCH   2   3
ENDBRANCH   1   2
BRANCH   1  27
ATOM     27  C   UNL A   1      38.473  23.395  26.375  1.00  0.00     0.002 C 
BRANCH  27  28
ATOM     28  C   UNL A   1      39.599  22.422  26.744  1.00  0.00     0.021 C 
BRANCH  28  29
ATOM     29  C   UNL A   1      40.924  23.076  27.134  1.00  0.00     0.116 C 
BRANCH  29  30
ATOM     30  N   UNL A   1      41.462  23.901  26.062  1.00  0.00    -0.352 N 
ATOM     31  C   UNL A   1      41.642  25.261  26.011  1.00  0.00     0.251 C 
ATOM     32  H   UNL A   1      41.736  23.412  25.253  1.00  0.00     0.163 HD
ATOM     33  O   UNL A   1      41.886  25.810  24.942  1.00  0.00    -0.269 OA
BRANCH  31  34
ATOM     34  C   UNL A   1      41.530  26.062  27.247  1.00  0.00     0.039 A 
ATOM     35  C   UNL A   1      42.584  26.904  27.611  1.00  0.00     0.014 A 
ATOM     36  C   UNL A   1      40.386  25.978  28.047  1.00  0.00     0.014 A 
ATOM     37  C   UNL A   1      42.458  27.720  28.738  1.00  0.00     0.010 A 
ATOM     38  C   UNL A   1      40.236  26.837  29.132  1.00  0.00     0.010 A 
ATOM     39  C   UNL A   1      41.266  27.721  29.483  1.00  0.00    -0.014 A 
BRANCH  39  40
ATOM     40  C   UNL A   1      41.062  28.669  30.607  1.00  0.00     0.031 A 
ATOM     41  C   UNL A   1      41.893  28.562  31.855  1.00  0.00     0.074 A 
ATOM     42  C   UNL A   1      40.070  29.578  30.531  1.00  0.00     0.049 A 
ATOM     43  N   UNL A   1      41.812  29.253  32.963  1.00  0.00    -0.248 NA
ATOM     44  C   UNL A   1      42.938  27.526  31.866  1.00  0.00     0.031 C 
ATOM     45  C   UNL A   1      39.169  29.748  29.389  1.00  0.00     0.029 A 
ATOM     46  N   UNL A   1      39.643  30.519  31.433  1.00  0.00    -0.354 N 
ATOM     47  C   UNL A   1      42.786  28.732  33.806  1.00  0.00     0.074 A 
ATOM     48  C   UNL A   1      43.409  27.634  33.100  1.00  0.00     0.031 C 
ATOM     49  C   UNL A   1      38.314  30.750  29.649  1.00  0.00     0.029 A 
ATOM     50  C   UNL A   1      38.575  31.262  30.990  1.00  0.00     0.049 A 
ATOM     51  H   UNL A   1      40.063  30.650  32.314  1.00  0.00     0.167 HD
ATOM     52  C   UNL A   1      43.140  29.147  35.047  1.00  0.00     0.037 A 
ATOM     53  C   UNL A   1      37.877  32.241  31.599  1.00  0.00     0.037 A 
ATOM     54  C   UNL A   1      42.515  30.244  35.739  1.00  0.00     0.049 A 
ATOM     55  C   UNL A   1      38.262  32.659  32.991  1.00  0.00     0.074 A 
ATOM     56  C   UNL A   1      42.839  30.781  36.973  1.00  0.00     0.029 A 
ATOM     57  N   UNL A   1      41.427  30.965  35.264  1.00  0.00    -0.354 N 
ATOM     58  N   UNL A   1      39.232  32.204  33.748  1.00  0.00    -0.248 NA
ATOM     59  C   UNL A   1      37.458  33.719  33.612  1.00  0.00     0.031 C 
ATOM     60  C   UNL A   1      41.915  31.791  37.267  1.00  0.00     0.029 A 
ATOM     61  C   UNL A   1      41.046  31.918  36.194  1.00  0.00     0.049 A 
ATOM     62  H   UNL A   1      40.991  30.819  34.394  1.00  0.00     0.167 HD
ATOM     63  C   UNL A   1      39.165  32.933  34.930  1.00  0.00     0.074 A 
ATOM     64  C   UNL A   1      38.068  33.869  34.780  1.00  0.00     0.031 C 
ATOM     65  C   UNL A   1      39.943  32.836  36.036  1.00  0.00     0.037 A 
BRANCH  52  66
ATOM     66  C   UNL A   1      44.250  28.396  35.734  1.00  0.00     0.058 A 
ATOM     67  C   UNL A   1      43.985  27.335  36.618  1.00  0.00     0.135 A 
ATOM     68  C   UNL A   1      45.593  28.739  35.511  1.00  0.00     0.135 A 
ATOM     69  F   UNL A   1      42.720  26.970  36.876  1.00  0.00    -0.206 F 
ATOM     70  C   UNL A   1      45.009  26.676  37.291  1.00  0.00     0.059 A 
ATOM     71  C   UNL A   1      46.634  28.072  36.152  1.00  0.00     0.059 A 
ATOM     72  F   UNL A   1      45.905  29.740  34.674  1.00  0.00    -0.206 F 
ATOM     73  C   UNL A   1      46.330  27.058  37.059  1.00  0.00     0.060 A 
BRANCH  73  74
ATOM     74  S   UNL A   1      47.645  26.218  37.967  1.00  0.00     0.124 S 
ATOM     75  O   UNL A   1      47.852  27.132  39.087  1.00  0.00    -0.237 OA
ATOM     76  O   UNL A   1      47.028  24.939  38.300  1.00  0.00    -0.237 OA
ATOM     77  O   UNL A   1      48.737  26.152  37.002  1.00  0.00    -0.744 OA
ENDBRANCH  73  74
ENDBRANCH  52  66
BRANCH  53  78
ATOM     78  C   UNL A   1      36.762  32.905  30.876  1.00  0.00     0.058 A 
ATOM     79  C   UNL A   1      35.429  32.554  31.139  1.00  0.00     0.135 A 
ATOM     80  C   UNL A   1      36.997  33.935  29.950  1.00  0.00     0.135 A 
ATOM     81  F   UNL A   1      35.154  31.571  32.009  1.00  0.00    -0.206 F 
ATOM     82  C   UNL A   1      34.368  33.201  30.513  1.00  0.00     0.059 A 
ATOM     83  C   UNL A   1      35.952  34.611  29.328  1.00  0.00     0.059 A 
ATOM     84  F   UNL A   1      38.254  34.316  29.674  1.00  0.00    -0.206 F 
ATOM     85  C   UNL A   1      34.640  34.235  29.615  1.00  0.00     0.060 A 
BRANCH  85  86
ATOM     86  S   UNL A   1      33.252  35.120  28.873  1.00  0.00     0.124 S 
ATOM     87  O   UNL A   1      33.934  36.201  28.171  1.00  0.00    -0.237 OA
ATOM     88  O   UNL A   1      32.649  34.091  28.031  1.00  0.00    -0.237 OA
ATOM     89  O   UNL A   1      32.453  35.521  30.027  1.00  0.00    -0.744 OA
ENDBRANCH  85  86
ENDBRANCH  53  78
BRANCH  65  90
ATOM     90  C   UNL A   1      39.642  33.771  37.176  1.00  0.00     0.058 A 
ATOM     91  C   UNL A   1      38.794  33.395  38.229  1.00  0.00     0.135 A 
ATOM     92  C   UNL A   1      40.256  35.032  37.246  1.00  0.00     0.135 A 
ATOM     93  F   UNL A   1      38.175  32.204  38.206  1.00  0.00    -0.206 F 
ATOM     94  C   UNL A   1      38.553  34.242  39.306  1.00  0.00     0.059 A 
ATOM     95  C   UNL A   1      40.049  35.885  38.325  1.00  0.00     0.059 A 
ATOM     96  F   UNL A   1      41.081  35.438  36.269  1.00  0.00    -0.206 F 
ATOM     97  C   UNL A   1      39.190  35.485  39.348  1.00  0.00     0.060 A 
BRANCH  97  98
ATOM     98  S   UNL A   1      38.907  36.553  40.775  1.00  0.00     0.124 S 
ATOM     99  O   UNL A   1      37.956  35.763  41.550  1.00  0.00    -0.237 OA
ATOM    100  O   UNL A   1      40.245  36.672  41.346  1.00  0.00    -0.237 OA
ATOM    101  O   UNL A   1      38.374  37.777  40.184  1.00  0.00    -0.744 OA
ENDBRANCH  97  98
ENDBRANCH  65  90
ENDBRANCH  39  40
ENDBRANCH  31  34
ENDBRANCH  29  30
ENDBRANCH  28  29
ENDBRANCH  27  28
ENDBRANCH   1  27
TORSDOF 22
ENDMDL
MODEL 2
REMARK VINA RESULT:     -10.4      6.503     11.772
REMARK SMILES CC(C)C[C@@H](C[NH3+])C(=O)N1CCC(CC(=O)NCCCCCCNC(=O)c2ccc(-c3c4nc(c(-c5c(F)cc(S(=O)(=O)[O-])cc5F)c5ccc([nH]5)c(-c5c(F)cc(S(=O)(=O)[O-])cc5F)c5nc(c(-c6c(F)cc(S(=O)(=O)[O-])cc6F)c6ccc3[nH]6)C=C5)C=C4)cc2)CC1
REMARK SMILES IDX 20 1 19 2 18 3 17 4 15 5 16 6 14 8 13 9 8 10 9 11 10 12
REMARK SMILES IDX 11 13 94 14 12 15 93 16 5 17 4 18 2 19 1 20 3 21 6 22 7 23
REMARK SMILES IDX 21 27 22 28 23 29 24 30 25 31 26 33 27 34 28 35 92 36 29 37
REMARK SMILES IDX 91 38 30 39 31 40 32 41 85 42 33 43 90 44 84 45 86 46 34 47
REMARK SMILES IDX 89 48 83 49 82 50 35 52 69 53 48 54 68 55 49 56 52 57 67 58
REMARK SMILES IDX 87 59 50 60 51 61 66 63 88 64 53 65 36 66 37 67 46 68 38 69
REMARK SMILES IDX 39 70 45 71 47 72 40 73 41 74 42 75 43 76 44 77 70 78 71 79
REMARK SMILES IDX 80 80 72 81 73 82 79 83 81 84 74 85 75 86 76 87 77 88 78 89
REMARK SMILES IDX 54 90 55 91 64 92 56 93 57 94 63 95 65 96 58 97 59 98 60 99
REMARK SMILES IDX 61 100 62 101
REMARK H PARENT 17 7 7 24 7 25 7 26 24 32 86 51 52 62
REMARK Flexibility Score: inf
ROOT
ATOM      1  C   UNL A   1      33.197  30.409  26.540  1.00  0.00     0.002 C 
ENDROOT
BRANCH   1   2
ATOM      2  C   UNL A   1      31.779  30.282  25.993  1.00  0.00     0.021 C 
BRANCH   2   3
ATOM      3  C   UNL A   1      31.460  28.927  25.347  1.00  0.00     0.116 C 
BRANCH   3   4
ATOM      4  N   UNL A   1      30.761  29.111  24.083  1.00  0.00    -0.356 N 
ATOM      5  C   UNL A   1      31.195  28.971  22.798  1.00  0.00     0.220 C 
ATOM      6  O   UNL A   1      30.433  29.299  21.885  1.00  0.00    -0.275 OA
ATOM      7  H   UNL A   1      29.818  29.381  24.170  1.00  0.00     0.163 HD
BRANCH   5   8
ATOM      8  C   UNL A   1      32.573  28.412  22.491  1.00  0.00     0.103 C 
BRANCH   8   9
ATOM      9  C   UNL A   1      32.655  26.872  22.493  1.00  0.00     0.002 C 
ATOM     10  C   UNL A   1      31.949  24.008  25.344  1.00  0.00     0.231 C 
ATOM     11  O   UNL A   1      32.417  24.571  26.340  1.00  0.00    -0.274 OA
ATOM     12  N   UNL A   1      32.236  24.467  24.074  1.00  0.00    -0.342 N 
ATOM     13  C   UNL A   1      33.590  24.886  23.799  1.00  0.00     0.120 C 
ATOM     14  C   UNL A   1      31.266  24.777  23.037  1.00  0.00     0.120 C 
ATOM     15  C   UNL A   1      33.638  26.377  23.556  1.00  0.00     0.026 C 
ATOM     16  C   UNL A   1      31.254  26.277  22.727  1.00  0.00     0.026 C 
BRANCH  10  17
ATOM     17  C   UNL A   1      31.303  22.624  25.490  1.00  0.00     0.133 C 
BRANCH  17  18
ATOM     18  C   UNL A   1      32.275  21.456  25.680  1.00  0.00     0.022 C 
BRANCH  18  19
ATOM     19  C   UNL A   1      33.131  21.065  24.462  1.00  0.00    -0.016 C 
ATOM     20  C   UNL A   1      34.612  20.900  24.794  1.00  0.00     0.007 C 
ATOM     21  C   UNL A   1      32.581  19.759  23.876  1.00  0.00     0.007 C 
ENDBRANCH  18  19
ENDBRANCH  17  18
BRANCH  17  22
ATOM     22  C   UNL A   1      30.184  22.720  26.549  1.00  0.00     0.272 C 
BRANCH  22  23
ATOM     23  N   UNL A   1      29.683  24.073  26.805  1.00  0.00    -0.357 N 
ATOM     24  H   UNL A   1      28.778  24.018  27.275  1.00  0.00     0.344 HD
ATOM     25  H   UNL A   1      29.576  24.570  25.920  1.00  0.00     0.344 HD
ATOM     26  H   UNL A   1      30.345  24.573  27.399  1.00  0.00     0.344 HD
ENDBRANCH  22  23
ENDBRANCH  17  22
ENDBRANCH  10  17
ENDBRANCH   8   9
ENDBRANCH   5   8
ENDBRANCH   3   4
ENDBRANCH   2   3
ENDBRANCH   1   2
BRANCH   1  27
ATOM     27  C   UNL A   1      33.762  29.131  27.159  1.00  0.00     0.002 C 
BRANCH  27  28
ATOM     28  C   UNL A   1      35.227  29.204  27.604  1.00  0.00     0.021 C 
BRANCH  28  29
ATOM     29  C   UNL A   1      35.629  30.498  28.311  1.00  0.00     0.116 C 
BRANCH  29  30
ATOM     30  N   UNL A   1      35.598  30.361  29.760  1.00  0.00    -0.352 N 
ATOM     31  C   UNL A   1      36.579  29.934  30.620  1.00  0.00     0.251 C 
ATOM     32  H   UNL A   1      34.746  30.612  30.186  1.00  0.00     0.163 HD
ATOM     33  O   UNL A   1      36.300  29.657  31.782  1.00  0.00    -0.269 OA
BRANCH  31  34
ATOM     34  C   UNL A   1      37.968  29.797  30.137  1.00  0.00     0.039 A 
ATOM     35  C   UNL A   1      38.965  29.407  31.035  1.00  0.00     0.014 A 
ATOM     36  C   UNL A   1      38.285  30.058  28.801  1.00  0.00     0.014 A 
ATOM     37  C   UNL A   1      40.267  29.204  30.574  1.00  0.00     0.010 A 
ATOM     38  C   UNL A   1      39.568  29.794  28.330  1.00  0.00     0.010 A 
ATOM     39  C   UNL A   1      40.569  29.357  29.209  1.00  0.00    -0.014 A 
BRANCH  39  40
ATOM     40  C   UNL A   1      41.914  29.025  28.676  1.00  0.00     0.031 A 
ATOM     41  C   UNL A   1      42.233  27.626  28.230  1.00  0.00     0.074 A 
ATOM     42  C   UNL A   1      42.873  29.972  28.669  1.00  0.00     0.049 A 
ATOM     43  N   UNL A   1      43.368  27.134  27.803  1.00  0.00    -0.248 NA
ATOM     44  C   UNL A   1      41.139  26.646  28.293  1.00  0.00     0.031 C 
ATOM     45  C   UNL A   1      42.693  31.355  29.118  1.00  0.00     0.029 A 
ATOM     46  N   UNL A   1      44.188  29.917  28.285  1.00  0.00    -0.354 N 
ATOM     47  C   UNL A   1      43.129  25.788  27.556  1.00  0.00     0.074 A 
ATOM     48  C   UNL A   1      41.755  25.530  27.930  1.00  0.00     0.031 C 
ATOM     49  C   UNL A   1      43.848  32.022  28.960  1.00  0.00     0.029 A 
ATOM     50  C   UNL A   1      44.859  31.106  28.442  1.00  0.00     0.049 A 
ATOM     51  H   UNL A   1      44.611  29.102  27.930  1.00  0.00     0.167 HD
ATOM     52  C   UNL A   1      43.972  24.858  27.045  1.00  0.00     0.037 A 
ATOM     53  C   UNL A   1      46.147  31.423  28.204  1.00  0.00     0.037 A 
ATOM     54  C   UNL A   1      45.337  25.127  26.674  1.00  0.00     0.049 A 
ATOM     55  C   UNL A   1      47.075  30.366  27.674  1.00  0.00     0.074 A 
ATOM     56  C   UNL A   1      46.257  24.270  26.092  1.00  0.00     0.029 A 
ATOM     57  N   UNL A   1      45.986  26.340  26.859  1.00  0.00    -0.354 N 
ATOM     58  N   UNL A   1      46.814  29.115  27.378  1.00  0.00    -0.248 NA
ATOM     59  C   UNL A   1      48.472  30.762  27.448  1.00  0.00     0.031 C 
ATOM     60  C   UNL A   1      47.475  24.950  25.974  1.00  0.00     0.029 A 
ATOM     61  C   UNL A   1      47.302  26.246  26.436  1.00  0.00     0.049 A 
ATOM     62  H   UNL A   1      45.571  27.149  27.237  1.00  0.00     0.167 HD
ATOM     63  C   UNL A   1      48.011  28.577  26.916  1.00  0.00     0.074 A 
ATOM     64  C   UNL A   1      48.991  29.643  26.958  1.00  0.00     0.031 C 
ATOM     65  C   UNL A   1      48.271  27.315  26.494  1.00  0.00     0.037 A 
BRANCH  52  66
ATOM     66  C   UNL A   1      43.437  23.461  26.873  1.00  0.00     0.058 A 
ATOM     67  C   UNL A   1      43.338  22.570  27.955  1.00  0.00     0.135 A 
ATOM     68  C   UNL A   1      43.018  23.005  25.613  1.00  0.00     0.135 A 
ATOM     69  F   UNL A   1      43.733  22.949  29.181  1.00  0.00    -0.206 F 
ATOM     70  C   UNL A   1      42.891  21.264  27.785  1.00  0.00     0.059 A 
ATOM     71  C   UNL A   1      42.539  21.711  25.426  1.00  0.00     0.059 A 
ATOM     72  F   UNL A   1      43.085  23.813  24.543  1.00  0.00    -0.206 F 
ATOM     73  C   UNL A   1      42.503  20.840  26.514  1.00  0.00     0.060 A 
BRANCH  73  74
ATOM     74  S   UNL A   1      41.960  19.132  26.302  1.00  0.00     0.124 S 
ATOM     75  O   UNL A   1      42.881  18.662  25.271  1.00  0.00    -0.237 OA
ATOM     76  O   UNL A   1      42.161  18.570  27.633  1.00  0.00    -0.237 OA
ATOM     77  O   UNL A   1      40.568  19.266  25.885  1.00  0.00    -0.744 OA
ENDBRANCH  73  74
ENDBRANCH  52  66
BRANCH  53  78
ATOM     78  C   UNL A   1      46.617  32.812  28.444  1.00  0.00     0.058 A 
ATOM     79  C   UNL A   1      46.559  33.772  27.423  1.00  0.00     0.135 A 
ATOM     80  C   UNL A   1      47.082  33.222  29.704  1.00  0.00     0.135 A 
ATOM     81  F   UNL A   1      46.130  33.426  26.200  1.00  0.00    -0.206 F 
ATOM     82  C   UNL A   1      46.943  35.091  27.642  1.00  0.00     0.059 A 
ATOM     83  C   UNL A   1      47.451  34.541  29.952  1.00  0.00     0.059 A 
ATOM     84  F   UNL A   1      47.144  32.344  30.716  1.00  0.00    -0.206 F 
ATOM     85  C   UNL A   1      47.379  35.468  28.913  1.00  0.00     0.060 A 
BRANCH  85  86
ATOM     86  S   UNL A   1      47.797  37.201  29.205  1.00  0.00     0.124 S 
ATOM     87  O   UNL A   1      46.983  37.873  28.198  1.00  0.00    -0.237 OA
ATOM     88  O   UNL A   1      47.380  37.386  30.591  1.00  0.00    -0.237 OA
ATOM     89  O   UNL A   1      49.239  37.242  28.981  1.00  0.00    -0.744 OA
ENDBRANCH  85  86
ENDBRANCH  53  78
BRANCH  65  90
ATOM     90  C   UNL A   1      49.672  27.014  26.037  1.00  0.00     0.058 A 
ATOM     91  C   UNL A   1      50.616  26.435  26.897  1.00  0.00     0.135 A 
ATOM     92  C   UNL A   1      50.055  27.253  24.707  1.00  0.00     0.135 A 
ATOM     93  F   UNL A   1      50.304  26.195  28.181  1.00  0.00    -0.206 F 
ATOM     94  C   UNL A   1      51.898  26.115  26.460  1.00  0.00     0.059 A 
ATOM     95  C   UNL A   1      51.322  26.918  24.241  1.00  0.00     0.059 A 
ATOM     96  F   UNL A   1      49.188  27.800  23.841  1.00  0.00    -0.206 F 
ATOM     97  C   UNL A   1      52.240  26.356  25.128  1.00  0.00     0.060 A 
BRANCH  97  98
ATOM     98  S   UNL A   1      53.890  25.890  24.561  1.00  0.00     0.124 S 
ATOM     99  O   UNL A   1      54.734  26.783  25.347  1.00  0.00    -0.237 OA
ATOM    100  O   UNL A   1      53.956  24.477  24.921  1.00  0.00    -0.237 OA
ATOM    101  O   UNL A   1      53.848  26.163  23.128  1.00  0.00    -0.744 OA
ENDBRANCH  97  98
ENDBRANCH  65  90
ENDBRANCH  39  40
ENDBRANCH  31  34
ENDBRANCH  29  30
ENDBRANCH  28  29
ENDBRANCH  27  28
ENDBRANCH   1  27
TORSDOF 22
ENDMDL
MODEL 3
REMARK VINA RESULT:     -10.3      6.208     11.880
REMARK SMILES CC(C)C[C@@H](C[NH3+])C(=O)N1CCC(CC(=O)NCCCCCCNC(=O)c2ccc(-c3c4nc(c(-c5c(F)cc(S(=O)(=O)[O-])cc5F)c5ccc([nH]5)c(-c5c(F)cc(S(=O)(=O)[O-])cc5F)c5nc(c(-c6c(F)cc(S(=O)(=O)[O-])cc6F)c6ccc3[nH]6)C=C5)C=C4)cc2)CC1
REMARK SMILES IDX 20 1 19 2 18 3 17 4 15 5 16 6 14 8 13 9 8 10 9 11 10 12
REMARK SMILES IDX 11 13 94 14 12 15 93 16 5 17 4 18 2 19 1 20 3 21 6 22 7 23
REMARK SMILES IDX 21 27 22 28 23 29 24 30 25 31 26 33 27 34 28 35 92 36 29 37
REMARK SMILES IDX 91 38 30 39 31 40 32 41 85 42 33 43 90 44 84 45 86 46 34 47
REMARK SMILES IDX 89 48 83 49 82 50 35 52 69 53 48 54 68 55 49 56 52 57 67 58
REMARK SMILES IDX 87 59 50 60 51 61 66 63 88 64 53 65 36 66 37 67 46 68 38 69
REMARK SMILES IDX 39 70 45 71 47 72 40 73 41 74 42 75 43 76 44 77 70 78 71 79
REMARK SMILES IDX 80 80 72 81 73 82 79 83 81 84 74 85 75 86 76 87 77 88 78 89
REMARK SMILES IDX 54 90 55 91 64 92 56 93 57 94 63 95 65 96 58 97 59 98 60 99
REMARK SMILES IDX 61 100 62 101
REMARK H PARENT 17 7 7 24 7 25 7 26 24 32 86 51 52 62
REMARK Flexibility Score: inf
ROOT
ATOM      1  C   UNL A   1      33.363  30.399  26.517  1.00  0.00     0.002 C 
ENDROOT
BRANCH   1   2
ATOM      2  C   UNL A   1      31.865  30.296  26.245  1.00  0.00     0.021 C 
BRANCH   2   3
ATOM      3  C   UNL A   1      31.403  28.935  25.708  1.00  0.00     0.116 C 
BRANCH   3   4
ATOM      4  N   UNL A   1      31.199  28.993  24.267  1.00  0.00    -0.356 N 
ATOM      5  C   UNL A   1      31.985  28.565  23.239  1.00  0.00     0.220 C 
ATOM      6  O   UNL A   1      31.639  28.835  22.087  1.00  0.00    -0.275 OA
ATOM      7  H   UNL A   1      30.352  29.410  23.989  1.00  0.00     0.163 HD
BRANCH   5   8
ATOM      8  C   UNL A   1      33.250  27.764  23.499  1.00  0.00     0.103 C 
BRANCH   8   9
ATOM      9  C   UNL A   1      33.005  26.337  24.032  1.00  0.00     0.002 C 
ATOM     10  C   UNL A   1      35.392  23.026  24.447  1.00  0.00     0.231 C 
ATOM     11  O   UNL A   1      36.055  23.104  23.407  1.00  0.00    -0.274 OA
ATOM     12  N   UNL A   1      34.235  23.764  24.603  1.00  0.00    -0.342 N 
ATOM     13  C   UNL A   1      33.345  23.869  23.471  1.00  0.00     0.120 C 
ATOM     14  C   UNL A   1      33.917  24.630  25.725  1.00  0.00     0.120 C 
ATOM     15  C   UNL A   1      33.313  25.291  22.959  1.00  0.00     0.026 C 
ATOM     16  C   UNL A   1      33.861  26.097  25.289  1.00  0.00     0.026 C 
BRANCH  10  17
ATOM     17  C   UNL A   1      35.671  21.892  25.443  1.00  0.00     0.133 C 
BRANCH  17  18
ATOM     18  C   UNL A   1      34.505  20.935  25.700  1.00  0.00     0.022 C 
BRANCH  18  19
ATOM     19  C   UNL A   1      33.987  20.137  24.489  1.00  0.00    -0.016 C 
ATOM     20  C   UNL A   1      34.268  18.639  24.591  1.00  0.00     0.007 C 
ATOM     21  C   UNL A   1      32.479  20.375  24.355  1.00  0.00     0.007 C 
ENDBRANCH  18  19
ENDBRANCH  17  18
BRANCH  17  22
ATOM     22  C   UNL A   1      36.997  21.211  25.042  1.00  0.00     0.272 C 
BRANCH  22  23
ATOM     23  N   UNL A   1      38.190  22.056  25.152  1.00  0.00    -0.357 N 
ATOM     24  H   UNL A   1      38.744  21.760  25.956  1.00  0.00     0.344 HD
ATOM     25  H   UNL A   1      37.908  23.029  25.274  1.00  0.00     0.344 HD
ATOM     26  H   UNL A   1      38.749  21.967  24.303  1.00  0.00     0.344 HD
ENDBRANCH  22  23
ENDBRANCH  17  22
ENDBRANCH  10  17
ENDBRANCH   8   9
ENDBRANCH   5   8
ENDBRANCH   3   4
ENDBRANCH   2   3
ENDBRANCH   1   2
BRANCH   1  27
ATOM     27  C   UNL A   1      33.959  29.214  27.278  1.00  0.00     0.002 C 
BRANCH  27  28
ATOM     28  C   UNL A   1      35.410  29.388  27.740  1.00  0.00     0.021 C 
BRANCH  28  29
ATOM     29  C   UNL A   1      35.751  30.763  28.312  1.00  0.00     0.116 C 
BRANCH  29  30
ATOM     30  N   UNL A   1      35.572  30.814  29.756  1.00  0.00    -0.352 N 
ATOM     31  C   UNL A   1      36.438  30.456  30.758  1.00  0.00     0.251 C 
ATOM     32  H   UNL A   1      34.698  31.155  30.058  1.00  0.00     0.163 HD
ATOM     33  O   UNL A   1      36.033  30.342  31.910  1.00  0.00    -0.269 OA
BRANCH  31  34
ATOM     34  C   UNL A   1      37.857  30.196  30.442  1.00  0.00     0.039 A 
ATOM     35  C   UNL A   1      38.689  29.667  31.432  1.00  0.00     0.014 A 
ATOM     36  C   UNL A   1      38.365  30.479  29.170  1.00  0.00     0.014 A 
ATOM     37  C   UNL A   1      40.014  29.349  31.123  1.00  0.00     0.010 A 
ATOM     38  C   UNL A   1      39.666  30.103  28.846  1.00  0.00     0.010 A 
ATOM     39  C   UNL A   1      40.500  29.528  29.815  1.00  0.00    -0.014 A 
BRANCH  39  40
ATOM     40  C   UNL A   1      41.863  29.081  29.433  1.00  0.00     0.031 A 
ATOM     41  C   UNL A   1      43.019  30.040  29.477  1.00  0.00     0.074 A 
ATOM     42  C   UNL A   1      42.040  27.828  28.969  1.00  0.00     0.049 A 
ATOM     43  N   UNL A   1      44.262  29.851  29.116  1.00  0.00    -0.248 NA
ATOM     44  C   UNL A   1      42.736  31.396  29.971  1.00  0.00     0.031 C 
ATOM     45  C   UNL A   1      40.985  26.821  28.839  1.00  0.00     0.029 A 
ATOM     46  N   UNL A   1      43.164  27.191  28.509  1.00  0.00    -0.354 N 
ATOM     47  C   UNL A   1      44.908  31.063  29.329  1.00  0.00     0.074 A 
ATOM     48  C   UNL A   1      43.906  31.993  29.803  1.00  0.00     0.031 C 
ATOM     49  C   UNL A   1      41.516  25.686  28.358  1.00  0.00     0.029 A 
ATOM     50  C   UNL A   1      42.938  25.898  28.103  1.00  0.00     0.049 A 
ATOM     51  H   UNL A   1      44.049  27.620  28.474  1.00  0.00     0.167 HD
ATOM     52  C   UNL A   1      46.219  31.364  29.165  1.00  0.00     0.037 A 
ATOM     53  C   UNL A   1      43.778  24.986  27.575  1.00  0.00     0.037 A 
ATOM     54  C   UNL A   1      47.208  30.428  28.696  1.00  0.00     0.049 A 
ATOM     55  C   UNL A   1      45.220  25.354  27.366  1.00  0.00     0.074 A 
ATOM     56  C   UNL A   1      48.572  30.616  28.552  1.00  0.00     0.029 A 
ATOM     57  N   UNL A   1      46.939  29.131  28.282  1.00  0.00    -0.354 N 
ATOM     58  N   UNL A   1      45.830  26.482  27.640  1.00  0.00    -0.248 NA
ATOM     59  C   UNL A   1      46.087  24.327  26.773  1.00  0.00     0.031 C 
ATOM     60  C   UNL A   1      49.118  29.450  28.002  1.00  0.00     0.029 A 
ATOM     61  C   UNL A   1      48.104  28.518  27.850  1.00  0.00     0.049 A 
ATOM     62  H   UNL A   1      46.049  28.708  28.294  1.00  0.00     0.167 HD
ATOM     63  C   UNL A   1      47.157  26.297  27.267  1.00  0.00     0.074 A 
ATOM     64  C   UNL A   1      47.263  24.943  26.762  1.00  0.00     0.031 C 
ATOM     65  C   UNL A   1      48.192  27.170  27.339  1.00  0.00     0.037 A 
BRANCH  52  66
ATOM     66  C   UNL A   1      46.648  32.771  29.486  1.00  0.00     0.058 A 
ATOM     67  C   UNL A   1      46.575  33.800  28.531  1.00  0.00     0.135 A 
ATOM     68  C   UNL A   1      47.141  33.097  30.760  1.00  0.00     0.135 A 
ATOM     69  F   UNL A   1      46.122  33.544  27.295  1.00  0.00    -0.206 F 
ATOM     70  C   UNL A   1      47.020  35.088  28.813  1.00  0.00     0.059 A 
ATOM     71  C   UNL A   1      47.564  34.387  31.072  1.00  0.00     0.059 A 
ATOM     72  F   UNL A   1      47.229  32.156  31.713  1.00  0.00    -0.206 F 
ATOM     73  C   UNL A   1      47.522  35.369  30.084  1.00  0.00     0.060 A 
BRANCH  73  74
ATOM     74  S   UNL A   1      48.130  37.035  30.423  1.00  0.00     0.124 S 
ATOM     75  O   UNL A   1      48.982  37.274  29.262  1.00  0.00    -0.237 OA
ATOM     76  O   UNL A   1      46.898  37.814  30.476  1.00  0.00    -0.237 OA
ATOM     77  O   UNL A   1      48.830  36.889  31.695  1.00  0.00    -0.744 OA
ENDBRANCH  73  74
ENDBRANCH  52  66
BRANCH  53  78
ATOM     78  C   UNL A   1      43.271  23.630  27.238  1.00  0.00     0.058 A 
ATOM     79  C   UNL A   1      43.037  23.266  25.904  1.00  0.00     0.135 A 
ATOM     80  C   UNL A   1      43.060  22.658  28.228  1.00  0.00     0.135 A 
ATOM     81  F   UNL A   1      43.215  24.164  24.922  1.00  0.00    -0.206 F 
ATOM     82  C   UNL A   1      42.614  21.986  25.561  1.00  0.00     0.059 A 
ATOM     83  C   UNL A   1      42.660  21.364  27.909  1.00  0.00     0.059 A 
ATOM     84  F   UNL A   1      43.283  22.953  29.519  1.00  0.00    -0.206 F 
ATOM     85  C   UNL A   1      42.437  21.039  26.571  1.00  0.00     0.060 A 
BRANCH  85  86
ATOM     86  S   UNL A   1      41.968  19.358  26.105  1.00  0.00     0.124 S 
ATOM     87  O   UNL A   1      40.526  19.491  25.934  1.00  0.00    -0.237 OA
ATOM     88  O   UNL A   1      42.740  19.152  24.884  1.00  0.00    -0.237 OA
ATOM     89  O   UNL A   1      42.397  18.559  27.251  1.00  0.00    -0.744 OA
ENDBRANCH  85  86
ENDBRANCH  53  78
BRANCH  65  90
ATOM     90  C   UNL A   1      49.536  26.689  26.866  1.00  0.00     0.058 A 
ATOM     91  C   UNL A   1      50.446  26.078  27.742  1.00  0.00     0.135 A 
ATOM     92  C   UNL A   1      49.893  26.785  25.511  1.00  0.00     0.135 A 
ATOM     93  F   UNL A   1      50.159  25.970  29.048  1.00  0.00    -0.206 F 
ATOM     94  C   UNL A   1      51.670  25.591  27.294  1.00  0.00     0.059 A 
ATOM     95  C   UNL A   1      51.100  26.282  25.037  1.00  0.00     0.059 A 
ATOM     96  F   UNL A   1      49.055  27.354  24.629  1.00  0.00    -0.206 F 
ATOM     97  C   UNL A   1      51.987  25.694  25.938  1.00  0.00     0.060 A 
BRANCH  97  98
ATOM     98  S   UNL A   1      53.557  25.013  25.362  1.00  0.00     0.124 S 
ATOM     99  O   UNL A   1      54.412  25.224  26.525  1.00  0.00    -0.237 OA
ATOM    100  O   UNL A   1      53.208  23.625  25.075  1.00  0.00    -0.237 OA
ATOM    101  O   UNL A   1      53.873  25.828  24.193  1.00  0.00    -0.744 OA
ENDBRANCH  97  98
ENDBRANCH  65  90
ENDBRANCH  39  40
ENDBRANCH  31  34
ENDBRANCH  29  30
ENDBRANCH  28  29
ENDBRANCH  27  28
ENDBRANCH   1  27
TORSDOF 22
ENDMDL
