MODEL 1
REMARK VINA RESULT:     -11.4      0.000      0.000
REMARK SMILES COc1cccc(CSc2nc3ccccc3c(=O)n2CCC(=O)NCCCCCCNC(=O)c2ccc(-c3c4nc(c(-c5c(F)cc(S(=O)(=O)[O-])cc5F)c5ccc([nH]5)c(-c5c(F)cc(S(=O)(=O)[O-])cc5F)c5nc(c(-c6c(F)cc(S(=O)(=O)[O-])cc6F)c6ccc3[nH]6)C=C5)C=C4)cc2)c1
REMARK SMILES IDX 27 1 26 2 25 3 23 4 24 5 22 7 21 8 20 9 10 10 11 11 12 12
REMARK SMILES IDX 18 13 13 14 17 15 19 16 14 17 16 18 15 19 9 20 8 21 7 22
REMARK SMILES IDX 3 23 4 24 101 25 5 26 6 27 2 28 1 29 28 30 29 31 30 32 31 33
REMARK SMILES IDX 32 34 33 35 34 37 35 38 36 39 100 40 37 41 99 42 38 43 39 44
REMARK SMILES IDX 40 45 93 46 41 47 98 48 92 49 94 50 42 51 97 52 91 53 90 54
REMARK SMILES IDX 43 56 77 57 56 58 76 59 57 60 60 61 75 62 95 63 58 64 59 65
REMARK SMILES IDX 74 67 96 68 61 69 44 70 45 71 54 72 46 73 47 74 53 75 55 76
REMARK SMILES IDX 48 77 49 78 50 79 51 80 52 81 78 82 79 83 88 84 80 85 81 86
REMARK SMILES IDX 87 87 89 88 82 89 83 90 84 91 85 92 86 93 62 94 63 95 72 96
REMARK SMILES IDX 64 97 65 98 71 99 73 100 66 101 67 102 68 103 69 104 70 105
REMARK H PARENT 25 6 32 36 94 55 60 66
REMARK Flexibility Score: inf
ROOT
ATOM      1  C   UNL A   1      39.466  23.426  26.497  1.00  0.00     0.021 C 
ENDROOT
BRANCH   1   2
ATOM      2  C   UNL A   1      37.975  23.524  26.189  1.00  0.00     0.116 C 
BRANCH   2   3
ATOM      3  N   UNL A   1      37.467  22.272  25.639  1.00  0.00    -0.356 N 
ATOM      4  C   UNL A   1      36.359  22.000  24.899  1.00  0.00     0.221 C 
ATOM      5  O   UNL A   1      36.136  20.822  24.603  1.00  0.00    -0.275 OA
ATOM      6  H   UNL A   1      38.026  21.486  25.837  1.00  0.00     0.163 HD
BRANCH   4   7
ATOM      7  C   UNL A   1      35.420  23.092  24.429  1.00  0.00     0.122 C 
BRANCH   7   8
ATOM      8  C   UNL A   1      34.259  23.297  25.413  1.00  0.00     0.138 C 
BRANCH   8   9
ATOM      9  N   UNL A   1      33.089  22.484  25.089  1.00  0.00    -0.287 N 
ATOM     10  C   UNL A   1      32.245  22.699  24.023  1.00  0.00     0.171 A 
ATOM     11  N   UNL A   1      31.847  21.709  23.280  1.00  0.00    -0.224 NA
ATOM     12  C   UNL A   1      32.262  20.411  23.611  1.00  0.00     0.079 A 
ATOM     13  C   UNL A   1      33.030  21.249  25.755  1.00  0.00     0.262 A 
ATOM     14  C   UNL A   1      32.272  19.397  22.654  1.00  0.00     0.029 A 
ATOM     15  C   UNL A   1      32.663  20.102  24.901  1.00  0.00     0.066 A 
ATOM     16  O   UNL A   1      33.361  21.072  26.908  1.00  0.00    -0.269 OA
ATOM     17  C   UNL A   1      32.615  18.087  22.999  1.00  0.00     0.002 A 
ATOM     18  C   UNL A   1      32.923  18.782  25.289  1.00  0.00     0.016 A 
ATOM     19  C   UNL A   1      32.891  17.770  24.329  1.00  0.00     0.001 A 
BRANCH  10  20
ATOM     20  S   UNL A   1      31.620  24.249  23.504  1.00  0.00    -0.083 SA
BRANCH  20  21
ATOM     21  C   UNL A   1      30.744  25.167  24.766  1.00  0.00     0.113 C 
BRANCH  21  22
ATOM     22  C   UNL A   1      30.652  26.644  24.513  1.00  0.00    -0.034 A 
ATOM     23  C   UNL A   1      30.033  28.462  23.028  1.00  0.00     0.119 A 
ATOM     24  C   UNL A   1      30.756  29.344  23.833  1.00  0.00     0.046 A 
ATOM     25  C   UNL A   1      29.929  27.130  23.412  1.00  0.00     0.051 A 
ATOM     26  C   UNL A   1      31.363  28.899  25.008  1.00  0.00     0.004 A 
ATOM     27  C   UNL A   1      31.316  27.552  25.345  1.00  0.00     0.005 A 
BRANCH  23  28
ATOM     28  O   UNL A   1      29.498  29.004  21.893  1.00  0.00    -0.497 OA
ATOM     29  C   UNL A   1      28.246  29.673  22.028  1.00  0.00     0.278 C 
ENDBRANCH  23  28
ENDBRANCH  21  22
ENDBRANCH  20  21
ENDBRANCH  10  20
ENDBRANCH   8   9
ENDBRANCH   7   8
ENDBRANCH   4   7
ENDBRANCH   2   3
ENDBRANCH   1   2
BRANCH   1  30
ATOM     30  C   UNL A   1      40.023  22.071  26.925  1.00  0.00     0.002 C 
BRANCH  30  31
ATOM     31  C   UNL A   1      41.093  22.097  28.014  1.00  0.00     0.002 C 
BRANCH  31  32
ATOM     32  C   UNL A   1      42.539  21.894  27.552  1.00  0.00     0.021 C 
BRANCH  32  33
ATOM     33  C   UNL A   1      43.387  23.159  27.429  1.00  0.00     0.116 C 
BRANCH  33  34
ATOM     34  N   UNL A   1      43.146  23.889  26.202  1.00  0.00    -0.352 N 
ATOM     35  C   UNL A   1      42.635  25.151  26.025  1.00  0.00     0.251 C 
ATOM     36  H   UNL A   1      43.383  23.410  25.374  1.00  0.00     0.163 HD
ATOM     37  O   UNL A   1      42.338  25.531  24.895  1.00  0.00    -0.269 OA
BRANCH  35  38
ATOM     38  C   UNL A   1      42.418  26.055  27.181  1.00  0.00     0.039 A 
ATOM     39  C   UNL A   1      41.357  25.780  28.049  1.00  0.00     0.014 A 
ATOM     40  C   UNL A   1      43.196  27.201  27.379  1.00  0.00     0.014 A 
ATOM     41  C   UNL A   1      41.096  26.630  29.130  1.00  0.00     0.010 A 
ATOM     42  C   UNL A   1      42.965  28.022  28.487  1.00  0.00     0.010 A 
ATOM     43  C   UNL A   1      41.905  27.752  29.369  1.00  0.00    -0.014 A 
BRANCH  43  44
ATOM     44  C   UNL A   1      41.631  28.666  30.513  1.00  0.00     0.031 A 
ATOM     45  C   UNL A   1      42.465  28.581  31.766  1.00  0.00     0.074 A 
ATOM     46  C   UNL A   1      40.617  29.552  30.446  1.00  0.00     0.049 A 
ATOM     47  N   UNL A   1      42.333  29.233  32.894  1.00  0.00    -0.248 NA
ATOM     48  C   UNL A   1      43.585  27.627  31.753  1.00  0.00     0.031 C 
ATOM     49  C   UNL A   1      39.729  29.734  29.297  1.00  0.00     0.029 A 
ATOM     50  N   UNL A   1      40.156  30.460  31.369  1.00  0.00    -0.354 N 
ATOM     51  C   UNL A   1      43.342  28.761  33.728  1.00  0.00     0.074 A 
ATOM     52  C   UNL A   1      44.052  27.739  32.989  1.00  0.00     0.031 C 
ATOM     53  C   UNL A   1      38.836  30.697  29.580  1.00  0.00     0.029 A 
ATOM     54  C   UNL A   1      39.061  31.176  30.941  1.00  0.00     0.049 A 
ATOM     55  H   UNL A   1      40.570  30.587  32.253  1.00  0.00     0.167 HD
ATOM     56  C   UNL A   1      43.659  29.154  34.986  1.00  0.00     0.037 A 
ATOM     57  C   UNL A   1      38.313  32.101  31.577  1.00  0.00     0.037 A 
ATOM     58  C   UNL A   1      42.965  30.187  35.713  1.00  0.00     0.049 A 
ATOM     59  C   UNL A   1      38.669  32.503  32.985  1.00  0.00     0.074 A 
ATOM     60  C   UNL A   1      43.235  30.675  36.981  1.00  0.00     0.029 A 
ATOM     61  N   UNL A   1      41.870  30.893  35.240  1.00  0.00    -0.354 N 
ATOM     62  N   UNL A   1      39.645  32.067  33.745  1.00  0.00    -0.248 NA
ATOM     63  C   UNL A   1      37.826  33.526  33.620  1.00  0.00     0.031 C 
ATOM     64  C   UNL A   1      42.278  31.647  37.290  1.00  0.00     0.029 A 
ATOM     65  C   UNL A   1      41.444  31.801  36.195  1.00  0.00     0.049 A 
ATOM     66  H   UNL A   1      41.456  30.768  34.355  1.00  0.00     0.167 HD
ATOM     67  C   UNL A   1      39.555  32.788  34.930  1.00  0.00     0.074 A 
ATOM     68  C   UNL A   1      38.431  33.689  34.789  1.00  0.00     0.031 C 
ATOM     69  C   UNL A   1      40.337  32.711  36.036  1.00  0.00     0.037 A 
BRANCH  56  70
ATOM     70  C   UNL A   1      44.810  28.464  35.665  1.00  0.00     0.058 A 
ATOM     71  C   UNL A   1      44.631  27.275  36.390  1.00  0.00     0.135 A 
ATOM     72  C   UNL A   1      46.116  28.968  35.547  1.00  0.00     0.135 A 
ATOM     73  F   UNL A   1      43.404  26.755  36.545  1.00  0.00    -0.206 F 
ATOM     74  C   UNL A   1      45.703  26.624  36.996  1.00  0.00     0.059 A 
ATOM     75  C   UNL A   1      47.205  28.319  36.123  1.00  0.00     0.059 A 
ATOM     76  F   UNL A   1      46.345  30.098  34.862  1.00  0.00    -0.206 F 
ATOM     77  C   UNL A   1      46.985  27.154  36.857  1.00  0.00     0.060 A 
BRANCH  77  78
ATOM     78  S   UNL A   1      48.365  26.293  37.643  1.00  0.00     0.124 S 
ATOM     79  O   UNL A   1      49.296  26.159  36.527  1.00  0.00    -0.237 OA
ATOM     80  O   UNL A   1      48.762  27.230  38.689  1.00  0.00    -0.237 OA
ATOM     81  O   UNL A   1      47.766  25.049  38.114  1.00  0.00    -0.744 OA
ENDBRANCH  77  78
ENDBRANCH  56  70
BRANCH  57  82
ATOM     82  C   UNL A   1      37.151  32.721  30.886  1.00  0.00     0.058 A 
ATOM     83  C   UNL A   1      35.860  32.188  31.019  1.00  0.00     0.135 A 
ATOM     84  C   UNL A   1      37.307  33.857  30.076  1.00  0.00     0.135 A 
ATOM     85  F   UNL A   1      35.660  31.097  31.775  1.00  0.00    -0.206 F 
ATOM     86  C   UNL A   1      34.769  32.743  30.358  1.00  0.00     0.059 A 
ATOM     87  C   UNL A   1      36.227  34.447  29.426  1.00  0.00     0.059 A 
ATOM     88  F   UNL A   1      38.519  34.416  29.928  1.00  0.00    -0.206 F 
ATOM     89  C   UNL A   1      34.963  33.874  29.564  1.00  0.00     0.060 A 
BRANCH  89  90
ATOM     90  S   UNL A   1      33.535  34.614  28.742  1.00  0.00     0.124 S 
ATOM     91  O   UNL A   1      34.139  35.773  28.093  1.00  0.00    -0.237 OA
ATOM     92  O   UNL A   1      33.101  33.538  27.855  1.00  0.00    -0.237 OA
ATOM     93  O   UNL A   1      32.629  34.909  29.847  1.00  0.00    -0.744 OA
ENDBRANCH  89  90
ENDBRANCH  57  82
BRANCH  69  94
ATOM     94  C   UNL A   1      40.048  33.662  37.164  1.00  0.00     0.058 A 
ATOM     95  C   UNL A   1      40.631  34.937  37.229  1.00  0.00     0.135 A 
ATOM     96  C   UNL A   1      39.120  33.316  38.161  1.00  0.00     0.135 A 
ATOM     97  F   UNL A   1      41.528  35.316  36.305  1.00  0.00    -0.206 F 
ATOM     98  C   UNL A   1      40.318  35.829  38.250  1.00  0.00     0.059 A 
ATOM     99  C   UNL A   1      38.773  34.201  39.176  1.00  0.00     0.059 A 
ATOM    100  F   UNL A   1      38.527  32.112  38.142  1.00  0.00    -0.206 F 
ATOM    101  C   UNL A   1      39.384  35.453  39.218  1.00  0.00     0.060 A 
BRANCH 101 102
ATOM    102  S   UNL A   1      38.950  36.637  40.511  1.00  0.00     0.124 S 
ATOM    103  O   UNL A   1      40.232  36.822  41.183  1.00  0.00    -0.237 OA
ATOM    104  O   UNL A   1      38.469  37.779  39.740  1.00  0.00    -0.237 OA
ATOM    105  O   UNL A   1      37.930  35.936  41.285  1.00  0.00    -0.744 OA
ENDBRANCH 101 102
ENDBRANCH  69  94
ENDBRANCH  43  44
ENDBRANCH  35  38
ENDBRANCH  33  34
ENDBRANCH  32  33
ENDBRANCH  31  32
ENDBRANCH  30  31
ENDBRANCH   1  30
TORSDOF 22
ENDMDL
MODEL 2
REMARK VINA RESULT:     -11.4      5.964     11.045
REMARK SMILES COc1cccc(CSc2nc3ccccc3c(=O)n2CCC(=O)NCCCCCCNC(=O)c2ccc(-c3c4nc(c(-c5c(F)cc(S(=O)(=O)[O-])cc5F)c5ccc([nH]5)c(-c5c(F)cc(S(=O)(=O)[O-])cc5F)c5nc(c(-c6c(F)cc(S(=O)(=O)[O-])cc6F)c6ccc3[nH]6)C=C5)C=C4)cc2)c1
REMARK SMILES IDX 27 1 26 2 25 3 23 4 24 5 22 7 21 8 20 9 10 10 11 11 12 12
REMARK SMILES IDX 18 13 13 14 17 15 19 16 14 17 16 18 15 19 9 20 8 21 7 22
REMARK SMILES IDX 3 23 4 24 101 25 5 26 6 27 2 28 1 29 28 30 29 31 30 32 31 33
REMARK SMILES IDX 32 34 33 35 34 37 35 38 36 39 100 40 37 41 99 42 38 43 39 44
REMARK SMILES IDX 40 45 93 46 41 47 98 48 92 49 94 50 42 51 97 52 91 53 90 54
REMARK SMILES IDX 43 56 77 57 56 58 76 59 57 60 60 61 75 62 95 63 58 64 59 65
REMARK SMILES IDX 74 67 96 68 61 69 44 70 45 71 54 72 46 73 47 74 53 75 55 76
REMARK SMILES IDX 48 77 49 78 50 79 51 80 52 81 78 82 79 83 88 84 80 85 81 86
REMARK SMILES IDX 87 87 89 88 82 89 83 90 84 91 85 92 86 93 62 94 63 95 72 96
REMARK SMILES IDX 64 97 65 98 71 99 73 100 66 101 67 102 68 103 69 104 70 105
REMARK H PARENT 25 6 32 36 94 55 60 66
REMARK Flexibility Score: inf
ROOT
ATOM      1  C   UNL A   1      38.771  24.332  26.553  1.00  0.00     0.021 C 
ENDROOT
BRANCH   1   2
ATOM      2  C   UNL A   1      37.459  23.682  26.124  1.00  0.00     0.116 C 
BRANCH   2   3
ATOM      3  N   UNL A   1      37.482  23.334  24.708  1.00  0.00    -0.356 N 
ATOM      4  C   UNL A   1      36.499  23.327  23.768  1.00  0.00     0.221 C 
ATOM      5  O   UNL A   1      36.784  22.932  22.634  1.00  0.00    -0.275 OA
ATOM      6  H   UNL A   1      38.365  23.055  24.373  1.00  0.00     0.163 HD
BRANCH   4   7
ATOM      7  C   UNL A   1      35.092  23.798  24.076  1.00  0.00     0.122 C 
BRANCH   7   8
ATOM      8  C   UNL A   1      34.147  23.563  22.888  1.00  0.00     0.138 C 
BRANCH   8   9
ATOM      9  N   UNL A   1      32.878  24.275  23.021  1.00  0.00    -0.287 N 
ATOM     10  C   UNL A   1      31.901  23.987  23.948  1.00  0.00     0.171 A 
ATOM     11  N   UNL A   1      31.314  24.938  24.612  1.00  0.00    -0.224 NA
ATOM     12  C   UNL A   1      31.666  26.267  24.336  1.00  0.00     0.079 A 
ATOM     13  C   UNL A   1      32.820  25.503  22.342  1.00  0.00     0.262 A 
ATOM     14  C   UNL A   1      31.445  27.275  25.274  1.00  0.00     0.029 A 
ATOM     15  C   UNL A   1      32.233  26.613  23.120  1.00  0.00     0.066 A 
ATOM     16  O   UNL A   1      33.308  25.711  21.253  1.00  0.00    -0.269 OA
ATOM     17  C   UNL A   1      31.727  28.610  24.972  1.00  0.00     0.002 A 
ATOM     18  C   UNL A   1      32.439  27.951  22.764  1.00  0.00     0.016 A 
ATOM     19  C   UNL A   1      32.176  28.953  23.698  1.00  0.00     0.001 A 
BRANCH  10  20
ATOM     20  S   UNL A   1      31.335  22.389  24.379  1.00  0.00    -0.083 SA
BRANCH  20  21
ATOM     21  C   UNL A   1      32.567  21.332  25.132  1.00  0.00     0.113 C 
BRANCH  21  22
ATOM     22  C   UNL A   1      32.587  19.925  24.610  1.00  0.00    -0.034 A 
ATOM     23  C   UNL A   1      33.152  17.589  24.954  1.00  0.00     0.119 A 
ATOM     24  C   UNL A   1      32.966  17.360  23.590  1.00  0.00     0.046 A 
ATOM     25  C   UNL A   1      32.894  18.855  25.466  1.00  0.00     0.051 A 
ATOM     26  C   UNL A   1      32.525  18.383  22.750  1.00  0.00     0.004 A 
ATOM     27  C   UNL A   1      32.340  19.664  23.257  1.00  0.00     0.005 A 
BRANCH  23  28
ATOM     28  O   UNL A   1      33.604  16.519  25.676  1.00  0.00    -0.497 OA
ATOM     29  C   UNL A   1      33.018  15.253  25.386  1.00  0.00     0.278 C 
ENDBRANCH  23  28
ENDBRANCH  21  22
ENDBRANCH  20  21
ENDBRANCH  10  20
ENDBRANCH   8   9
ENDBRANCH   7   8
ENDBRANCH   4   7
ENDBRANCH   2   3
ENDBRANCH   1   2
BRANCH   1  30
ATOM     30  C   UNL A   1      40.043  23.492  26.487  1.00  0.00     0.002 C 
BRANCH  30  31
ATOM     31  C   UNL A   1      40.014  22.167  27.246  1.00  0.00     0.002 C 
BRANCH  31  32
ATOM     32  C   UNL A   1      40.072  20.894  26.396  1.00  0.00     0.021 C 
BRANCH  32  33
ATOM     33  C   UNL A   1      40.810  19.708  27.015  1.00  0.00     0.116 C 
BRANCH  33  34
ATOM     34  N   UNL A   1      41.791  19.122  26.127  1.00  0.00    -0.352 N 
ATOM     35  C   UNL A   1      42.871  19.707  25.512  1.00  0.00     0.251 C 
ATOM     36  H   UNL A   1      41.666  18.164  25.935  1.00  0.00     0.163 HD
ATOM     37  O   UNL A   1      43.487  19.085  24.650  1.00  0.00    -0.269 OA
BRANCH  35  38
ATOM     38  C   UNL A   1      43.291  21.086  25.860  1.00  0.00     0.039 A 
ATOM     39  C   UNL A   1      43.350  22.040  24.840  1.00  0.00     0.014 A 
ATOM     40  C   UNL A   1      43.693  21.430  27.155  1.00  0.00     0.014 A 
ATOM     41  C   UNL A   1      43.778  23.342  25.121  1.00  0.00     0.010 A 
ATOM     42  C   UNL A   1      44.073  22.745  27.444  1.00  0.00     0.010 A 
ATOM     43  C   UNL A   1      44.131  23.713  26.428  1.00  0.00    -0.014 A 
BRANCH  43  44
ATOM     44  C   UNL A   1      44.593  25.096  26.736  1.00  0.00     0.031 A 
ATOM     45  C   UNL A   1      43.612  26.132  27.220  1.00  0.00     0.074 A 
ATOM     46  C   UNL A   1      45.884  25.435  26.552  1.00  0.00     0.049 A 
ATOM     47  N   UNL A   1      43.804  27.403  27.465  1.00  0.00    -0.248 NA
ATOM     48  C   UNL A   1      42.229  25.681  27.445  1.00  0.00     0.031 C 
ATOM     49  C   UNL A   1      46.937  24.533  26.082  1.00  0.00     0.029 A 
ATOM     50  N   UNL A   1      46.532  26.635  26.730  1.00  0.00    -0.354 N 
ATOM     51  C   UNL A   1      42.569  27.908  27.860  1.00  0.00     0.074 A 
ATOM     52  C   UNL A   1      41.626  26.813  27.782  1.00  0.00     0.031 C 
ATOM     53  C   UNL A   1      48.097  25.208  26.015  1.00  0.00     0.029 A 
ATOM     54  C   UNL A   1      47.867  26.598  26.400  1.00  0.00     0.049 A 
ATOM     55  H   UNL A   1      46.082  27.445  27.062  1.00  0.00     0.167 HD
ATOM     56  C   UNL A   1      42.252  29.161  28.266  1.00  0.00     0.037 A 
ATOM     57  C   UNL A   1      48.798  27.573  26.393  1.00  0.00     0.037 A 
ATOM     58  C   UNL A   1      43.195  30.246  28.363  1.00  0.00     0.049 A 
ATOM     59  C   UNL A   1      48.416  28.966  26.823  1.00  0.00     0.074 A 
ATOM     60  C   UNL A   1      42.973  31.543  28.795  1.00  0.00     0.029 A 
ATOM     61  N   UNL A   1      44.539  30.163  28.030  1.00  0.00    -0.354 N 
ATOM     62  N   UNL A   1      47.250  29.415  27.222  1.00  0.00    -0.248 NA
ATOM     63  C   UNL A   1      49.477  29.984  26.808  1.00  0.00     0.031 C 
ATOM     64  C   UNL A   1      44.171  32.255  28.684  1.00  0.00     0.029 A 
ATOM     65  C   UNL A   1      45.153  31.388  28.232  1.00  0.00     0.049 A 
ATOM     66  H   UNL A   1      44.989  29.353  27.699  1.00  0.00     0.167 HD
ATOM     67  C   UNL A   1      47.446  30.754  27.539  1.00  0.00     0.074 A 
ATOM     68  C   UNL A   1      48.842  31.045  27.289  1.00  0.00     0.031 C 
ATOM     69  C   UNL A   1      46.550  31.661  28.001  1.00  0.00     0.037 A 
BRANCH  56  70
ATOM     70  C   UNL A   1      40.820  29.435  28.637  1.00  0.00     0.058 A 
ATOM     71  C   UNL A   1      39.803  29.475  27.669  1.00  0.00     0.135 A 
ATOM     72  C   UNL A   1      40.450  29.610  29.980  1.00  0.00     0.135 A 
ATOM     73  F   UNL A   1      40.101  29.327  26.369  1.00  0.00    -0.206 F 
ATOM     74  C   UNL A   1      38.475  29.704  28.018  1.00  0.00     0.059 A 
ATOM     75  C   UNL A   1      39.124  29.813  30.354  1.00  0.00     0.059 A 
ATOM     76  F   UNL A   1      41.380  29.578  30.947  1.00  0.00    -0.206 F 
ATOM     77  C   UNL A   1      38.146  29.872  29.363  1.00  0.00     0.060 A 
BRANCH  77  78
ATOM     78  S   UNL A   1      36.417  30.159  29.799  1.00  0.00     0.124 S 
ATOM     79  O   UNL A   1      36.277  29.331  30.992  1.00  0.00    -0.237 OA
ATOM     80  O   UNL A   1      36.388  31.601  30.023  1.00  0.00    -0.237 OA
ATOM     81  O   UNL A   1      35.688  29.695  28.623  1.00  0.00    -0.744 OA
ENDBRANCH  77  78
ENDBRANCH  56  70
BRANCH  57  82
ATOM     82  C   UNL A   1      50.191  27.271  25.969  1.00  0.00     0.058 A 
ATOM     83  C   UNL A   1      50.567  27.331  24.618  1.00  0.00     0.135 A 
ATOM     84  C   UNL A   1      51.175  26.910  26.904  1.00  0.00     0.135 A 
ATOM     85  F   UNL A   1      49.661  27.661  23.685  1.00  0.00    -0.206 F 
ATOM     86  C   UNL A   1      51.860  27.025  24.206  1.00  0.00     0.059 A 
ATOM     87  C   UNL A   1      52.481  26.626  26.519  1.00  0.00     0.059 A 
ATOM     88  F   UNL A   1      50.871  26.853  28.211  1.00  0.00    -0.206 F 
ATOM     89  C   UNL A   1      52.811  26.674  25.165  1.00  0.00     0.060 A 
BRANCH  89  90
ATOM     90  S   UNL A   1      54.498  26.318  24.627  1.00  0.00     0.124 S 
ATOM     91  O   UNL A   1      54.417  26.609  23.200  1.00  0.00    -0.237 OA
ATOM     92  O   UNL A   1      55.279  27.256  25.428  1.00  0.00    -0.237 OA
ATOM     93  O   UNL A   1      54.670  24.912  24.977  1.00  0.00    -0.744 OA
ENDBRANCH  89  90
ENDBRANCH  57  82
BRANCH  69  94
ATOM     94  C   UNL A   1      47.053  33.042  28.323  1.00  0.00     0.058 A 
ATOM     95  C   UNL A   1      46.970  34.096  27.400  1.00  0.00     0.135 A 
ATOM     96  C   UNL A   1      47.563  33.328  29.600  1.00  0.00     0.135 A 
ATOM     97  F   UNL A   1      46.496  33.875  26.163  1.00  0.00    -0.206 F 
ATOM     98  C   UNL A   1      47.392  35.382  27.726  1.00  0.00     0.059 A 
ATOM     99  C   UNL A   1      47.966  34.611  29.956  1.00  0.00     0.059 A 
ATOM    100  F   UNL A   1      47.656  32.358  30.524  1.00  0.00    -0.206 F 
ATOM    101  C   UNL A   1      47.884  35.631  29.008  1.00  0.00     0.060 A 
BRANCH 101 102
ATOM    102  S   UNL A   1      48.384  37.313  29.434  1.00  0.00     0.124 S 
ATOM    103  O   UNL A   1      48.788  37.838  28.134  1.00  0.00    -0.237 OA
ATOM    104  O   UNL A   1      47.155  37.873  29.989  1.00  0.00    -0.237 OA
ATOM    105  O   UNL A   1      49.464  37.114  30.396  1.00  0.00    -0.744 OA
ENDBRANCH 101 102
ENDBRANCH  69  94
ENDBRANCH  43  44
ENDBRANCH  35  38
ENDBRANCH  33  34
ENDBRANCH  32  33
ENDBRANCH  31  32
ENDBRANCH  30  31
ENDBRANCH   1  30
TORSDOF 22
ENDMDL
MODEL 3
REMARK VINA RESULT:     -11.3      5.980      8.852
REMARK SMILES COc1cccc(CSc2nc3ccccc3c(=O)n2CCC(=O)NCCCCCCNC(=O)c2ccc(-c3c4nc(c(-c5c(F)cc(S(=O)(=O)[O-])cc5F)c5ccc([nH]5)c(-c5c(F)cc(S(=O)(=O)[O-])cc5F)c5nc(c(-c6c(F)cc(S(=O)(=O)[O-])cc6F)c6ccc3[nH]6)C=C5)C=C4)cc2)c1
REMARK SMILES IDX 27 1 26 2 25 3 23 4 24 5 22 7 21 8 20 9 10 10 11 11 12 12
REMARK SMILES IDX 18 13 13 14 17 15 19 16 14 17 16 18 15 19 9 20 8 21 7 22
REMARK SMILES IDX 3 23 4 24 101 25 5 26 6 27 2 28 1 29 28 30 29 31 30 32 31 33
REMARK SMILES IDX 32 34 33 35 34 37 35 38 36 39 100 40 37 41 99 42 38 43 39 44
REMARK SMILES IDX 40 45 93 46 41 47 98 48 92 49 94 50 42 51 97 52 91 53 90 54
REMARK SMILES IDX 43 56 77 57 56 58 76 59 57 60 60 61 75 62 95 63 58 64 59 65
REMARK SMILES IDX 74 67 96 68 61 69 44 70 45 71 54 72 46 73 47 74 53 75 55 76
REMARK SMILES IDX 48 77 49 78 50 79 51 80 52 81 78 82 79 83 88 84 80 85 81 86
REMARK SMILES IDX 87 87 89 88 82 89 83 90 84 91 85 92 86 93 62 94 63 95 72 96
REMARK SMILES IDX 64 97 65 98 71 99 73 100 66 101 67 102 68 103 69 104 70 105
REMARK H PARENT 25 6 32 36 94 55 60 66
REMARK Flexibility Score: inf
ROOT
ATOM      1  C   UNL A   1      39.195  23.705  26.496  1.00  0.00     0.021 C 
ENDROOT
BRANCH   1   2
ATOM      2  C   UNL A   1      37.874  23.053  26.097  1.00  0.00     0.116 C 
BRANCH   2   3
ATOM      3  N   UNL A   1      37.780  22.897  24.651  1.00  0.00    -0.356 N 
ATOM      4  C   UNL A   1      36.724  23.012  23.802  1.00  0.00     0.221 C 
ATOM      5  O   UNL A   1      36.914  22.772  22.605  1.00  0.00    -0.275 OA
ATOM      6  H   UNL A   1      38.631  22.669  24.211  1.00  0.00     0.163 HD
BRANCH   4   7
ATOM      7  C   UNL A   1      35.350  23.432  24.283  1.00  0.00     0.122 C 
BRANCH   7   8
ATOM      8  C   UNL A   1      34.343  23.497  23.124  1.00  0.00     0.138 C 
BRANCH   8   9
ATOM      9  N   UNL A   1      33.223  24.395  23.395  1.00  0.00    -0.287 N 
ATOM     10  C   UNL A   1      32.298  24.227  24.402  1.00  0.00     0.171 A 
ATOM     11  N   UNL A   1      31.933  25.231  25.143  1.00  0.00    -0.224 NA
ATOM     12  C   UNL A   1      32.468  26.498  24.868  1.00  0.00     0.079 A 
ATOM     13  C   UNL A   1      33.302  25.643  22.756  1.00  0.00     0.262 A 
ATOM     14  C   UNL A   1      32.497  27.490  25.848  1.00  0.00     0.029 A 
ATOM     15  C   UNL A   1      32.973  26.799  23.613  1.00  0.00     0.066 A 
ATOM     16  O   UNL A   1      33.718  25.815  21.631  1.00  0.00    -0.269 OA
ATOM     17  C   UNL A   1      32.962  28.775  25.556  1.00  0.00     0.002 A 
ATOM     18  C   UNL A   1      33.359  28.101  23.274  1.00  0.00     0.016 A 
ATOM     19  C   UNL A   1      33.345  29.094  24.254  1.00  0.00     0.001 A 
BRANCH  10  20
ATOM     20  S   UNL A   1      31.523  22.722  24.845  1.00  0.00    -0.083 SA
BRANCH  20  21
ATOM     21  C   UNL A   1      32.605  21.512  25.598  1.00  0.00     0.113 C 
BRANCH  21  22
ATOM     22  C   UNL A   1      32.547  20.148  24.975  1.00  0.00    -0.034 A 
ATOM     23  C   UNL A   1      32.934  17.759  25.166  1.00  0.00     0.119 A 
ATOM     24  C   UNL A   1      32.786  17.641  23.784  1.00  0.00     0.046 A 
ATOM     25  C   UNL A   1      32.745  19.001  25.761  1.00  0.00     0.051 A 
ATOM     26  C   UNL A   1      32.449  18.750  23.007  1.00  0.00     0.004 A 
ATOM     27  C   UNL A   1      32.335  20.002  23.600  1.00  0.00     0.005 A 
BRANCH  23  28
ATOM     28  O   UNL A   1      33.283  16.611  25.822  1.00  0.00    -0.497 OA
ATOM     29  C   UNL A   1      32.959  15.380  25.182  1.00  0.00     0.278 C 
ENDBRANCH  23  28
ENDBRANCH  21  22
ENDBRANCH  20  21
ENDBRANCH  10  20
ENDBRANCH   8   9
ENDBRANCH   7   8
ENDBRANCH   4   7
ENDBRANCH   2   3
ENDBRANCH   1   2
BRANCH   1  30
ATOM     30  C   UNL A   1      40.464  22.861  26.419  1.00  0.00     0.002 C 
BRANCH  30  31
ATOM     31  C   UNL A   1      40.419  21.512  27.135  1.00  0.00     0.002 C 
BRANCH  31  32
ATOM     32  C   UNL A   1      40.689  20.276  26.273  1.00  0.00     0.021 C 
BRANCH  32  33
ATOM     33  C   UNL A   1      41.792  19.342  26.768  1.00  0.00     0.116 C 
BRANCH  33  34
ATOM     34  N   UNL A   1      42.718  18.951  25.726  1.00  0.00    -0.352 N 
ATOM     35  C   UNL A   1      43.615  19.718  25.024  1.00  0.00     0.251 C 
ATOM     36  H   UNL A   1      42.703  17.996  25.486  1.00  0.00     0.163 HD
ATOM     37  O   UNL A   1      44.191  19.239  24.051  1.00  0.00    -0.269 OA
BRANCH  35  38
ATOM     38  C   UNL A   1      43.882  21.125  25.412  1.00  0.00     0.039 A 
ATOM     39  C   UNL A   1      43.738  22.121  24.441  1.00  0.00     0.014 A 
ATOM     40  C   UNL A   1      44.338  21.464  26.690  1.00  0.00     0.014 A 
ATOM     41  C   UNL A   1      44.017  23.455  24.757  1.00  0.00     0.010 A 
ATOM     42  C   UNL A   1      44.569  22.804  27.019  1.00  0.00     0.010 A 
ATOM     43  C   UNL A   1      44.422  23.813  26.053  1.00  0.00    -0.014 A 
BRANCH  43  44
ATOM     44  C   UNL A   1      44.728  25.230  26.398  1.00  0.00     0.031 A 
ATOM     45  C   UNL A   1      46.135  25.754  26.268  1.00  0.00     0.074 A 
ATOM     46  C   UNL A   1      43.755  26.041  26.858  1.00  0.00     0.049 A 
ATOM     47  N   UNL A   1      46.614  26.929  26.591  1.00  0.00    -0.248 NA
ATOM     48  C   UNL A   1      47.138  24.831  25.713  1.00  0.00     0.031 C 
ATOM     49  C   UNL A   1      42.353  25.661  27.038  1.00  0.00     0.029 A 
ATOM     50  N   UNL A   1      43.797  27.353  27.267  1.00  0.00    -0.354 N 
ATOM     51  C   UNL A   1      47.973  26.883  26.294  1.00  0.00     0.074 A 
ATOM     52  C   UNL A   1      48.248  25.550  25.801  1.00  0.00     0.031 C 
ATOM     53  C   UNL A   1      41.669  26.715  27.515  1.00  0.00     0.029 A 
ATOM     54  C   UNL A   1      42.586  27.834  27.710  1.00  0.00     0.049 A 
ATOM     55  H   UNL A   1      44.617  27.897  27.245  1.00  0.00     0.167 HD
ATOM     56  C   UNL A   1      48.901  27.864  26.403  1.00  0.00     0.037 A 
ATOM     57  C   UNL A   1      42.254  29.033  28.228  1.00  0.00     0.037 A 
ATOM     58  C   UNL A   1      48.622  29.198  26.873  1.00  0.00     0.049 A 
ATOM     59  C   UNL A   1      43.310  30.100  28.365  1.00  0.00     0.074 A 
ATOM     60  C   UNL A   1      49.493  30.268  26.989  1.00  0.00     0.029 A 
ATOM     61  N   UNL A   1      47.382  29.645  27.301  1.00  0.00    -0.354 N 
ATOM     62  N   UNL A   1      44.582  30.047  28.049  1.00  0.00    -0.248 NA
ATOM     63  C   UNL A   1      42.885  31.393  28.924  1.00  0.00     0.031 C 
ATOM     64  C   UNL A   1      48.789  31.351  27.525  1.00  0.00     0.029 A 
ATOM     65  C   UNL A   1      47.468  30.971  27.695  1.00  0.00     0.049 A 
ATOM     66  H   UNL A   1      46.561  29.102  27.322  1.00  0.00     0.167 HD
ATOM     67  C   UNL A   1      45.098  31.306  28.337  1.00  0.00     0.074 A 
ATOM     68  C   UNL A   1      44.003  32.101  28.849  1.00  0.00     0.031 C 
ATOM     69  C   UNL A   1      46.366  31.762  28.184  1.00  0.00     0.037 A 
BRANCH  56  70
ATOM     70  C   UNL A   1      50.316  27.536  26.009  1.00  0.00     0.058 A 
ATOM     71  C   UNL A   1      50.732  27.565  24.668  1.00  0.00     0.135 A 
ATOM     72  C   UNL A   1      51.279  27.238  26.986  1.00  0.00     0.135 A 
ATOM     73  F   UNL A   1      49.851  27.832  23.691  1.00  0.00    -0.206 F 
ATOM     74  C   UNL A   1      52.047  27.285  24.309  1.00  0.00     0.059 A 
ATOM     75  C   UNL A   1      52.606  26.981  26.651  1.00  0.00     0.059 A 
ATOM     76  F   UNL A   1      50.937  27.200  28.283  1.00  0.00    -0.206 F 
ATOM     77  C   UNL A   1      52.977  26.994  25.308  1.00  0.00     0.060 A 
BRANCH  77  78
ATOM     78  S   UNL A   1      54.681  26.642  24.825  1.00  0.00     0.124 S 
ATOM     79  O   UNL A   1      54.927  25.385  25.526  1.00  0.00    -0.237 OA
ATOM     80  O   UNL A   1      54.580  26.546  23.372  1.00  0.00    -0.237 OA
ATOM     81  O   UNL A   1      55.422  27.796  25.324  1.00  0.00    -0.744 OA
ENDBRANCH  77  78
ENDBRANCH  56  70
BRANCH  57  82
ATOM     82  C   UNL A   1      40.854  29.299  28.654  1.00  0.00     0.058 A 
ATOM     83  C   UNL A   1      40.515  29.392  30.013  1.00  0.00     0.135 A 
ATOM     84  C   UNL A   1      39.824  29.460  27.713  1.00  0.00     0.135 A 
ATOM     85  F   UNL A   1      41.462  29.237  30.952  1.00  0.00    -0.206 F 
ATOM     86  C   UNL A   1      39.205  29.614  30.425  1.00  0.00     0.059 A 
ATOM     87  C   UNL A   1      38.512  29.710  28.100  1.00  0.00     0.059 A 
ATOM     88  F   UNL A   1      40.098  29.395  26.400  1.00  0.00    -0.206 F 
ATOM     89  C   UNL A   1      38.209  29.773  29.460  1.00  0.00     0.060 A 
BRANCH  89  90
ATOM     90  S   UNL A   1      36.518  30.102  30.001  1.00  0.00     0.124 S 
ATOM     91  O   UNL A   1      36.527  31.556  30.120  1.00  0.00    -0.237 OA
ATOM     92  O   UNL A   1      35.732  29.554  28.899  1.00  0.00    -0.237 OA
ATOM     93  O   UNL A   1      36.421  29.365  31.257  1.00  0.00    -0.744 OA
ENDBRANCH  89  90
ENDBRANCH  57  82
BRANCH  69  94
ATOM     94  C   UNL A   1      46.637  33.202  28.520  1.00  0.00     0.058 A 
ATOM     95  C   UNL A   1      46.495  34.226  27.571  1.00  0.00     0.135 A 
ATOM     96  C   UNL A   1      46.978  33.570  29.833  1.00  0.00     0.135 A 
ATOM     97  F   UNL A   1      46.176  33.929  26.301  1.00  0.00    -0.206 F 
ATOM     98  C   UNL A   1      46.699  35.562  27.906  1.00  0.00     0.059 A 
ATOM     99  C   UNL A   1      47.160  34.900  30.196  1.00  0.00     0.059 A 
ATOM    100  F   UNL A   1      47.117  32.631  30.782  1.00  0.00    -0.206 F 
ATOM    101  C   UNL A   1      47.027  35.889  29.223  1.00  0.00     0.060 A 
BRANCH 101 102
ATOM    102  S   UNL A   1      47.242  37.629  29.656  1.00  0.00     0.124 S 
ATOM    103  O   UNL A   1      46.176  38.259  28.884  1.00  0.00    -0.237 OA
ATOM    104  O   UNL A   1      47.054  37.616  31.103  1.00  0.00    -0.237 OA
ATOM    105  O   UNL A   1      48.601  37.925  29.209  1.00  0.00    -0.744 OA
ENDBRANCH 101 102
ENDBRANCH  69  94
ENDBRANCH  43  44
ENDBRANCH  35  38
ENDBRANCH  33  34
ENDBRANCH  32  33
ENDBRANCH  31  32
ENDBRANCH  30  31
ENDBRANCH   1  30
TORSDOF 22
ENDMDL
