MODEL 1
REMARK VINA RESULT:     -12.2      0.000      0.000
REMARK SMILES C[C@H]1[NH2+]CC[C@H]1C(=O)N1CCCc2cc(C(=O)NCCCCCCNC(=O)c3ccc(-c4c5nc(c(-c6c(F)cc(S(=O)(=O)[O-])cc6F)c6ccc([nH]6)c(-c6c(F)cc(S(=O)(=O)[O-])cc6F)c6nc(c(-c7c(F)cc(S(=O)(=O)[O-])cc7F)c7ccc4[nH]7)C=C6)C=C5)cc3)ccc21
REMARK SMILES IDX 22 1 21 2 20 3 19 4 18 5 16 6 17 7 15 9 9 10 10 11 96 12
REMARK SMILES IDX 11 13 13 14 95 15 12 16 14 17 94 18 7 19 8 20 6 21 1 22 2 23
REMARK SMILES IDX 3 24 4 25 5 28 23 29 24 30 25 31 26 32 27 34 28 35 29 36
REMARK SMILES IDX 93 37 30 38 92 39 31 40 32 41 33 42 86 43 34 44 91 45 85 46
REMARK SMILES IDX 87 47 35 48 90 49 84 50 83 51 36 53 70 54 49 55 69 56 50 57
REMARK SMILES IDX 53 58 68 59 88 60 51 61 52 62 67 64 89 65 54 66 37 67 38 68
REMARK SMILES IDX 47 69 39 70 40 71 46 72 48 73 41 74 42 75 43 76 44 77 45 78
REMARK SMILES IDX 71 79 72 80 81 81 73 82 74 83 80 84 82 85 75 86 76 87 77 88
REMARK SMILES IDX 78 89 79 90 55 91 56 92 65 93 57 94 58 95 64 96 66 97 59 98
REMARK SMILES IDX 60 99 61 100 62 101 63 102
REMARK H PARENT 18 8 3 26 3 27 25 33 87 52 53 63
REMARK Flexibility Score: inf
ROOT
ATOM      1  C   UNL A   1      32.626  28.792  24.819  1.00  0.00     0.002 C 
ENDROOT
BRANCH   1   2
ATOM      2  C   UNL A   1      31.193  28.249  24.903  1.00  0.00     0.002 C 
BRANCH   2   3
ATOM      3  C   UNL A   1      30.496  28.100  23.544  1.00  0.00     0.021 C 
BRANCH   3   4
ATOM      4  C   UNL A   1      30.581  26.672  23.001  1.00  0.00     0.116 C 
BRANCH   4   5
ATOM      5  N   UNL A   1      31.687  26.580  22.073  1.00  0.00    -0.352 N 
ATOM      6  C   UNL A   1      32.750  25.725  21.973  1.00  0.00     0.251 C 
ATOM      7  O   UNL A   1      33.596  25.985  21.115  1.00  0.00    -0.269 OA
ATOM      8  H   UNL A   1      31.672  27.272  21.373  1.00  0.00     0.163 HD
BRANCH   6   9
ATOM      9  C   UNL A   1      32.902  24.481  22.785  1.00  0.00     0.040 A 
ATOM     10  N   UNL A   1      33.625  21.163  25.388  1.00  0.00    -0.312 N 
ATOM     11  C   UNL A   1      33.593  21.412  26.824  1.00  0.00     0.126 C 
ATOM     12  C   UNL A   1      33.371  22.278  24.524  1.00  0.00     0.047 A 
ATOM     13  C   UNL A   1      34.066  22.795  27.233  1.00  0.00     0.027 C 
ATOM     14  C   UNL A   1      33.196  23.572  25.043  1.00  0.00    -0.023 A 
ATOM     15  C   UNL A   1      33.272  22.105  23.140  1.00  0.00     0.027 A 
ATOM     16  C   UNL A   1      33.238  23.844  26.520  1.00  0.00     0.039 C 
ATOM     17  C   UNL A   1      32.983  24.656  24.173  1.00  0.00     0.019 A 
ATOM     18  C   UNL A   1      32.976  23.181  22.293  1.00  0.00     0.016 A 
BRANCH  10  19
ATOM     19  C   UNL A   1      34.413  20.109  24.943  1.00  0.00     0.236 C 
ATOM     20  O   UNL A   1      35.586  20.299  24.609  1.00  0.00    -0.274 OA
BRANCH  19  21
ATOM     21  C   UNL A   1      33.817  18.701  24.886  1.00  0.00     0.142 C 
ATOM     22  C   UNL A   1      32.271  18.962  22.779  1.00  0.00     0.076 C 
ATOM     23  C   UNL A   1      32.477  18.441  24.195  1.00  0.00     0.192 C 
ATOM     24  N   UNL A   1      32.416  16.966  24.166  1.00  0.00    -0.343 N 
ATOM     25  C   UNL A   1      33.782  16.444  24.087  1.00  0.00     0.261 C 
ATOM     26  H   UNL A   1      31.882  16.660  23.353  1.00  0.00     0.346 HD
ATOM     27  H   UNL A   1      31.958  16.619  25.010  1.00  0.00     0.346 HD
ATOM     28  C   UNL A   1      34.717  17.621  24.310  1.00  0.00     0.081 C 
ENDBRANCH  19  21
ENDBRANCH  10  19
ENDBRANCH   6   9
ENDBRANCH   4   5
ENDBRANCH   3   4
ENDBRANCH   2   3
ENDBRANCH   1   2
BRANCH   1  29
ATOM     29  C   UNL A   1      33.700  27.814  25.297  1.00  0.00     0.021 C 
BRANCH  29  30
ATOM     30  C   UNL A   1      34.279  28.175  26.659  1.00  0.00     0.116 C 
BRANCH  30  31
ATOM     31  N   UNL A   1      33.888  29.521  27.052  1.00  0.00    -0.352 N 
ATOM     32  C   UNL A   1      34.534  30.380  27.904  1.00  0.00     0.251 C 
ATOM     33  H   UNL A   1      33.054  29.860  26.654  1.00  0.00     0.163 HD
ATOM     34  O   UNL A   1      33.958  31.365  28.357  1.00  0.00    -0.269 OA
BRANCH  32  35
ATOM     35  C   UNL A   1      35.934  30.092  28.269  1.00  0.00     0.039 A 
ATOM     36  C   UNL A   1      36.229  29.598  29.541  1.00  0.00     0.014 A 
ATOM     37  C   UNL A   1      36.946  30.286  27.325  1.00  0.00     0.014 A 
ATOM     38  C   UNL A   1      37.545  29.247  29.850  1.00  0.00     0.010 A 
ATOM     39  C   UNL A   1      38.236  29.861  27.607  1.00  0.00     0.010 A 
ATOM     40  C   UNL A   1      38.551  29.348  28.875  1.00  0.00    -0.014 A 
BRANCH  40  41
ATOM     41  C   UNL A   1      39.954  28.955  29.148  1.00  0.00     0.031 A 
ATOM     42  C   UNL A   1      40.922  29.987  29.653  1.00  0.00     0.074 A 
ATOM     43  C   UNL A   1      40.377  27.713  28.840  1.00  0.00     0.049 A 
ATOM     44  N   UNL A   1      42.218  29.905  29.801  1.00  0.00    -0.248 NA
ATOM     45  C   UNL A   1      40.359  31.302  30.005  1.00  0.00     0.031 C 
ATOM     46  C   UNL A   1      39.536  26.639  28.309  1.00  0.00     0.029 A 
ATOM     47  N   UNL A   1      41.629  27.155  28.902  1.00  0.00    -0.354 N 
ATOM     48  C   UNL A   1      42.628  31.161  30.229  1.00  0.00     0.074 A 
ATOM     49  C   UNL A   1      41.452  32.000  30.271  1.00  0.00     0.031 C 
ATOM     50  C   UNL A   1      40.294  25.552  28.099  1.00  0.00     0.029 A 
ATOM     51  C   UNL A   1      41.681  25.865  28.428  1.00  0.00     0.049 A 
ATOM     52  H   UNL A   1      42.417  27.633  29.251  1.00  0.00     0.167 HD
ATOM     53  C   UNL A   1      43.873  31.571  30.572  1.00  0.00     0.037 A 
ATOM     54  C   UNL A   1      42.731  25.037  28.256  1.00  0.00     0.037 A 
ATOM     55  C   UNL A   1      45.029  30.715  30.547  1.00  0.00     0.049 A 
ATOM     56  C   UNL A   1      44.107  25.511  28.637  1.00  0.00     0.074 A 
ATOM     57  C   UNL A   1      46.323  31.009  30.937  1.00  0.00     0.029 A 
ATOM     58  N   UNL A   1      45.033  29.401  30.101  1.00  0.00    -0.354 N 
ATOM     59  N   UNL A   1      44.473  26.683  29.100  1.00  0.00    -0.248 NA
ATOM     60  C   UNL A   1      45.212  24.556  28.481  1.00  0.00     0.031 C 
ATOM     61  C   UNL A   1      47.121  29.893  30.671  1.00  0.00     0.029 A 
ATOM     62  C   UNL A   1      46.313  28.879  30.181  1.00  0.00     0.049 A 
ATOM     63  H   UNL A   1      44.242  28.912  29.775  1.00  0.00     0.167 HD
ATOM     64  C   UNL A   1      45.843  26.594  29.325  1.00  0.00     0.074 A 
ATOM     65  C   UNL A   1      46.242  25.255  28.942  1.00  0.00     0.031 C 
ATOM     66  C   UNL A   1      46.689  27.534  29.815  1.00  0.00     0.037 A 
BRANCH  53  67
ATOM     67  C   UNL A   1      44.046  33.008  30.981  1.00  0.00     0.058 A 
ATOM     68  C   UNL A   1      43.939  33.420  32.321  1.00  0.00     0.135 A 
ATOM     69  C   UNL A   1      44.334  33.990  30.019  1.00  0.00     0.135 A 
ATOM     70  F   UNL A   1      43.652  32.528  33.282  1.00  0.00    -0.206 F 
ATOM     71  C   UNL A   1      44.063  34.757  32.683  1.00  0.00     0.059 A 
ATOM     72  C   UNL A   1      44.498  35.328  30.364  1.00  0.00     0.059 A 
ATOM     73  F   UNL A   1      44.450  33.656  28.724  1.00  0.00    -0.206 F 
ATOM     74  C   UNL A   1      44.339  35.704  31.697  1.00  0.00     0.060 A 
BRANCH  74  75
ATOM     75  S   UNL A   1      44.475  37.437  32.181  1.00  0.00     0.124 S 
ATOM     76  O   UNL A   1      44.241  38.113  30.908  1.00  0.00    -0.237 OA
ATOM     77  O   UNL A   1      43.412  37.569  33.172  1.00  0.00    -0.237 OA
ATOM     78  O   UNL A   1      45.834  37.540  32.705  1.00  0.00    -0.744 OA
ENDBRANCH  74  75
ENDBRANCH  53  67
BRANCH  54  79
ATOM     79  C   UNL A   1      42.506  23.673  27.708  1.00  0.00     0.058 A 
ATOM     80  C   UNL A   1      42.499  23.442  26.325  1.00  0.00     0.135 A 
ATOM     81  C   UNL A   1      42.348  22.564  28.557  1.00  0.00     0.135 A 
ATOM     82  F   UNL A   1      42.639  24.469  25.473  1.00  0.00    -0.206 F 
ATOM     83  C   UNL A   1      42.342  22.164  25.800  1.00  0.00     0.059 A 
ATOM     84  C   UNL A   1      42.216  21.273  28.056  1.00  0.00     0.059 A 
ATOM     85  F   UNL A   1      42.365  22.729  29.889  1.00  0.00    -0.206 F 
ATOM     86  C   UNL A   1      42.211  21.083  26.675  1.00  0.00     0.060 A 
BRANCH  86  87
ATOM     87  S   UNL A   1      42.090  19.420  25.981  1.00  0.00     0.124 S 
ATOM     88  O   UNL A   1      42.630  18.609  27.066  1.00  0.00    -0.237 OA
ATOM     89  O   UNL A   1      40.656  19.294  25.740  1.00  0.00    -0.237 OA
ATOM     90  O   UNL A   1      42.915  19.497  24.779  1.00  0.00    -0.744 OA
ENDBRANCH  86  87
ENDBRANCH  54  79
BRANCH  66  91
ATOM     91  C   UNL A   1      48.127  27.150  30.028  1.00  0.00     0.058 A 
ATOM     92  C   UNL A   1      49.125  27.455  29.091  1.00  0.00     0.135 A 
ATOM     93  C   UNL A   1      48.523  26.577  31.248  1.00  0.00     0.135 A 
ATOM     94  F   UNL A   1      48.799  27.994  27.906  1.00  0.00    -0.206 F 
ATOM     95  C   UNL A   1      50.469  27.209  29.359  1.00  0.00     0.059 A 
ATOM     96  C   UNL A   1      49.862  26.348  31.548  1.00  0.00     0.059 A 
ATOM     97  F   UNL A   1      47.606  26.272  32.181  1.00  0.00    -0.206 F 
ATOM     98  C   UNL A   1      50.828  26.669  30.597  1.00  0.00     0.060 A 
BRANCH  98  99
ATOM     99  S   UNL A   1      52.580  26.442  30.965  1.00  0.00     0.124 S 
ATOM    100  O   UNL A   1      52.888  27.662  31.703  1.00  0.00    -0.237 OA
ATOM    101  O   UNL A   1      52.576  25.211  31.750  1.00  0.00    -0.237 OA
ATOM    102  O   UNL A   1      53.196  26.335  29.646  1.00  0.00    -0.744 OA
ENDBRANCH  98  99
ENDBRANCH  66  91
ENDBRANCH  40  41
ENDBRANCH  32  35
ENDBRANCH  30  31
ENDBRANCH  29  30
ENDBRANCH   1  29
TORSDOF 18
ENDMDL
MODEL 2
REMARK VINA RESULT:     -11.8      2.772      3.495
REMARK SMILES C[C@H]1[NH2+]CC[C@H]1C(=O)N1CCCc2cc(C(=O)NCCCCCCNC(=O)c3ccc(-c4c5nc(c(-c6c(F)cc(S(=O)(=O)[O-])cc6F)c6ccc([nH]6)c(-c6c(F)cc(S(=O)(=O)[O-])cc6F)c6nc(c(-c7c(F)cc(S(=O)(=O)[O-])cc7F)c7ccc4[nH]7)C=C6)C=C5)cc3)ccc21
REMARK SMILES IDX 22 1 21 2 20 3 19 4 18 5 16 6 17 7 15 9 9 10 10 11 96 12
REMARK SMILES IDX 11 13 13 14 95 15 12 16 14 17 94 18 7 19 8 20 6 21 1 22 2 23
REMARK SMILES IDX 3 24 4 25 5 28 23 29 24 30 25 31 26 32 27 34 28 35 29 36
REMARK SMILES IDX 93 37 30 38 92 39 31 40 32 41 33 42 86 43 34 44 91 45 85 46
REMARK SMILES IDX 87 47 35 48 90 49 84 50 83 51 36 53 70 54 49 55 69 56 50 57
REMARK SMILES IDX 53 58 68 59 88 60 51 61 52 62 67 64 89 65 54 66 37 67 38 68
REMARK SMILES IDX 47 69 39 70 40 71 46 72 48 73 41 74 42 75 43 76 44 77 45 78
REMARK SMILES IDX 71 79 72 80 81 81 73 82 74 83 80 84 82 85 75 86 76 87 77 88
REMARK SMILES IDX 78 89 79 90 55 91 56 92 65 93 57 94 58 95 64 96 66 97 59 98
REMARK SMILES IDX 60 99 61 100 62 101 63 102
REMARK H PARENT 18 8 3 26 3 27 25 33 87 52 53 63
REMARK Flexibility Score: inf
ROOT
ATOM      1  C   UNL A   1      31.543  28.322  25.787  1.00  0.00     0.002 C 
ENDROOT
BRANCH   1   2
ATOM      2  C   UNL A   1      31.620  28.578  24.276  1.00  0.00     0.002 C 
BRANCH   2   3
ATOM      3  C   UNL A   1      30.362  28.156  23.503  1.00  0.00     0.021 C 
BRANCH   3   4
ATOM      4  C   UNL A   1      30.539  26.809  22.799  1.00  0.00     0.116 C 
BRANCH   4   5
ATOM      5  N   UNL A   1      31.774  26.823  22.046  1.00  0.00    -0.352 N 
ATOM      6  C   UNL A   1      32.894  26.037  22.080  1.00  0.00     0.251 C 
ATOM      7  O   UNL A   1      33.839  26.384  21.368  1.00  0.00    -0.269 OA
ATOM      8  H   UNL A   1      31.819  27.542  21.375  1.00  0.00     0.163 HD
BRANCH   6   9
ATOM      9  C   UNL A   1      33.003  24.771  22.863  1.00  0.00     0.040 A 
ATOM     10  N   UNL A   1      33.605  21.376  25.397  1.00  0.00    -0.312 N 
ATOM     11  C   UNL A   1      33.542  21.590  26.838  1.00  0.00     0.126 C 
ATOM     12  C   UNL A   1      33.391  22.517  24.555  1.00  0.00     0.047 A 
ATOM     13  C   UNL A   1      34.029  22.952  27.293  1.00  0.00     0.027 C 
ATOM     14  C   UNL A   1      33.227  23.800  25.103  1.00  0.00    -0.023 A 
ATOM     15  C   UNL A   1      33.323  22.380  23.166  1.00  0.00     0.027 A 
ATOM     16  C   UNL A   1      33.238  24.034  26.587  1.00  0.00     0.039 C 
ATOM     17  C   UNL A   1      33.054  24.909  24.256  1.00  0.00     0.019 A 
ATOM     18  C   UNL A   1      33.066  23.483  22.339  1.00  0.00     0.016 A 
BRANCH  10  19
ATOM     19  C   UNL A   1      34.384  20.319  24.944  1.00  0.00     0.236 C 
ATOM     20  O   UNL A   1      35.559  20.502  24.614  1.00  0.00    -0.274 OA
BRANCH  19  21
ATOM     21  C   UNL A   1      33.776  18.917  24.872  1.00  0.00     0.142 C 
ATOM     22  C   UNL A   1      32.249  19.207  22.755  1.00  0.00     0.076 C 
ATOM     23  C   UNL A   1      32.439  18.674  24.170  1.00  0.00     0.192 C 
ATOM     24  N   UNL A   1      32.365  17.200  24.130  1.00  0.00    -0.343 N 
ATOM     25  C   UNL A   1      33.726  16.666  24.057  1.00  0.00     0.261 C 
ATOM     26  H   UNL A   1      31.835  16.905  23.311  1.00  0.00     0.346 HD
ATOM     27  H   UNL A   1      31.898  16.851  24.968  1.00  0.00     0.346 HD
ATOM     28  C   UNL A   1      34.671  17.833  24.296  1.00  0.00     0.081 C 
ENDBRANCH  19  21
ENDBRANCH  10  19
ENDBRANCH   6   9
ENDBRANCH   4   5
ENDBRANCH   3   4
ENDBRANCH   2   3
ENDBRANCH   1   2
BRANCH   1  29
ATOM     29  C   UNL A   1      32.838  27.787  26.401  1.00  0.00     0.021 C 
BRANCH  29  30
ATOM     30  C   UNL A   1      34.059  28.632  26.062  1.00  0.00     0.116 C 
BRANCH  30  31
ATOM     31  N   UNL A   1      33.835  30.031  26.399  1.00  0.00    -0.352 N 
ATOM     32  C   UNL A   1      34.441  30.778  27.378  1.00  0.00     0.251 C 
ATOM     33  H   UNL A   1      33.164  30.502  25.854  1.00  0.00     0.163 HD
ATOM     34  O   UNL A   1      33.964  31.853  27.731  1.00  0.00    -0.269 OA
BRANCH  32  35
ATOM     35  C   UNL A   1      35.672  30.259  28.001  1.00  0.00     0.039 A 
ATOM     36  C   UNL A   1      36.895  30.411  27.345  1.00  0.00     0.014 A 
ATOM     37  C   UNL A   1      35.606  29.651  29.257  1.00  0.00     0.014 A 
ATOM     38  C   UNL A   1      38.068  29.995  27.979  1.00  0.00     0.010 A 
ATOM     39  C   UNL A   1      36.778  29.312  29.917  1.00  0.00     0.010 A 
ATOM     40  C   UNL A   1      38.020  29.470  29.281  1.00  0.00    -0.014 A 
BRANCH  40  41
ATOM     41  C   UNL A   1      39.242  29.047  30.005  1.00  0.00     0.031 A 
ATOM     42  C   UNL A   1      39.674  29.810  31.226  1.00  0.00     0.074 A 
ATOM     43  C   UNL A   1      40.013  28.061  29.507  1.00  0.00     0.049 A 
ATOM     44  N   UNL A   1      40.784  29.718  31.909  1.00  0.00    -0.248 NA
ATOM     45  C   UNL A   1      38.745  30.839  31.722  1.00  0.00     0.031 C 
ATOM     46  C   UNL A   1      39.714  27.276  28.308  1.00  0.00     0.029 A 
ATOM     47  N   UNL A   1      41.223  27.572  29.931  1.00  0.00    -0.354 N 
ATOM     48  C   UNL A   1      40.702  30.697  32.893  1.00  0.00     0.074 A 
ATOM     49  C   UNL A   1      39.457  31.402  32.687  1.00  0.00     0.031 C 
ATOM     50  C   UNL A   1      40.710  26.401  28.096  1.00  0.00     0.029 A 
ATOM     51  C   UNL A   1      41.741  26.598  29.111  1.00  0.00     0.049 A 
ATOM     52  H   UNL A   1      41.677  27.888  30.746  1.00  0.00     0.167 HD
ATOM     53  C   UNL A   1      41.580  30.970  33.887  1.00  0.00     0.037 A 
ATOM     54  C   UNL A   1      42.924  25.952  29.157  1.00  0.00     0.037 A 
ATOM     55  C   UNL A   1      42.804  30.242  34.091  1.00  0.00     0.049 A 
ATOM     56  C   UNL A   1      43.890  26.272  30.265  1.00  0.00     0.074 A 
ATOM     57  C   UNL A   1      43.732  30.391  35.106  1.00  0.00     0.029 A 
ATOM     58  N   UNL A   1      43.274  29.233  33.263  1.00  0.00    -0.354 N 
ATOM     59  N   UNL A   1      43.773  27.159  31.226  1.00  0.00    -0.248 NA
ATOM     60  C   UNL A   1      45.143  25.507  30.304  1.00  0.00     0.031 C 
ATOM     61  C   UNL A   1      44.792  29.516  34.857  1.00  0.00     0.029 A 
ATOM     62  C   UNL A   1      44.493  28.769  33.728  1.00  0.00     0.049 A 
ATOM     63  H   UNL A   1      42.809  28.896  32.462  1.00  0.00     0.167 HD
ATOM     64  C   UNL A   1      44.919  27.031  32.004  1.00  0.00     0.074 A 
ATOM     65  C   UNL A   1      45.720  25.987  31.398  1.00  0.00     0.031 C 
ATOM     66  C   UNL A   1      45.268  27.712  33.124  1.00  0.00     0.037 A 
BRANCH  53  67
ATOM     67  C   UNL A   1      41.255  32.112  34.810  1.00  0.00     0.058 A 
ATOM     68  C   UNL A   1      41.716  33.418  34.571  1.00  0.00     0.135 A 
ATOM     69  C   UNL A   1      40.460  31.900  35.948  1.00  0.00     0.135 A 
ATOM     70  F   UNL A   1      42.491  33.678  33.507  1.00  0.00    -0.206 F 
ATOM     71  C   UNL A   1      41.442  34.459  35.452  1.00  0.00     0.059 A 
ATOM     72  C   UNL A   1      40.143  32.934  36.824  1.00  0.00     0.059 A 
ATOM     73  F   UNL A   1      39.990  30.674  36.226  1.00  0.00    -0.206 F 
ATOM     74  C   UNL A   1      40.657  34.206  36.577  1.00  0.00     0.060 A 
BRANCH  74  75
ATOM     75  S   UNL A   1      40.328  35.563  37.721  1.00  0.00     0.124 S 
ATOM     76  O   UNL A   1      40.067  36.664  36.798  1.00  0.00    -0.237 OA
ATOM     77  O   UNL A   1      39.172  35.072  38.464  1.00  0.00    -0.237 OA
ATOM     78  O   UNL A   1      41.565  35.670  38.489  1.00  0.00    -0.744 OA
ENDBRANCH  74  75
ENDBRANCH  53  67
BRANCH  54  79
ATOM     79  C   UNL A   1      43.242  24.932  28.123  1.00  0.00     0.058 A 
ATOM     80  C   UNL A   1      43.881  25.290  26.927  1.00  0.00     0.135 A 
ATOM     81  C   UNL A   1      42.965  23.571  28.333  1.00  0.00     0.135 A 
ATOM     82  F   UNL A   1      44.161  26.579  26.676  1.00  0.00    -0.206 F 
ATOM     83  C   UNL A   1      44.231  24.340  25.974  1.00  0.00     0.059 A 
ATOM     84  C   UNL A   1      43.329  22.599  27.407  1.00  0.00     0.059 A 
ATOM     85  F   UNL A   1      42.370  23.174  29.469  1.00  0.00    -0.206 F 
ATOM     86  C   UNL A   1      43.960  22.993  26.228  1.00  0.00     0.060 A 
BRANCH  86  87
ATOM     87  S   UNL A   1      44.494  21.762  25.020  1.00  0.00     0.124 S 
ATOM     88  O   UNL A   1      44.346  22.495  23.768  1.00  0.00    -0.237 OA
ATOM     89  O   UNL A   1      45.864  21.493  25.444  1.00  0.00    -0.237 OA
ATOM     90  O   UNL A   1      43.555  20.663  25.222  1.00  0.00    -0.744 OA
ENDBRANCH  86  87
ENDBRANCH  54  79
BRANCH  66  91
ATOM     91  C   UNL A   1      46.543  27.323  33.819  1.00  0.00     0.058 A 
ATOM     92  C   UNL A   1      46.584  26.307  34.786  1.00  0.00     0.135 A 
ATOM     93  C   UNL A   1      47.761  27.897  33.418  1.00  0.00     0.135 A 
ATOM     94  F   UNL A   1      45.448  25.732  35.211  1.00  0.00    -0.206 F 
ATOM     95  C   UNL A   1      47.789  25.870  35.327  1.00  0.00     0.059 A 
ATOM     96  C   UNL A   1      48.979  27.458  33.925  1.00  0.00     0.059 A 
ATOM     97  F   UNL A   1      47.777  28.869  32.491  1.00  0.00    -0.206 F 
ATOM     98  C   UNL A   1      48.983  26.443  34.879  1.00  0.00     0.060 A 
BRANCH  98  99
ATOM     99  S   UNL A   1      50.544  25.802  35.522  1.00  0.00     0.124 S 
ATOM    100  O   UNL A   1      51.423  26.956  35.369  1.00  0.00    -0.237 OA
ATOM    101  O   UNL A   1      50.193  25.450  36.895  1.00  0.00    -0.237 OA
ATOM    102  O   UNL A   1      50.836  24.671  34.646  1.00  0.00    -0.744 OA
ENDBRANCH  98  99
ENDBRANCH  66  91
ENDBRANCH  40  41
ENDBRANCH  32  35
ENDBRANCH  30  31
ENDBRANCH  29  30
ENDBRANCH   1  29
TORSDOF 18
ENDMDL
MODEL 3
REMARK VINA RESULT:     -11.8      3.243      9.714
REMARK SMILES C[C@H]1[NH2+]CC[C@H]1C(=O)N1CCCc2cc(C(=O)NCCCCCCNC(=O)c3ccc(-c4c5nc(c(-c6c(F)cc(S(=O)(=O)[O-])cc6F)c6ccc([nH]6)c(-c6c(F)cc(S(=O)(=O)[O-])cc6F)c6nc(c(-c7c(F)cc(S(=O)(=O)[O-])cc7F)c7ccc4[nH]7)C=C6)C=C5)cc3)ccc21
REMARK SMILES IDX 22 1 21 2 20 3 19 4 18 5 16 6 17 7 15 9 9 10 10 11 96 12
REMARK SMILES IDX 11 13 13 14 95 15 12 16 14 17 94 18 7 19 8 20 6 21 1 22 2 23
REMARK SMILES IDX 3 24 4 25 5 28 23 29 24 30 25 31 26 32 27 34 28 35 29 36
REMARK SMILES IDX 93 37 30 38 92 39 31 40 32 41 33 42 86 43 34 44 91 45 85 46
REMARK SMILES IDX 87 47 35 48 90 49 84 50 83 51 36 53 70 54 49 55 69 56 50 57
REMARK SMILES IDX 53 58 68 59 88 60 51 61 52 62 67 64 89 65 54 66 37 67 38 68
REMARK SMILES IDX 47 69 39 70 40 71 46 72 48 73 41 74 42 75 43 76 44 77 45 78
REMARK SMILES IDX 71 79 72 80 81 81 73 82 74 83 80 84 82 85 75 86 76 87 77 88
REMARK SMILES IDX 78 89 79 90 55 91 56 92 65 93 57 94 58 95 64 96 66 97 59 98
REMARK SMILES IDX 60 99 61 100 62 101 63 102
REMARK H PARENT 18 8 3 26 3 27 25 33 87 52 53 63
REMARK Flexibility Score: inf
ROOT
ATOM      1  C   UNL A   1      35.768  21.668  24.960  1.00  0.00     0.002 C 
ENDROOT
BRANCH   1   2
ATOM      2  C   UNL A   1      34.396  20.984  24.902  1.00  0.00     0.002 C 
BRANCH   2   3
ATOM      3  C   UNL A   1      33.322  21.655  25.770  1.00  0.00     0.021 C 
BRANCH   3   4
ATOM      4  C   UNL A   1      31.961  21.708  25.072  1.00  0.00     0.116 C 
BRANCH   4   5
ATOM      5  N   UNL A   1      30.927  21.926  26.061  1.00  0.00    -0.352 N 
ATOM      6  C   UNL A   1      30.448  23.052  26.673  1.00  0.00     0.251 C 
ATOM      7  O   UNL A   1      29.618  22.887  27.569  1.00  0.00    -0.269 OA
ATOM      8  H   UNL A   1      30.479  21.099  26.351  1.00  0.00     0.163 HD
BRANCH   6   9
ATOM      9  C   UNL A   1      30.817  24.442  26.275  1.00  0.00     0.040 A 
ATOM     10  N   UNL A   1      31.762  28.304  24.694  1.00  0.00    -0.312 N 
ATOM     11  C   UNL A   1      30.825  28.894  23.745  1.00  0.00     0.126 C 
ATOM     12  C   UNL A   1      31.432  27.015  25.227  1.00  0.00     0.047 A 
ATOM     13  C   UNL A   1      30.102  27.889  22.869  1.00  0.00     0.027 C 
ATOM     14  C   UNL A   1      30.302  26.313  24.776  1.00  0.00    -0.023 A 
ATOM     15  C   UNL A   1      32.217  26.429  26.224  1.00  0.00     0.027 A 
ATOM     16  C   UNL A   1      29.375  26.886  23.742  1.00  0.00     0.039 C 
ATOM     17  C   UNL A   1      30.018  25.035  25.288  1.00  0.00     0.019 A 
ATOM     18  C   UNL A   1      31.874  25.191  26.784  1.00  0.00     0.016 A 
BRANCH  10  19
ATOM     19  C   UNL A   1      33.093  28.693  24.598  1.00  0.00     0.236 C 
ATOM     20  O   UNL A   1      33.812  28.249  23.698  1.00  0.00    -0.274 OA
BRANCH  19  21
ATOM     21  C   UNL A   1      33.657  29.691  25.611  1.00  0.00     0.142 C 
ATOM     22  C   UNL A   1      31.576  29.936  27.194  1.00  0.00     0.076 C 
ATOM     23  C   UNL A   1      32.729  30.583  26.437  1.00  0.00     0.192 C 
ATOM     24  N   UNL A   1      33.656  31.183  27.418  1.00  0.00    -0.343 N 
ATOM     25  C   UNL A   1      34.740  30.233  27.675  1.00  0.00     0.261 C 
ATOM     26  H   UNL A   1      33.158  31.381  28.285  1.00  0.00     0.346 HD
ATOM     27  H   UNL A   1      34.036  32.056  27.049  1.00  0.00     0.346 HD
ATOM     28  C   UNL A   1      34.603  29.119  26.651  1.00  0.00     0.081 C 
ENDBRANCH  19  21
ENDBRANCH  10  19
ENDBRANCH   6   9
ENDBRANCH   4   5
ENDBRANCH   3   4
ENDBRANCH   2   3
ENDBRANCH   1   2
BRANCH   1  29
ATOM     29  C   UNL A   1      35.714  23.196  24.900  1.00  0.00     0.021 C 
BRANCH  29  30
ATOM     30  C   UNL A   1      37.057  23.857  25.181  1.00  0.00     0.116 C 
BRANCH  30  31
ATOM     31  N   UNL A   1      38.090  22.859  25.420  1.00  0.00    -0.352 N 
ATOM     32  C   UNL A   1      39.319  23.030  26.006  1.00  0.00     0.251 C 
ATOM     33  H   UNL A   1      37.880  21.943  25.125  1.00  0.00     0.163 HD
ATOM     34  O   UNL A   1      40.190  22.172  25.895  1.00  0.00    -0.269 OA
BRANCH  32  35
ATOM     35  C   UNL A   1      39.571  24.267  26.768  1.00  0.00     0.039 A 
ATOM     36  C   UNL A   1      39.003  24.428  28.032  1.00  0.00     0.014 A 
ATOM     37  C   UNL A   1      40.405  25.250  26.228  1.00  0.00     0.014 A 
ATOM     38  C   UNL A   1      39.315  25.563  28.783  1.00  0.00     0.010 A 
ATOM     39  C   UNL A   1      40.777  26.335  27.008  1.00  0.00     0.010 A 
ATOM     40  C   UNL A   1      40.228  26.509  28.288  1.00  0.00    -0.014 A 
BRANCH  40  41
ATOM     41  C   UNL A   1      40.615  27.711  29.065  1.00  0.00     0.031 A 
ATOM     42  C   UNL A   1      41.885  27.689  29.869  1.00  0.00     0.074 A 
ATOM     43  C   UNL A   1      39.780  28.766  29.134  1.00  0.00     0.049 A 
ATOM     44  N   UNL A   1      42.328  28.556  30.740  1.00  0.00    -0.248 NA
ATOM     45  C   UNL A   1      42.755  26.513  29.694  1.00  0.00     0.031 C 
ATOM     46  C   UNL A   1      38.504  28.884  28.427  1.00  0.00     0.029 A 
ATOM     47  N   UNL A   1      39.867  29.928  29.858  1.00  0.00    -0.354 N 
ATOM     48  C   UNL A   1      43.507  28.018  31.240  1.00  0.00     0.074 A 
ATOM     49  C   UNL A   1      43.684  26.728  30.612  1.00  0.00     0.031 C 
ATOM     50  C   UNL A   1      37.931  30.054  28.747  1.00  0.00     0.029 A 
ATOM     51  C   UNL A   1      38.770  30.746  29.722  1.00  0.00     0.049 A 
ATOM     52  H   UNL A   1      40.642  30.156  30.423  1.00  0.00     0.167 HD
ATOM     53  C   UNL A   1      44.371  28.559  32.132  1.00  0.00     0.037 A 
ATOM     54  C   UNL A   1      38.463  31.909  30.331  1.00  0.00     0.037 A 
ATOM     55  C   UNL A   1      44.190  29.856  32.729  1.00  0.00     0.049 A 
ATOM     56  C   UNL A   1      39.432  32.494  31.322  1.00  0.00     0.074 A 
ATOM     57  C   UNL A   1      45.037  30.528  33.592  1.00  0.00     0.029 A 
ATOM     58  N   UNL A   1      43.085  30.672  32.533  1.00  0.00    -0.354 N 
ATOM     59  N   UNL A   1      40.575  32.003  31.741  1.00  0.00    -0.248 NA
ATOM     60  C   UNL A   1      39.079  33.788  31.920  1.00  0.00     0.031 C 
ATOM     61  C   UNL A   1      44.416  31.724  33.965  1.00  0.00     0.029 A 
ATOM     62  C   UNL A   1      43.216  31.831  33.280  1.00  0.00     0.049 A 
ATOM     63  H   UNL A   1      42.321  30.459  31.949  1.00  0.00     0.167 HD
ATOM     64  C   UNL A   1      41.095  32.945  32.623  1.00  0.00     0.074 A 
ATOM     65  C   UNL A   1      40.139  34.031  32.682  1.00  0.00     0.031 C 
ATOM     66  C   UNL A   1      42.263  32.914  33.311  1.00  0.00     0.037 A 
BRANCH  53  67
ATOM     67  C   UNL A   1      45.571  27.743  32.524  1.00  0.00     0.058 A 
ATOM     68  C   UNL A   1      45.540  26.841  33.601  1.00  0.00     0.135 A 
ATOM     69  C   UNL A   1      46.772  27.857  31.804  1.00  0.00     0.135 A 
ATOM     70  F   UNL A   1      44.425  26.700  34.333  1.00  0.00    -0.206 F 
ATOM     71  C   UNL A   1      46.668  26.119  33.979  1.00  0.00     0.059 A 
ATOM     72  C   UNL A   1      47.902  27.117  32.142  1.00  0.00     0.059 A 
ATOM     73  F   UNL A   1      46.861  28.700  30.764  1.00  0.00    -0.206 F 
ATOM     74  C   UNL A   1      47.845  26.267  33.245  1.00  0.00     0.060 A 
BRANCH  74  75
ATOM     75  S   UNL A   1      49.305  25.340  33.762  1.00  0.00     0.124 S 
ATOM     76  O   UNL A   1      48.720  24.368  34.681  1.00  0.00    -0.237 OA
ATOM     77  O   UNL A   1      49.795  24.800  32.497  1.00  0.00    -0.237 OA
ATOM     78  O   UNL A   1      50.153  26.354  34.379  1.00  0.00    -0.744 OA
ENDBRANCH  74  75
ENDBRANCH  53  67
BRANCH  54  79
ATOM     79  C   UNL A   1      37.185  32.593  30.000  1.00  0.00     0.058 A 
ATOM     80  C   UNL A   1      36.014  32.326  30.724  1.00  0.00     0.135 A 
ATOM     81  C   UNL A   1      37.121  33.569  28.991  1.00  0.00     0.135 A 
ATOM     82  F   UNL A   1      36.023  31.398  31.694  1.00  0.00    -0.206 F 
ATOM     83  C   UNL A   1      34.825  32.997  30.461  1.00  0.00     0.059 A 
ATOM     84  C   UNL A   1      35.950  34.272  28.727  1.00  0.00     0.059 A 
ATOM     85  F   UNL A   1      38.218  33.874  28.280  1.00  0.00    -0.206 F 
ATOM     86  C   UNL A   1      34.806  33.977  29.466  1.00  0.00     0.060 A 
BRANCH  86  87
ATOM     87  S   UNL A   1      33.276  34.897  29.190  1.00  0.00     0.124 S 
ATOM     88  O   UNL A   1      32.585  34.040  28.233  1.00  0.00    -0.237 OA
ATOM     89  O   UNL A   1      32.705  34.947  30.532  1.00  0.00    -0.237 OA
ATOM     90  O   UNL A   1      33.743  36.177  28.668  1.00  0.00    -0.744 OA
ENDBRANCH  86  87
ENDBRANCH  54  79
BRANCH  66  91
ATOM     91  C   UNL A   1      42.621  34.110  34.150  1.00  0.00     0.058 A 
ATOM     92  C   UNL A   1      42.404  34.137  35.536  1.00  0.00     0.135 A 
ATOM     93  C   UNL A   1      43.304  35.191  33.570  1.00  0.00     0.135 A 
ATOM     94  F   UNL A   1      41.749  33.133  36.138  1.00  0.00    -0.206 F 
ATOM     95  C   UNL A   1      42.858  35.195  36.319  1.00  0.00     0.059 A 
ATOM     96  C   UNL A   1      43.790  36.245  34.336  1.00  0.00     0.059 A 
ATOM     97  F   UNL A   1      43.542  35.210  32.248  1.00  0.00    -0.206 F 
ATOM     98  C   UNL A   1      43.563  36.237  35.711  1.00  0.00     0.060 A 
BRANCH  98  99
ATOM     99  S   UNL A   1      44.224  37.556  36.751  1.00  0.00     0.124 S 
ATOM    100  O   UNL A   1      44.295  38.668  35.810  1.00  0.00    -0.237 OA
ATOM    101  O   UNL A   1      43.208  37.669  37.793  1.00  0.00    -0.237 OA
ATOM    102  O   UNL A   1      45.511  37.028  37.195  1.00  0.00    -0.744 OA
ENDBRANCH  98  99
ENDBRANCH  66  91
ENDBRANCH  40  41
ENDBRANCH  32  35
ENDBRANCH  30  31
ENDBRANCH  29  30
ENDBRANCH   1  29
TORSDOF 18
ENDMDL
