MODEL 1
REMARK VINA RESULT:      -8.7      0.000      0.000
REMARK SMILES CCOC(=O)c1cccc(Nc2c(-c3ccc(C(=O)NCCCCCCNC(=O)c4ccc(-c5c6nc(c(-c7c(F)cc(S(=O)(=O)[O-])cc7F)c7ccc([nH]7)c(-c7c(F)cc(S(=O)(=O)[O-])cc7F)c7nc(c(-c8c(F)cc(S(=O)(=O)[O-])cc8F)c8ccc5[nH]8)C=C7)C=C6)cc4)cc3)nc3cnccn23)c1
REMARK SMILES IDX 22 1 21 2 20 3 18 4 19 5 17 7 14 8 15 9 97 10 16 11 96 12
REMARK SMILES IDX 13 13 12 14 104 15 98 16 99 17 103 18 100 19 102 20 101 21
REMARK SMILES IDX 11 22 10 24 6 25 7 26 105 27 8 28 9 29 4 30 5 31 3 32 2 33
REMARK SMILES IDX 1 34 23 35 24 36 25 37 26 38 27 39 28 40 29 42 30 43 31 44
REMARK SMILES IDX 95 45 32 46 94 47 33 48 34 49 35 50 88 51 36 52 93 53 87 54
REMARK SMILES IDX 89 55 37 56 92 57 86 58 85 59 38 61 72 62 51 63 71 64 52 65
REMARK SMILES IDX 55 66 70 67 90 68 53 69 54 70 69 72 91 73 56 74 39 75 40 76
REMARK SMILES IDX 49 77 41 78 42 79 48 80 50 81 43 82 44 83 45 84 46 85 47 86
REMARK SMILES IDX 73 87 74 88 83 89 75 90 76 91 82 92 84 93 77 94 78 95 79 96
REMARK SMILES IDX 80 97 81 98 57 99 58 100 67 101 59 102 60 103 66 104 68 105
REMARK SMILES IDX 61 106 62 107 63 108 64 109 65 110
REMARK H PARENT 20 6 11 23 27 41 89 60 55 71
REMARK Flexibility Score: inf
ROOT
ATOM      1  C   UNL A   1      38.457  33.926  31.691  1.00  0.00     0.021 C 
ENDROOT
BRANCH   1   2
ATOM      2  C   UNL A   1      37.429  33.647  32.791  1.00  0.00     0.116 C 
BRANCH   2   3
ATOM      3  N   UNL A   1      36.818  32.346  32.587  1.00  0.00    -0.352 N 
ATOM      4  C   UNL A   1      37.175  31.090  33.003  1.00  0.00     0.251 C 
ATOM      5  O   UNL A   1      36.441  30.150  32.698  1.00  0.00    -0.269 OA
ATOM      6  H   UNL A   1      35.993  32.370  32.050  1.00  0.00     0.163 HD
BRANCH   4   7
ATOM      7  C   UNL A   1      38.376  30.821  33.841  1.00  0.00     0.039 A 
ATOM      8  C   UNL A   1      40.748  30.334  35.272  1.00  0.00     0.004 A 
ATOM      9  C   UNL A   1      40.792  30.525  33.889  1.00  0.00     0.011 A 
ATOM     10  C   UNL A   1      39.524  30.406  35.941  1.00  0.00     0.011 A 
ATOM     11  C   UNL A   1      39.612  30.761  33.179  1.00  0.00     0.014 A 
ATOM     12  C   UNL A   1      38.350  30.684  35.232  1.00  0.00     0.014 A 
BRANCH   8  13
ATOM     13  C   UNL A   1      41.958  30.123  36.030  1.00  0.00     0.114 A 
ATOM     14  C   UNL A   1      42.870  29.106  35.780  1.00  0.00     0.143 A 
ATOM     15  N   UNL A   1      43.893  29.348  36.673  1.00  0.00    -0.283 N 
ATOM     16  N   UNL A   1      42.345  30.920  37.080  1.00  0.00    -0.225 NA
ATOM     17  C   UNL A   1      43.501  30.414  37.447  1.00  0.00     0.157 A 
ATOM     18  C   UNL A   1      45.138  28.774  36.873  1.00  0.00     0.115 A 
ATOM     19  C   UNL A   1      44.380  30.860  38.493  1.00  0.00     0.158 A 
ATOM     20  C   UNL A   1      45.913  29.261  37.859  1.00  0.00     0.129 A 
ATOM     21  N   UNL A   1      45.542  30.297  38.701  1.00  0.00    -0.259 NA
BRANCH  14  22
ATOM     22  N   UNL A   1      42.888  28.132  34.829  1.00  0.00    -0.339 N 
ATOM     23  H   UNL A   1      43.105  28.403  33.908  1.00  0.00     0.168 HD
BRANCH  22  24
ATOM     24  C   UNL A   1      42.616  26.759  35.060  1.00  0.00     0.040 A 
ATOM     25  C   UNL A   1      43.179  24.433  34.609  1.00  0.00     0.062 A 
ATOM     26  C   UNL A   1      42.114  24.005  35.405  1.00  0.00     0.016 A 
ATOM     27  C   UNL A   1      43.446  25.801  34.456  1.00  0.00     0.041 A 
ATOM     28  C   UNL A   1      41.322  24.946  36.055  1.00  0.00     0.003 A 
ATOM     29  C   UNL A   1      41.570  26.310  35.880  1.00  0.00     0.026 A 
BRANCH  25  30
ATOM     30  C   UNL A   1      43.951  23.410  33.875  1.00  0.00     0.338 C 
ATOM     31  O   UNL A   1      44.445  23.608  32.778  1.00  0.00    -0.246 OA
BRANCH  30  32
ATOM     32  O   UNL A   1      43.959  22.248  34.573  1.00  0.00    -0.462 OA
BRANCH  32  33
ATOM     33  C   UNL A   1      45.254  21.812  35.016  1.00  0.00     0.230 C 
ATOM     34  C   UNL A   1      46.003  22.919  35.740  1.00  0.00     0.049 C 
ENDBRANCH  32  33
ENDBRANCH  30  32
ENDBRANCH  25  30
ENDBRANCH  22  24
ENDBRANCH  14  22
ENDBRANCH   8  13
ENDBRANCH   4   7
ENDBRANCH   2   3
ENDBRANCH   1   2
BRANCH   1  35
ATOM     35  C   UNL A   1      37.825  34.247  30.331  1.00  0.00     0.002 C 
BRANCH  35  36
ATOM     36  C   UNL A   1      37.174  33.050  29.624  1.00  0.00     0.002 C 
BRANCH  36  37
ATOM     37  C   UNL A   1      35.661  33.160  29.417  1.00  0.00     0.021 C 
BRANCH  37  38
ATOM     38  C   UNL A   1      35.185  32.838  28.003  1.00  0.00     0.116 C 
BRANCH  38  39
ATOM     39  N   UNL A   1      34.321  31.667  27.978  1.00  0.00    -0.352 N 
ATOM     40  C   UNL A   1      34.660  30.337  27.931  1.00  0.00     0.251 C 
ATOM     41  H   UNL A   1      33.355  31.856  27.998  1.00  0.00     0.163 HD
ATOM     42  O   UNL A   1      33.800  29.494  27.690  1.00  0.00    -0.269 OA
BRANCH  40  43
ATOM     43  C   UNL A   1      36.061  29.925  28.157  1.00  0.00     0.039 A 
ATOM     44  C   UNL A   1      36.970  30.000  27.098  1.00  0.00     0.014 A 
ATOM     45  C   UNL A   1      36.476  29.456  29.408  1.00  0.00     0.014 A 
ATOM     46  C   UNL A   1      38.310  29.668  27.310  1.00  0.00     0.010 A 
ATOM     47  C   UNL A   1      37.822  29.177  29.631  1.00  0.00     0.010 A 
ATOM     48  C   UNL A   1      38.753  29.287  28.587  1.00  0.00    -0.014 A 
BRANCH  48  49
ATOM     49  C   UNL A   1      40.190  29.032  28.857  1.00  0.00     0.031 A 
ATOM     50  C   UNL A   1      40.800  27.696  28.539  1.00  0.00     0.074 A 
ATOM     51  C   UNL A   1      40.926  29.987  29.462  1.00  0.00     0.049 A 
ATOM     52  N   UNL A   1      42.012  27.266  28.777  1.00  0.00    -0.248 NA
ATOM     53  C   UNL A   1      39.927  26.706  27.888  1.00  0.00     0.031 C 
ATOM     54  C   UNL A   1      40.432  31.306  29.864  1.00  0.00     0.029 A 
ATOM     55  N   UNL A   1      42.239  29.989  29.859  1.00  0.00    -0.354 N 
ATOM     56  C   UNL A   1      42.047  25.955  28.317  1.00  0.00     0.074 A 
ATOM     57  C   UNL A   1      40.721  25.646  27.825  1.00  0.00     0.031 C 
ATOM     58  C   UNL A   1      41.432  31.994  30.438  1.00  0.00     0.029 A 
ATOM     59  C   UNL A   1      42.626  31.154  30.477  1.00  0.00     0.049 A 
ATOM     60  H   UNL A   1      42.847  29.228  29.715  1.00  0.00     0.167 HD
ATOM     61  C   UNL A   1      43.093  25.094  28.293  1.00  0.00     0.037 A 
ATOM     62  C   UNL A   1      43.806  31.504  31.025  1.00  0.00     0.037 A 
ATOM     63  C   UNL A   1      44.416  25.416  28.762  1.00  0.00     0.049 A 
ATOM     64  C   UNL A   1      44.949  30.530  30.991  1.00  0.00     0.074 A 
ATOM     65  C   UNL A   1      45.560  24.639  28.711  1.00  0.00     0.029 A 
ATOM     66  N   UNL A   1      44.772  26.609  29.374  1.00  0.00    -0.354 N 
ATOM     67  N   UNL A   1      44.983  29.317  30.491  1.00  0.00    -0.248 NA
ATOM     68  C   UNL A   1      46.215  30.969  31.594  1.00  0.00     0.031 C 
ATOM     69  C   UNL A   1      46.598  25.346  29.327  1.00  0.00     0.029 A 
ATOM     70  C   UNL A   1      46.110  26.580  29.729  1.00  0.00     0.049 A 
ATOM     71  H   UNL A   1      44.161  27.366  29.533  1.00  0.00     0.167 HD
ATOM     72  C   UNL A   1      46.274  28.852  30.710  1.00  0.00     0.074 A 
ATOM     73  C   UNL A   1      46.997  29.921  31.370  1.00  0.00     0.031 C 
ATOM     74  C   UNL A   1      46.812  27.648  30.396  1.00  0.00     0.037 A 
BRANCH  61  75
ATOM     75  C   UNL A   1      42.850  23.721  27.732  1.00  0.00     0.058 A 
ATOM     76  C   UNL A   1      42.923  23.467  26.353  1.00  0.00     0.135 A 
ATOM     77  C   UNL A   1      42.576  22.639  28.584  1.00  0.00     0.135 A 
ATOM     78  F   UNL A   1      43.168  24.469  25.493  1.00  0.00    -0.206 F 
ATOM     79  C   UNL A   1      42.705  22.195  25.835  1.00  0.00     0.059 A 
ATOM     80  C   UNL A   1      42.379  21.353  28.089  1.00  0.00     0.059 A 
ATOM     81  F   UNL A   1      42.497  22.826  29.911  1.00  0.00    -0.206 F 
ATOM     82  C   UNL A   1      42.430  21.144  26.712  1.00  0.00     0.060 A 
BRANCH  82  83
ATOM     83  S   UNL A   1      42.150  19.498  26.025  1.00  0.00     0.124 S 
ATOM     84  O   UNL A   1      42.961  19.548  24.812  1.00  0.00    -0.237 OA
ATOM     85  O   UNL A   1      42.647  18.627  27.084  1.00  0.00    -0.237 OA
ATOM     86  O   UNL A   1      40.706  19.460  25.813  1.00  0.00    -0.744 OA
ENDBRANCH  82  83
ENDBRANCH  61  75
BRANCH  62  87
ATOM     87  C   UNL A   1      43.964  32.846  31.645  1.00  0.00     0.058 A 
ATOM     88  C   UNL A   1      43.888  33.010  33.035  1.00  0.00     0.135 A 
ATOM     89  C   UNL A   1      44.218  33.984  30.862  1.00  0.00     0.135 A 
ATOM     90  F   UNL A   1      43.640  31.952  33.822  1.00  0.00    -0.206 F 
ATOM     91  C   UNL A   1      44.049  34.256  33.631  1.00  0.00     0.059 A 
ATOM     92  C   UNL A   1      44.403  35.237  31.436  1.00  0.00     0.059 A 
ATOM     93  F   UNL A   1      44.316  33.874  29.528  1.00  0.00    -0.206 F 
ATOM     94  C   UNL A   1      44.309  35.364  32.822  1.00  0.00     0.060 A 
BRANCH  94  95
ATOM     95  S   UNL A   1      44.578  36.968  33.608  1.00  0.00     0.124 S 
ATOM     96  O   UNL A   1      44.324  37.882  32.500  1.00  0.00    -0.237 OA
ATOM     97  O   UNL A   1      43.580  36.961  34.672  1.00  0.00    -0.237 OA
ATOM     98  O   UNL A   1      45.964  36.891  34.059  1.00  0.00    -0.744 OA
ENDBRANCH  94  95
ENDBRANCH  62  87
BRANCH  74  99
ATOM     99  C   UNL A   1      48.252  27.422  30.761  1.00  0.00     0.058 A 
ATOM    100  C   UNL A   1      48.611  26.825  31.979  1.00  0.00     0.135 A 
ATOM    101  C   UNL A   1      49.278  27.764  29.866  1.00  0.00     0.135 A 
ATOM    102  F   UNL A   1      47.666  26.489  32.870  1.00  0.00    -0.206 F 
ATOM    103  C   UNL A   1      49.942  26.589  32.305  1.00  0.00     0.059 A 
ATOM    104  C   UNL A   1      50.614  27.517  30.163  1.00  0.00     0.059 A 
ATOM    105  F   UNL A   1      48.986  28.331  28.685  1.00  0.00    -0.206 F 
ATOM    106  C   UNL A   1      50.938  26.938  31.390  1.00  0.00     0.060 A 
BRANCH 106 107
ATOM    107  S   UNL A   1      52.659  26.594  31.810  1.00  0.00     0.124 S 
ATOM    108  O   UNL A   1      53.282  27.894  31.581  1.00  0.00    -0.237 OA
ATOM    109  O   UNL A   1      52.564  26.173  33.205  1.00  0.00    -0.237 OA
ATOM    110  O   UNL A   1      53.034  25.542  30.870  1.00  0.00    -0.744 OA
ENDBRANCH 106 107
ENDBRANCH  74  99
ENDBRANCH  48  49
ENDBRANCH  40  43
ENDBRANCH  38  39
ENDBRANCH  37  38
ENDBRANCH  36  37
ENDBRANCH  35  36
ENDBRANCH   1  35
TORSDOF 22
ENDMDL
MODEL 2
REMARK VINA RESULT:      -8.6      5.070     11.832
REMARK SMILES CCOC(=O)c1cccc(Nc2c(-c3ccc(C(=O)NCCCCCCNC(=O)c4ccc(-c5c6nc(c(-c7c(F)cc(S(=O)(=O)[O-])cc7F)c7ccc([nH]7)c(-c7c(F)cc(S(=O)(=O)[O-])cc7F)c7nc(c(-c8c(F)cc(S(=O)(=O)[O-])cc8F)c8ccc5[nH]8)C=C7)C=C6)cc4)cc3)nc3cnccn23)c1
REMARK SMILES IDX 22 1 21 2 20 3 18 4 19 5 17 7 14 8 15 9 97 10 16 11 96 12
REMARK SMILES IDX 13 13 12 14 104 15 98 16 99 17 103 18 100 19 102 20 101 21
REMARK SMILES IDX 11 22 10 24 6 25 7 26 105 27 8 28 9 29 4 30 5 31 3 32 2 33
REMARK SMILES IDX 1 34 23 35 24 36 25 37 26 38 27 39 28 40 29 42 30 43 31 44
REMARK SMILES IDX 95 45 32 46 94 47 33 48 34 49 35 50 88 51 36 52 93 53 87 54
REMARK SMILES IDX 89 55 37 56 92 57 86 58 85 59 38 61 72 62 51 63 71 64 52 65
REMARK SMILES IDX 55 66 70 67 90 68 53 69 54 70 69 72 91 73 56 74 39 75 40 76
REMARK SMILES IDX 49 77 41 78 42 79 48 80 50 81 43 82 44 83 45 84 46 85 47 86
REMARK SMILES IDX 73 87 74 88 83 89 75 90 76 91 82 92 84 93 77 94 78 95 79 96
REMARK SMILES IDX 80 97 81 98 57 99 58 100 67 101 59 102 60 103 66 104 68 105
REMARK SMILES IDX 61 106 62 107 63 108 64 109 65 110
REMARK H PARENT 20 6 11 23 27 41 89 60 55 71
REMARK Flexibility Score: inf
ROOT
ATOM      1  C   UNL A   1      39.623  28.634  27.653  1.00  0.00     0.021 C 
ENDROOT
BRANCH   1   2
ATOM      2  C   UNL A   1      40.878  28.941  28.474  1.00  0.00     0.116 C 
BRANCH   2   3
ATOM      3  N   UNL A   1      41.874  29.593  27.643  1.00  0.00    -0.352 N 
ATOM      4  C   UNL A   1      42.802  29.097  26.765  1.00  0.00     0.251 C 
ATOM      5  O   UNL A   1      43.518  29.900  26.165  1.00  0.00    -0.269 OA
ATOM      6  H   UNL A   1      41.886  30.574  27.725  1.00  0.00     0.163 HD
BRANCH   4   7
ATOM      7  C   UNL A   1      42.950  27.645  26.471  1.00  0.00     0.039 A 
ATOM      8  C   UNL A   1      43.340  24.889  26.064  1.00  0.00     0.004 A 
ATOM      9  C   UNL A   1      44.015  25.546  27.096  1.00  0.00     0.011 A 
ATOM     10  C   UNL A   1      42.458  25.604  25.250  1.00  0.00     0.011 A 
ATOM     11  C   UNL A   1      43.824  26.916  27.293  1.00  0.00     0.014 A 
ATOM     12  C   UNL A   1      42.238  26.967  25.477  1.00  0.00     0.014 A 
BRANCH   8  13
ATOM     13  C   UNL A   1      43.495  23.468  25.865  1.00  0.00     0.114 A 
ATOM     14  C   UNL A   1      42.679  22.504  26.441  1.00  0.00     0.143 A 
ATOM     15  N   UNL A   1      43.133  21.317  25.904  1.00  0.00    -0.283 N 
ATOM     16  N   UNL A   1      44.466  22.915  25.067  1.00  0.00    -0.225 NA
ATOM     17  C   UNL A   1      44.225  21.625  25.128  1.00  0.00     0.157 A 
ATOM     18  C   UNL A   1      42.693  20.006  25.982  1.00  0.00     0.115 A 
ATOM     19  C   UNL A   1      44.919  20.553  24.469  1.00  0.00     0.158 A 
ATOM     20  C   UNL A   1      43.384  19.061  25.319  1.00  0.00     0.129 A 
ATOM     21  N   UNL A   1      44.521  19.311  24.569  1.00  0.00    -0.259 NA
BRANCH  14  22
ATOM     22  N   UNL A   1      41.597  22.618  27.259  1.00  0.00    -0.339 N 
ATOM     23  H   UNL A   1      41.743  22.484  28.224  1.00  0.00     0.168 HD
BRANCH  22  24
ATOM     24  C   UNL A   1      40.276  22.913  26.834  1.00  0.00     0.040 A 
ATOM     25  C   UNL A   1      38.217  22.142  25.787  1.00  0.00     0.062 A 
ATOM     26  C   UNL A   1      37.665  23.420  25.897  1.00  0.00     0.016 A 
ATOM     27  C   UNL A   1      39.506  21.881  26.274  1.00  0.00     0.041 A 
ATOM     28  C   UNL A   1      38.399  24.435  26.504  1.00  0.00     0.003 A 
ATOM     29  C   UNL A   1      39.693  24.183  26.964  1.00  0.00     0.026 A 
BRANCH  25  30
ATOM     30  C   UNL A   1      37.440  21.110  25.071  1.00  0.00     0.338 C 
ATOM     31  O   UNL A   1      37.925  20.062  24.681  1.00  0.00    -0.246 OA
BRANCH  30  32
ATOM     32  O   UNL A   1      36.170  21.540  24.877  1.00  0.00    -0.462 OA
BRANCH  32  33
ATOM     33  C   UNL A   1      35.223  21.114  25.871  1.00  0.00     0.230 C 
ATOM     34  C   UNL A   1      33.972  20.526  25.238  1.00  0.00     0.049 C 
ENDBRANCH  32  33
ENDBRANCH  30  32
ENDBRANCH  25  30
ENDBRANCH  22  24
ENDBRANCH  14  22
ENDBRANCH   8  13
ENDBRANCH   4   7
ENDBRANCH   2   3
ENDBRANCH   1   2
BRANCH   1  35
ATOM     35  C   UNL A   1      38.392  28.319  28.513  1.00  0.00     0.002 C 
BRANCH  35  36
ATOM     36  C   UNL A   1      38.491  28.784  29.973  1.00  0.00     0.002 C 
BRANCH  36  37
ATOM     37  C   UNL A   1      38.521  27.660  31.013  1.00  0.00     0.021 C 
BRANCH  37  38
ATOM     38  C   UNL A   1      39.202  28.027  32.329  1.00  0.00     0.116 C 
BRANCH  38  39
ATOM     39  N   UNL A   1      38.403  28.961  33.108  1.00  0.00    -0.352 N 
ATOM     40  C   UNL A   1      38.702  30.243  33.503  1.00  0.00     0.251 C 
ATOM     41  H   UNL A   1      37.522  28.627  33.393  1.00  0.00     0.163 HD
ATOM     42  O   UNL A   1      38.005  30.803  34.344  1.00  0.00    -0.269 OA
BRANCH  40  43
ATOM     43  C   UNL A   1      39.871  30.938  32.923  1.00  0.00     0.039 A 
ATOM     44  C   UNL A   1      41.059  30.995  33.657  1.00  0.00     0.014 A 
ATOM     45  C   UNL A   1      39.791  31.542  31.665  1.00  0.00     0.014 A 
ATOM     46  C   UNL A   1      42.188  31.601  33.100  1.00  0.00     0.010 A 
ATOM     47  C   UNL A   1      40.932  32.097  31.089  1.00  0.00     0.010 A 
ATOM     48  C   UNL A   1      42.143  32.125  31.798  1.00  0.00    -0.014 A 
BRANCH  48  49
ATOM     49  C   UNL A   1      43.359  32.677  31.150  1.00  0.00     0.031 A 
ATOM     50  C   UNL A   1      43.650  34.150  31.205  1.00  0.00     0.074 A 
ATOM     51  C   UNL A   1      44.160  31.853  30.445  1.00  0.00     0.049 A 
ATOM     52  N   UNL A   1      44.617  34.821  30.633  1.00  0.00    -0.248 NA
ATOM     53  C   UNL A   1      42.721  34.981  31.987  1.00  0.00     0.031 C 
ATOM     54  C   UNL A   1      43.954  30.413  30.278  1.00  0.00     0.029 A 
ATOM     55  N   UNL A   1      45.299  32.111  29.724  1.00  0.00    -0.354 N 
ATOM     56  C   UNL A   1      44.408  36.152  30.974  1.00  0.00     0.074 A 
ATOM     57  C   UNL A   1      43.199  36.198  31.768  1.00  0.00     0.031 C 
ATOM     58  C   UNL A   1      44.940  29.912  29.515  1.00  0.00     0.029 A 
ATOM     59  C   UNL A   1      45.827  30.999  29.111  1.00  0.00     0.049 A 
ATOM     60  H   UNL A   1      45.701  33.007  29.652  1.00  0.00     0.167 HD
ATOM     61  C   UNL A   1      45.166  37.233  30.668  1.00  0.00     0.037 A 
ATOM     62  C   UNL A   1      46.897  30.870  28.304  1.00  0.00     0.037 A 
ATOM     63  C   UNL A   1      46.381  37.176  29.897  1.00  0.00     0.049 A 
ATOM     64  C   UNL A   1      47.719  32.085  27.973  1.00  0.00     0.074 A 
ATOM     65  C   UNL A   1      47.259  38.203  29.596  1.00  0.00     0.029 A 
ATOM     66  N   UNL A   1      46.888  36.031  29.300  1.00  0.00    -0.354 N 
ATOM     67  N   UNL A   1      47.545  33.326  28.360  1.00  0.00    -0.248 NA
ATOM     68  C   UNL A   1      48.881  31.884  27.097  1.00  0.00     0.031 C 
ATOM     69  C   UNL A   1      48.275  37.687  28.785  1.00  0.00     0.029 A 
ATOM     70  C   UNL A   1      48.052  36.331  28.611  1.00  0.00     0.049 A 
ATOM     71  H   UNL A   1      46.481  35.136  29.358  1.00  0.00     0.167 HD
ATOM     72  C   UNL A   1      48.580  34.052  27.784  1.00  0.00     0.074 A 
ATOM     73  C   UNL A   1      49.387  33.108  27.037  1.00  0.00     0.031 C 
ATOM     74  C   UNL A   1      48.838  35.381  27.864  1.00  0.00     0.037 A 
BRANCH  61  75
ATOM     75  C   UNL A   1      44.705  38.571  31.173  1.00  0.00     0.058 A 
ATOM     76  C   UNL A   1      45.098  39.056  32.430  1.00  0.00     0.135 A 
ATOM     77  C   UNL A   1      43.889  39.393  30.379  1.00  0.00     0.135 A 
ATOM     78  F   UNL A   1      45.867  38.305  33.235  1.00  0.00    -0.206 F 
ATOM     79  C   UNL A   1      44.677  40.298  32.895  1.00  0.00     0.059 A 
ATOM     80  C   UNL A   1      43.476  40.649  30.814  1.00  0.00     0.059 A 
ATOM     81  F   UNL A   1      43.485  38.977  29.169  1.00  0.00    -0.206 F 
ATOM     82  C   UNL A   1      43.863  41.086  32.081  1.00  0.00     0.060 A 
BRANCH  82  83
ATOM     83  S   UNL A   1      43.324  42.695  32.697  1.00  0.00     0.124 S 
ATOM     84  O   UNL A   1      42.170  42.961  31.843  1.00  0.00    -0.237 OA
ATOM     85  O   UNL A   1      43.024  42.411  34.096  1.00  0.00    -0.237 OA
ATOM     86  O   UNL A   1      44.484  43.552  32.469  1.00  0.00    -0.744 OA
ENDBRANCH  82  83
ENDBRANCH  61  75
BRANCH  62  87
ATOM     87  C   UNL A   1      47.258  29.534  27.761  1.00  0.00     0.058 A 
ATOM     88  C   UNL A   1      46.960  29.193  26.434  1.00  0.00     0.135 A 
ATOM     89  C   UNL A   1      47.926  28.584  28.549  1.00  0.00     0.135 A 
ATOM     90  F   UNL A   1      46.316  30.067  25.646  1.00  0.00    -0.206 F 
ATOM     91  C   UNL A   1      47.304  27.953  25.907  1.00  0.00     0.059 A 
ATOM     92  C   UNL A   1      48.299  27.346  28.039  1.00  0.00     0.059 A 
ATOM     93  F   UNL A   1      48.247  28.871  29.820  1.00  0.00    -0.206 F 
ATOM     94  C   UNL A   1      47.976  27.037  26.717  1.00  0.00     0.060 A 
BRANCH  94  95
ATOM     95  S   UNL A   1      48.473  25.452  26.008  1.00  0.00     0.124 S 
ATOM     96  O   UNL A   1      48.201  24.539  27.112  1.00  0.00    -0.237 OA
ATOM     97  O   UNL A   1      47.589  25.340  24.852  1.00  0.00    -0.237 OA
ATOM     98  O   UNL A   1      49.884  25.656  25.689  1.00  0.00    -0.744 OA
ENDBRANCH  94  95
ENDBRANCH  62  87
BRANCH  74  99
ATOM     99  C   UNL A   1      50.042  35.892  27.125  1.00  0.00     0.058 A 
ATOM    100  C   UNL A   1      49.941  36.378  25.812  1.00  0.00     0.135 A 
ATOM    101  C   UNL A   1      51.297  35.940  27.751  1.00  0.00     0.135 A 
ATOM    102  F   UNL A   1      48.764  36.345  25.169  1.00  0.00    -0.206 F 
ATOM    103  C   UNL A   1      51.049  36.879  25.137  1.00  0.00     0.059 A 
ATOM    104  C   UNL A   1      52.415  36.457  27.102  1.00  0.00     0.059 A 
ATOM    105  F   UNL A   1      51.445  35.494  29.008  1.00  0.00    -0.206 F 
ATOM    106  C   UNL A   1      52.283  36.915  25.791  1.00  0.00     0.060 A 
BRANCH 106 107
ATOM    107  S   UNL A   1      53.706  37.600  24.918  1.00  0.00     0.124 S 
ATOM    108  O   UNL A   1      54.806  37.205  25.794  1.00  0.00    -0.237 OA
ATOM    109  O   UNL A   1      53.644  36.915  23.631  1.00  0.00    -0.237 OA
ATOM    110  O   UNL A   1      53.421  39.031  24.874  1.00  0.00    -0.744 OA
ENDBRANCH 106 107
ENDBRANCH  74  99
ENDBRANCH  48  49
ENDBRANCH  40  43
ENDBRANCH  38  39
ENDBRANCH  37  38
ENDBRANCH  36  37
ENDBRANCH  35  36
ENDBRANCH   1  35
TORSDOF 22
ENDMDL
MODEL 3
REMARK VINA RESULT:      -8.6      5.026      9.141
REMARK SMILES CCOC(=O)c1cccc(Nc2c(-c3ccc(C(=O)NCCCCCCNC(=O)c4ccc(-c5c6nc(c(-c7c(F)cc(S(=O)(=O)[O-])cc7F)c7ccc([nH]7)c(-c7c(F)cc(S(=O)(=O)[O-])cc7F)c7nc(c(-c8c(F)cc(S(=O)(=O)[O-])cc8F)c8ccc5[nH]8)C=C7)C=C6)cc4)cc3)nc3cnccn23)c1
REMARK SMILES IDX 22 1 21 2 20 3 18 4 19 5 17 7 14 8 15 9 97 10 16 11 96 12
REMARK SMILES IDX 13 13 12 14 104 15 98 16 99 17 103 18 100 19 102 20 101 21
REMARK SMILES IDX 11 22 10 24 6 25 7 26 105 27 8 28 9 29 4 30 5 31 3 32 2 33
REMARK SMILES IDX 1 34 23 35 24 36 25 37 26 38 27 39 28 40 29 42 30 43 31 44
REMARK SMILES IDX 95 45 32 46 94 47 33 48 34 49 35 50 88 51 36 52 93 53 87 54
REMARK SMILES IDX 89 55 37 56 92 57 86 58 85 59 38 61 72 62 51 63 71 64 52 65
REMARK SMILES IDX 55 66 70 67 90 68 53 69 54 70 69 72 91 73 56 74 39 75 40 76
REMARK SMILES IDX 49 77 41 78 42 79 48 80 50 81 43 82 44 83 45 84 46 85 47 86
REMARK SMILES IDX 73 87 74 88 83 89 75 90 76 91 82 92 84 93 77 94 78 95 79 96
REMARK SMILES IDX 80 97 81 98 57 99 58 100 67 101 59 102 60 103 66 104 68 105
REMARK SMILES IDX 61 106 62 107 63 108 64 109 65 110
REMARK H PARENT 20 6 11 23 27 41 89 60 55 71
REMARK Flexibility Score: inf
ROOT
ATOM      1  C   UNL A   1      39.414  28.483  27.711  1.00  0.00     0.021 C 
ENDROOT
BRANCH   1   2
ATOM      2  C   UNL A   1      40.759  28.589  28.433  1.00  0.00     0.116 C 
BRANCH   2   3
ATOM      3  N   UNL A   1      41.721  29.289  27.603  1.00  0.00    -0.352 N 
ATOM      4  C   UNL A   1      42.676  28.841  26.728  1.00  0.00     0.251 C 
ATOM      5  O   UNL A   1      43.350  29.679  26.128  1.00  0.00    -0.269 OA
ATOM      6  H   UNL A   1      41.682  30.270  27.683  1.00  0.00     0.163 HD
BRANCH   4   7
ATOM      7  C   UNL A   1      42.900  27.398  26.438  1.00  0.00     0.039 A 
ATOM      8  C   UNL A   1      43.409  24.659  26.054  1.00  0.00     0.004 A 
ATOM      9  C   UNL A   1      43.893  25.307  27.193  1.00  0.00     0.011 A 
ATOM     10  C   UNL A   1      42.656  25.374  25.119  1.00  0.00     0.011 A 
ATOM     11  C   UNL A   1      43.644  26.669  27.379  1.00  0.00     0.014 A 
ATOM     12  C   UNL A   1      42.374  26.727  25.330  1.00  0.00     0.014 A 
BRANCH   8  13
ATOM     13  C   UNL A   1      43.624  23.245  25.858  1.00  0.00     0.114 A 
ATOM     14  C   UNL A   1      42.899  22.248  26.496  1.00  0.00     0.143 A 
ATOM     15  N   UNL A   1      43.378  21.079  25.942  1.00  0.00    -0.283 N 
ATOM     16  N   UNL A   1      44.570  22.732  25.004  1.00  0.00    -0.225 NA
ATOM     17  C   UNL A   1      44.400  21.432  25.093  1.00  0.00     0.157 A 
ATOM     18  C   UNL A   1      43.013  19.748  26.061  1.00  0.00     0.115 A 
ATOM     19  C   UNL A   1      45.106  20.389  24.401  1.00  0.00     0.158 A 
ATOM     20  C   UNL A   1      43.708  18.831  25.364  1.00  0.00     0.129 A 
ATOM     21  N   UNL A   1      44.780  19.130  24.538  1.00  0.00    -0.259 NA
BRANCH  14  22
ATOM     22  N   UNL A   1      41.867  22.317  27.382  1.00  0.00    -0.339 N 
ATOM     23  H   UNL A   1      42.012  21.929  28.275  1.00  0.00     0.168 HD
BRANCH  22  24
ATOM     24  C   UNL A   1      40.601  22.900  27.120  1.00  0.00     0.040 A 
ATOM     25  C   UNL A   1      38.418  22.720  26.055  1.00  0.00     0.062 A 
ATOM     26  C   UNL A   1      38.083  24.003  26.492  1.00  0.00     0.016 A 
ATOM     27  C   UNL A   1      39.660  22.159  26.387  1.00  0.00     0.041 A 
ATOM     28  C   UNL A   1      38.986  24.722  27.269  1.00  0.00     0.003 A 
ATOM     29  C   UNL A   1      40.234  24.175  27.576  1.00  0.00     0.026 A 
BRANCH  25  30
ATOM     30  C   UNL A   1      37.467  22.017  25.171  1.00  0.00     0.338 C 
ATOM     31  O   UNL A   1      37.612  20.858  24.823  1.00  0.00    -0.246 OA
BRANCH  30  32
ATOM     32  O   UNL A   1      36.486  22.866  24.781  1.00  0.00    -0.462 OA
BRANCH  32  33
ATOM     33  C   UNL A   1      35.170  22.290  24.715  1.00  0.00     0.230 C 
ATOM     34  C   UNL A   1      34.534  22.185  26.091  1.00  0.00     0.049 C 
ENDBRANCH  32  33
ENDBRANCH  30  32
ENDBRANCH  25  30
ENDBRANCH  22  24
ENDBRANCH  14  22
ENDBRANCH   8  13
ENDBRANCH   4   7
ENDBRANCH   2   3
ENDBRANCH   1   2
BRANCH   1  35
ATOM     35  C   UNL A   1      38.210  28.466  28.661  1.00  0.00     0.002 C 
BRANCH  35  36
ATOM     36  C   UNL A   1      38.515  28.917  30.096  1.00  0.00     0.002 C 
BRANCH  36  37
ATOM     37  C   UNL A   1      38.452  27.811  31.154  1.00  0.00     0.021 C 
BRANCH  37  38
ATOM     38  C   UNL A   1      39.134  28.154  32.476  1.00  0.00     0.116 C 
BRANCH  38  39
ATOM     39  N   UNL A   1      38.363  29.118  33.247  1.00  0.00    -0.352 N 
ATOM     40  C   UNL A   1      38.667  30.419  33.564  1.00  0.00     0.251 C 
ATOM     41  H   UNL A   1      37.501  28.790  33.591  1.00  0.00     0.163 HD
ATOM     42  O   UNL A   1      38.006  31.014  34.410  1.00  0.00    -0.269 OA
BRANCH  40  43
ATOM     43  C   UNL A   1      39.798  31.096  32.894  1.00  0.00     0.039 A 
ATOM     44  C   UNL A   1      41.047  31.112  33.523  1.00  0.00     0.014 A 
ATOM     45  C   UNL A   1      39.625  31.722  31.656  1.00  0.00     0.014 A 
ATOM     46  C   UNL A   1      42.138  31.699  32.878  1.00  0.00     0.010 A 
ATOM     47  C   UNL A   1      40.726  32.258  30.992  1.00  0.00     0.010 A 
ATOM     48  C   UNL A   1      41.994  32.245  31.593  1.00  0.00    -0.014 A 
BRANCH  48  49
ATOM     49  C   UNL A   1      43.162  32.778  30.848  1.00  0.00     0.031 A 
ATOM     50  C   UNL A   1      44.078  31.849  30.101  1.00  0.00     0.074 A 
ATOM     51  C   UNL A   1      43.439  34.096  30.912  1.00  0.00     0.049 A 
ATOM     52  N   UNL A   1      45.187  32.121  29.463  1.00  0.00    -0.248 NA
ATOM     53  C   UNL A   1      43.711  30.424  30.089  1.00  0.00     0.031 C 
ATOM     54  C   UNL A   1      42.652  35.089  31.646  1.00  0.00     0.029 A 
ATOM     55  N   UNL A   1      44.465  34.823  30.365  1.00  0.00    -0.354 N 
ATOM     56  C   UNL A   1      45.657  30.905  28.983  1.00  0.00     0.074 A 
ATOM     57  C   UNL A   1      44.735  29.887  29.440  1.00  0.00     0.031 C 
ATOM     58  C   UNL A   1      43.216  36.298  31.493  1.00  0.00     0.029 A 
ATOM     59  C   UNL A   1      44.422  36.161  30.682  1.00  0.00     0.049 A 
ATOM     60  H   UNL A   1      45.167  34.426  29.800  1.00  0.00     0.167 HD
ATOM     61  C   UNL A   1      46.748  30.663  28.217  1.00  0.00     0.037 A 
ATOM     62  C   UNL A   1      45.265  37.163  30.366  1.00  0.00     0.037 A 
ATOM     63  C   UNL A   1      47.649  31.683  27.746  1.00  0.00     0.049 A 
ATOM     64  C   UNL A   1      46.472  36.868  29.520  1.00  0.00     0.074 A 
ATOM     65  C   UNL A   1      48.739  31.548  26.904  1.00  0.00     0.029 A 
ATOM     66  N   UNL A   1      47.568  33.028  28.081  1.00  0.00    -0.354 N 
ATOM     67  N   UNL A   1      46.865  35.721  29.018  1.00  0.00    -0.248 NA
ATOM     68  C   UNL A   1      47.351  38.000  29.197  1.00  0.00     0.031 C 
ATOM     69  C   UNL A   1      49.340  32.803  26.761  1.00  0.00     0.029 A 
ATOM     70  C   UNL A   1      48.603  33.728  27.483  1.00  0.00     0.049 A 
ATOM     71  H   UNL A   1      46.876  33.425  28.658  1.00  0.00     0.167 HD
ATOM     72  C   UNL A   1      48.030  35.995  28.312  1.00  0.00     0.074 A 
ATOM     73  C   UNL A   1      48.268  37.420  28.435  1.00  0.00     0.031 C 
ATOM     74  C   UNL A   1      48.832  35.144  27.625  1.00  0.00     0.037 A 
BRANCH  61  75
ATOM     75  C   UNL A   1      47.026  29.236  27.834  1.00  0.00     0.058 A 
ATOM     76  C   UNL A   1      46.718  28.746  26.554  1.00  0.00     0.135 A 
ATOM     77  C   UNL A   1      47.637  28.358  28.742  1.00  0.00     0.135 A 
ATOM     78  F   UNL A   1      46.121  29.541  25.652  1.00  0.00    -0.206 F 
ATOM     79  C   UNL A   1      46.982  27.428  26.198  1.00  0.00     0.059 A 
ATOM     80  C   UNL A   1      47.932  27.042  28.399  1.00  0.00     0.059 A 
ATOM     81  F   UNL A   1      47.953  28.775  29.979  1.00  0.00    -0.206 F 
ATOM     82  C   UNL A   1      47.586  26.581  27.128  1.00  0.00     0.060 A 
BRANCH  82  83
ATOM     83  S   UNL A   1      47.921  24.873  26.651  1.00  0.00     0.124 S 
ATOM     84  O   UNL A   1      49.371  24.805  26.817  1.00  0.00    -0.237 OA
ATOM     85  O   UNL A   1      47.137  24.116  27.621  1.00  0.00    -0.237 OA
ATOM     86  O   UNL A   1      47.444  24.805  25.273  1.00  0.00    -0.744 OA
ENDBRANCH  82  83
ENDBRANCH  61  75
BRANCH  62  87
ATOM     87  C   UNL A   1      44.988  38.542  30.845  1.00  0.00     0.058 A 
ATOM     88  C   UNL A   1      44.214  39.427  30.081  1.00  0.00     0.135 A 
ATOM     89  C   UNL A   1      45.469  38.992  32.085  1.00  0.00     0.135 A 
ATOM     90  F   UNL A   1      43.738  39.041  28.887  1.00  0.00    -0.206 F 
ATOM     91  C   UNL A   1      43.932  40.715  30.523  1.00  0.00     0.059 A 
ATOM     92  C   UNL A   1      45.184  40.269  32.557  1.00  0.00     0.059 A 
ATOM     93  F   UNL A   1      46.200  38.176  32.859  1.00  0.00    -0.206 F 
ATOM     94  C   UNL A   1      44.420  41.126  31.764  1.00  0.00     0.060 A 
BRANCH  94  95
ATOM     95  S   UNL A   1      43.999  42.779  32.358  1.00  0.00     0.124 S 
ATOM     96  O   UNL A   1      44.971  43.601  31.646  1.00  0.00    -0.237 OA
ATOM     97  O   UNL A   1      42.610  42.916  31.931  1.00  0.00    -0.237 OA
ATOM     98  O   UNL A   1      44.195  42.675  33.801  1.00  0.00    -0.744 OA
ENDBRANCH  94  95
ENDBRANCH  62  87
BRANCH  74  99
ATOM     99  C   UNL A   1      50.041  35.731  26.954  1.00  0.00     0.058 A 
ATOM    100  C   UNL A   1      49.969  36.266  25.659  1.00  0.00     0.135 A 
ATOM    101  C   UNL A   1      51.270  35.800  27.629  1.00  0.00     0.135 A 
ATOM    102  F   UNL A   1      48.819  36.215  24.970  1.00  0.00    -0.206 F 
ATOM    103  C   UNL A   1      51.081  36.835  25.047  1.00  0.00     0.059 A 
ATOM    104  C   UNL A   1      52.389  36.385  27.044  1.00  0.00     0.059 A 
ATOM    105  F   UNL A   1      51.389  35.309  28.872  1.00  0.00    -0.206 F 
ATOM    106  C   UNL A   1      52.287  36.892  25.748  1.00  0.00     0.060 A 
BRANCH 106 107
ATOM    107  S   UNL A   1      53.714  37.665  24.958  1.00  0.00     0.124 S 
ATOM    108  O   UNL A   1      53.789  36.928  23.701  1.00  0.00    -0.237 OA
ATOM    109  O   UNL A   1      53.296  39.060  24.852  1.00  0.00    -0.237 OA
ATOM    110  O   UNL A   1      54.801  37.414  25.900  1.00  0.00    -0.744 OA
ENDBRANCH 106 107
ENDBRANCH  74  99
ENDBRANCH  48  49
ENDBRANCH  40  43
ENDBRANCH  38  39
ENDBRANCH  37  38
ENDBRANCH  36  37
ENDBRANCH  35  36
ENDBRANCH   1  35
TORSDOF 22
ENDMDL
