MODEL 1
REMARK VINA RESULT:      -9.9      0.000      0.000
REMARK SMILES O=C(NCCCCCCNC(=O)[C@H](O)Cc1ccc(O)cc1)c1ccc(-c2c3nc(c(-c4c(F)cc(S(=O)(=O)[O-])cc4F)c4ccc([nH]4)c(-c4c(F)cc(S(=O)(=O)[O-])cc4F)c4nc(c(-c5c(F)cc(S(=O)(=O)[O-])cc5F)c5ccc2[nH]5)C=C4)C=C3)cc1
REMARK SMILES IDX 6 1 5 2 4 3 3 4 1 5 2 6 23 8 24 9 88 10 25 11 87 12 26 13
REMARK SMILES IDX 27 14 28 15 81 16 29 17 86 18 80 19 82 20 30 21 85 22 79 23
REMARK SMILES IDX 78 24 31 26 65 27 44 28 64 29 45 30 48 31 63 32 83 33 46 34
REMARK SMILES IDX 47 35 62 37 84 38 49 39 32 40 33 41 42 42 34 43 35 44 41 45
REMARK SMILES IDX 43 46 36 47 37 48 38 49 39 50 40 51 66 52 67 53 76 54 68 55
REMARK SMILES IDX 69 56 75 57 77 58 70 59 71 60 72 61 73 62 74 63 50 64 51 65
REMARK SMILES IDX 60 66 52 67 53 68 59 69 61 70 54 71 55 72 56 73 57 74 58 75
REMARK SMILES IDX 7 76 8 77 9 78 10 79 11 80 12 82 13 83 15 84 16 85 17 86
REMARK SMILES IDX 22 87 18 88 21 89 19 90 20 91 14 93
REMARK H PARENT 3 7 82 25 48 36 10 81 20 92 14 94
REMARK Flexibility Score: inf
ROOT
ATOM      1  C   UNL A   1      42.033  22.524  28.473  1.00  0.00     0.002 C 
ENDROOT
BRANCH   1   2
ATOM      2  C   UNL A   1      41.072  21.641  27.675  1.00  0.00     0.021 C 
BRANCH   2   3
ATOM      3  C   UNL A   1      40.977  21.981  26.194  1.00  0.00     0.116 C 
BRANCH   3   4
ATOM      4  N   UNL A   1      39.605  22.175  25.755  1.00  0.00    -0.352 N 
ATOM      5  O   UNL A   1      37.551  23.111  25.762  1.00  0.00    -0.269 OA
ATOM      6  C   UNL A   1      38.734  23.187  26.083  1.00  0.00     0.251 C 
ATOM      7  H   UNL A   1      39.253  21.489  25.143  1.00  0.00     0.163 HD
BRANCH   6   8
ATOM      8  C   UNL A   1      39.229  24.357  26.842  1.00  0.00     0.039 A 
ATOM      9  C   UNL A   1      38.894  24.516  28.188  1.00  0.00     0.014 A 
ATOM     10  C   UNL A   1      40.035  25.305  26.203  1.00  0.00     0.014 A 
ATOM     11  C   UNL A   1      39.246  25.684  28.853  1.00  0.00     0.010 A 
ATOM     12  C   UNL A   1      40.465  26.438  26.902  1.00  0.00     0.010 A 
ATOM     13  C   UNL A   1      40.055  26.648  28.226  1.00  0.00    -0.014 A 
BRANCH  13  14
ATOM     14  C   UNL A   1      40.518  27.812  29.025  1.00  0.00     0.031 A 
ATOM     15  C   UNL A   1      39.637  29.007  29.266  1.00  0.00     0.074 A 
ATOM     16  C   UNL A   1      41.742  27.745  29.587  1.00  0.00     0.049 A 
ATOM     17  N   UNL A   1      39.876  30.065  29.998  1.00  0.00    -0.248 NA
ATOM     18  C   UNL A   1      38.326  29.024  28.599  1.00  0.00     0.031 C 
ATOM     19  C   UNL A   1      42.695  26.646  29.395  1.00  0.00     0.029 A 
ATOM     20  N   UNL A   1      42.384  28.591  30.452  1.00  0.00    -0.354 N 
ATOM     21  C   UNL A   1      38.754  30.878  29.878  1.00  0.00     0.074 A 
ATOM     22  C   UNL A   1      37.843  30.201  28.979  1.00  0.00     0.031 C 
ATOM     23  C   UNL A   1      43.771  26.856  30.164  1.00  0.00     0.029 A 
ATOM     24  C   UNL A   1      43.615  28.128  30.858  1.00  0.00     0.049 A 
ATOM     25  H   UNL A   1      42.003  29.446  30.755  1.00  0.00     0.167 HD
ATOM     26  C   UNL A   1      38.507  32.070  30.471  1.00  0.00     0.037 A 
ATOM     27  C   UNL A   1      44.523  28.670  31.689  1.00  0.00     0.037 A 
ATOM     28  C   UNL A   1      39.420  32.732  31.372  1.00  0.00     0.049 A 
ATOM     29  C   UNL A   1      44.216  29.987  32.338  1.00  0.00     0.074 A 
ATOM     30  C   UNL A   1      39.256  33.940  32.030  1.00  0.00     0.029 A 
ATOM     31  N   UNL A   1      40.663  32.242  31.745  1.00  0.00    -0.354 N 
ATOM     32  N   UNL A   1      43.142  30.730  32.222  1.00  0.00    -0.248 NA
ATOM     33  C   UNL A   1      45.244  30.541  33.228  1.00  0.00     0.031 C 
ATOM     34  C   UNL A   1      40.413  34.194  32.777  1.00  0.00     0.029 A 
ATOM     35  C   UNL A   1      41.281  33.127  32.616  1.00  0.00     0.049 A 
ATOM     36  H   UNL A   1      41.050  31.392  31.436  1.00  0.00     0.167 HD
ATOM     37  C   UNL A   1      43.365  31.843  33.022  1.00  0.00     0.074 A 
ATOM     38  C   UNL A   1      44.660  31.656  33.646  1.00  0.00     0.031 C 
ATOM     39  C   UNL A   1      42.576  32.928  33.215  1.00  0.00     0.037 A 
BRANCH  26  40
ATOM     40  C   UNL A   1      37.197  32.749  30.174  1.00  0.00     0.058 A 
ATOM     41  C   UNL A   1      36.079  32.578  31.005  1.00  0.00     0.135 A 
ATOM     42  C   UNL A   1      37.079  33.636  29.091  1.00  0.00     0.135 A 
ATOM     43  F   UNL A   1      36.132  31.730  32.045  1.00  0.00    -0.206 F 
ATOM     44  C   UNL A   1      34.887  33.257  30.770  1.00  0.00     0.059 A 
ATOM     45  C   UNL A   1      35.902  34.341  28.849  1.00  0.00     0.059 A 
ATOM     46  F   UNL A   1      38.117  33.835  28.265  1.00  0.00    -0.206 F 
ATOM     47  C   UNL A   1      34.810  34.139  29.689  1.00  0.00     0.060 A 
BRANCH  47  48
ATOM     48  S   UNL A   1      33.263  35.032  29.417  1.00  0.00     0.124 S 
ATOM     49  O   UNL A   1      32.630  34.208  28.392  1.00  0.00    -0.237 OA
ATOM     50  O   UNL A   1      32.641  34.990  30.736  1.00  0.00    -0.237 OA
ATOM     51  O   UNL A   1      33.707  36.352  28.977  1.00  0.00    -0.744 OA
ENDBRANCH  47  48
ENDBRANCH  26  40
BRANCH  27  52
ATOM     52  C   UNL A   1      45.812  27.972  31.932  1.00  0.00     0.058 A 
ATOM     53  C   UNL A   1      45.957  27.056  32.983  1.00  0.00     0.135 A 
ATOM     54  C   UNL A   1      46.922  28.201  31.103  1.00  0.00     0.135 A 
ATOM     55  F   UNL A   1      44.924  26.805  33.802  1.00  0.00    -0.206 F 
ATOM     56  C   UNL A   1      47.163  26.404  33.219  1.00  0.00     0.059 A 
ATOM     57  C   UNL A   1      48.129  27.541  31.301  1.00  0.00     0.059 A 
ATOM     58  F   UNL A   1      46.826  29.052  30.070  1.00  0.00    -0.206 F 
ATOM     59  C   UNL A   1      48.245  26.656  32.372  1.00  0.00     0.060 A 
BRANCH  59  60
ATOM     60  S   UNL A   1      49.798  25.782  32.655  1.00  0.00     0.124 S 
ATOM     61  O   UNL A   1      50.301  25.636  31.294  1.00  0.00    -0.237 OA
ATOM     62  O   UNL A   1      50.528  26.712  33.510  1.00  0.00    -0.237 OA
ATOM     63  O   UNL A   1      49.371  24.548  33.307  1.00  0.00    -0.744 OA
ENDBRANCH  59  60
ENDBRANCH  27  52
BRANCH  39  64
ATOM     64  C   UNL A   1      43.102  33.988  34.140  1.00  0.00     0.058 A 
ATOM     65  C   UNL A   1      42.809  33.970  35.513  1.00  0.00     0.135 A 
ATOM     66  C   UNL A   1      43.902  35.031  33.651  1.00  0.00     0.135 A 
ATOM     67  F   UNL A   1      42.040  32.995  36.026  1.00  0.00    -0.206 F 
ATOM     68  C   UNL A   1      43.260  34.973  36.364  1.00  0.00     0.059 A 
ATOM     69  C   UNL A   1      44.384  36.032  34.488  1.00  0.00     0.059 A 
ATOM     70  F   UNL A   1      44.218  35.087  32.347  1.00  0.00    -0.206 F 
ATOM     71  C   UNL A   1      44.041  36.004  35.839  1.00  0.00     0.060 A 
BRANCH  71  72
ATOM     72  S   UNL A   1      44.618  37.305  36.949  1.00  0.00     0.124 S 
ATOM     73  O   UNL A   1      46.060  37.085  36.933  1.00  0.00    -0.237 OA
ATOM     74  O   UNL A   1      44.153  38.517  36.283  1.00  0.00    -0.237 OA
ATOM     75  O   UNL A   1      43.948  36.995  38.209  1.00  0.00    -0.744 OA
ENDBRANCH  71  72
ENDBRANCH  39  64
ENDBRANCH  13  14
ENDBRANCH   6   8
ENDBRANCH   3   4
ENDBRANCH   2   3
ENDBRANCH   1   2
BRANCH   1  76
ATOM     76  C   UNL A   1      43.172  23.154  27.663  1.00  0.00     0.002 C 
BRANCH  76  77
ATOM     77  C   UNL A   1      44.484  23.377  28.427  1.00  0.00     0.021 C 
BRANCH  77  78
ATOM     78  C   UNL A   1      45.682  23.703  27.538  1.00  0.00     0.116 C 
BRANCH  78  79
ATOM     79  N   UNL A   1      45.398  24.813  26.651  1.00  0.00    -0.354 N 
ATOM     80  C   UNL A   1      45.712  24.961  25.327  1.00  0.00     0.249 C 
ATOM     81  H   UNL A   1      44.913  25.567  27.058  1.00  0.00     0.163 HD
ATOM     82  O   UNL A   1      45.389  26.010  24.767  1.00  0.00    -0.272 OA
BRANCH  80  83
ATOM     83  C   UNL A   1      46.406  23.793  24.599  1.00  0.00     0.207 C 
BRANCH  83  84
ATOM     84  C   UNL A   1      45.371  22.876  23.930  1.00  0.00     0.077 C 
BRANCH  84  85
ATOM     85  C   UNL A   1      45.342  21.452  24.461  1.00  0.00    -0.045 A 
ATOM     86  C   UNL A   1      46.498  20.659  24.550  1.00  0.00     0.007 A 
ATOM     87  C   UNL A   1      44.132  20.923  24.935  1.00  0.00     0.007 A 
ATOM     88  C   UNL A   1      46.436  19.355  25.046  1.00  0.00     0.046 A 
ATOM     89  C   UNL A   1      44.071  19.624  25.445  1.00  0.00     0.046 A 
ATOM     90  C   UNL A   1      45.220  18.847  25.487  1.00  0.00     0.115 A 
BRANCH  90  91
ATOM     91  O   UNL A   1      45.118  17.579  25.978  1.00  0.00    -0.508 OA
ATOM     92  H   UNL A   1      45.769  16.941  25.763  1.00  0.00     0.293 HD
ENDBRANCH  90  91
ENDBRANCH  84  85
ENDBRANCH  83  84
BRANCH  83  93
ATOM     93  O   UNL A   1      47.322  24.259  23.610  1.00  0.00    -0.383 OA
ATOM     94  H   UNL A   1      47.083  23.886  22.747  1.00  0.00     0.211 HD
ENDBRANCH  83  93
ENDBRANCH  80  83
ENDBRANCH  78  79
ENDBRANCH  77  78
ENDBRANCH  76  77
ENDBRANCH   1  76
TORSDOF 20
ENDMDL
MODEL 2
REMARK VINA RESULT:      -9.8      4.862     11.489
REMARK SMILES O=C(NCCCCCCNC(=O)[C@H](O)Cc1ccc(O)cc1)c1ccc(-c2c3nc(c(-c4c(F)cc(S(=O)(=O)[O-])cc4F)c4ccc([nH]4)c(-c4c(F)cc(S(=O)(=O)[O-])cc4F)c4nc(c(-c5c(F)cc(S(=O)(=O)[O-])cc5F)c5ccc2[nH]5)C=C4)C=C3)cc1
REMARK SMILES IDX 6 1 5 2 4 3 3 4 1 5 2 6 23 8 24 9 88 10 25 11 87 12 26 13
REMARK SMILES IDX 27 14 28 15 81 16 29 17 86 18 80 19 82 20 30 21 85 22 79 23
REMARK SMILES IDX 78 24 31 26 65 27 44 28 64 29 45 30 48 31 63 32 83 33 46 34
REMARK SMILES IDX 47 35 62 37 84 38 49 39 32 40 33 41 42 42 34 43 35 44 41 45
REMARK SMILES IDX 43 46 36 47 37 48 38 49 39 50 40 51 66 52 67 53 76 54 68 55
REMARK SMILES IDX 69 56 75 57 77 58 70 59 71 60 72 61 73 62 74 63 50 64 51 65
REMARK SMILES IDX 60 66 52 67 53 68 59 69 61 70 54 71 55 72 56 73 57 74 58 75
REMARK SMILES IDX 7 76 8 77 9 78 10 79 11 80 12 82 13 83 15 84 16 85 17 86
REMARK SMILES IDX 22 87 18 88 21 89 19 90 20 91 14 93
REMARK H PARENT 3 7 82 25 48 36 10 81 20 92 14 94
REMARK Flexibility Score: inf
ROOT
ATOM      1  C   UNL A   1      31.583  27.478  26.451  1.00  0.00     0.002 C 
ENDROOT
BRANCH   1   2
ATOM      2  C   UNL A   1      33.016  27.493  25.917  1.00  0.00     0.021 C 
BRANCH   2   3
ATOM      3  C   UNL A   1      34.044  28.084  26.874  1.00  0.00     0.116 C 
BRANCH   3   4
ATOM      4  N   UNL A   1      33.714  29.443  27.272  1.00  0.00    -0.352 N 
ATOM      5  O   UNL A   1      33.988  31.388  28.383  1.00  0.00    -0.269 OA
ATOM      6  C   UNL A   1      34.481  30.339  27.979  1.00  0.00     0.251 C 
ATOM      7  H   UNL A   1      32.824  29.762  27.001  1.00  0.00     0.163 HD
BRANCH   6   8
ATOM      8  C   UNL A   1      35.897  30.019  28.267  1.00  0.00     0.039 A 
ATOM      9  C   UNL A   1      36.871  30.186  27.280  1.00  0.00     0.014 A 
ATOM     10  C   UNL A   1      36.255  29.548  29.534  1.00  0.00     0.014 A 
ATOM     11  C   UNL A   1      38.170  29.753  27.514  1.00  0.00     0.010 A 
ATOM     12  C   UNL A   1      37.584  29.197  29.797  1.00  0.00     0.010 A 
ATOM     13  C   UNL A   1      38.548  29.275  28.781  1.00  0.00    -0.014 A 
BRANCH  13  14
ATOM     14  C   UNL A   1      39.979  28.956  29.020  1.00  0.00     0.031 A 
ATOM     15  C   UNL A   1      40.566  27.623  28.644  1.00  0.00     0.074 A 
ATOM     16  C   UNL A   1      40.765  29.924  29.535  1.00  0.00     0.049 A 
ATOM     17  N   UNL A   1      41.809  27.224  28.726  1.00  0.00    -0.248 NA
ATOM     18  C   UNL A   1      39.644  26.606  28.114  1.00  0.00     0.031 C 
ATOM     19  C   UNL A   1      40.295  31.246  29.965  1.00  0.00     0.029 A 
ATOM     20  N   UNL A   1      42.116  29.967  29.755  1.00  0.00    -0.354 N 
ATOM     21  C   UNL A   1      41.824  25.912  28.268  1.00  0.00     0.074 A 
ATOM     22  C   UNL A   1      40.457  25.571  27.933  1.00  0.00     0.031 C 
ATOM     23  C   UNL A   1      41.346  31.986  30.341  1.00  0.00     0.029 A 
ATOM     24  C   UNL A   1      42.555  31.179  30.235  1.00  0.00     0.049 A 
ATOM     25  H   UNL A   1      42.715  29.205  29.585  1.00  0.00     0.167 HD
ATOM     26  C   UNL A   1      42.881  25.076  28.132  1.00  0.00     0.037 A 
ATOM     27  C   UNL A   1      43.791  31.594  30.564  1.00  0.00     0.037 A 
ATOM     28  C   UNL A   1      44.241  25.428  28.461  1.00  0.00     0.049 A 
ATOM     29  C   UNL A   1      44.943  30.648  30.393  1.00  0.00     0.074 A 
ATOM     30  C   UNL A   1      45.383  24.651  28.351  1.00  0.00     0.029 A 
ATOM     31  N   UNL A   1      44.644  26.657  28.962  1.00  0.00    -0.354 N 
ATOM     32  N   UNL A   1      44.935  29.416  29.943  1.00  0.00    -0.248 NA
ATOM     33  C   UNL A   1      46.270  31.145  30.776  1.00  0.00     0.031 C 
ATOM     34  C   UNL A   1      46.471  25.401  28.813  1.00  0.00     0.029 A 
ATOM     35  C   UNL A   1      46.014  26.658  29.174  1.00  0.00     0.049 A 
ATOM     36  H   UNL A   1      44.045  27.417  29.141  1.00  0.00     0.167 HD
ATOM     37  C   UNL A   1      46.255  28.989  29.991  1.00  0.00     0.074 A 
ATOM     38  C   UNL A   1      47.039  30.107  30.478  1.00  0.00     0.031 C 
ATOM     39  C   UNL A   1      46.773  27.777  29.673  1.00  0.00     0.037 A 
BRANCH  26  40
ATOM     40  C   UNL A   1      42.623  23.691  27.600  1.00  0.00     0.058 A 
ATOM     41  C   UNL A   1      42.628  23.423  26.223  1.00  0.00     0.135 A 
ATOM     42  C   UNL A   1      42.442  22.609  28.478  1.00  0.00     0.135 A 
ATOM     43  F   UNL A   1      42.779  24.423  25.339  1.00  0.00    -0.206 F 
ATOM     44  C   UNL A   1      42.455  22.133  25.732  1.00  0.00     0.059 A 
ATOM     45  C   UNL A   1      42.288  21.306  28.010  1.00  0.00     0.059 A 
ATOM     46  F   UNL A   1      42.428  22.810  29.804  1.00  0.00    -0.206 F 
ATOM     47  C   UNL A   1      42.289  21.079  26.635  1.00  0.00     0.060 A 
BRANCH  47  48
ATOM     48  S   UNL A   1      42.095  19.406  25.980  1.00  0.00     0.124 S 
ATOM     49  O   UNL A   1      42.574  18.601  27.099  1.00  0.00    -0.237 OA
ATOM     50  O   UNL A   1      40.661  19.338  25.719  1.00  0.00    -0.237 OA
ATOM     51  O   UNL A   1      42.947  19.405  24.795  1.00  0.00    -0.744 OA
ENDBRANCH  47  48
ENDBRANCH  26  40
BRANCH  27  52
ATOM     52  C   UNL A   1      43.992  32.962  31.106  1.00  0.00     0.058 A 
ATOM     53  C   UNL A   1      43.919  33.219  32.483  1.00  0.00     0.135 A 
ATOM     54  C   UNL A   1      44.276  34.040  30.253  1.00  0.00     0.135 A 
ATOM     55  F   UNL A   1      43.649  32.220  33.338  1.00  0.00    -0.206 F 
ATOM     56  C   UNL A   1      44.100  34.500  32.995  1.00  0.00     0.059 A 
ATOM     57  C   UNL A   1      44.489  35.323  30.742  1.00  0.00     0.059 A 
ATOM     58  F   UNL A   1      44.378  33.841  28.929  1.00  0.00    -0.206 F 
ATOM     59  C   UNL A   1      44.383  35.546  32.114  1.00  0.00     0.060 A 
BRANCH  59  60
ATOM     60  S   UNL A   1      44.655  37.201  32.783  1.00  0.00     0.124 S 
ATOM     61  O   UNL A   1      43.336  37.520  33.314  1.00  0.00    -0.237 OA
ATOM     62  O   UNL A   1      45.704  36.968  33.771  1.00  0.00    -0.237 OA
ATOM     63  O   UNL A   1      45.069  37.968  31.612  1.00  0.00    -0.744 OA
ENDBRANCH  59  60
ENDBRANCH  27  52
BRANCH  39  64
ATOM     64  C   UNL A   1      48.255  27.612  29.845  1.00  0.00     0.058 A 
ATOM     65  C   UNL A   1      49.157  28.039  28.858  1.00  0.00     0.135 A 
ATOM     66  C   UNL A   1      48.778  27.018  31.003  1.00  0.00     0.135 A 
ATOM     67  F   UNL A   1      48.703  28.606  27.728  1.00  0.00    -0.206 F 
ATOM     68  C   UNL A   1      50.527  27.849  28.996  1.00  0.00     0.059 A 
ATOM     69  C   UNL A   1      50.148  26.840  31.174  1.00  0.00     0.059 A 
ATOM     70  F   UNL A   1      47.957  26.601  31.980  1.00  0.00    -0.206 F 
ATOM     71  C   UNL A   1      51.012  27.241  30.155  1.00  0.00     0.060 A 
BRANCH  71  72
ATOM     72  S   UNL A   1      52.792  26.992  30.325  1.00  0.00     0.124 S 
ATOM     73  O   UNL A   1      53.273  28.367  30.405  1.00  0.00    -0.237 OA
ATOM     74  O   UNL A   1      52.886  26.214  31.556  1.00  0.00    -0.237 OA
ATOM     75  O   UNL A   1      53.149  26.271  29.107  1.00  0.00    -0.744 OA
ENDBRANCH  71  72
ENDBRANCH  39  64
ENDBRANCH  13  14
ENDBRANCH   6   8
ENDBRANCH   3   4
ENDBRANCH   2   3
ENDBRANCH   1   2
BRANCH   1  76
ATOM     76  C   UNL A   1      30.806  26.178  26.212  1.00  0.00     0.002 C 
BRANCH  76  77
ATOM     77  C   UNL A   1      31.662  24.943  25.904  1.00  0.00     0.021 C 
BRANCH  77  78
ATOM     78  C   UNL A   1      31.469  24.379  24.498  1.00  0.00     0.116 C 
BRANCH  78  79
ATOM     79  N   UNL A   1      32.683  24.481  23.713  1.00  0.00    -0.354 N 
ATOM     80  C   UNL A   1      32.898  25.152  22.539  1.00  0.00     0.249 C 
ATOM     81  H   UNL A   1      33.461  23.999  24.074  1.00  0.00     0.163 HD
ATOM     82  O   UNL A   1      34.017  25.085  22.029  1.00  0.00    -0.272 OA
BRANCH  80  83
ATOM     83  C   UNL A   1      31.748  25.992  21.950  1.00  0.00     0.207 C 
BRANCH  83  84
ATOM     84  C   UNL A   1      31.844  27.453  22.415  1.00  0.00     0.077 C 
BRANCH  84  85
ATOM     85  C   UNL A   1      30.509  28.158  22.587  1.00  0.00    -0.045 A 
ATOM     86  C   UNL A   1      30.294  29.476  22.153  1.00  0.00     0.007 A 
ATOM     87  C   UNL A   1      29.430  27.456  23.146  1.00  0.00     0.007 A 
ATOM     88  C   UNL A   1      29.053  30.094  22.323  1.00  0.00     0.046 A 
ATOM     89  C   UNL A   1      28.185  28.067  23.303  1.00  0.00     0.046 A 
ATOM     90  C   UNL A   1      28.009  29.384  22.901  1.00  0.00     0.115 A 
BRANCH  90  91
ATOM     91  O   UNL A   1      26.782  29.951  23.086  1.00  0.00    -0.508 OA
ATOM     92  H   UNL A   1      26.067  29.429  23.389  1.00  0.00     0.293 HD
ENDBRANCH  90  91
ENDBRANCH  84  85
ENDBRANCH  83  84
BRANCH  83  93
ATOM     93  O   UNL A   1      31.750  25.958  20.524  1.00  0.00    -0.383 OA
ATOM     94  H   UNL A   1      31.418  26.803  20.180  1.00  0.00     0.211 HD
ENDBRANCH  83  93
ENDBRANCH  80  83
ENDBRANCH  78  79
ENDBRANCH  77  78
ENDBRANCH  76  77
ENDBRANCH   1  76
TORSDOF 20
ENDMDL
MODEL 3
REMARK VINA RESULT:      -9.6      3.878     10.119
REMARK SMILES O=C(NCCCCCCNC(=O)[C@H](O)Cc1ccc(O)cc1)c1ccc(-c2c3nc(c(-c4c(F)cc(S(=O)(=O)[O-])cc4F)c4ccc([nH]4)c(-c4c(F)cc(S(=O)(=O)[O-])cc4F)c4nc(c(-c5c(F)cc(S(=O)(=O)[O-])cc5F)c5ccc2[nH]5)C=C4)C=C3)cc1
REMARK SMILES IDX 6 1 5 2 4 3 3 4 1 5 2 6 23 8 24 9 88 10 25 11 87 12 26 13
REMARK SMILES IDX 27 14 28 15 81 16 29 17 86 18 80 19 82 20 30 21 85 22 79 23
REMARK SMILES IDX 78 24 31 26 65 27 44 28 64 29 45 30 48 31 63 32 83 33 46 34
REMARK SMILES IDX 47 35 62 37 84 38 49 39 32 40 33 41 42 42 34 43 35 44 41 45
REMARK SMILES IDX 43 46 36 47 37 48 38 49 39 50 40 51 66 52 67 53 76 54 68 55
REMARK SMILES IDX 69 56 75 57 77 58 70 59 71 60 72 61 73 62 74 63 50 64 51 65
REMARK SMILES IDX 60 66 52 67 53 68 59 69 61 70 54 71 55 72 56 73 57 74 58 75
REMARK SMILES IDX 7 76 8 77 9 78 10 79 11 80 12 82 13 83 15 84 16 85 17 86
REMARK SMILES IDX 22 87 18 88 21 89 19 90 20 91 14 93
REMARK H PARENT 3 7 82 25 48 36 10 81 20 92 14 94
REMARK Flexibility Score: inf
ROOT
ATOM      1  C   UNL A   1      40.685  21.491  26.079  1.00  0.00     0.002 C 
ENDROOT
BRANCH   1   2
ATOM      2  C   UNL A   1      41.025  21.940  27.502  1.00  0.00     0.021 C 
BRANCH   2   3
ATOM      3  C   UNL A   1      41.798  23.249  27.588  1.00  0.00     0.116 C 
BRANCH   3   4
ATOM      4  N   UNL A   1      41.742  24.009  26.349  1.00  0.00    -0.352 N 
ATOM      5  O   UNL A   1      41.217  25.762  25.029  1.00  0.00    -0.269 OA
ATOM      6  C   UNL A   1      41.376  25.321  26.163  1.00  0.00     0.251 C 
ATOM      7  H   UNL A   1      42.001  23.518  25.536  1.00  0.00     0.163 HD
BRANCH   6   8
ATOM      8  C   UNL A   1      41.153  26.189  27.341  1.00  0.00     0.039 A 
ATOM      9  C   UNL A   1      42.024  27.246  27.611  1.00  0.00     0.014 A 
ATOM     10  C   UNL A   1      40.064  25.945  28.184  1.00  0.00     0.014 A 
ATOM     11  C   UNL A   1      41.889  27.967  28.791  1.00  0.00     0.010 A 
ATOM     12  C   UNL A   1      39.877  26.731  29.326  1.00  0.00     0.010 A 
ATOM     13  C   UNL A   1      40.801  27.734  29.651  1.00  0.00    -0.014 A 
BRANCH  13  14
ATOM     14  C   UNL A   1      40.625  28.624  30.828  1.00  0.00     0.031 A 
ATOM     15  C   UNL A   1      41.505  28.514  32.042  1.00  0.00     0.074 A 
ATOM     16  C   UNL A   1      39.683  29.586  30.755  1.00  0.00     0.049 A 
ATOM     17  N   UNL A   1      41.517  29.264  33.114  1.00  0.00    -0.248 NA
ATOM     18  C   UNL A   1      42.492  27.424  32.062  1.00  0.00     0.031 C 
ATOM     19  C   UNL A   1      38.750  29.766  29.637  1.00  0.00     0.029 A 
ATOM     20  N   UNL A   1      39.370  30.608  31.613  1.00  0.00    -0.354 N 
ATOM     21  C   UNL A   1      42.503  28.737  33.941  1.00  0.00     0.074 A 
ATOM     22  C   UNL A   1      43.051  27.585  33.257  1.00  0.00     0.031 C 
ATOM     23  C   UNL A   1      38.013  30.865  29.850  1.00  0.00     0.029 A 
ATOM     24  C   UNL A   1      38.376  31.434  31.141  1.00  0.00     0.049 A 
ATOM     25  H   UNL A   1      39.813  30.739  32.481  1.00  0.00     0.167 HD
ATOM     26  C   UNL A   1      42.916  29.182  35.152  1.00  0.00     0.037 A 
ATOM     27  C   UNL A   1      37.810  32.524  31.690  1.00  0.00     0.037 A 
ATOM     28  C   UNL A   1      42.369  30.337  35.823  1.00  0.00     0.049 A 
ATOM     29  C   UNL A   1      38.296  32.997  33.028  1.00  0.00     0.074 A 
ATOM     30  C   UNL A   1      42.727  30.871  37.050  1.00  0.00     0.029 A 
ATOM     31  N   UNL A   1      41.352  31.136  35.323  1.00  0.00    -0.354 N 
ATOM     32  N   UNL A   1      39.241  32.492  33.784  1.00  0.00    -0.248 NA
ATOM     33  C   UNL A   1      37.639  34.184  33.588  1.00  0.00     0.031 C 
ATOM     34  C   UNL A   1      41.905  31.976  37.304  1.00  0.00     0.029 A 
ATOM     35  C   UNL A   1      41.063  32.154  36.219  1.00  0.00     0.049 A 
ATOM     36  H   UNL A   1      40.900  31.001  34.459  1.00  0.00     0.167 HD
ATOM     37  C   UNL A   1      39.290  33.299  34.914  1.00  0.00     0.074 A 
ATOM     38  C   UNL A   1      38.307  34.346  34.722  1.00  0.00     0.031 C 
ATOM     39  C   UNL A   1      40.070  33.178  36.016  1.00  0.00     0.037 A 
BRANCH  26  40
ATOM     40  C   UNL A   1      44.019  28.425  35.844  1.00  0.00     0.058 A 
ATOM     41  C   UNL A   1      45.368  28.760  35.652  1.00  0.00     0.135 A 
ATOM     42  C   UNL A   1      43.720  27.405  36.763  1.00  0.00     0.135 A 
ATOM     43  F   UNL A   1      45.710  29.715  34.773  1.00  0.00    -0.206 F 
ATOM     44  C   UNL A   1      46.385  28.105  36.341  1.00  0.00     0.059 A 
ATOM     45  C   UNL A   1      44.721  26.751  37.479  1.00  0.00     0.059 A 
ATOM     46  F   UNL A   1      42.447  27.046  36.983  1.00  0.00    -0.206 F 
ATOM     47  C   UNL A   1      46.050  27.104  37.255  1.00  0.00     0.060 A 
BRANCH  47  48
ATOM     48  S   UNL A   1      47.382  26.285  38.161  1.00  0.00     0.124 S 
ATOM     49  O   UNL A   1      46.830  26.244  39.512  1.00  0.00    -0.237 OA
ATOM     50  O   UNL A   1      47.480  24.999  37.478  1.00  0.00    -0.237 OA
ATOM     51  O   UNL A   1      48.520  27.180  37.974  1.00  0.00    -0.744 OA
ENDBRANCH  47  48
ENDBRANCH  26  40
BRANCH  27  52
ATOM     52  C   UNL A   1      36.709  33.223  30.979  1.00  0.00     0.058 A 
ATOM     53  C   UNL A   1      36.970  34.116  29.930  1.00  0.00     0.135 A 
ATOM     54  C   UNL A   1      35.368  32.996  31.328  1.00  0.00     0.135 A 
ATOM     55  F   UNL A   1      38.236  34.365  29.561  1.00  0.00    -0.206 F 
ATOM     56  C   UNL A   1      35.943  34.778  29.264  1.00  0.00     0.059 A 
ATOM     57  C   UNL A   1      34.323  33.622  30.659  1.00  0.00     0.059 A 
ATOM     58  F   UNL A   1      35.065  32.132  32.309  1.00  0.00    -0.206 F 
ATOM     59  C   UNL A   1      34.622  34.525  29.639  1.00  0.00     0.060 A 
BRANCH  59  60
ATOM     60  S   UNL A   1      33.288  35.354  28.750  1.00  0.00     0.124 S 
ATOM     61  O   UNL A   1      32.576  36.010  29.840  1.00  0.00    -0.237 OA
ATOM     62  O   UNL A   1      34.018  36.233  27.843  1.00  0.00    -0.237 OA
ATOM     63  O   UNL A   1      32.581  34.251  28.106  1.00  0.00    -0.744 OA
ENDBRANCH  59  60
ENDBRANCH  27  52
BRANCH  39  64
ATOM     64  C   UNL A   1      39.882  34.211  37.090  1.00  0.00     0.058 A 
ATOM     65  C   UNL A   1      39.030  33.982  38.182  1.00  0.00     0.135 A 
ATOM     66  C   UNL A   1      40.556  35.439  37.026  1.00  0.00     0.135 A 
ATOM     67  F   UNL A   1      38.357  32.824  38.282  1.00  0.00    -0.206 F 
ATOM     68  C   UNL A   1      38.822  34.952  39.155  1.00  0.00     0.059 A 
ATOM     69  C   UNL A   1      40.382  36.415  38.002  1.00  0.00     0.059 A 
ATOM     70  F   UNL A   1      41.390  35.702  36.007  1.00  0.00    -0.206 F 
ATOM     71  C   UNL A   1      39.498  36.169  39.052  1.00  0.00     0.060 A 
BRANCH  71  72
ATOM     72  S   UNL A   1      39.218  37.426  40.317  1.00  0.00     0.124 S 
ATOM     73  O   UNL A   1      38.644  36.631  41.397  1.00  0.00    -0.237 OA
ATOM     74  O   UNL A   1      40.563  37.941  40.553  1.00  0.00    -0.237 OA
ATOM     75  O   UNL A   1      38.302  38.360  39.668  1.00  0.00    -0.744 OA
ENDBRANCH  71  72
ENDBRANCH  39  64
ENDBRANCH  13  14
ENDBRANCH   6   8
ENDBRANCH   3   4
ENDBRANCH   2   3
ENDBRANCH   1   2
BRANCH   1  76
ATOM     76  C   UNL A   1      39.258  20.970  25.878  1.00  0.00     0.002 C 
BRANCH  76  77
ATOM     77  C   UNL A   1      38.167  22.045  25.787  1.00  0.00     0.021 C 
BRANCH  77  78
ATOM     78  C   UNL A   1      36.840  21.549  25.218  1.00  0.00     0.116 C 
BRANCH  78  79
ATOM     79  N   UNL A   1      35.789  21.581  26.214  1.00  0.00    -0.354 N 
ATOM     80  C   UNL A   1      34.436  21.454  26.045  1.00  0.00     0.249 C 
ATOM     81  H   UNL A   1      36.089  21.715  27.141  1.00  0.00     0.163 HD
ATOM     82  O   UNL A   1      33.717  21.535  27.042  1.00  0.00    -0.272 OA
BRANCH  80  83
ATOM     83  C   UNL A   1      33.894  21.166  24.631  1.00  0.00     0.207 C 
BRANCH  83  84
ATOM     84  C   UNL A   1      32.774  20.116  24.679  1.00  0.00     0.077 C 
BRANCH  84  85
ATOM     85  C   UNL A   1      33.251  18.680  24.822  1.00  0.00    -0.045 A 
ATOM     86  C   UNL A   1      34.512  18.259  24.371  1.00  0.00     0.007 A 
ATOM     87  C   UNL A   1      32.433  17.749  25.480  1.00  0.00     0.007 A 
ATOM     88  C   UNL A   1      34.921  16.932  24.521  1.00  0.00     0.046 A 
ATOM     89  C   UNL A   1      32.846  16.425  25.644  1.00  0.00     0.046 A 
ATOM     90  C   UNL A   1      34.081  16.024  25.155  1.00  0.00     0.115 A 
BRANCH  90  91
ATOM     91  O   UNL A   1      34.443  14.720  25.321  1.00  0.00    -0.508 OA
ATOM     92  H   UNL A   1      33.785  14.057  25.385  1.00  0.00     0.293 HD
ENDBRANCH  90  91
ENDBRANCH  84  85
ENDBRANCH  83  84
BRANCH  83  93
ATOM     93  O   UNL A   1      33.395  22.349  24.009  1.00  0.00    -0.383 OA
ATOM     94  H   UNL A   1      33.838  23.125  24.387  1.00  0.00     0.211 HD
ENDBRANCH  83  93
ENDBRANCH  80  83
ENDBRANCH  78  79
ENDBRANCH  77  78
ENDBRANCH  76  77
ENDBRANCH   1  76
TORSDOF 20
ENDMDL
