MODEL 1
REMARK VINA RESULT:     -12.1      0.000      0.000
REMARK SMILES CC(C)n1ccc(C[C@@H](C(=O)NCCCCCCNC(=O)c2ccc(-c3c4nc(c(-c5c(F)cc(S(=O)(=O)[O-])cc5F)c5ccc([nH]5)c(-c5c(F)cc(S(=O)(=O)[O-])cc5F)c5nc(c(-c6c(F)cc(S(=O)(=O)[O-])cc6F)c6ccc3[nH]6)C=C5)C=C4)cc2)c2cccc(Cl)c2)n1
REMARK SMILES IDX 15 1 14 2 13 3 12 4 10 5 11 6 9 8 8 9 7 10 4 11 5 12 95 13
REMARK SMILES IDX 6 14 2 15 1 16 3 17 88 18 89 19 94 20 90 21 92 22 91 23
REMARK SMILES IDX 93 24 16 25 17 26 18 27 19 28 20 29 21 31 22 32 23 33 87 34
REMARK SMILES IDX 24 35 86 36 25 37 26 38 27 39 80 40 28 41 85 42 79 43 81 44
REMARK SMILES IDX 29 45 84 46 78 47 77 48 30 50 64 51 43 52 63 53 44 54 47 55
REMARK SMILES IDX 62 56 82 57 45 58 46 59 61 61 83 62 48 63 31 64 32 65 41 66
REMARK SMILES IDX 33 67 34 68 40 69 42 70 35 71 36 72 37 73 38 74 39 75 65 76
REMARK SMILES IDX 66 77 75 78 67 79 68 80 74 81 76 82 69 83 70 84 71 85 72 86
REMARK SMILES IDX 73 87 49 88 50 89 59 90 51 91 52 92 58 93 60 94 53 95 54 96
REMARK SMILES IDX 55 97 56 98 57 99
REMARK H PARENT 12 7 19 30 81 49 47 60
REMARK Flexibility Score: inf
ROOT
ATOM      1  C   UNL A   1      33.654  26.481  25.877  1.00  0.00     0.002 C 
ENDROOT
BRANCH   1   2
ATOM      2  C   UNL A   1      33.829  25.497  24.717  1.00  0.00     0.021 C 
BRANCH   2   3
ATOM      3  C   UNL A   1      34.609  24.213  25.040  1.00  0.00     0.116 C 
BRANCH   3   4
ATOM      4  N   UNL A   1      34.937  23.519  23.807  1.00  0.00    -0.356 N 
ATOM      5  C   UNL A   1      36.083  22.807  23.560  1.00  0.00     0.227 C 
ATOM      6  O   UNL A   1      36.612  23.013  22.465  1.00  0.00    -0.274 OA
ATOM      7  H   UNL A   1      34.274  23.562  23.081  1.00  0.00     0.163 HD
BRANCH   5   8
ATOM      8  C   UNL A   1      36.611  21.769  24.578  1.00  0.00     0.114 C 
BRANCH   8   9
ATOM      9  C   UNL A   1      35.531  21.402  25.619  1.00  0.00     0.076 C 
BRANCH   9  10
ATOM     10  C   UNL A   1      34.361  20.593  25.181  1.00  0.00     0.064 A 
ATOM     11  N   UNL A   1      33.244  18.941  24.440  1.00  0.00    -0.270 N 
ATOM     12  C   UNL A   1      32.318  19.766  25.012  1.00  0.00     0.109 A 
ATOM     13  N   UNL A   1      34.503  19.445  24.502  1.00  0.00    -0.178 NA
ATOM     14  C   UNL A   1      33.011  20.842  25.507  1.00  0.00     0.045 A 
BRANCH  11  15
ATOM     15  C   UNL A   1      33.008  17.672  23.752  1.00  0.00     0.101 C 
ATOM     16  C   UNL A   1      32.496  17.897  22.331  1.00  0.00     0.033 C 
ATOM     17  C   UNL A   1      34.232  16.751  23.733  1.00  0.00     0.033 C 
ENDBRANCH  11  15
ENDBRANCH   9  10
ENDBRANCH   8   9
BRANCH   8  18
ATOM     18  C   UNL A   1      37.851  22.257  25.399  1.00  0.00    -0.034 A 
ATOM     19  C   UNL A   1      38.857  21.323  25.732  1.00  0.00     0.004 A 
ATOM     20  C   UNL A   1      37.967  23.542  25.959  1.00  0.00     0.025 A 
ATOM     21  C   UNL A   1      39.857  21.624  26.665  1.00  0.00     0.002 A 
ATOM     22  C   UNL A   1      38.974  23.843  26.884  1.00  0.00     0.041 A 
ATOM     23  C   UNL A   1      39.904  22.881  27.259  1.00  0.00     0.020 A 
ATOM     24  Cl  UNL A   1      39.040  25.409  27.603  1.00  0.00    -0.084 Cl
ENDBRANCH   8  18
ENDBRANCH   5   8
ENDBRANCH   3   4
ENDBRANCH   2   3
ENDBRANCH   1   2
BRANCH   1  25
ATOM     25  C   UNL A   1      32.458  27.433  25.762  1.00  0.00     0.002 C 
BRANCH  25  26
ATOM     26  C   UNL A   1      32.792  28.922  25.584  1.00  0.00     0.021 C 
BRANCH  26  27
ATOM     27  C   UNL A   1      33.908  29.429  26.493  1.00  0.00     0.116 C 
BRANCH  27  28
ATOM     28  N   UNL A   1      33.742  30.830  26.853  1.00  0.00    -0.352 N 
ATOM     29  C   UNL A   1      34.457  31.562  27.767  1.00  0.00     0.251 C 
ATOM     30  H   UNL A   1      33.025  31.314  26.381  1.00  0.00     0.163 HD
ATOM     31  O   UNL A   1      33.976  32.610  28.219  1.00  0.00    -0.269 OA
BRANCH  29  32
ATOM     32  C   UNL A   1      35.794  31.119  28.209  1.00  0.00     0.039 A 
ATOM     33  C   UNL A   1      36.130  29.760  28.171  1.00  0.00     0.014 A 
ATOM     34  C   UNL A   1      36.701  32.050  28.721  1.00  0.00     0.014 A 
ATOM     35  C   UNL A   1      37.392  29.354  28.600  1.00  0.00     0.010 A 
ATOM     36  C   UNL A   1      37.977  31.661  29.071  1.00  0.00     0.010 A 
ATOM     37  C   UNL A   1      38.318  30.310  29.041  1.00  0.00    -0.014 A 
BRANCH  37  38
ATOM     38  C   UNL A   1      39.718  29.931  29.263  1.00  0.00     0.031 A 
ATOM     39  C   UNL A   1      40.082  29.911  30.710  1.00  0.00     0.074 A 
ATOM     40  C   UNL A   1      40.501  29.399  28.294  1.00  0.00     0.049 A 
ATOM     41  N   UNL A   1      40.953  30.636  31.332  1.00  0.00    -0.248 NA
ATOM     42  C   UNL A   1      39.238  29.109  31.619  1.00  0.00     0.031 C 
ATOM     43  C   UNL A   1      40.106  29.096  26.914  1.00  0.00     0.029 A 
ATOM     44  N   UNL A   1      41.768  28.892  28.351  1.00  0.00    -0.354 N 
ATOM     45  C   UNL A   1      40.957  30.170  32.647  1.00  0.00     0.074 A 
ATOM     46  C   UNL A   1      39.737  29.432  32.813  1.00  0.00     0.031 C 
ATOM     47  C   UNL A   1      41.001  28.249  26.360  1.00  0.00     0.029 A 
ATOM     48  C   UNL A   1      42.104  28.056  27.282  1.00  0.00     0.049 A 
ATOM     49  H   UNL A   1      42.392  29.097  29.084  1.00  0.00     0.167 HD
ATOM     50  C   UNL A   1      42.109  30.150  33.373  1.00  0.00     0.037 A 
ATOM     51  C   UNL A   1      43.181  27.228  27.178  1.00  0.00     0.037 A 
ATOM     52  C   UNL A   1      43.086  31.037  32.790  1.00  0.00     0.049 A 
ATOM     53  C   UNL A   1      44.172  27.679  28.186  1.00  0.00     0.074 A 
ATOM     54  C   UNL A   1      43.129  32.381  32.476  1.00  0.00     0.029 A 
ATOM     55  N   UNL A   1      44.102  30.447  32.082  1.00  0.00    -0.354 N 
ATOM     56  N   UNL A   1      44.806  28.816  28.129  1.00  0.00    -0.248 NA
ATOM     57  C   UNL A   1      44.142  27.047  29.495  1.00  0.00     0.031 C 
ATOM     58  C   UNL A   1      43.876  32.457  31.262  1.00  0.00     0.029 A 
ATOM     59  C   UNL A   1      44.325  31.174  30.945  1.00  0.00     0.049 A 
ATOM     60  H   UNL A   1      44.591  29.635  32.348  1.00  0.00     0.167 HD
ATOM     61  C   UNL A   1      44.843  29.260  29.442  1.00  0.00     0.074 A 
ATOM     62  C   UNL A   1      44.525  28.082  30.246  1.00  0.00     0.031 C 
ATOM     63  C   UNL A   1      44.834  30.597  29.721  1.00  0.00     0.037 A 
BRANCH  50  64
ATOM     64  C   UNL A   1      42.518  29.007  34.293  1.00  0.00     0.058 A 
ATOM     65  C   UNL A   1      42.600  27.702  33.756  1.00  0.00     0.135 A 
ATOM     66  C   UNL A   1      42.529  29.072  35.706  1.00  0.00     0.135 A 
ATOM     67  F   UNL A   1      42.604  27.508  32.428  1.00  0.00    -0.206 F 
ATOM     68  C   UNL A   1      42.585  26.556  34.553  1.00  0.00     0.059 A 
ATOM     69  C   UNL A   1      42.567  27.945  36.520  1.00  0.00     0.059 A 
ATOM     70  F   UNL A   1      42.416  30.218  36.384  1.00  0.00    -0.206 F 
ATOM     71  C   UNL A   1      42.552  26.691  35.937  1.00  0.00     0.060 A 
BRANCH  71  72
ATOM     72  S   UNL A   1      42.458  25.222  36.973  1.00  0.00     0.124 S 
ATOM     73  O   UNL A   1      43.466  25.515  37.983  1.00  0.00    -0.237 OA
ATOM     74  O   UNL A   1      41.069  25.261  37.420  1.00  0.00    -0.237 OA
ATOM     75  O   UNL A   1      42.782  24.141  36.047  1.00  0.00    -0.744 OA
ENDBRANCH  71  72
ENDBRANCH  50  64
BRANCH  51  76
ATOM     76  C   UNL A   1      43.307  25.902  26.502  1.00  0.00     0.058 A 
ATOM     77  C   UNL A   1      44.113  25.740  25.355  1.00  0.00     0.135 A 
ATOM     78  C   UNL A   1      42.889  24.711  27.127  1.00  0.00     0.135 A 
ATOM     79  F   UNL A   1      44.572  26.814  24.696  1.00  0.00    -0.206 F 
ATOM     80  C   UNL A   1      44.532  24.482  24.900  1.00  0.00     0.059 A 
ATOM     81  C   UNL A   1      43.283  23.447  26.686  1.00  0.00     0.059 A 
ATOM     82  F   UNL A   1      42.161  24.741  28.254  1.00  0.00    -0.206 F 
ATOM     83  C   UNL A   1      44.131  23.340  25.589  1.00  0.00     0.060 A 
BRANCH  83  84
ATOM     84  S   UNL A   1      44.822  21.728  25.134  1.00  0.00     0.124 S 
ATOM     85  O   UNL A   1      46.166  21.805  25.696  1.00  0.00    -0.237 OA
ATOM     86  O   UNL A   1      43.907  20.803  25.792  1.00  0.00    -0.237 OA
ATOM     87  O   UNL A   1      44.755  21.733  23.675  1.00  0.00    -0.744 OA
ENDBRANCH  83  84
ENDBRANCH  51  76
BRANCH  63  88
ATOM     88  C   UNL A   1      45.226  31.556  28.627  1.00  0.00     0.058 A 
ATOM     89  C   UNL A   1      44.418  31.943  27.543  1.00  0.00     0.135 A 
ATOM     90  C   UNL A   1      46.471  32.190  28.756  1.00  0.00     0.135 A 
ATOM     91  F   UNL A   1      43.171  31.469  27.404  1.00  0.00    -0.206 F 
ATOM     92  C   UNL A   1      44.859  32.873  26.598  1.00  0.00     0.059 A 
ATOM     93  C   UNL A   1      46.913  33.147  27.851  1.00  0.00     0.059 A 
ATOM     94  F   UNL A   1      47.266  31.909  29.802  1.00  0.00    -0.206 F 
ATOM     95  C   UNL A   1      46.112  33.467  26.760  1.00  0.00     0.060 A 
BRANCH  95  96
ATOM     96  S   UNL A   1      46.679  34.687  25.557  1.00  0.00     0.124 S 
ATOM     97  O   UNL A   1      46.615  35.926  26.323  1.00  0.00    -0.237 OA
ATOM     98  O   UNL A   1      48.019  34.211  25.229  1.00  0.00    -0.237 OA
ATOM     99  O   UNL A   1      45.706  34.575  24.472  1.00  0.00    -0.744 OA
ENDBRANCH  95  96
ENDBRANCH  63  88
ENDBRANCH  37  38
ENDBRANCH  29  32
ENDBRANCH  27  28
ENDBRANCH  26  27
ENDBRANCH  25  26
ENDBRANCH   1  25
TORSDOF 20
ENDMDL
MODEL 2
REMARK VINA RESULT:     -12.0      3.011      9.727
REMARK SMILES CC(C)n1ccc(C[C@@H](C(=O)NCCCCCCNC(=O)c2ccc(-c3c4nc(c(-c5c(F)cc(S(=O)(=O)[O-])cc5F)c5ccc([nH]5)c(-c5c(F)cc(S(=O)(=O)[O-])cc5F)c5nc(c(-c6c(F)cc(S(=O)(=O)[O-])cc6F)c6ccc3[nH]6)C=C5)C=C4)cc2)c2cccc(Cl)c2)n1
REMARK SMILES IDX 15 1 14 2 13 3 12 4 10 5 11 6 9 8 8 9 7 10 4 11 5 12 95 13
REMARK SMILES IDX 6 14 2 15 1 16 3 17 88 18 89 19 94 20 90 21 92 22 91 23
REMARK SMILES IDX 93 24 16 25 17 26 18 27 19 28 20 29 21 31 22 32 23 33 87 34
REMARK SMILES IDX 24 35 86 36 25 37 26 38 27 39 80 40 28 41 85 42 79 43 81 44
REMARK SMILES IDX 29 45 84 46 78 47 77 48 30 50 64 51 43 52 63 53 44 54 47 55
REMARK SMILES IDX 62 56 82 57 45 58 46 59 61 61 83 62 48 63 31 64 32 65 41 66
REMARK SMILES IDX 33 67 34 68 40 69 42 70 35 71 36 72 37 73 38 74 39 75 65 76
REMARK SMILES IDX 66 77 75 78 67 79 68 80 74 81 76 82 69 83 70 84 71 85 72 86
REMARK SMILES IDX 73 87 49 88 50 89 59 90 51 91 52 92 58 93 60 94 53 95 54 96
REMARK SMILES IDX 55 97 56 98 57 99
REMARK H PARENT 12 7 19 30 81 49 47 60
REMARK Flexibility Score: inf
ROOT
ATOM      1  C   UNL A   1      34.099  23.335  22.678  1.00  0.00     0.002 C 
ENDROOT
BRANCH   1   2
ATOM      2  C   UNL A   1      33.010  24.381  22.426  1.00  0.00     0.021 C 
BRANCH   2   3
ATOM      3  C   UNL A   1      33.411  25.841  22.688  1.00  0.00     0.116 C 
BRANCH   3   4
ATOM      4  N   UNL A   1      32.229  26.685  22.658  1.00  0.00    -0.356 N 
ATOM      5  C   UNL A   1      31.268  26.765  23.632  1.00  0.00     0.227 C 
ATOM      6  O   UNL A   1      30.101  26.752  23.233  1.00  0.00    -0.274 OA
ATOM      7  H   UNL A   1      32.107  27.253  21.863  1.00  0.00     0.163 HD
BRANCH   5   8
ATOM      8  C   UNL A   1      31.655  26.932  25.122  1.00  0.00     0.114 C 
BRANCH   8   9
ATOM      9  C   UNL A   1      33.039  27.601  25.271  1.00  0.00     0.076 C 
BRANCH   9  10
ATOM     10  C   UNL A   1      33.155  28.830  26.103  1.00  0.00     0.064 A 
ATOM     11  N   UNL A   1      34.043  30.376  27.263  1.00  0.00    -0.270 N 
ATOM     12  C   UNL A   1      32.796  30.838  26.951  1.00  0.00     0.109 A 
ATOM     13  N   UNL A   1      34.273  29.129  26.781  1.00  0.00    -0.178 NA
ATOM     14  C   UNL A   1      32.198  29.862  26.195  1.00  0.00     0.045 A 
BRANCH  11  15
ATOM     15  C   UNL A   1      35.065  31.037  28.074  1.00  0.00     0.101 C 
ATOM     16  C   UNL A   1      36.452  30.462  27.796  1.00  0.00     0.033 C 
ATOM     17  C   UNL A   1      35.082  32.560  27.911  1.00  0.00     0.033 C 
ENDBRANCH  11  15
ENDBRANCH   9  10
ENDBRANCH   8   9
BRANCH   8  18
ATOM     18  C   UNL A   1      31.741  25.585  25.912  1.00  0.00    -0.034 A 
ATOM     19  C   UNL A   1      33.011  25.015  26.150  1.00  0.00     0.004 A 
ATOM     20  C   UNL A   1      30.622  24.817  26.283  1.00  0.00     0.025 A 
ATOM     21  C   UNL A   1      33.151  23.704  26.622  1.00  0.00     0.002 A 
ATOM     22  C   UNL A   1      30.764  23.511  26.765  1.00  0.00     0.041 A 
ATOM     23  C   UNL A   1      32.023  22.942  26.912  1.00  0.00     0.020 A 
ATOM     24  Cl  UNL A   1      29.364  22.577  27.140  1.00  0.00    -0.084 Cl
ENDBRANCH   8  18
ENDBRANCH   5   8
ENDBRANCH   3   4
ENDBRANCH   2   3
ENDBRANCH   1   2
BRANCH   1  25
ATOM     25  C   UNL A   1      35.236  23.774  23.608  1.00  0.00     0.002 C 
BRANCH  25  26
ATOM     26  C   UNL A   1      36.075  22.648  24.231  1.00  0.00     0.021 C 
BRANCH  26  27
ATOM     27  C   UNL A   1      37.283  23.131  25.028  1.00  0.00     0.116 C 
BRANCH  27  28
ATOM     28  N   UNL A   1      38.025  22.036  25.637  1.00  0.00    -0.352 N 
ATOM     29  C   UNL A   1      39.226  22.089  26.299  1.00  0.00     0.251 C 
ATOM     30  H   UNL A   1      37.613  21.144  25.564  1.00  0.00     0.163 HD
ATOM     31  O   UNL A   1      39.893  21.054  26.435  1.00  0.00    -0.269 OA
BRANCH  29  32
ATOM     32  C   UNL A   1      39.725  23.362  26.856  1.00  0.00     0.039 A 
ATOM     33  C   UNL A   1      39.013  24.548  26.642  1.00  0.00     0.014 A 
ATOM     34  C   UNL A   1      40.940  23.390  27.544  1.00  0.00     0.014 A 
ATOM     35  C   UNL A   1      39.500  25.744  27.164  1.00  0.00     0.010 A 
ATOM     36  C   UNL A   1      41.383  24.557  28.130  1.00  0.00     0.010 A 
ATOM     37  C   UNL A   1      40.683  25.744  27.917  1.00  0.00    -0.014 A 
BRANCH  37  38
ATOM     38  C   UNL A   1      41.074  26.939  28.672  1.00  0.00     0.031 A 
ATOM     39  C   UNL A   1      42.258  27.628  28.077  1.00  0.00     0.074 A 
ATOM     40  C   UNL A   1      40.293  27.499  29.626  1.00  0.00     0.049 A 
ATOM     41  N   UNL A   1      43.424  27.821  28.599  1.00  0.00    -0.248 NA
ATOM     42  C   UNL A   1      42.195  27.986  26.646  1.00  0.00     0.031 C 
ATOM     43  C   UNL A   1      38.961  27.049  30.045  1.00  0.00     0.029 A 
ATOM     44  N   UNL A   1      40.445  28.656  30.336  1.00  0.00    -0.354 N 
ATOM     45  C   UNL A   1      44.132  28.575  27.663  1.00  0.00     0.074 A 
ATOM     46  C   UNL A   1      43.433  28.427  26.419  1.00  0.00     0.031 C 
ATOM     47  C   UNL A   1      38.340  28.038  30.725  1.00  0.00     0.029 A 
ATOM     48  C   UNL A   1      39.267  29.137  30.916  1.00  0.00     0.049 A 
ATOM     49  H   UNL A   1      41.311  29.114  30.430  1.00  0.00     0.167 HD
ATOM     50  C   UNL A   1      45.031  29.517  28.067  1.00  0.00     0.037 A 
ATOM     51  C   UNL A   1      39.051  30.363  31.470  1.00  0.00     0.037 A 
ATOM     52  C   UNL A   1      45.429  29.278  29.433  1.00  0.00     0.049 A 
ATOM     53  C   UNL A   1      40.383  30.950  31.756  1.00  0.00     0.074 A 
ATOM     54  C   UNL A   1      45.995  28.223  30.122  1.00  0.00     0.029 A 
ATOM     55  N   UNL A   1      44.882  30.103  30.382  1.00  0.00    -0.354 N 
ATOM     56  N   UNL A   1      41.209  30.485  32.650  1.00  0.00    -0.248 NA
ATOM     57  C   UNL A   1      40.979  31.803  30.740  1.00  0.00     0.031 C 
ATOM     58  C   UNL A   1      45.375  28.241  31.406  1.00  0.00     0.029 A 
ATOM     59  C   UNL A   1      44.532  29.352  31.469  1.00  0.00     0.049 A 
ATOM     60  H   UNL A   1      44.761  31.077  30.295  1.00  0.00     0.167 HD
ATOM     61  C   UNL A   1      42.459  30.594  32.059  1.00  0.00     0.074 A 
ATOM     62  C   UNL A   1      42.266  31.514  30.941  1.00  0.00     0.031 C 
ATOM     63  C   UNL A   1      43.446  29.699  32.358  1.00  0.00     0.037 A 
BRANCH  50  64
ATOM     64  C   UNL A   1      45.179  30.887  27.421  1.00  0.00     0.058 A 
ATOM     65  C   UNL A   1      46.463  31.303  27.003  1.00  0.00     0.135 A 
ATOM     66  C   UNL A   1      44.206  31.913  27.472  1.00  0.00     0.135 A 
ATOM     67  F   UNL A   1      47.470  30.421  26.908  1.00  0.00    -0.206 F 
ATOM     68  C   UNL A   1      46.781  32.641  26.762  1.00  0.00     0.059 A 
ATOM     69  C   UNL A   1      44.490  33.245  27.185  1.00  0.00     0.059 A 
ATOM     70  F   UNL A   1      42.952  31.710  27.886  1.00  0.00    -0.206 F 
ATOM     71  C   UNL A   1      45.787  33.608  26.872  1.00  0.00     0.060 A 
BRANCH  71  72
ATOM     72  S   UNL A   1      46.201  35.343  26.637  1.00  0.00     0.124 S 
ATOM     73  O   UNL A   1      46.988  35.288  25.411  1.00  0.00    -0.237 OA
ATOM     74  O   UNL A   1      44.880  35.953  26.526  1.00  0.00    -0.237 OA
ATOM     75  O   UNL A   1      46.939  35.676  27.852  1.00  0.00    -0.744 OA
ENDBRANCH  71  72
ENDBRANCH  50  64
BRANCH  51  76
ATOM     76  C   UNL A   1      37.812  31.197  31.495  1.00  0.00     0.058 A 
ATOM     77  C   UNL A   1      36.902  31.123  32.570  1.00  0.00     0.135 A 
ATOM     78  C   UNL A   1      37.641  32.291  30.624  1.00  0.00     0.135 A 
ATOM     79  F   UNL A   1      36.990  30.124  33.461  1.00  0.00    -0.206 F 
ATOM     80  C   UNL A   1      35.932  32.107  32.806  1.00  0.00     0.059 A 
ATOM     81  C   UNL A   1      36.675  33.277  30.831  1.00  0.00     0.059 A 
ATOM     82  F   UNL A   1      38.478  32.493  29.595  1.00  0.00    -0.206 F 
ATOM     83  C   UNL A   1      35.843  33.196  31.942  1.00  0.00     0.060 A 
BRANCH  83  84
ATOM     84  S   UNL A   1      34.732  34.570  32.343  1.00  0.00     0.124 S 
ATOM     85  O   UNL A   1      35.579  35.409  33.183  1.00  0.00    -0.237 OA
ATOM     86  O   UNL A   1      34.413  35.105  31.024  1.00  0.00    -0.237 OA
ATOM     87  O   UNL A   1      33.622  33.916  33.030  1.00  0.00    -0.744 OA
ENDBRANCH  83  84
ENDBRANCH  51  76
BRANCH  63  88
ATOM     88  C   UNL A   1      43.318  28.893  33.625  1.00  0.00     0.058 A 
ATOM     89  C   UNL A   1      43.703  29.314  34.910  1.00  0.00     0.135 A 
ATOM     90  C   UNL A   1      42.668  27.653  33.525  1.00  0.00     0.135 A 
ATOM     91  F   UNL A   1      44.230  30.531  35.113  1.00  0.00    -0.206 F 
ATOM     92  C   UNL A   1      43.506  28.506  36.033  1.00  0.00     0.059 A 
ATOM     93  C   UNL A   1      42.426  26.852  34.633  1.00  0.00     0.059 A 
ATOM     94  F   UNL A   1      42.222  27.219  32.334  1.00  0.00    -0.206 F 
ATOM     95  C   UNL A   1      42.869  27.273  35.882  1.00  0.00     0.060 A 
BRANCH  95  96
ATOM     96  S   UNL A   1      42.589  26.235  37.332  1.00  0.00     0.124 S 
ATOM     97  O   UNL A   1      43.537  26.788  38.293  1.00  0.00    -0.237 OA
ATOM     98  O   UNL A   1      41.179  26.469  37.623  1.00  0.00    -0.237 OA
ATOM     99  O   UNL A   1      42.902  24.889  36.853  1.00  0.00    -0.744 OA
ENDBRANCH  95  96
ENDBRANCH  63  88
ENDBRANCH  37  38
ENDBRANCH  29  32
ENDBRANCH  27  28
ENDBRANCH  26  27
ENDBRANCH  25  26
ENDBRANCH   1  25
TORSDOF 20
ENDMDL
MODEL 3
REMARK VINA RESULT:     -11.8      2.749      9.269
REMARK SMILES CC(C)n1ccc(C[C@@H](C(=O)NCCCCCCNC(=O)c2ccc(-c3c4nc(c(-c5c(F)cc(S(=O)(=O)[O-])cc5F)c5ccc([nH]5)c(-c5c(F)cc(S(=O)(=O)[O-])cc5F)c5nc(c(-c6c(F)cc(S(=O)(=O)[O-])cc6F)c6ccc3[nH]6)C=C5)C=C4)cc2)c2cccc(Cl)c2)n1
REMARK SMILES IDX 15 1 14 2 13 3 12 4 10 5 11 6 9 8 8 9 7 10 4 11 5 12 95 13
REMARK SMILES IDX 6 14 2 15 1 16 3 17 88 18 89 19 94 20 90 21 92 22 91 23
REMARK SMILES IDX 93 24 16 25 17 26 18 27 19 28 20 29 21 31 22 32 23 33 87 34
REMARK SMILES IDX 24 35 86 36 25 37 26 38 27 39 80 40 28 41 85 42 79 43 81 44
REMARK SMILES IDX 29 45 84 46 78 47 77 48 30 50 64 51 43 52 63 53 44 54 47 55
REMARK SMILES IDX 62 56 82 57 45 58 46 59 61 61 83 62 48 63 31 64 32 65 41 66
REMARK SMILES IDX 33 67 34 68 40 69 42 70 35 71 36 72 37 73 38 74 39 75 65 76
REMARK SMILES IDX 66 77 75 78 67 79 68 80 74 81 76 82 69 83 70 84 71 85 72 86
REMARK SMILES IDX 73 87 49 88 50 89 59 90 51 91 52 92 58 93 60 94 53 95 54 96
REMARK SMILES IDX 55 97 56 98 57 99
REMARK H PARENT 12 7 19 30 81 49 47 60
REMARK Flexibility Score: inf
ROOT
ATOM      1  C   UNL A   1      38.988  21.566  25.981  1.00  0.00     0.002 C 
ENDROOT
BRANCH   1   2
ATOM      2  C   UNL A   1      38.680  23.055  26.158  1.00  0.00     0.021 C 
BRANCH   2   3
ATOM      3  C   UNL A   1      37.277  23.505  25.722  1.00  0.00     0.116 C 
BRANCH   3   4
ATOM      4  N   UNL A   1      36.286  22.973  26.642  1.00  0.00    -0.356 N 
ATOM      5  C   UNL A   1      34.943  22.848  26.400  1.00  0.00     0.227 C 
ATOM      6  O   UNL A   1      34.200  23.216  27.314  1.00  0.00    -0.274 OA
ATOM      7  H   UNL A   1      36.611  22.672  27.521  1.00  0.00     0.163 HD
BRANCH   5   8
ATOM      8  C   UNL A   1      34.425  22.218  25.084  1.00  0.00     0.114 C 
BRANCH   8   9
ATOM      9  C   UNL A   1      32.925  22.517  24.871  1.00  0.00     0.076 C 
BRANCH   9  10
ATOM     10  C   UNL A   1      32.537  23.787  24.197  1.00  0.00     0.064 A 
ATOM     11  N   UNL A   1      32.399  25.872  23.802  1.00  0.00    -0.270 N 
ATOM     12  C   UNL A   1      31.983  25.265  22.651  1.00  0.00     0.109 A 
ATOM     13  N   UNL A   1      32.712  24.984  24.778  1.00  0.00    -0.178 NA
ATOM     14  C   UNL A   1      32.067  23.914  22.874  1.00  0.00     0.045 A 
BRANCH  11  15
ATOM     15  C   UNL A   1      32.471  27.306  24.081  1.00  0.00     0.101 C 
ATOM     16  C   UNL A   1      32.137  27.606  25.540  1.00  0.00     0.033 C 
ATOM     17  C   UNL A   1      33.819  27.933  23.709  1.00  0.00     0.033 C 
ENDBRANCH  11  15
ENDBRANCH   9  10
ENDBRANCH   8   9
BRANCH   8  18
ATOM     18  C   UNL A   1      34.566  20.661  25.026  1.00  0.00    -0.034 A 
ATOM     19  C   UNL A   1      35.859  20.096  24.968  1.00  0.00     0.004 A 
ATOM     20  C   UNL A   1      33.481  19.778  24.879  1.00  0.00     0.025 A 
ATOM     21  C   UNL A   1      36.056  18.744  24.664  1.00  0.00     0.002 A 
ATOM     22  C   UNL A   1      33.680  18.424  24.586  1.00  0.00     0.041 A 
ATOM     23  C   UNL A   1      34.963  17.909  24.452  1.00  0.00     0.020 A 
ATOM     24  Cl  UNL A   1      32.323  17.389  24.342  1.00  0.00    -0.084 Cl
ENDBRANCH   8  18
ENDBRANCH   5   8
ENDBRANCH   3   4
ENDBRANCH   2   3
ENDBRANCH   1   2
BRANCH   1  25
ATOM     25  C   UNL A   1      40.375  21.116  26.455  1.00  0.00     0.002 C 
BRANCH  25  26
ATOM     26  C   UNL A   1      40.938  19.848  25.796  1.00  0.00     0.021 C 
BRANCH  26  27
ATOM     27  C   UNL A   1      42.319  19.438  26.299  1.00  0.00     0.116 C 
BRANCH  27  28
ATOM     28  N   UNL A   1      43.373  19.723  25.336  1.00  0.00    -0.352 N 
ATOM     29  C   UNL A   1      43.822  20.947  24.906  1.00  0.00     0.251 C 
ATOM     30  H   UNL A   1      43.818  18.939  24.941  1.00  0.00     0.163 HD
ATOM     31  O   UNL A   1      44.451  21.026  23.842  1.00  0.00    -0.269 OA
BRANCH  29  32
ATOM     32  C   UNL A   1      43.572  22.164  25.702  1.00  0.00     0.039 A 
ATOM     33  C   UNL A   1      44.013  22.237  27.029  1.00  0.00     0.014 A 
ATOM     34  C   UNL A   1      42.842  23.219  25.148  1.00  0.00     0.014 A 
ATOM     35  C   UNL A   1      43.762  23.388  27.773  1.00  0.00     0.010 A 
ATOM     36  C   UNL A   1      42.662  24.389  25.856  1.00  0.00     0.010 A 
ATOM     37  C   UNL A   1      43.093  24.468  27.179  1.00  0.00    -0.014 A 
BRANCH  37  38
ATOM     38  C   UNL A   1      43.038  25.765  27.863  1.00  0.00     0.031 A 
ATOM     39  C   UNL A   1      44.172  26.659  27.483  1.00  0.00     0.074 A 
ATOM     40  C   UNL A   1      41.947  26.197  28.539  1.00  0.00     0.049 A 
ATOM     41  N   UNL A   1      45.107  27.137  28.236  1.00  0.00    -0.248 NA
ATOM     42  C   UNL A   1      44.399  26.907  26.046  1.00  0.00     0.031 C 
ATOM     43  C   UNL A   1      40.670  25.491  28.687  1.00  0.00     0.029 A 
ATOM     44  N   UNL A   1      41.683  27.400  29.129  1.00  0.00    -0.354 N 
ATOM     45  C   UNL A   1      45.863  27.969  27.410  1.00  0.00     0.074 A 
ATOM     46  C   UNL A   1      45.541  27.594  26.063  1.00  0.00     0.031 C 
ATOM     47  C   UNL A   1      39.714  26.358  29.089  1.00  0.00     0.029 A 
ATOM     48  C   UNL A   1      40.327  27.645  29.363  1.00  0.00     0.049 A 
ATOM     49  H   UNL A   1      42.390  28.043  29.369  1.00  0.00     0.167 HD
ATOM     50  C   UNL A   1      46.426  29.109  27.901  1.00  0.00     0.037 A 
ATOM     51  C   UNL A   1      39.739  28.824  29.709  1.00  0.00     0.037 A 
ATOM     52  C   UNL A   1      46.508  29.048  29.340  1.00  0.00     0.049 A 
ATOM     53  C   UNL A   1      40.813  29.707  30.227  1.00  0.00     0.074 A 
ATOM     54  C   UNL A   1      47.082  28.189  30.256  1.00  0.00     0.029 A 
ATOM     55  N   UNL A   1      45.589  29.790  30.037  1.00  0.00    -0.354 N 
ATOM     56  N   UNL A   1      41.465  29.491  31.334  1.00  0.00    -0.248 NA
ATOM     57  C   UNL A   1      41.463  30.605  29.287  1.00  0.00     0.031 C 
ATOM     58  C   UNL A   1      46.170  28.148  31.352  1.00  0.00     0.029 A 
ATOM     59  C   UNL A   1      45.134  29.048  31.092  1.00  0.00     0.049 A 
ATOM     60  H   UNL A   1      45.303  30.705  29.815  1.00  0.00     0.167 HD
ATOM     61  C   UNL A   1      42.775  29.836  31.041  1.00  0.00     0.074 A 
ATOM     62  C   UNL A   1      42.690  30.620  29.811  1.00  0.00     0.031 C 
ATOM     63  C   UNL A   1      43.813  29.201  31.660  1.00  0.00     0.037 A 
BRANCH  50  64
ATOM     64  C   UNL A   1      46.455  30.436  27.155  1.00  0.00     0.058 A 
ATOM     65  C   UNL A   1      47.676  31.144  27.082  1.00  0.00     0.135 A 
ATOM     66  C   UNL A   1      45.311  31.181  26.787  1.00  0.00     0.135 A 
ATOM     67  F   UNL A   1      48.835  30.545  27.401  1.00  0.00    -0.206 F 
ATOM     68  C   UNL A   1      47.742  32.504  26.774  1.00  0.00     0.059 A 
ATOM     69  C   UNL A   1      45.361  32.523  26.426  1.00  0.00     0.059 A 
ATOM     70  F   UNL A   1      44.071  30.685  26.838  1.00  0.00    -0.206 F 
ATOM     71  C   UNL A   1      46.572  33.188  26.463  1.00  0.00     0.060 A 
BRANCH  71  72
ATOM     72  S   UNL A   1      46.635  34.957  26.137  1.00  0.00     0.124 S 
ATOM     73  O   UNL A   1      46.731  35.496  27.488  1.00  0.00    -0.237 OA
ATOM     74  O   UNL A   1      47.836  35.067  25.315  1.00  0.00    -0.237 OA
ATOM     75  O   UNL A   1      45.379  35.212  25.439  1.00  0.00    -0.744 OA
ENDBRANCH  71  72
ENDBRANCH  50  64
BRANCH  51  76
ATOM     76  C   UNL A   1      38.393  29.364  29.351  1.00  0.00     0.058 A 
ATOM     77  C   UNL A   1      37.491  29.797  30.345  1.00  0.00     0.135 A 
ATOM     78  C   UNL A   1      38.078  29.746  28.032  1.00  0.00     0.135 A 
ATOM     79  F   UNL A   1      37.711  29.494  31.634  1.00  0.00    -0.206 F 
ATOM     80  C   UNL A   1      36.388  30.612  30.058  1.00  0.00     0.059 A 
ATOM     81  C   UNL A   1      36.978  30.547  27.720  1.00  0.00     0.059 A 
ATOM     82  F   UNL A   1      38.889  29.435  27.010  1.00  0.00    -0.206 F 
ATOM     83  C   UNL A   1      36.153  31.003  28.742  1.00  0.00     0.060 A 
BRANCH  83  84
ATOM     84  S   UNL A   1      34.853  32.212  28.384  1.00  0.00     0.124 S 
ATOM     85  O   UNL A   1      34.444  32.623  29.721  1.00  0.00    -0.237 OA
ATOM     86  O   UNL A   1      35.569  33.212  27.600  1.00  0.00    -0.237 OA
ATOM     87  O   UNL A   1      33.865  31.434  27.640  1.00  0.00    -0.744 OA
ENDBRANCH  83  84
ENDBRANCH  51  76
BRANCH  63  88
ATOM     88  C   UNL A   1      43.535  28.467  32.946  1.00  0.00     0.058 A 
ATOM     89  C   UNL A   1      43.313  27.085  33.072  1.00  0.00     0.135 A 
ATOM     90  C   UNL A   1      43.599  29.216  34.131  1.00  0.00     0.135 A 
ATOM     91  F   UNL A   1      43.345  26.276  32.002  1.00  0.00    -0.206 F 
ATOM     92  C   UNL A   1      43.101  26.489  34.319  1.00  0.00     0.059 A 
ATOM     93  C   UNL A   1      43.433  28.639  35.383  1.00  0.00     0.059 A 
ATOM     94  F   UNL A   1      43.867  30.532  34.083  1.00  0.00    -0.206 F 
ATOM     95  C   UNL A   1      43.160  27.278  35.469  1.00  0.00     0.060 A 
BRANCH  95  96
ATOM     96  S   UNL A   1      42.913  26.512  37.085  1.00  0.00     0.124 S 
ATOM     97  O   UNL A   1      41.484  26.712  37.304  1.00  0.00    -0.237 OA
ATOM     98  O   UNL A   1      43.333  25.134  36.850  1.00  0.00    -0.237 OA
ATOM     99  O   UNL A   1      43.791  27.280  37.965  1.00  0.00    -0.744 OA
ENDBRANCH  95  96
ENDBRANCH  63  88
ENDBRANCH  37  38
ENDBRANCH  29  32
ENDBRANCH  27  28
ENDBRANCH  26  27
ENDBRANCH  25  26
ENDBRANCH   1  25
TORSDOF 20
ENDMDL
