MODEL 1
REMARK VINA RESULT:     -12.9      0.000      0.000
REMARK SMILES CCOc1ccc(C(=O)NC(=S)Nc2cccc(C(=O)NCCCCCCNC(=O)c3ccc(-c4c5nc(c(-c6c(F)cc(S(=O)(=O)[O-])cc6F)c6ccc([nH]6)c(-c6c(F)cc(S(=O)(=O)[O-])cc6F)c6nc(c(-c7c(F)cc(S(=O)(=O)[O-])cc7F)c7ccc4[nH]7)C=C6)C=C5)cc3)c2C)cc1Br
REMARK SMILES IDX 23 1 22 2 21 3 19 4 20 5 18 7 14 8 15 9 97 10 16 11 98 12
REMARK SMILES IDX 17 13 13 14 11 16 12 17 10 18 8 19 9 20 7 22 4 23 5 24
REMARK SMILES IDX 100 25 6 26 99 27 101 28 3 29 2 30 1 31 24 32 25 33 26 34
REMARK SMILES IDX 27 35 28 36 29 37 30 39 31 40 32 41 96 42 33 43 95 44 34 45
REMARK SMILES IDX 35 46 36 47 89 48 37 49 94 50 88 51 90 52 38 53 93 54 87 55
REMARK SMILES IDX 86 56 39 58 73 59 52 60 72 61 53 62 56 63 71 64 91 65 54 66
REMARK SMILES IDX 55 67 70 69 92 70 57 71 40 72 41 73 50 74 42 75 43 76 49 77
REMARK SMILES IDX 51 78 44 79 45 80 46 81 47 82 48 83 74 84 75 85 84 86 76 87
REMARK SMILES IDX 77 88 83 89 85 90 78 91 79 92 80 93 81 94 82 95 58 96 59 97
REMARK SMILES IDX 68 98 60 99 61 100 67 101 69 102 62 103 63 104 64 105 65 106
REMARK SMILES IDX 66 107
REMARK H PARENT 21 6 13 15 10 21 28 38 90 57 56 68
REMARK Flexibility Score: inf
ROOT
ATOM      1  C   UNL A   1      30.988  28.445  24.362  1.00  0.00     0.021 C 
ENDROOT
BRANCH   1   2
ATOM      2  C   UNL A   1      31.288  26.997  23.919  1.00  0.00     0.116 C 
BRANCH   2   3
ATOM      3  N   UNL A   1      32.457  26.513  23.084  1.00  0.00    -0.352 N 
ATOM      4  C   UNL A   1      33.124  25.289  22.687  1.00  0.00     0.251 C 
ATOM      5  O   UNL A   1      33.838  25.449  21.683  1.00  0.00    -0.269 OA
ATOM      6  H   UNL A   1      32.914  27.285  22.677  1.00  0.00     0.163 HD
BRANCH   4   7
ATOM      7  C   UNL A   1      33.239  23.721  23.376  1.00  0.00     0.044 A 
ATOM      8  C   UNL A   1      33.931  22.453  26.191  1.00  0.00     0.044 A 
ATOM      9  C   UNL A   1      33.337  20.852  25.669  1.00  0.00     0.026 A 
ATOM     10  C   UNL A   1      33.796  23.926  25.125  1.00  0.00    -0.015 A 
ATOM     11  C   UNL A   1      32.719  20.503  24.086  1.00  0.00     0.003 A 
ATOM     12  C   UNL A   1      34.367  25.194  25.683  1.00  0.00     0.047 C 
ATOM     13  C   UNL A   1      32.671  21.820  22.887  1.00  0.00     0.014 A 
BRANCH   8  14
ATOM     14  N   UNL A   1      35.374  22.196  26.567  1.00  0.00    -0.332 N 
ATOM     15  H   UNL A   1      35.517  21.708  27.410  1.00  0.00     0.169 HD
BRANCH  14  16
ATOM     16  C   UNL A   1      36.554  22.568  25.857  1.00  0.00     0.177 C 
ATOM     17  S   UNL A   1      36.705  22.017  24.278  1.00  0.00    -0.040 S 
BRANCH  16  18
ATOM     18  N   UNL A   1      37.707  23.329  26.408  1.00  0.00    -0.299 N 
ATOM     19  C   UNL A   1      39.226  23.516  26.686  1.00  0.00     0.257 C 
ATOM     20  O   UNL A   1      39.626  24.590  27.127  1.00  0.00    -0.269 OA
ATOM     21  H   UNL A   1      37.295  24.132  26.802  1.00  0.00     0.172 HD
BRANCH  19  22
ATOM     22  C   UNL A   1      40.177  22.346  26.537  1.00  0.00     0.041 A 
ATOM     23  C   UNL A   1      43.308  20.448  25.631  1.00  0.00     0.133 A 
ATOM     24  C   UNL A   1      41.678  19.692  26.032  1.00  0.00     0.048 A 
ATOM     25  C   UNL A   1      43.332  22.250  25.595  1.00  0.00     0.060 A 
ATOM     26  C   UNL A   1      40.206  20.637  26.499  1.00  0.00     0.018 A 
ATOM     27  C   UNL A   1      41.587  23.086  26.119  1.00  0.00     0.033 A 
ATOM     28  Br  UNL A   1      45.012  22.920  24.745  1.00  0.00    -0.047 Br
BRANCH  23  29
ATOM     29  O   UNL A   1      44.526  19.808  25.624  1.00  0.00    -0.493 OA
BRANCH  29  30
ATOM     30  C   UNL A   1      44.822  18.896  24.515  1.00  0.00     0.226 C 
ATOM     31  C   UNL A   1      44.880  19.294  23.043  1.00  0.00     0.049 C 
ENDBRANCH  29  30
ENDBRANCH  23  29
ENDBRANCH  19  22
ENDBRANCH  16  18
ENDBRANCH  14  16
ENDBRANCH   8  14
ENDBRANCH   4   7
ENDBRANCH   2   3
ENDBRANCH   1   2
BRANCH   1  32
ATOM     32  C   UNL A   1      31.758  29.088  25.511  1.00  0.00     0.002 C 
BRANCH  32  33
ATOM     33  C   UNL A   1      33.270  28.872  25.581  1.00  0.00     0.002 C 
BRANCH  33  34
ATOM     34  C   UNL A   1      33.881  28.502  26.933  1.00  0.00     0.021 C 
BRANCH  34  35
ATOM     35  C   UNL A   1      35.014  29.386  27.394  1.00  0.00     0.116 C 
BRANCH  35  36
ATOM     36  N   UNL A   1      34.875  30.789  27.043  1.00  0.00    -0.352 N 
ATOM     37  C   UNL A   1      34.733  31.782  28.011  1.00  0.00     0.251 C 
ATOM     38  H   UNL A   1      34.879  31.047  26.092  1.00  0.00     0.163 HD
ATOM     39  O   UNL A   1      33.787  32.551  28.082  1.00  0.00    -0.269 OA
BRANCH  37  40
ATOM     40  C   UNL A   1      35.887  31.900  28.928  1.00  0.00     0.039 A 
ATOM     41  C   UNL A   1      36.842  32.899  28.719  1.00  0.00     0.014 A 
ATOM     42  C   UNL A   1      36.134  30.832  29.782  1.00  0.00     0.014 A 
ATOM     43  C   UNL A   1      38.126  32.711  29.209  1.00  0.00     0.010 A 
ATOM     44  C   UNL A   1      37.425  30.550  30.102  1.00  0.00     0.010 A 
ATOM     45  C   UNL A   1      38.414  31.487  29.799  1.00  0.00    -0.014 A 
BRANCH  45  46
ATOM     46  C   UNL A   1      39.682  31.108  30.369  1.00  0.00     0.031 A 
ATOM     47  C   UNL A   1      40.411  30.067  29.622  1.00  0.00     0.074 A 
ATOM     48  C   UNL A   1      40.200  31.961  31.276  1.00  0.00     0.049 A 
ATOM     49  N   UNL A   1      41.409  29.410  30.078  1.00  0.00    -0.248 NA
ATOM     50  C   UNL A   1      40.036  29.650  28.264  1.00  0.00     0.031 C 
ATOM     51  C   UNL A   1      41.585  32.161  31.675  1.00  0.00     0.029 A 
ATOM     52  N   UNL A   1      39.475  32.755  32.169  1.00  0.00    -0.354 N 
ATOM     53  C   UNL A   1      42.013  28.790  29.000  1.00  0.00     0.074 A 
ATOM     54  C   UNL A   1      41.057  28.857  27.929  1.00  0.00     0.031 C 
ATOM     55  C   UNL A   1      41.606  32.754  32.885  1.00  0.00     0.029 A 
ATOM     56  C   UNL A   1      40.227  32.814  33.356  1.00  0.00     0.049 A 
ATOM     57  H   UNL A   1      38.607  33.190  32.001  1.00  0.00     0.167 HD
ATOM     58  C   UNL A   1      43.333  28.475  29.108  1.00  0.00     0.037 A 
ATOM     59  C   UNL A   1      39.759  32.157  34.464  1.00  0.00     0.037 A 
ATOM     60  C   UNL A   1      43.798  28.852  30.441  1.00  0.00     0.049 A 
ATOM     61  C   UNL A   1      40.631  30.973  34.819  1.00  0.00     0.074 A 
ATOM     62  C   UNL A   1      44.396  30.011  30.907  1.00  0.00     0.029 A 
ATOM     63  N   UNL A   1      43.266  28.206  31.549  1.00  0.00    -0.354 N 
ATOM     64  N   UNL A   1      41.332  30.290  33.953  1.00  0.00    -0.248 NA
ATOM     65  C   UNL A   1      40.849  30.529  36.192  1.00  0.00     0.031 C 
ATOM     66  C   UNL A   1      44.166  30.087  32.303  1.00  0.00     0.029 A 
ATOM     67  C   UNL A   1      43.432  28.976  32.683  1.00  0.00     0.049 A 
ATOM     68  H   UNL A   1      42.832  27.323  31.528  1.00  0.00     0.167 HD
ATOM     69  C   UNL A   1      42.087  29.355  34.614  1.00  0.00     0.074 A 
ATOM     70  C   UNL A   1      41.751  29.551  36.012  1.00  0.00     0.031 C 
ATOM     71  C   UNL A   1      42.949  28.507  33.972  1.00  0.00     0.037 A 
BRANCH  58  72
ATOM     72  C   UNL A   1      44.265  28.140  27.965  1.00  0.00     0.058 A 
ATOM     73  C   UNL A   1      45.087  29.151  27.417  1.00  0.00     0.135 A 
ATOM     74  C   UNL A   1      44.404  26.876  27.357  1.00  0.00     0.135 A 
ATOM     75  F   UNL A   1      45.101  30.395  27.912  1.00  0.00    -0.206 F 
ATOM     76  C   UNL A   1      45.933  28.946  26.331  1.00  0.00     0.059 A 
ATOM     77  C   UNL A   1      45.225  26.652  26.241  1.00  0.00     0.059 A 
ATOM     78  F   UNL A   1      43.784  25.793  27.843  1.00  0.00    -0.206 F 
ATOM     79  C   UNL A   1      45.990  27.695  25.737  1.00  0.00     0.060 A 
BRANCH  79  80
ATOM     80  S   UNL A   1      47.096  27.473  24.335  1.00  0.00     0.124 S 
ATOM     81  O   UNL A   1      48.343  28.045  24.835  1.00  0.00    -0.237 OA
ATOM     82  O   UNL A   1      47.087  26.023  24.169  1.00  0.00    -0.237 OA
ATOM     83  O   UNL A   1      46.451  28.229  23.266  1.00  0.00    -0.744 OA
ENDBRANCH  79  80
ENDBRANCH  58  72
BRANCH  59  84
ATOM     84  C   UNL A   1      38.262  32.209  34.544  1.00  0.00     0.058 A 
ATOM     85  C   UNL A   1      37.699  33.396  35.062  1.00  0.00     0.135 A 
ATOM     86  C   UNL A   1      37.459  31.443  33.683  1.00  0.00     0.135 A 
ATOM     87  F   UNL A   1      38.405  34.153  35.919  1.00  0.00    -0.206 F 
ATOM     88  C   UNL A   1      36.499  33.912  34.579  1.00  0.00     0.059 A 
ATOM     89  C   UNL A   1      36.240  31.935  33.202  1.00  0.00     0.059 A 
ATOM     90  F   UNL A   1      37.920  30.291  33.175  1.00  0.00    -0.206 F 
ATOM     91  C   UNL A   1      35.819  33.209  33.588  1.00  0.00     0.060 A 
BRANCH  91  92
ATOM     92  S   UNL A   1      34.482  34.063  32.712  1.00  0.00     0.124 S 
ATOM     93  O   UNL A   1      34.595  35.419  33.236  1.00  0.00    -0.237 OA
ATOM     94  O   UNL A   1      34.872  33.890  31.310  1.00  0.00    -0.237 OA
ATOM     95  O   UNL A   1      33.290  33.331  33.119  1.00  0.00    -0.744 OA
ENDBRANCH  91  92
ENDBRANCH  59  84
BRANCH  71  96
ATOM     96  C   UNL A   1      43.516  27.222  34.537  1.00  0.00     0.058 A 
ATOM     97  C   UNL A   1      42.731  26.127  34.933  1.00  0.00     0.135 A 
ATOM     98  C   UNL A   1      44.918  26.995  34.569  1.00  0.00     0.135 A 
ATOM     99  F   UNL A   1      41.397  26.131  34.806  1.00  0.00    -0.206 F 
ATOM    100  C   UNL A   1      43.284  24.954  35.440  1.00  0.00     0.059 A 
ATOM    101  C   UNL A   1      45.490  25.799  34.985  1.00  0.00     0.059 A 
ATOM    102  F   UNL A   1      45.802  27.926  34.183  1.00  0.00    -0.206 F 
ATOM    103  C   UNL A   1      44.664  24.802  35.469  1.00  0.00     0.060 A 
BRANCH 103 104
ATOM    104  S   UNL A   1      45.368  23.289  36.132  1.00  0.00     0.124 S 
ATOM    105  O   UNL A   1      45.135  23.470  37.562  1.00  0.00    -0.237 OA
ATOM    106  O   UNL A   1      44.563  22.256  35.487  1.00  0.00    -0.237 OA
ATOM    107  O   UNL A   1      46.763  23.345  35.707  1.00  0.00    -0.744 OA
ENDBRANCH 103 104
ENDBRANCH  71  96
ENDBRANCH  45  46
ENDBRANCH  37  40
ENDBRANCH  35  36
ENDBRANCH  34  35
ENDBRANCH  33  34
ENDBRANCH  32  33
ENDBRANCH   1  32
TORSDOF 22
ENDMDL
MODEL 2
REMARK VINA RESULT:     -12.6      1.207      2.088
REMARK SMILES CCOc1ccc(C(=O)NC(=S)Nc2cccc(C(=O)NCCCCCCNC(=O)c3ccc(-c4c5nc(c(-c6c(F)cc(S(=O)(=O)[O-])cc6F)c6ccc([nH]6)c(-c6c(F)cc(S(=O)(=O)[O-])cc6F)c6nc(c(-c7c(F)cc(S(=O)(=O)[O-])cc7F)c7ccc4[nH]7)C=C6)C=C5)cc3)c2C)cc1Br
REMARK SMILES IDX 23 1 22 2 21 3 19 4 20 5 18 7 14 8 15 9 97 10 16 11 98 12
REMARK SMILES IDX 17 13 13 14 11 16 12 17 10 18 8 19 9 20 7 22 4 23 5 24
REMARK SMILES IDX 100 25 6 26 99 27 101 28 3 29 2 30 1 31 24 32 25 33 26 34
REMARK SMILES IDX 27 35 28 36 29 37 30 39 31 40 32 41 96 42 33 43 95 44 34 45
REMARK SMILES IDX 35 46 36 47 89 48 37 49 94 50 88 51 90 52 38 53 93 54 87 55
REMARK SMILES IDX 86 56 39 58 73 59 52 60 72 61 53 62 56 63 71 64 91 65 54 66
REMARK SMILES IDX 55 67 70 69 92 70 57 71 40 72 41 73 50 74 42 75 43 76 49 77
REMARK SMILES IDX 51 78 44 79 45 80 46 81 47 82 48 83 74 84 75 85 84 86 76 87
REMARK SMILES IDX 77 88 83 89 85 90 78 91 79 92 80 93 81 94 82 95 58 96 59 97
REMARK SMILES IDX 68 98 60 99 61 100 67 101 69 102 62 103 63 104 64 105 65 106
REMARK SMILES IDX 66 107
REMARK H PARENT 21 6 13 15 10 21 28 38 90 57 56 68
REMARK Flexibility Score: inf
ROOT
ATOM      1  C   UNL A   1      30.997  27.891  24.569  1.00  0.00     0.021 C 
ENDROOT
BRANCH   1   2
ATOM      2  C   UNL A   1      31.514  26.467  24.268  1.00  0.00     0.116 C 
BRANCH   2   3
ATOM      3  N   UNL A   1      32.231  25.994  23.020  1.00  0.00    -0.352 N 
ATOM      4  C   UNL A   1      32.652  24.774  22.359  1.00  0.00     0.251 C 
ATOM      5  O   UNL A   1      32.899  24.954  21.155  1.00  0.00    -0.269 OA
ATOM      6  H   UNL A   1      32.500  26.771  22.478  1.00  0.00     0.163 HD
BRANCH   4   7
ATOM      7  C   UNL A   1      33.004  23.186  22.908  1.00  0.00     0.044 A 
ATOM      8  C   UNL A   1      34.940  21.815  25.003  1.00  0.00     0.044 A 
ATOM      9  C   UNL A   1      34.069  20.262  24.863  1.00  0.00     0.026 A 
ATOM     10  C   UNL A   1      34.375  23.317  24.139  1.00  0.00    -0.015 A 
ATOM     11  C   UNL A   1      32.719  19.986  23.809  1.00  0.00     0.003 A 
ATOM     12  C   UNL A   1      35.224  24.539  24.324  1.00  0.00     0.047 C 
ATOM     13  C   UNL A   1      32.154  21.332  22.787  1.00  0.00     0.014 A 
BRANCH   8  14
ATOM     14  N   UNL A   1      36.358  21.469  24.603  1.00  0.00    -0.332 N 
ATOM     15  H   UNL A   1      36.466  21.063  23.713  1.00  0.00     0.169 HD
BRANCH  14  16
ATOM     16  C   UNL A   1      37.559  21.656  25.350  1.00  0.00     0.177 C 
ATOM     17  S   UNL A   1      37.779  23.148  26.088  1.00  0.00    -0.040 S 
BRANCH  16  18
ATOM     18  N   UNL A   1      38.678  20.684  25.470  1.00  0.00    -0.299 N 
ATOM     19  C   UNL A   1      40.069  20.247  26.014  1.00  0.00     0.257 C 
ATOM     20  O   UNL A   1      40.442  19.090  25.840  1.00  0.00    -0.269 OA
ATOM     21  H   UNL A   1      38.390  19.920  24.919  1.00  0.00     0.172 HD
BRANCH  19  22
ATOM     22  C   UNL A   1      41.000  21.269  26.632  1.00  0.00     0.041 A 
ATOM     23  C   UNL A   1      44.196  23.139  27.351  1.00  0.00     0.133 A 
ATOM     24  C   UNL A   1      42.665  23.206  28.372  1.00  0.00     0.048 A 
ATOM     25  C   UNL A   1      44.140  22.001  25.954  1.00  0.00     0.060 A 
ATOM     26  C   UNL A   1      41.137  22.321  27.973  1.00  0.00     0.018 A 
ATOM     27  C   UNL A   1      42.360  21.110  25.717  1.00  0.00     0.033 A 
ATOM     28  Br  UNL A   1      45.967  21.711  25.203  1.00  0.00    -0.047 Br
BRANCH  23  29
ATOM     29  O   UNL A   1      45.240  24.035  27.384  1.00  0.00    -0.493 OA
BRANCH  29  30
ATOM     30  C   UNL A   1      45.751  24.455  28.692  1.00  0.00     0.226 C 
ATOM     31  C   UNL A   1      46.889  25.448  28.911  1.00  0.00     0.049 C 
ENDBRANCH  29  30
ENDBRANCH  23  29
ENDBRANCH  19  22
ENDBRANCH  16  18
ENDBRANCH  14  16
ENDBRANCH   8  14
ENDBRANCH   4   7
ENDBRANCH   2   3
ENDBRANCH   1   2
BRANCH   1  32
ATOM     32  C   UNL A   1      31.931  28.963  25.122  1.00  0.00     0.002 C 
BRANCH  32  33
ATOM     33  C   UNL A   1      33.430  28.665  25.165  1.00  0.00     0.002 C 
BRANCH  33  34
ATOM     34  C   UNL A   1      34.016  28.107  26.462  1.00  0.00     0.021 C 
BRANCH  34  35
ATOM     35  C   UNL A   1      34.796  29.093  27.297  1.00  0.00     0.116 C 
BRANCH  35  36
ATOM     36  N   UNL A   1      34.735  30.468  26.833  1.00  0.00    -0.352 N 
ATOM     37  C   UNL A   1      34.607  31.539  27.716  1.00  0.00     0.251 C 
ATOM     38  H   UNL A   1      34.783  30.650  25.866  1.00  0.00     0.163 HD
ATOM     39  O   UNL A   1      33.697  32.353  27.692  1.00  0.00    -0.269 OA
BRANCH  37  40
ATOM     40  C   UNL A   1      35.734  31.679  28.663  1.00  0.00     0.039 A 
ATOM     41  C   UNL A   1      36.607  32.765  28.551  1.00  0.00     0.014 A 
ATOM     42  C   UNL A   1      36.055  30.571  29.439  1.00  0.00     0.014 A 
ATOM     43  C   UNL A   1      37.895  32.643  29.052  1.00  0.00     0.010 A 
ATOM     44  C   UNL A   1      37.359  30.370  29.764  1.00  0.00     0.010 A 
ATOM     45  C   UNL A   1      38.273  31.404  29.553  1.00  0.00    -0.014 A 
BRANCH  45  46
ATOM     46  C   UNL A   1      39.559  31.085  30.119  1.00  0.00     0.031 A 
ATOM     47  C   UNL A   1      40.363  30.132  29.334  1.00  0.00     0.074 A 
ATOM     48  C   UNL A   1      40.010  31.928  31.071  1.00  0.00     0.049 A 
ATOM     49  N   UNL A   1      41.399  29.523  29.770  1.00  0.00    -0.248 NA
ATOM     50  C   UNL A   1      40.028  29.754  27.954  1.00  0.00     0.031 C 
ATOM     51  C   UNL A   1      41.375  32.201  31.495  1.00  0.00     0.029 A 
ATOM     52  N   UNL A   1      39.225  32.629  31.991  1.00  0.00    -0.354 N 
ATOM     53  C   UNL A   1      42.053  28.995  28.672  1.00  0.00     0.074 A 
ATOM     54  C   UNL A   1      41.103  29.049  27.594  1.00  0.00     0.031 C 
ATOM     55  C   UNL A   1      41.346  32.738  32.731  1.00  0.00     0.029 A 
ATOM     56  C   UNL A   1      39.963  32.682  33.188  1.00  0.00     0.049 A 
ATOM     57  H   UNL A   1      38.332  33.011  31.833  1.00  0.00     0.167 HD
ATOM     58  C   UNL A   1      43.390  28.766  28.780  1.00  0.00     0.037 A 
ATOM     59  C   UNL A   1      39.531  31.944  34.259  1.00  0.00     0.037 A 
ATOM     60  C   UNL A   1      43.818  29.111  30.134  1.00  0.00     0.049 A 
ATOM     61  C   UNL A   1      40.478  30.807  34.570  1.00  0.00     0.074 A 
ATOM     62  C   UNL A   1      44.332  30.285  30.660  1.00  0.00     0.029 A 
ATOM     63  N   UNL A   1      43.322  28.380  31.205  1.00  0.00    -0.354 N 
ATOM     64  N   UNL A   1      41.231  30.214  33.681  1.00  0.00    -0.248 NA
ATOM     65  C   UNL A   1      40.714  30.315  35.922  1.00  0.00     0.031 C 
ATOM     66  C   UNL A   1      44.086  30.279  32.055  1.00  0.00     0.029 A 
ATOM     67  C   UNL A   1      43.425  29.104  32.375  1.00  0.00     0.049 A 
ATOM     68  H   UNL A   1      42.949  27.471  31.139  1.00  0.00     0.167 HD
ATOM     69  C   UNL A   1      42.042  29.302  34.306  1.00  0.00     0.074 A 
ATOM     70  C   UNL A   1      41.683  29.409  35.708  1.00  0.00     0.031 C 
ATOM     71  C   UNL A   1      42.965  28.545  33.636  1.00  0.00     0.037 A 
BRANCH  58  72
ATOM     72  C   UNL A   1      44.353  28.548  27.634  1.00  0.00     0.058 A 
ATOM     73  C   UNL A   1      44.241  27.384  26.841  1.00  0.00     0.135 A 
ATOM     74  C   UNL A   1      45.399  29.415  27.260  1.00  0.00     0.135 A 
ATOM     75  F   UNL A   1      43.271  26.482  27.044  1.00  0.00    -0.206 F 
ATOM     76  C   UNL A   1      45.116  27.076  25.803  1.00  0.00     0.059 A 
ATOM     77  C   UNL A   1      46.314  29.112  26.240  1.00  0.00     0.059 A 
ATOM     78  F   UNL A   1      45.557  30.613  27.838  1.00  0.00    -0.206 F 
ATOM     79  C   UNL A   1      46.160  27.938  25.514  1.00  0.00     0.060 A 
BRANCH  79  80
ATOM     80  S   UNL A   1      47.270  27.503  24.165  1.00  0.00     0.124 S 
ATOM     81  O   UNL A   1      47.116  26.052  24.099  1.00  0.00    -0.237 OA
ATOM     82  O   UNL A   1      46.699  28.251  23.050  1.00  0.00    -0.237 OA
ATOM     83  O   UNL A   1      48.573  27.968  24.630  1.00  0.00    -0.744 OA
ENDBRANCH  79  80
ENDBRANCH  58  72
BRANCH  59  84
ATOM     84  C   UNL A   1      38.033  31.892  34.324  1.00  0.00     0.058 A 
ATOM     85  C   UNL A   1      37.388  33.001  34.914  1.00  0.00     0.135 A 
ATOM     86  C   UNL A   1      37.290  31.134  33.405  1.00  0.00     0.135 A 
ATOM     87  F   UNL A   1      38.035  33.743  35.828  1.00  0.00    -0.206 F 
ATOM     88  C   UNL A   1      36.160  33.468  34.452  1.00  0.00     0.059 A 
ATOM     89  C   UNL A   1      36.045  31.576  32.943  1.00  0.00     0.059 A 
ATOM     90  F   UNL A   1      37.831  30.052  32.826  1.00  0.00    -0.206 F 
ATOM     91  C   UNL A   1      35.536  32.790  33.409  1.00  0.00     0.060 A 
BRANCH  91  92
ATOM     92  S   UNL A   1      34.152  33.611  32.575  1.00  0.00     0.124 S 
ATOM     93  O   UNL A   1      34.492  35.020  32.741  1.00  0.00    -0.237 OA
ATOM     94  O   UNL A   1      34.259  33.089  31.211  1.00  0.00    -0.237 OA
ATOM     95  O   UNL A   1      32.988  33.155  33.325  1.00  0.00    -0.744 OA
ENDBRANCH  91  92
ENDBRANCH  59  84
BRANCH  71  96
ATOM     96  C   UNL A   1      43.613  27.276  34.148  1.00  0.00     0.058 A 
ATOM     97  C   UNL A   1      45.001  27.096  34.261  1.00  0.00     0.135 A 
ATOM     98  C   UNL A   1      42.828  26.222  34.688  1.00  0.00     0.135 A 
ATOM     99  F   UNL A   1      45.868  28.068  33.946  1.00  0.00    -0.206 F 
ATOM    100  C   UNL A   1      45.566  25.919  34.746  1.00  0.00     0.059 A 
ATOM    101  C   UNL A   1      43.371  25.079  35.259  1.00  0.00     0.059 A 
ATOM    102  F   UNL A   1      41.487  26.261  34.695  1.00  0.00    -0.206 F 
ATOM    103  C   UNL A   1      44.743  24.913  35.236  1.00  0.00     0.060 A 
BRANCH 103 104
ATOM    104  S   UNL A   1      45.481  23.396  35.851  1.00  0.00     0.124 S 
ATOM    105  O   UNL A   1      45.171  23.486  37.274  1.00  0.00    -0.237 OA
ATOM    106  O   UNL A   1      44.756  22.369  35.110  1.00  0.00    -0.237 OA
ATOM    107  O   UNL A   1      46.892  23.536  35.502  1.00  0.00    -0.744 OA
ENDBRANCH 103 104
ENDBRANCH  71  96
ENDBRANCH  45  46
ENDBRANCH  37  40
ENDBRANCH  35  36
ENDBRANCH  34  35
ENDBRANCH  33  34
ENDBRANCH  32  33
ENDBRANCH   1  32
TORSDOF 22
ENDMDL
MODEL 3
REMARK VINA RESULT:     -11.6      1.624      1.997
REMARK SMILES CCOc1ccc(C(=O)NC(=S)Nc2cccc(C(=O)NCCCCCCNC(=O)c3ccc(-c4c5nc(c(-c6c(F)cc(S(=O)(=O)[O-])cc6F)c6ccc([nH]6)c(-c6c(F)cc(S(=O)(=O)[O-])cc6F)c6nc(c(-c7c(F)cc(S(=O)(=O)[O-])cc7F)c7ccc4[nH]7)C=C6)C=C5)cc3)c2C)cc1Br
REMARK SMILES IDX 23 1 22 2 21 3 19 4 20 5 18 7 14 8 15 9 97 10 16 11 98 12
REMARK SMILES IDX 17 13 13 14 11 16 12 17 10 18 8 19 9 20 7 22 4 23 5 24
REMARK SMILES IDX 100 25 6 26 99 27 101 28 3 29 2 30 1 31 24 32 25 33 26 34
REMARK SMILES IDX 27 35 28 36 29 37 30 39 31 40 32 41 96 42 33 43 95 44 34 45
REMARK SMILES IDX 35 46 36 47 89 48 37 49 94 50 88 51 90 52 38 53 93 54 87 55
REMARK SMILES IDX 86 56 39 58 73 59 52 60 72 61 53 62 56 63 71 64 91 65 54 66
REMARK SMILES IDX 55 67 70 69 92 70 57 71 40 72 41 73 50 74 42 75 43 76 49 77
REMARK SMILES IDX 51 78 44 79 45 80 46 81 47 82 48 83 74 84 75 85 84 86 76 87
REMARK SMILES IDX 77 88 83 89 85 90 78 91 79 92 80 93 81 94 82 95 58 96 59 97
REMARK SMILES IDX 68 98 60 99 61 100 67 101 69 102 62 103 63 104 64 105 65 106
REMARK SMILES IDX 66 107
REMARK H PARENT 21 6 13 15 10 21 28 38 90 57 56 68
REMARK Flexibility Score: inf
ROOT
ATOM      1  C   UNL A   1      31.035  29.525  24.758  1.00  0.00     0.021 C 
ENDROOT
BRANCH   1   2
ATOM      2  C   UNL A   1      31.207  28.474  23.640  1.00  0.00     0.116 C 
BRANCH   2   3
ATOM      3  N   UNL A   1      32.501  28.023  22.993  1.00  0.00    -0.352 N 
ATOM      4  C   UNL A   1      33.119  26.844  22.418  1.00  0.00     0.251 C 
ATOM      5  O   UNL A   1      34.091  27.129  21.698  1.00  0.00    -0.269 OA
ATOM      6  H   UNL A   1      33.129  28.780  22.947  1.00  0.00     0.163 HD
BRANCH   4   7
ATOM      7  C   UNL A   1      32.879  25.157  22.622  1.00  0.00     0.044 A 
ATOM      8  C   UNL A   1      31.620  23.223  24.788  1.00  0.00     0.044 A 
ATOM      9  C   UNL A   1      31.666  21.845  23.653  1.00  0.00     0.026 A 
ATOM     10  C   UNL A   1      32.106  24.906  24.280  1.00  0.00    -0.015 A 
ATOM     11  C   UNL A   1      32.294  21.924  22.037  1.00  0.00     0.003 A 
ATOM     12  C   UNL A   1      32.048  25.955  25.349  1.00  0.00     0.047 C 
ATOM     13  C   UNL A   1      32.947  23.478  21.458  1.00  0.00     0.014 A 
BRANCH   8  14
ATOM     14  N   UNL A   1      32.459  22.754  25.956  1.00  0.00    -0.332 N 
ATOM     15  H   UNL A   1      31.967  22.555  26.785  1.00  0.00     0.169 HD
BRANCH  14  16
ATOM     16  C   UNL A   1      33.872  22.561  26.012  1.00  0.00     0.177 C 
ATOM     17  S   UNL A   1      34.520  22.052  27.475  1.00  0.00    -0.040 S 
BRANCH  16  18
ATOM     18  N   UNL A   1      34.840  22.848  24.920  1.00  0.00    -0.299 N 
ATOM     19  C   UNL A   1      36.243  22.728  24.259  1.00  0.00     0.257 C 
ATOM     20  O   UNL A   1      36.400  23.134  23.111  1.00  0.00    -0.269 OA
ATOM     21  H   UNL A   1      34.328  23.402  24.287  1.00  0.00     0.172 HD
BRANCH  19  22
ATOM     22  C   UNL A   1      37.427  22.236  25.066  1.00  0.00     0.041 A 
ATOM     23  C   UNL A   1      40.441  22.364  27.329  1.00  0.00     0.133 A 
ATOM     24  C   UNL A   1      39.967  20.941  26.260  1.00  0.00     0.048 A 
ATOM     25  C   UNL A   1      39.395  23.824  27.177  1.00  0.00     0.060 A 
ATOM     26  C   UNL A   1      38.489  20.905  25.214  1.00  0.00     0.018 A 
ATOM     27  C   UNL A   1      37.835  23.567  25.944  1.00  0.00     0.033 A 
ATOM     28  Br  UNL A   1      40.252  25.404  28.048  1.00  0.00    -0.047 Br
BRANCH  23  29
ATOM     29  O   UNL A   1      41.315  22.331  28.392  1.00  0.00    -0.493 OA
BRANCH  29  30
ATOM     30  C   UNL A   1      42.751  22.289  28.106  1.00  0.00     0.226 C 
ATOM     31  C   UNL A   1      43.528  23.365  27.352  1.00  0.00     0.049 C 
ENDBRANCH  29  30
ENDBRANCH  23  29
ENDBRANCH  19  22
ENDBRANCH  16  18
ENDBRANCH  14  16
ENDBRANCH   8  14
ENDBRANCH   4   7
ENDBRANCH   2   3
ENDBRANCH   1   2
BRANCH   1  32
ATOM     32  C   UNL A   1      31.751  29.369  26.096  1.00  0.00     0.002 C 
BRANCH  32  33
ATOM     33  C   UNL A   1      33.224  29.772  26.181  1.00  0.00     0.002 C 
BRANCH  33  34
ATOM     34  C   UNL A   1      34.152  28.926  27.052  1.00  0.00     0.021 C 
BRANCH  34  35
ATOM     35  C   UNL A   1      35.344  29.653  27.624  1.00  0.00     0.116 C 
BRANCH  35  36
ATOM     36  N   UNL A   1      35.462  31.044  27.219  1.00  0.00    -0.352 N 
ATOM     37  C   UNL A   1      35.463  32.084  28.146  1.00  0.00     0.251 C 
ATOM     38  H   UNL A   1      35.543  31.258  26.261  1.00  0.00     0.163 HD
ATOM     39  O   UNL A   1      34.663  33.008  28.153  1.00  0.00    -0.269 OA
BRANCH  37  40
ATOM     40  C   UNL A   1      36.589  32.040  29.103  1.00  0.00     0.039 A 
ATOM     41  C   UNL A   1      37.569  33.037  29.073  1.00  0.00     0.014 A 
ATOM     42  C   UNL A   1      36.789  30.852  29.796  1.00  0.00     0.014 A 
ATOM     43  C   UNL A   1      38.833  32.749  29.566  1.00  0.00     0.010 A 
ATOM     44  C   UNL A   1      38.064  30.496  30.108  1.00  0.00     0.010 A 
ATOM     45  C   UNL A   1      39.079  31.445  29.976  1.00  0.00    -0.014 A 
BRANCH  45  46
ATOM     46  C   UNL A   1      40.321  30.956  30.519  1.00  0.00     0.031 A 
ATOM     47  C   UNL A   1      41.015  29.960  29.684  1.00  0.00     0.074 A 
ATOM     48  C   UNL A   1      40.863  31.696  31.509  1.00  0.00     0.049 A 
ATOM     49  N   UNL A   1      41.976  29.218  30.085  1.00  0.00    -0.248 NA
ATOM     50  C   UNL A   1      40.641  29.691  28.289  1.00  0.00     0.031 C 
ATOM     51  C   UNL A   1      42.249  31.794  31.940  1.00  0.00     0.029 A 
ATOM     52  N   UNL A   1      40.160  32.433  32.467  1.00  0.00    -0.354 N 
ATOM     53  C   UNL A   1      42.568  28.677  28.959  1.00  0.00     0.074 A 
ATOM     54  C   UNL A   1      41.631  28.889  27.889  1.00  0.00     0.031 C 
ATOM     55  C   UNL A   1      42.279  32.269  33.201  1.00  0.00     0.029 A 
ATOM     56  C   UNL A   1      40.898  32.345  33.662  1.00  0.00     0.049 A 
ATOM     57  H   UNL A   1      39.316  32.920  32.332  1.00  0.00     0.167 HD
ATOM     58  C   UNL A   1      43.871  28.294  29.049  1.00  0.00     0.037 A 
ATOM     59  C   UNL A   1      40.386  31.607  34.696  1.00  0.00     0.037 A 
ATOM     60  C   UNL A   1      44.334  28.522  30.417  1.00  0.00     0.049 A 
ATOM     61  C   UNL A   1      41.200  30.358  34.946  1.00  0.00     0.074 A 
ATOM     62  C   UNL A   1      44.975  29.603  30.997  1.00  0.00     0.029 A 
ATOM     63  N   UNL A   1      43.758  27.798  31.452  1.00  0.00    -0.354 N 
ATOM     64  N   UNL A   1      41.883  29.729  34.026  1.00  0.00    -0.248 NA
ATOM     65  C   UNL A   1      41.379  29.776  36.272  1.00  0.00     0.031 C 
ATOM     66  C   UNL A   1      44.729  29.556  32.392  1.00  0.00     0.029 A 
ATOM     67  C   UNL A   1      43.941  28.448  32.656  1.00  0.00     0.049 A 
ATOM     68  H   UNL A   1      43.286  26.941  31.343  1.00  0.00     0.167 HD
ATOM     69  C   UNL A   1      42.587  28.703  34.601  1.00  0.00     0.074 A 
ATOM     70  C   UNL A   1      42.240  28.779  36.009  1.00  0.00     0.031 C 
ATOM     71  C   UNL A   1      43.420  27.882  33.890  1.00  0.00     0.037 A 
BRANCH  58  72
ATOM     72  C   UNL A   1      44.804  28.028  27.889  1.00  0.00     0.058 A 
ATOM     73  C   UNL A   1      45.129  29.078  27.000  1.00  0.00     0.135 A 
ATOM     74  C   UNL A   1      45.405  26.791  27.581  1.00  0.00     0.135 A 
ATOM     75  F   UNL A   1      44.670  30.323  27.181  1.00  0.00    -0.206 F 
ATOM     76  C   UNL A   1      45.934  28.910  25.877  1.00  0.00     0.059 A 
ATOM     77  C   UNL A   1      46.194  26.589  26.438  1.00  0.00     0.059 A 
ATOM     78  F   UNL A   1      45.291  25.734  28.397  1.00  0.00    -0.206 F 
ATOM     79  C   UNL A   1      46.455  27.659  25.593  1.00  0.00     0.060 A 
BRANCH  79  80
ATOM     80  S   UNL A   1      47.490  27.484  24.130  1.00  0.00     0.124 S 
ATOM     81  O   UNL A   1      48.781  27.970  24.610  1.00  0.00    -0.237 OA
ATOM     82  O   UNL A   1      47.409  26.051  23.871  1.00  0.00    -0.237 OA
ATOM     83  O   UNL A   1      46.834  28.337  23.143  1.00  0.00    -0.744 OA
ENDBRANCH  79  80
ENDBRANCH  58  72
BRANCH  59  84
ATOM     84  C   UNL A   1      38.891  31.719  34.766  1.00  0.00     0.058 A 
ATOM     85  C   UNL A   1      38.374  32.864  35.411  1.00  0.00     0.135 A 
ATOM     86  C   UNL A   1      38.069  31.093  33.816  1.00  0.00     0.135 A 
ATOM     87  F   UNL A   1      39.099  33.486  36.355  1.00  0.00    -0.206 F 
ATOM     88  C   UNL A   1      37.206  33.486  34.977  1.00  0.00     0.059 A 
ATOM     89  C   UNL A   1      36.881  31.691  33.381  1.00  0.00     0.059 A 
ATOM     90  F   UNL A   1      38.487  29.986  33.185  1.00  0.00    -0.206 F 
ATOM     91  C   UNL A   1      36.510  32.932  33.906  1.00  0.00     0.060 A 
BRANCH  91  92
ATOM     92  S   UNL A   1      35.227  33.940  33.118  1.00  0.00     0.124 S 
ATOM     93  O   UNL A   1      35.532  33.765  31.702  1.00  0.00    -0.237 OA
ATOM     94  O   UNL A   1      33.997  33.296  33.585  1.00  0.00    -0.237 OA
ATOM     95  O   UNL A   1      35.471  35.274  33.651  1.00  0.00    -0.744 OA
ENDBRANCH  91  92
ENDBRANCH  59  84
BRANCH  71  96
ATOM     96  C   UNL A   1      43.922  26.525  34.336  1.00  0.00     0.058 A 
ATOM     97  C   UNL A   1      43.086  25.487  34.780  1.00  0.00     0.135 A 
ATOM     98  C   UNL A   1      45.290  26.170  34.192  1.00  0.00     0.135 A 
ATOM     99  F   UNL A   1      41.753  25.618  34.811  1.00  0.00    -0.206 F 
ATOM    100  C   UNL A   1      43.579  24.245  35.173  1.00  0.00     0.059 A 
ATOM    101  C   UNL A   1      45.789  24.908  34.493  1.00  0.00     0.059 A 
ATOM    102  F   UNL A   1      46.210  27.035  33.740  1.00  0.00    -0.206 F 
ATOM    103  C   UNL A   1      44.932  23.968  35.033  1.00  0.00     0.060 A 
BRANCH 103 104
ATOM    104  S   UNL A   1      45.559  22.367  35.551  1.00  0.00     0.124 S 
ATOM    105  O   UNL A   1      45.390  22.450  36.998  1.00  0.00    -0.237 OA
ATOM    106  O   UNL A   1      44.666  21.440  34.863  1.00  0.00    -0.237 OA
ATOM    107  O   UNL A   1      46.939  22.369  35.075  1.00  0.00    -0.744 OA
ENDBRANCH 103 104
ENDBRANCH  71  96
ENDBRANCH  45  46
ENDBRANCH  37  40
ENDBRANCH  35  36
ENDBRANCH  34  35
ENDBRANCH  33  34
ENDBRANCH  32  33
ENDBRANCH   1  32
TORSDOF 22
ENDMDL
