MODEL 1
REMARK VINA RESULT:     -10.8      0.000      0.000
REMARK SMILES O=C(NCCCCCCNC(=O)c1cc(/C=C/c2cc(O)cc(O)c2)ccc1O)c1ccc(-c2c3nc(c(-c4c(F)cc(S(=O)(=O)[O-])cc4F)c4ccc([nH]4)c(-c4c(F)cc(S(=O)(=O)[O-])cc4F)c4nc(c(-c5c(F)cc(S(=O)(=O)[O-])cc5F)c5ccc2[nH]5)C=C4)C=C3)cc1
REMARK SMILES IDX 6 1 5 2 4 3 3 4 1 5 2 6 30 8 31 9 95 10 32 11 94 12 33 13
REMARK SMILES IDX 34 14 35 15 88 16 36 17 93 18 87 19 89 20 37 21 92 22 86 23
REMARK SMILES IDX 85 24 38 26 72 27 51 28 71 29 52 30 55 31 70 32 90 33 53 34
REMARK SMILES IDX 54 35 69 37 91 38 56 39 39 40 40 41 49 42 41 43 42 44 48 45
REMARK SMILES IDX 50 46 43 47 44 48 45 49 46 50 47 51 73 52 74 53 83 54 75 55
REMARK SMILES IDX 76 56 82 57 84 58 77 59 78 60 79 61 80 62 81 63 57 64 58 65
REMARK SMILES IDX 67 66 59 67 60 68 66 69 68 70 61 71 62 72 63 73 64 74 65 75
REMARK SMILES IDX 7 76 8 77 9 78 10 79 11 80 12 82 13 83 14 84 28 85 15 86
REMARK SMILES IDX 27 87 26 88 29 89 16 91 17 92 18 93 19 94 25 95 20 96 23 97
REMARK SMILES IDX 22 98 21 99 24 101
REMARK H PARENT 3 7 89 25 55 36 10 81 29 90 21 100 24 102
REMARK Flexibility Score: inf
ROOT
ATOM      1  C   UNL A   1      43.519  24.268  29.203  1.00  0.00     0.002 C 
ENDROOT
BRANCH   1   2
ATOM      2  C   UNL A   1      43.185  23.120  28.249  1.00  0.00     0.021 C 
BRANCH   2   3
ATOM      3  C   UNL A   1      41.730  23.044  27.803  1.00  0.00     0.116 C 
BRANCH   3   4
ATOM      4  N   UNL A   1      41.489  23.751  26.557  1.00  0.00    -0.352 N 
ATOM      5  O   UNL A   1      40.776  25.430  25.234  1.00  0.00    -0.269 OA
ATOM      6  C   UNL A   1      41.071  25.045  26.361  1.00  0.00     0.251 C 
ATOM      7  H   UNL A   1      41.646  23.229  25.737  1.00  0.00     0.163 HD
BRANCH   6   8
ATOM      8  C   UNL A   1      40.955  25.965  27.515  1.00  0.00     0.039 A 
ATOM      9  C   UNL A   1      39.947  25.798  28.467  1.00  0.00     0.014 A 
ATOM     10  C   UNL A   1      41.880  27.006  27.648  1.00  0.00     0.014 A 
ATOM     11  C   UNL A   1      39.785  26.741  29.478  1.00  0.00     0.010 A 
ATOM     12  C   UNL A   1      41.759  27.910  28.708  1.00  0.00     0.010 A 
ATOM     13  C   UNL A   1      40.695  27.800  29.616  1.00  0.00    -0.014 A 
BRANCH  13  14
ATOM     14  C   UNL A   1      40.554  28.746  30.752  1.00  0.00     0.031 A 
ATOM     15  C   UNL A   1      41.443  28.649  31.960  1.00  0.00     0.074 A 
ATOM     16  C   UNL A   1      39.615  29.710  30.678  1.00  0.00     0.049 A 
ATOM     17  N   UNL A   1      41.449  29.389  33.040  1.00  0.00    -0.248 NA
ATOM     18  C   UNL A   1      42.453  27.579  31.963  1.00  0.00     0.031 C 
ATOM     19  C   UNL A   1      38.685  29.893  29.560  1.00  0.00     0.029 A 
ATOM     20  N   UNL A   1      39.289  30.717  31.549  1.00  0.00    -0.354 N 
ATOM     21  C   UNL A   1      42.445  28.869  33.858  1.00  0.00     0.074 A 
ATOM     22  C   UNL A   1      43.009  27.733  33.158  1.00  0.00     0.031 C 
ATOM     23  C   UNL A   1      37.918  30.967  29.798  1.00  0.00     0.029 A 
ATOM     24  C   UNL A   1      38.261  31.515  31.106  1.00  0.00     0.049 A 
ATOM     25  H   UNL A   1      39.747  30.857  32.409  1.00  0.00     0.167 HD
ATOM     26  C   UNL A   1      42.853  29.303  35.075  1.00  0.00     0.037 A 
ATOM     27  C   UNL A   1      37.647  32.560  31.691  1.00  0.00     0.037 A 
ATOM     28  C   UNL A   1      42.292  30.442  35.759  1.00  0.00     0.049 A 
ATOM     29  C   UNL A   1      38.107  33.011  33.047  1.00  0.00     0.074 A 
ATOM     30  C   UNL A   1      42.660  30.980  36.979  1.00  0.00     0.029 A 
ATOM     31  N   UNL A   1      41.241  31.214  35.284  1.00  0.00    -0.354 N 
ATOM     32  N   UNL A   1      39.071  32.523  33.792  1.00  0.00    -0.248 NA
ATOM     33  C   UNL A   1      37.398  34.148  33.644  1.00  0.00     0.031 C 
ATOM     34  C   UNL A   1      41.807  32.053  37.261  1.00  0.00     0.029 A 
ATOM     35  C   UNL A   1      40.936  32.213  36.195  1.00  0.00     0.049 A 
ATOM     36  H   UNL A   1      40.780  31.074  34.425  1.00  0.00     0.167 HD
ATOM     37  C   UNL A   1      39.094  33.305  34.940  1.00  0.00     0.074 A 
ATOM     38  C   UNL A   1      38.058  34.307  34.784  1.00  0.00     0.031 C 
ATOM     39  C   UNL A   1      39.900  33.202  36.026  1.00  0.00     0.037 A 
BRANCH  26  40
ATOM     40  C   UNL A   1      43.952  28.535  35.758  1.00  0.00     0.058 A 
ATOM     41  C   UNL A   1      43.678  27.466  36.624  1.00  0.00     0.135 A 
ATOM     42  C   UNL A   1      45.300  28.849  35.513  1.00  0.00     0.135 A 
ATOM     43  F   UNL A   1      42.409  27.130  36.905  1.00  0.00    -0.206 F 
ATOM     44  C   UNL A   1      44.699  26.752  37.245  1.00  0.00     0.059 A 
ATOM     45  C   UNL A   1      46.337  28.133  36.105  1.00  0.00     0.059 A 
ATOM     46  F   UNL A   1      45.619  29.861  34.691  1.00  0.00    -0.206 F 
ATOM     47  C   UNL A   1      46.026  27.096  36.982  1.00  0.00     0.060 A 
BRANCH  47  48
ATOM     48  S   UNL A   1      47.339  26.166  37.802  1.00  0.00     0.124 S 
ATOM     49  O   UNL A   1      47.948  25.469  36.673  1.00  0.00    -0.237 OA
ATOM     50  O   UNL A   1      48.147  27.225  38.400  1.00  0.00    -0.237 OA
ATOM     51  O   UNL A   1      46.619  25.320  38.748  1.00  0.00    -0.744 OA
ENDBRANCH  47  48
ENDBRANCH  26  40
BRANCH  27  52
ATOM     52  C   UNL A   1      36.530  33.241  30.988  1.00  0.00     0.058 A 
ATOM     53  C   UNL A   1      35.204  33.079  31.414  1.00  0.00     0.135 A 
ATOM     54  C   UNL A   1      36.773  34.104  29.909  1.00  0.00     0.135 A 
ATOM     55  F   UNL A   1      34.923  32.262  32.439  1.00  0.00    -0.206 F 
ATOM     56  C   UNL A   1      34.156  33.746  30.789  1.00  0.00     0.059 A 
ATOM     57  C   UNL A   1      35.745  34.802  29.286  1.00  0.00     0.059 A 
ATOM     58  F   UNL A   1      38.028  34.306  29.479  1.00  0.00    -0.206 F 
ATOM     59  C   UNL A   1      34.437  34.609  29.729  1.00  0.00     0.060 A 
BRANCH  59  60
ATOM     60  S   UNL A   1      33.077  35.524  28.970  1.00  0.00     0.124 S 
ATOM     61  O   UNL A   1      33.796  36.527  28.195  1.00  0.00    -0.237 OA
ATOM     62  O   UNL A   1      32.399  34.485  28.200  1.00  0.00    -0.237 OA
ATOM     63  O   UNL A   1      32.331  36.028  30.119  1.00  0.00    -0.744 OA
ENDBRANCH  59  60
ENDBRANCH  27  52
BRANCH  39  64
ATOM     64  C   UNL A   1      39.709  34.213  37.119  1.00  0.00     0.058 A 
ATOM     65  C   UNL A   1      38.946  33.926  38.261  1.00  0.00     0.135 A 
ATOM     66  C   UNL A   1      40.329  35.470  37.041  1.00  0.00     0.135 A 
ATOM     67  F   UNL A   1      38.324  32.742  38.379  1.00  0.00    -0.206 F 
ATOM     68  C   UNL A   1      38.786  34.859  39.280  1.00  0.00     0.059 A 
ATOM     69  C   UNL A   1      40.202  36.410  38.059  1.00  0.00     0.059 A 
ATOM     70  F   UNL A   1      41.076  35.790  35.972  1.00  0.00    -0.206 F 
ATOM     71  C   UNL A   1      39.419  36.099  39.170  1.00  0.00     0.060 A 
BRANCH  71  72
ATOM     72  S   UNL A   1      39.230  37.292  40.511  1.00  0.00     0.124 S 
ATOM     73  O   UNL A   1      38.661  36.460  41.566  1.00  0.00    -0.237 OA
ATOM     74  O   UNL A   1      40.603  37.740  40.728  1.00  0.00    -0.237 OA
ATOM     75  O   UNL A   1      38.333  38.296  39.948  1.00  0.00    -0.744 OA
ENDBRANCH  71  72
ENDBRANCH  39  64
ENDBRANCH  13  14
ENDBRANCH   6   8
ENDBRANCH   3   4
ENDBRANCH   2   3
ENDBRANCH   1   2
BRANCH   1  76
ATOM     76  C   UNL A   1      44.957  24.790  29.136  1.00  0.00     0.002 C 
BRANCH  76  77
ATOM     77  C   UNL A   1      45.164  26.239  29.585  1.00  0.00     0.021 C 
BRANCH  77  78
ATOM     78  C   UNL A   1      46.041  27.091  28.670  1.00  0.00     0.116 C 
BRANCH  78  79
ATOM     79  N   UNL A   1      45.261  27.839  27.702  1.00  0.00    -0.352 N 
ATOM     80  C   UNL A   1      45.241  27.706  26.338  1.00  0.00     0.255 C 
ATOM     81  H   UNL A   1      44.668  28.532  28.074  1.00  0.00     0.163 HD
ATOM     82  O   UNL A   1      44.570  28.470  25.648  1.00  0.00    -0.269 OA
BRANCH  80  83
ATOM     83  C   UNL A   1      46.102  26.702  25.680  1.00  0.00     0.082 A 
ATOM     84  C   UNL A   1      45.687  25.363  25.762  1.00  0.00     0.025 A 
ATOM     85  C   UNL A   1      47.293  27.031  25.029  1.00  0.00     0.128 A 
ATOM     86  C   UNL A   1      46.434  24.345  25.160  1.00  0.00    -0.025 A 
ATOM     87  C   UNL A   1      48.041  26.031  24.414  1.00  0.00     0.047 A 
ATOM     88  C   UNL A   1      47.608  24.700  24.475  1.00  0.00     0.012 A 
BRANCH  85  89
ATOM     89  O   UNL A   1      47.729  28.323  24.992  1.00  0.00    -0.507 OA
ATOM     90  H   UNL A   1      47.198  28.987  24.597  1.00  0.00     0.293 HD
ENDBRANCH  85  89
BRANCH  86  91
ATOM     91  C   UNL A   1      46.069  22.917  25.232  1.00  0.00     0.009 C 
ATOM     92  C   UNL A   1      44.833  22.409  25.087  1.00  0.00     0.009 C 
BRANCH  92  93
ATOM     93  C   UNL A   1      44.522  20.980  25.235  1.00  0.00    -0.018 A 
ATOM     94  C   UNL A   1      45.531  20.006  25.211  1.00  0.00     0.054 A 
ATOM     95  C   UNL A   1      43.201  20.590  25.490  1.00  0.00     0.054 A 
ATOM     96  C   UNL A   1      45.210  18.666  25.419  1.00  0.00     0.119 A 
ATOM     97  C   UNL A   1      42.901  19.244  25.694  1.00  0.00     0.119 A 
ATOM     98  C   UNL A   1      43.898  18.277  25.659  1.00  0.00     0.092 A 
BRANCH  96  99
ATOM     99  O   UNL A   1      46.170  17.697  25.406  1.00  0.00    -0.508 OA
ATOM    100  H   UNL A   1      46.746  17.599  26.139  1.00  0.00     0.293 HD
ENDBRANCH  96  99
BRANCH  97 101
ATOM    101  O   UNL A   1      41.624  18.832  25.942  1.00  0.00    -0.508 OA
ATOM    102  H   UNL A   1      41.040  18.661  25.229  1.00  0.00     0.293 HD
ENDBRANCH  97 101
ENDBRANCH  92  93
ENDBRANCH  86  91
ENDBRANCH  80  83
ENDBRANCH  78  79
ENDBRANCH  77  78
ENDBRANCH  76  77
ENDBRANCH   1  76
TORSDOF 21
ENDMDL
MODEL 2
REMARK VINA RESULT:     -10.8      4.484      7.564
REMARK SMILES O=C(NCCCCCCNC(=O)c1cc(/C=C/c2cc(O)cc(O)c2)ccc1O)c1ccc(-c2c3nc(c(-c4c(F)cc(S(=O)(=O)[O-])cc4F)c4ccc([nH]4)c(-c4c(F)cc(S(=O)(=O)[O-])cc4F)c4nc(c(-c5c(F)cc(S(=O)(=O)[O-])cc5F)c5ccc2[nH]5)C=C4)C=C3)cc1
REMARK SMILES IDX 6 1 5 2 4 3 3 4 1 5 2 6 30 8 31 9 95 10 32 11 94 12 33 13
REMARK SMILES IDX 34 14 35 15 88 16 36 17 93 18 87 19 89 20 37 21 92 22 86 23
REMARK SMILES IDX 85 24 38 26 72 27 51 28 71 29 52 30 55 31 70 32 90 33 53 34
REMARK SMILES IDX 54 35 69 37 91 38 56 39 39 40 40 41 49 42 41 43 42 44 48 45
REMARK SMILES IDX 50 46 43 47 44 48 45 49 46 50 47 51 73 52 74 53 83 54 75 55
REMARK SMILES IDX 76 56 82 57 84 58 77 59 78 60 79 61 80 62 81 63 57 64 58 65
REMARK SMILES IDX 67 66 59 67 60 68 66 69 68 70 61 71 62 72 63 73 64 74 65 75
REMARK SMILES IDX 7 76 8 77 9 78 10 79 11 80 12 82 13 83 14 84 28 85 15 86
REMARK SMILES IDX 27 87 26 88 29 89 16 91 17 92 18 93 19 94 25 95 20 96 23 97
REMARK SMILES IDX 22 98 21 99 24 101
REMARK H PARENT 3 7 89 25 55 36 10 81 29 90 21 100 24 102
REMARK Flexibility Score: inf
ROOT
ATOM      1  C   UNL A   1      39.140  22.575  26.226  1.00  0.00     0.002 C 
ENDROOT
BRANCH   1   2
ATOM      2  C   UNL A   1      40.455  22.009  26.762  1.00  0.00     0.021 C 
BRANCH   2   3
ATOM      3  C   UNL A   1      41.509  23.045  27.131  1.00  0.00     0.116 C 
BRANCH   3   4
ATOM      4  N   UNL A   1      41.909  23.865  26.002  1.00  0.00    -0.352 N 
ATOM      5  O   UNL A   1      42.199  25.762  24.819  1.00  0.00    -0.269 OA
ATOM      6  C   UNL A   1      41.981  25.234  25.905  1.00  0.00     0.251 C 
ATOM      7  H   UNL A   1      42.165  23.371  25.189  1.00  0.00     0.163 HD
BRANCH   6   8
ATOM      8  C   UNL A   1      41.770  26.069  27.109  1.00  0.00     0.039 A 
ATOM      9  C   UNL A   1      40.773  25.754  28.035  1.00  0.00     0.014 A 
ATOM     10  C   UNL A   1      42.593  27.181  27.315  1.00  0.00     0.014 A 
ATOM     11  C   UNL A   1      40.515  26.617  29.096  1.00  0.00     0.010 A 
ATOM     12  C   UNL A   1      42.380  28.006  28.423  1.00  0.00     0.010 A 
ATOM     13  C   UNL A   1      41.323  27.746  29.309  1.00  0.00    -0.014 A 
BRANCH  13  14
ATOM     14  C   UNL A   1      41.084  28.607  30.495  1.00  0.00     0.031 A 
ATOM     15  C   UNL A   1      41.929  28.476  31.733  1.00  0.00     0.074 A 
ATOM     16  C   UNL A   1      40.098  29.523  30.442  1.00  0.00     0.049 A 
ATOM     17  N   UNL A   1      41.850  29.143  32.856  1.00  0.00    -0.248 NA
ATOM     18  C   UNL A   1      42.995  27.462  31.711  1.00  0.00     0.031 C 
ATOM     19  C   UNL A   1      39.205  29.731  29.299  1.00  0.00     0.029 A 
ATOM     20  N   UNL A   1      39.683  30.452  31.360  1.00  0.00    -0.354 N 
ATOM     21  C   UNL A   1      42.839  28.622  33.682  1.00  0.00     0.074 A 
ATOM     22  C   UNL A   1      43.492  27.566  32.937  1.00  0.00     0.031 C 
ATOM     23  C   UNL A   1      38.371  30.746  29.570  1.00  0.00     0.029 A 
ATOM     24  C   UNL A   1      38.631  31.223  30.924  1.00  0.00     0.049 A 
ATOM     25  H   UNL A   1      40.098  30.558  32.247  1.00  0.00     0.167 HD
ATOM     26  C   UNL A   1      43.174  28.996  34.942  1.00  0.00     0.037 A 
ATOM     27  C   UNL A   1      37.938  32.193  31.547  1.00  0.00     0.037 A 
ATOM     28  C   UNL A   1      42.525  30.056  35.671  1.00  0.00     0.049 A 
ATOM     29  C   UNL A   1      38.318  32.577  32.949  1.00  0.00     0.074 A 
ATOM     30  C   UNL A   1      42.813  30.531  36.938  1.00  0.00     0.029 A 
ATOM     31  N   UNL A   1      41.453  30.802  35.201  1.00  0.00    -0.354 N 
ATOM     32  N   UNL A   1      39.277  32.093  33.702  1.00  0.00    -0.248 NA
ATOM     33  C   UNL A   1      37.524  33.635  33.585  1.00  0.00     0.031 C 
ATOM     34  C   UNL A   1      41.892  31.537  37.250  1.00  0.00     0.029 A 
ATOM     35  C   UNL A   1      41.057  31.721  36.159  1.00  0.00     0.049 A 
ATOM     36  H   UNL A   1      41.036  30.695  34.316  1.00  0.00     0.167 HD
ATOM     37  C   UNL A   1      39.211  32.797  34.898  1.00  0.00     0.074 A 
ATOM     38  C   UNL A   1      38.128  33.752  34.761  1.00  0.00     0.031 C 
ATOM     39  C   UNL A   1      39.977  32.664  36.008  1.00  0.00     0.037 A 
BRANCH  26  40
ATOM     40  C   UNL A   1      44.285  28.242  35.621  1.00  0.00     0.058 A 
ATOM     41  C   UNL A   1      44.038  27.092  36.386  1.00  0.00     0.135 A 
ATOM     42  C   UNL A   1      45.621  28.655  35.474  1.00  0.00     0.135 A 
ATOM     43  F   UNL A   1      42.780  26.660  36.571  1.00  0.00    -0.206 F 
ATOM     44  C   UNL A   1      45.070  26.393  37.005  1.00  0.00     0.059 A 
ATOM     45  C   UNL A   1      46.671  27.957  36.064  1.00  0.00     0.059 A 
ATOM     46  F   UNL A   1      45.914  29.747  34.751  1.00  0.00    -0.206 F 
ATOM     47  C   UNL A   1      46.384  26.836  36.841  1.00  0.00     0.060 A 
BRANCH  47  48
ATOM     48  S   UNL A   1      47.712  25.923  37.656  1.00  0.00     0.124 S 
ATOM     49  O   UNL A   1      48.881  26.394  36.919  1.00  0.00    -0.237 OA
ATOM     50  O   UNL A   1      47.609  26.386  39.037  1.00  0.00    -0.237 OA
ATOM     51  O   UNL A   1      47.351  24.527  37.436  1.00  0.00    -0.744 OA
ENDBRANCH  47  48
ENDBRANCH  26  40
BRANCH  27  52
ATOM     52  C   UNL A   1      36.815  32.861  30.842  1.00  0.00     0.058 A 
ATOM     53  C   UNL A   1      35.484  32.503  31.101  1.00  0.00     0.135 A 
ATOM     54  C   UNL A   1      37.049  33.902  29.930  1.00  0.00     0.135 A 
ATOM     55  F   UNL A   1      35.212  31.511  31.962  1.00  0.00    -0.206 F 
ATOM     56  C   UNL A   1      34.424  33.150  30.477  1.00  0.00     0.059 A 
ATOM     57  C   UNL A   1      36.004  34.582  29.314  1.00  0.00     0.059 A 
ATOM     58  F   UNL A   1      38.305  34.293  29.664  1.00  0.00    -0.206 F 
ATOM     59  C   UNL A   1      34.694  34.192  29.588  1.00  0.00     0.060 A 
BRANCH  59  60
ATOM     60  S   UNL A   1      33.309  35.073  28.837  1.00  0.00     0.124 S 
ATOM     61  O   UNL A   1      33.996  36.131  28.107  1.00  0.00    -0.237 OA
ATOM     62  O   UNL A   1      32.688  34.033  28.021  1.00  0.00    -0.237 OA
ATOM     63  O   UNL A   1      32.523  35.506  29.988  1.00  0.00    -0.744 OA
ENDBRANCH  59  60
ENDBRANCH  27  52
BRANCH  39  64
ATOM     64  C   UNL A   1      39.686  33.590  37.155  1.00  0.00     0.058 A 
ATOM     65  C   UNL A   1      38.807  33.229  38.187  1.00  0.00     0.135 A 
ATOM     66  C   UNL A   1      40.327  34.836  37.241  1.00  0.00     0.135 A 
ATOM     67  F   UNL A   1      38.162  32.053  38.145  1.00  0.00    -0.206 F 
ATOM     68  C   UNL A   1      38.555  34.083  39.256  1.00  0.00     0.059 A 
ATOM     69  C   UNL A   1      40.108  35.695  38.314  1.00  0.00     0.059 A 
ATOM     70  F   UNL A   1      41.184  35.224  36.283  1.00  0.00    -0.206 F 
ATOM     71  C   UNL A   1      39.211  35.314  39.311  1.00  0.00     0.060 A 
BRANCH  71  72
ATOM     72  S   UNL A   1      38.901  36.401  40.718  1.00  0.00     0.124 S 
ATOM     73  O   UNL A   1      40.209  36.427  41.363  1.00  0.00    -0.237 OA
ATOM     74  O   UNL A   1      38.488  37.643  40.071  1.00  0.00    -0.237 OA
ATOM     75  O   UNL A   1      37.848  35.708  41.456  1.00  0.00    -0.744 OA
ENDBRANCH  71  72
ENDBRANCH  39  64
ENDBRANCH  13  14
ENDBRANCH   6   8
ENDBRANCH   3   4
ENDBRANCH   2   3
ENDBRANCH   1   2
BRANCH   1  76
ATOM     76  C   UNL A   1      38.213  21.566  25.541  1.00  0.00     0.002 C 
BRANCH  76  77
ATOM     77  C   UNL A   1      37.067  22.161  24.717  1.00  0.00     0.021 C 
BRANCH  77  78
ATOM     78  C   UNL A   1      36.277  23.274  25.401  1.00  0.00     0.116 C 
BRANCH  78  79
ATOM     79  N   UNL A   1      35.509  22.787  26.532  1.00  0.00    -0.352 N 
ATOM     80  C   UNL A   1      34.191  22.411  26.569  1.00  0.00     0.255 C 
ATOM     81  H   UNL A   1      35.998  22.716  27.383  1.00  0.00     0.163 HD
ATOM     82  O   UNL A   1      33.667  22.083  27.631  1.00  0.00    -0.269 OA
BRANCH  80  83
ATOM     83  C   UNL A   1      33.365  22.488  25.346  1.00  0.00     0.082 A 
ATOM     84  C   UNL A   1      32.865  23.753  25.002  1.00  0.00     0.025 A 
ATOM     85  C   UNL A   1      33.052  21.371  24.568  1.00  0.00     0.128 A 
ATOM     86  C   UNL A   1      32.081  23.924  23.855  1.00  0.00    -0.025 A 
ATOM     87  C   UNL A   1      32.285  21.527  23.417  1.00  0.00     0.047 A 
ATOM     88  C   UNL A   1      31.811  22.797  23.063  1.00  0.00     0.012 A 
BRANCH  85  89
ATOM     89  O   UNL A   1      33.492  20.130  24.928  1.00  0.00    -0.507 OA
ATOM     90  H   UNL A   1      34.365  19.862  24.716  1.00  0.00     0.293 HD
ENDBRANCH  85  89
BRANCH  86  91
ATOM     91  C   UNL A   1      31.502  25.220  23.452  1.00  0.00     0.009 C 
ATOM     92  C   UNL A   1      30.357  25.752  23.912  1.00  0.00     0.009 C 
BRANCH  92  93
ATOM     93  C   UNL A   1      29.798  27.020  23.421  1.00  0.00    -0.018 A 
ATOM     94  C   UNL A   1      30.600  27.971  22.774  1.00  0.00     0.054 A 
ATOM     95  C   UNL A   1      28.419  27.246  23.527  1.00  0.00     0.054 A 
ATOM     96  C   UNL A   1      30.026  29.134  22.263  1.00  0.00     0.119 A 
ATOM     97  C   UNL A   1      27.866  28.417  23.011  1.00  0.00     0.119 A 
ATOM     98  C   UNL A   1      28.662  29.365  22.379  1.00  0.00     0.092 A 
BRANCH  96  99
ATOM     99  O   UNL A   1      30.781  30.074  21.625  1.00  0.00    -0.508 OA
ATOM    100  H   UNL A   1      31.507  29.810  21.094  1.00  0.00     0.293 HD
ENDBRANCH  96  99
BRANCH  97 101
ATOM    101  O   UNL A   1      26.528  28.668  23.100  1.00  0.00    -0.508 OA
ATOM    102  H   UNL A   1      26.079  29.080  22.388  1.00  0.00     0.293 HD
ENDBRANCH  97 101
ENDBRANCH  92  93
ENDBRANCH  86  91
ENDBRANCH  80  83
ENDBRANCH  78  79
ENDBRANCH  77  78
ENDBRANCH  76  77
ENDBRANCH   1  76
TORSDOF 21
ENDMDL
MODEL 3
REMARK VINA RESULT:     -10.6      6.704     13.448
REMARK SMILES O=C(NCCCCCCNC(=O)c1cc(/C=C/c2cc(O)cc(O)c2)ccc1O)c1ccc(-c2c3nc(c(-c4c(F)cc(S(=O)(=O)[O-])cc4F)c4ccc([nH]4)c(-c4c(F)cc(S(=O)(=O)[O-])cc4F)c4nc(c(-c5c(F)cc(S(=O)(=O)[O-])cc5F)c5ccc2[nH]5)C=C4)C=C3)cc1
REMARK SMILES IDX 6 1 5 2 4 3 3 4 1 5 2 6 30 8 31 9 95 10 32 11 94 12 33 13
REMARK SMILES IDX 34 14 35 15 88 16 36 17 93 18 87 19 89 20 37 21 92 22 86 23
REMARK SMILES IDX 85 24 38 26 72 27 51 28 71 29 52 30 55 31 70 32 90 33 53 34
REMARK SMILES IDX 54 35 69 37 91 38 56 39 39 40 40 41 49 42 41 43 42 44 48 45
REMARK SMILES IDX 50 46 43 47 44 48 45 49 46 50 47 51 73 52 74 53 83 54 75 55
REMARK SMILES IDX 76 56 82 57 84 58 77 59 78 60 79 61 80 62 81 63 57 64 58 65
REMARK SMILES IDX 67 66 59 67 60 68 66 69 68 70 61 71 62 72 63 73 64 74 65 75
REMARK SMILES IDX 7 76 8 77 9 78 10 79 11 80 12 82 13 83 14 84 28 85 15 86
REMARK SMILES IDX 27 87 26 88 29 89 16 91 17 92 18 93 19 94 25 95 20 96 23 97
REMARK SMILES IDX 22 98 21 99 24 101
REMARK H PARENT 3 7 89 25 55 36 10 81 29 90 21 100 24 102
REMARK Flexibility Score: inf
ROOT
ATOM      1  C   UNL A   1      33.633  31.495  27.618  1.00  0.00     0.002 C 
ENDROOT
BRANCH   1   2
ATOM      2  C   UNL A   1      34.679  32.538  28.015  1.00  0.00     0.021 C 
BRANCH   2   3
ATOM      3  C   UNL A   1      35.938  31.983  28.670  1.00  0.00     0.116 C 
BRANCH   3   4
ATOM      4  N   UNL A   1      35.672  31.354  29.952  1.00  0.00    -0.352 N 
ATOM      5  O   UNL A   1      35.986  29.913  31.656  1.00  0.00    -0.269 OA
ATOM      6  C   UNL A   1      36.440  30.456  30.653  1.00  0.00     0.251 C 
ATOM      7  H   UNL A   1      34.821  31.606  30.379  1.00  0.00     0.163 HD
BRANCH   6   8
ATOM      8  C   UNL A   1      37.804  30.127  30.182  1.00  0.00     0.039 A 
ATOM      9  C   UNL A   1      38.089  30.034  28.818  1.00  0.00     0.014 A 
ATOM     10  C   UNL A   1      38.816  29.919  31.126  1.00  0.00     0.014 A 
ATOM     11  C   UNL A   1      39.347  29.609  28.400  1.00  0.00     0.010 A 
ATOM     12  C   UNL A   1      40.099  29.565  30.701  1.00  0.00     0.010 A 
ATOM     13  C   UNL A   1      40.369  29.382  29.336  1.00  0.00    -0.014 A 
BRANCH  13  14
ATOM     14  C   UNL A   1      41.728  29.012  28.864  1.00  0.00     0.031 A 
ATOM     15  C   UNL A   1      42.840  30.023  28.829  1.00  0.00     0.074 A 
ATOM     16  C   UNL A   1      41.954  27.743  28.474  1.00  0.00     0.049 A 
ATOM     17  N   UNL A   1      44.080  29.869  28.440  1.00  0.00    -0.248 NA
ATOM     18  C   UNL A   1      42.520  31.386  29.282  1.00  0.00     0.031 C 
ATOM     19  C   UNL A   1      40.947  26.678  28.453  1.00  0.00     0.029 A 
ATOM     20  N   UNL A   1      43.096  27.128  28.030  1.00  0.00    -0.354 N 
ATOM     21  C   UNL A   1      44.685  31.112  28.582  1.00  0.00     0.074 A 
ATOM     22  C   UNL A   1      43.668  32.018  29.073  1.00  0.00     0.031 C 
ATOM     23  C   UNL A   1      41.523  25.536  28.050  1.00  0.00     0.029 A 
ATOM     24  C   UNL A   1      42.923  25.797  27.733  1.00  0.00     0.049 A 
ATOM     25  H   UNL A   1      43.958  27.594  27.933  1.00  0.00     0.167 HD
ATOM     26  C   UNL A   1      45.971  31.461  28.332  1.00  0.00     0.037 A 
ATOM     27  C   UNL A   1      43.786  24.889  27.241  1.00  0.00     0.037 A 
ATOM     28  C   UNL A   1      46.980  30.549  27.854  1.00  0.00     0.049 A 
ATOM     29  C   UNL A   1      45.200  25.306  26.957  1.00  0.00     0.074 A 
ATOM     30  C   UNL A   1      48.317  30.799  27.602  1.00  0.00     0.029 A 
ATOM     31  N   UNL A   1      46.761  29.213  27.549  1.00  0.00    -0.354 N 
ATOM     32  N   UNL A   1      45.761  26.479  27.126  1.00  0.00    -0.248 NA
ATOM     33  C   UNL A   1      46.098  24.279  26.414  1.00  0.00     0.031 C 
ATOM     34  C   UNL A   1      48.898  29.625  27.109  1.00  0.00     0.029 A 
ATOM     35  C   UNL A   1      47.933  28.631  27.095  1.00  0.00     0.049 A 
ATOM     36  H   UNL A   1      45.899  28.746  27.643  1.00  0.00     0.167 HD
ATOM     37  C   UNL A   1      47.082  26.329  26.724  1.00  0.00     0.074 A 
ATOM     38  C   UNL A   1      47.241  24.946  26.318  1.00  0.00     0.031 C 
ATOM     39  C   UNL A   1      48.074  27.253  26.693  1.00  0.00     0.037 A 
BRANCH  26  40
ATOM     40  C   UNL A   1      46.361  32.897  28.557  1.00  0.00     0.058 A 
ATOM     41  C   UNL A   1      46.801  33.356  29.807  1.00  0.00     0.135 A 
ATOM     42  C   UNL A   1      46.328  33.819  27.496  1.00  0.00     0.135 A 
ATOM     43  F   UNL A   1      46.840  32.523  30.859  1.00  0.00    -0.206 F 
ATOM     44  C   UNL A   1      47.169  34.684  30.007  1.00  0.00     0.059 A 
ATOM     45  C   UNL A   1      46.714  35.146  27.667  1.00  0.00     0.059 A 
ATOM     46  F   UNL A   1      45.918  33.433  26.278  1.00  0.00    -0.206 F 
ATOM     47  C   UNL A   1      47.119  35.572  28.931  1.00  0.00     0.060 A 
BRANCH  47  48
ATOM     48  S   UNL A   1      47.593  37.293  29.208  1.00  0.00     0.124 S 
ATOM     49  O   UNL A   1      48.326  37.192  30.466  1.00  0.00    -0.237 OA
ATOM     50  O   UNL A   1      48.400  37.589  28.028  1.00  0.00    -0.237 OA
ATOM     51  O   UNL A   1      46.313  37.991  29.280  1.00  0.00    -0.744 OA
ENDBRANCH  47  48
ENDBRANCH  26  40
BRANCH  27  52
ATOM     52  C   UNL A   1      43.324  23.500  26.988  1.00  0.00     0.058 A 
ATOM     53  C   UNL A   1      43.110  23.037  25.683  1.00  0.00     0.135 A 
ATOM     54  C   UNL A   1      43.135  22.597  28.045  1.00  0.00     0.135 A 
ATOM     55  F   UNL A   1      43.274  23.866  24.641  1.00  0.00    -0.206 F 
ATOM     56  C   UNL A   1      42.718  21.726  25.433  1.00  0.00     0.059 A 
ATOM     57  C   UNL A   1      42.769  21.274  27.819  1.00  0.00     0.059 A 
ATOM     58  F   UNL A   1      43.347  22.989  29.311  1.00  0.00    -0.206 F 
ATOM     59  C   UNL A   1      42.555  20.851  26.508  1.00  0.00     0.060 A 
BRANCH  59  60
ATOM     60  S   UNL A   1      42.115  19.133  26.170  1.00  0.00     0.124 S 
ATOM     61  O   UNL A   1      40.690  19.247  25.885  1.00  0.00    -0.237 OA
ATOM     62  O   UNL A   1      42.971  18.814  25.031  1.00  0.00    -0.237 OA
ATOM     63  O   UNL A   1      42.459  18.448  27.412  1.00  0.00    -0.744 OA
ENDBRANCH  59  60
ENDBRANCH  27  52
BRANCH  39  64
ATOM     64  C   UNL A   1      49.425  26.792  26.226  1.00  0.00     0.058 A 
ATOM     65  C   UNL A   1      49.850  26.982  24.903  1.00  0.00     0.135 A 
ATOM     66  C   UNL A   1      50.319  26.187  27.124  1.00  0.00     0.135 A 
ATOM     67  F   UNL A   1      49.029  27.546  24.004  1.00  0.00    -0.206 F 
ATOM     68  C   UNL A   1      51.110  26.570  24.480  1.00  0.00     0.059 A 
ATOM     69  C   UNL A   1      51.592  25.788  26.728  1.00  0.00     0.059 A 
ATOM     70  F   UNL A   1      49.962  25.989  28.404  1.00  0.00    -0.206 F 
ATOM     71  C   UNL A   1      51.974  25.974  25.400  1.00  0.00     0.060 A 
BRANCH  71  72
ATOM     72  S   UNL A   1      53.616  25.470  24.849  1.00  0.00     0.124 S 
ATOM     73  O   UNL A   1      53.599  24.041  25.141  1.00  0.00    -0.237 OA
ATOM     74  O   UNL A   1      53.596  25.828  23.433  1.00  0.00    -0.237 OA
ATOM     75  O   UNL A   1      54.513  26.271  25.677  1.00  0.00    -0.744 OA
ENDBRANCH  71  72
ENDBRANCH  39  64
ENDBRANCH  13  14
ENDBRANCH   6   8
ENDBRANCH   3   4
ENDBRANCH   2   3
ENDBRANCH   1   2
BRANCH   1  76
ATOM     76  C   UNL A   1      34.185  30.194  27.029  1.00  0.00     0.002 C 
BRANCH  76  77
ATOM     77  C   UNL A   1      33.392  29.599  25.861  1.00  0.00     0.021 C 
BRANCH  77  78
ATOM     78  C   UNL A   1      33.815  28.198  25.427  1.00  0.00     0.116 C 
BRANCH  78  79
ATOM     79  N   UNL A   1      34.163  28.140  24.020  1.00  0.00    -0.352 N 
ATOM     80  C   UNL A   1      33.505  27.497  23.004  1.00  0.00     0.255 C 
ATOM     81  H   UNL A   1      34.978  28.627  23.760  1.00  0.00     0.163 HD
ATOM     82  O   UNL A   1      33.971  27.487  21.868  1.00  0.00    -0.269 OA
BRANCH  80  83
ATOM     83  C   UNL A   1      32.276  26.728  23.290  1.00  0.00     0.082 A 
ATOM     84  C   UNL A   1      32.426  25.347  23.490  1.00  0.00     0.025 A 
ATOM     85  C   UNL A   1      31.007  27.311  23.332  1.00  0.00     0.128 A 
ATOM     86  C   UNL A   1      31.319  24.541  23.776  1.00  0.00    -0.025 A 
ATOM     87  C   UNL A   1      29.897  26.525  23.628  1.00  0.00     0.047 A 
ATOM     88  C   UNL A   1      30.057  25.152  23.855  1.00  0.00     0.012 A 
BRANCH  85  89
ATOM     89  O   UNL A   1      30.848  28.644  23.085  1.00  0.00    -0.507 OA
ATOM     90  H   UNL A   1      30.008  29.045  23.197  1.00  0.00     0.293 HD
ENDBRANCH  85  89
BRANCH  86  91
ATOM     91  C   UNL A   1      31.405  23.081  23.970  1.00  0.00     0.009 C 
ATOM     92  C   UNL A   1      32.517  22.334  23.865  1.00  0.00     0.009 C 
BRANCH  92  93
ATOM     93  C   UNL A   1      32.525  20.870  24.006  1.00  0.00    -0.018 A 
ATOM     94  C   UNL A   1      32.708  20.257  25.254  1.00  0.00     0.054 A 
ATOM     95  C   UNL A   1      32.260  20.074  22.884  1.00  0.00     0.054 A 
ATOM     96  C   UNL A   1      32.646  18.869  25.363  1.00  0.00     0.119 A 
ATOM     97  C   UNL A   1      32.204  18.687  23.015  1.00  0.00     0.119 A 
ATOM     98  C   UNL A   1      32.396  18.078  24.249  1.00  0.00     0.092 A 
BRANCH  96  99
ATOM     99  O   UNL A   1      32.816  18.245  26.564  1.00  0.00    -0.508 OA
ATOM    100  H   UNL A   1      32.254  17.534  26.806  1.00  0.00     0.293 HD
ENDBRANCH  96  99
BRANCH  97 101
ATOM    101  O   UNL A   1      31.950  17.883  21.942  1.00  0.00    -0.508 OA
ATOM    102  H   UNL A   1      32.649  17.412  21.533  1.00  0.00     0.293 HD
ENDBRANCH  97 101
ENDBRANCH  92  93
ENDBRANCH  86  91
ENDBRANCH  80  83
ENDBRANCH  78  79
ENDBRANCH  77  78
ENDBRANCH  76  77
ENDBRANCH   1  76
TORSDOF 21
ENDMDL
