MODEL 1
REMARK VINA RESULT:     -12.5      0.000      0.000
REMARK SMILES COC(=O)c1ccc(C)c2c1[C@H]1C=CC[C@H]1[C@@H](c1ccc(C(=O)NCCCCCCNC(=O)c3ccc(-c4c5nc(c(-c6c(F)cc(S(=O)(=O)[O-])cc6F)c6ccc([nH]6)c(-c6c(F)cc(S(=O)(=O)[O-])cc6F)c6nc(c(-c7c(F)cc(S(=O)(=O)[O-])cc7F)c7ccc4[nH]7)C=C6)C=C5)cc3)cc1)N2
REMARK SMILES IDX 27 1 26 2 25 3 24 4 22 5 23 6 21 8 18 9 19 10 101 11 20 12
REMARK SMILES IDX 100 13 17 14 5 15 6 16 11 17 7 18 10 19 12 20 8 21 102 22
REMARK SMILES IDX 13 23 16 24 9 25 14 27 15 28 3 29 4 30 2 31 1 32 28 33 29 34
REMARK SMILES IDX 30 35 31 36 32 37 33 39 34 40 35 41 99 42 36 43 98 44 37 45
REMARK SMILES IDX 38 46 39 47 92 48 40 49 97 50 91 51 93 52 41 53 96 54 90 55
REMARK SMILES IDX 89 56 42 58 76 59 55 60 75 61 56 62 59 63 74 64 94 65 57 66
REMARK SMILES IDX 58 67 73 69 95 70 60 71 43 72 44 73 53 74 45 75 46 76 52 77
REMARK SMILES IDX 54 78 47 79 48 80 49 81 50 82 51 83 77 84 78 85 87 86 79 87
REMARK SMILES IDX 80 88 86 89 88 90 81 91 82 92 83 93 84 94 85 95 61 96 62 97
REMARK SMILES IDX 71 98 63 99 64 100 70 101 72 102 65 103 66 104 67 105 68 106
REMARK SMILES IDX 69 107
REMARK H PARENT 24 7 102 26 31 38 93 57 59 68
REMARK Flexibility Score: inf
ROOT
ATOM      1  C   UNL A   1      40.250  21.199  26.135  1.00  0.00     0.002 C 
ENDROOT
BRANCH   1   2
ATOM      2  C   UNL A   1      38.757  21.073  25.801  1.00  0.00     0.021 C 
BRANCH   2   3
ATOM      3  C   UNL A   1      38.068  22.437  25.739  1.00  0.00     0.116 C 
BRANCH   3   4
ATOM      4  N   UNL A   1      37.618  22.675  24.389  1.00  0.00    -0.352 N 
ATOM      5  C   UNL A   1      36.415  23.061  23.874  1.00  0.00     0.251 C 
ATOM      6  O   UNL A   1      36.324  23.090  22.644  1.00  0.00    -0.269 OA
ATOM      7  H   UNL A   1      38.314  22.532  23.707  1.00  0.00     0.163 HD
BRANCH   5   8
ATOM      8  C   UNL A   1      35.250  23.482  24.702  1.00  0.00     0.039 A 
ATOM      9  C   UNL A   1      33.021  24.533  26.127  1.00  0.00    -0.025 A 
ATOM     10  C   UNL A   1      33.815  25.343  25.303  1.00  0.00     0.006 A 
ATOM     11  C   UNL A   1      33.399  23.192  26.260  1.00  0.00     0.006 A 
ATOM     12  C   UNL A   1      34.909  24.832  24.609  1.00  0.00     0.014 A 
ATOM     13  C   UNL A   1      34.464  22.665  25.517  1.00  0.00     0.014 A 
BRANCH   9  14
ATOM     14  C   UNL A   1      31.709  25.001  26.765  1.00  0.00     0.114 C 
ATOM     15  C   UNL A   1      30.885  28.159  24.037  1.00  0.00     0.065 A 
ATOM     16  C   UNL A   1      31.571  29.365  24.211  1.00  0.00     0.016 A 
ATOM     17  C   UNL A   1      30.933  27.152  25.025  1.00  0.00    -0.003 A 
ATOM     18  C   UNL A   1      32.286  29.595  25.382  1.00  0.00     0.006 A 
ATOM     19  C   UNL A   1      31.636  27.406  26.233  1.00  0.00     0.042 A 
ATOM     20  C   UNL A   1      30.279  25.800  24.794  1.00  0.00     0.050 C 
ATOM     21  C   UNL A   1      32.327  28.630  26.401  1.00  0.00    -0.028 A 
ATOM     22  N   UNL A   1      31.780  26.393  27.173  1.00  0.00    -0.377 N 
ATOM     23  C   UNL A   1      30.828  24.984  23.644  1.00  0.00    -0.023 C 
ATOM     24  C   UNL A   1      30.410  24.792  25.955  1.00  0.00     0.031 C 
ATOM     25  C   UNL A   1      33.177  28.953  27.604  1.00  0.00     0.046 C 
ATOM     26  H   UNL A   1      31.931  26.621  28.119  1.00  0.00     0.161 HD
ATOM     27  C   UNL A   1      30.819  23.672  23.915  1.00  0.00    -0.030 C 
ATOM     28  C   UNL A   1      30.290  23.411  25.288  1.00  0.00     0.034 C 
BRANCH  15  29
ATOM     29  C   UNL A   1      30.089  27.985  22.798  1.00  0.00     0.338 C 
ATOM     30  O   UNL A   1      30.558  27.704  21.711  1.00  0.00    -0.246 OA
BRANCH  29  31
ATOM     31  O   UNL A   1      28.780  28.226  23.073  1.00  0.00    -0.465 OA
ATOM     32  C   UNL A   1      28.234  29.316  22.330  1.00  0.00     0.282 C 
ENDBRANCH  29  31
ENDBRANCH  15  29
ENDBRANCH   9  14
ENDBRANCH   5   8
ENDBRANCH   3   4
ENDBRANCH   2   3
ENDBRANCH   1   2
BRANCH   1  33
ATOM     33  C   UNL A   1      40.547  22.133  27.318  1.00  0.00     0.002 C 
BRANCH  33  34
ATOM     34  C   UNL A   1      41.980  22.027  27.843  1.00  0.00     0.021 C 
BRANCH  34  35
ATOM     35  C   UNL A   1      42.694  23.371  27.872  1.00  0.00     0.116 C 
BRANCH  35  36
ATOM     36  N   UNL A   1      42.535  24.063  26.601  1.00  0.00    -0.352 N 
ATOM     37  C   UNL A   1      41.921  25.267  26.377  1.00  0.00     0.251 C 
ATOM     38  H   UNL A   1      42.912  23.612  25.811  1.00  0.00     0.163 HD
ATOM     39  O   UNL A   1      41.581  25.606  25.249  1.00  0.00    -0.269 OA
BRANCH  37  40
ATOM     40  C   UNL A   1      41.681  26.140  27.538  1.00  0.00     0.039 A 
ATOM     41  C   UNL A   1      42.564  27.184  27.809  1.00  0.00     0.014 A 
ATOM     42  C   UNL A   1      40.531  25.944  28.313  1.00  0.00     0.014 A 
ATOM     43  C   UNL A   1      42.275  28.058  28.854  1.00  0.00     0.010 A 
ATOM     44  C   UNL A   1      40.209  26.859  29.303  1.00  0.00     0.010 A 
ATOM     45  C   UNL A   1      41.092  27.907  29.598  1.00  0.00    -0.014 A 
BRANCH  45  46
ATOM     46  C   UNL A   1      40.811  28.798  30.746  1.00  0.00     0.031 A 
ATOM     47  C   UNL A   1      41.618  28.643  32.004  1.00  0.00     0.074 A 
ATOM     48  C   UNL A   1      39.841  29.728  30.658  1.00  0.00     0.049 A 
ATOM     49  N   UNL A   1      41.566  29.344  33.105  1.00  0.00    -0.248 NA
ATOM     50  C   UNL A   1      42.603  27.545  32.041  1.00  0.00     0.031 C 
ATOM     51  C   UNL A   1      38.965  29.929  29.502  1.00  0.00     0.029 A 
ATOM     52  N   UNL A   1      39.429  30.680  31.556  1.00  0.00    -0.354 N 
ATOM     53  C   UNL A   1      42.510  28.782  33.953  1.00  0.00     0.074 A 
ATOM     54  C   UNL A   1      43.072  27.638  33.275  1.00  0.00     0.031 C 
ATOM     55  C   UNL A   1      38.137  30.957  29.753  1.00  0.00     0.029 A 
ATOM     56  C   UNL A   1      38.407  31.474  31.093  1.00  0.00     0.049 A 
ATOM     57  H   UNL A   1      39.830  30.785  32.449  1.00  0.00     0.167 HD
ATOM     58  C   UNL A   1      42.900  29.207  35.175  1.00  0.00     0.037 A 
ATOM     59  C   UNL A   1      37.765  32.501  31.683  1.00  0.00     0.037 A 
ATOM     60  C   UNL A   1      42.356  30.366  35.828  1.00  0.00     0.049 A 
ATOM     61  C   UNL A   1      38.203  32.940  33.057  1.00  0.00     0.074 A 
ATOM     62  C   UNL A   1      42.734  30.923  37.035  1.00  0.00     0.029 A 
ATOM     63  N   UNL A   1      41.317  31.138  35.332  1.00  0.00    -0.354 N 
ATOM     64  N   UNL A   1      39.172  32.462  33.804  1.00  0.00    -0.248 NA
ATOM     65  C   UNL A   1      37.471  34.058  33.671  1.00  0.00     0.031 C 
ATOM     66  C   UNL A   1      41.882  31.997  37.300  1.00  0.00     0.029 A 
ATOM     67  C   UNL A   1      41.011  32.144  36.231  1.00  0.00     0.049 A 
ATOM     68  H   UNL A   1      40.864  30.993  34.470  1.00  0.00     0.167 HD
ATOM     69  C   UNL A   1      39.173  33.229  34.964  1.00  0.00     0.074 A 
ATOM     70  C   UNL A   1      38.125  34.216  34.813  1.00  0.00     0.031 C 
ATOM     71  C   UNL A   1      39.967  33.123  36.058  1.00  0.00     0.037 A 
BRANCH  58  72
ATOM     72  C   UNL A   1      43.980  28.440  35.881  1.00  0.00     0.058 A 
ATOM     73  C   UNL A   1      45.335  28.772  35.725  1.00  0.00     0.135 A 
ATOM     74  C   UNL A   1      43.653  27.421  36.790  1.00  0.00     0.135 A 
ATOM     75  F   UNL A   1      45.702  29.723  34.851  1.00  0.00    -0.206 F 
ATOM     76  C   UNL A   1      46.329  28.121  36.446  1.00  0.00     0.059 A 
ATOM     77  C   UNL A   1      44.629  26.775  37.542  1.00  0.00     0.059 A 
ATOM     78  F   UNL A   1      42.372  27.060  36.968  1.00  0.00    -0.206 F 
ATOM     79  C   UNL A   1      45.965  27.133  37.361  1.00  0.00     0.060 A 
BRANCH  79  80
ATOM     80  S   UNL A   1      47.266  26.341  38.328  1.00  0.00     0.124 S 
ATOM     81  O   UNL A   1      47.218  24.973  37.819  1.00  0.00    -0.237 OA
ATOM     82  O   UNL A   1      48.444  27.117  37.951  1.00  0.00    -0.237 OA
ATOM     83  O   UNL A   1      46.820  26.511  39.706  1.00  0.00    -0.744 OA
ENDBRANCH  79  80
ENDBRANCH  58  72
BRANCH  59  84
ATOM     84  C   UNL A   1      36.653  33.193  30.976  1.00  0.00     0.058 A 
ATOM     85  C   UNL A   1      36.901  34.063  29.904  1.00  0.00     0.135 A 
ATOM     86  C   UNL A   1      35.316  32.996  31.360  1.00  0.00     0.135 A 
ATOM     87  F   UNL A   1      38.161  34.291  29.502  1.00  0.00    -0.206 F 
ATOM     88  C   UNL A   1      35.868  34.728  29.250  1.00  0.00     0.059 A 
ATOM     89  C   UNL A   1      34.264  33.629  30.704  1.00  0.00     0.059 A 
ATOM     90  F   UNL A   1      35.021  32.163  32.369  1.00  0.00    -0.206 F 
ATOM     91  C   UNL A   1      34.551  34.502  29.656  1.00  0.00     0.060 A 
BRANCH  91  92
ATOM     92  S   UNL A   1      33.217  35.345  28.778  1.00  0.00     0.124 S 
ATOM     93  O   UNL A   1      32.612  34.245  28.035  1.00  0.00    -0.237 OA
ATOM     94  O   UNL A   1      32.425  35.887  29.878  1.00  0.00    -0.237 OA
ATOM     95  O   UNL A   1      33.921  36.339  27.972  1.00  0.00    -0.744 OA
ENDBRANCH  91  92
ENDBRANCH  59  84
BRANCH  71  96
ATOM     96  C   UNL A   1      39.745  34.084  37.191  1.00  0.00     0.058 A 
ATOM     97  C   UNL A   1      38.994  33.717  38.317  1.00  0.00     0.135 A 
ATOM     98  C   UNL A   1      40.399  35.326  37.212  1.00  0.00     0.135 A 
ATOM     99  F   UNL A   1      38.344  32.542  38.343  1.00  0.00    -0.206 F 
ATOM    100  C   UNL A   1      38.903  34.547  39.429  1.00  0.00     0.059 A 
ATOM    101  C   UNL A   1      40.345  36.160  38.325  1.00  0.00     0.059 A 
ATOM    102  F   UNL A   1      41.140  35.719  36.163  1.00  0.00    -0.206 F 
ATOM    103  C   UNL A   1      39.596  35.760  39.430  1.00  0.00     0.060 A 
BRANCH 103 104
ATOM    104  S   UNL A   1      39.535  36.780  40.917  1.00  0.00     0.124 S 
ATOM    105  O   UNL A   1      40.889  36.622  41.439  1.00  0.00    -0.237 OA
ATOM    106  O   UNL A   1      39.213  38.096  40.375  1.00  0.00    -0.237 OA
ATOM    107  O   UNL A   1      38.480  36.160  41.713  1.00  0.00    -0.744 OA
ENDBRANCH 103 104
ENDBRANCH  71  96
ENDBRANCH  45  46
ENDBRANCH  37  40
ENDBRANCH  35  36
ENDBRANCH  34  35
ENDBRANCH  33  34
ENDBRANCH   1  33
TORSDOF 19
ENDMDL
MODEL 2
REMARK VINA RESULT:     -11.9      6.238     10.508
REMARK SMILES COC(=O)c1ccc(C)c2c1[C@H]1C=CC[C@H]1[C@@H](c1ccc(C(=O)NCCCCCCNC(=O)c3ccc(-c4c5nc(c(-c6c(F)cc(S(=O)(=O)[O-])cc6F)c6ccc([nH]6)c(-c6c(F)cc(S(=O)(=O)[O-])cc6F)c6nc(c(-c7c(F)cc(S(=O)(=O)[O-])cc7F)c7ccc4[nH]7)C=C6)C=C5)cc3)cc1)N2
REMARK SMILES IDX 27 1 26 2 25 3 24 4 22 5 23 6 21 8 18 9 19 10 101 11 20 12
REMARK SMILES IDX 100 13 17 14 5 15 6 16 11 17 7 18 10 19 12 20 8 21 102 22
REMARK SMILES IDX 13 23 16 24 9 25 14 27 15 28 3 29 4 30 2 31 1 32 28 33 29 34
REMARK SMILES IDX 30 35 31 36 32 37 33 39 34 40 35 41 99 42 36 43 98 44 37 45
REMARK SMILES IDX 38 46 39 47 92 48 40 49 97 50 91 51 93 52 41 53 96 54 90 55
REMARK SMILES IDX 89 56 42 58 76 59 55 60 75 61 56 62 59 63 74 64 94 65 57 66
REMARK SMILES IDX 58 67 73 69 95 70 60 71 43 72 44 73 53 74 45 75 46 76 52 77
REMARK SMILES IDX 54 78 47 79 48 80 49 81 50 82 51 83 77 84 78 85 87 86 79 87
REMARK SMILES IDX 80 88 86 89 88 90 81 91 82 92 83 93 84 94 85 95 61 96 62 97
REMARK SMILES IDX 71 98 63 99 64 100 70 101 72 102 65 103 66 104 67 105 68 106
REMARK SMILES IDX 69 107
REMARK H PARENT 24 7 102 26 31 38 93 57 59 68
REMARK Flexibility Score: inf
ROOT
ATOM      1  C   UNL A   1      39.763  22.088  26.859  1.00  0.00     0.002 C 
ENDROOT
BRANCH   1   2
ATOM      2  C   UNL A   1      39.722  23.594  27.156  1.00  0.00     0.021 C 
BRANCH   2   3
ATOM      3  C   UNL A   1      38.443  24.245  26.626  1.00  0.00     0.116 C 
BRANCH   3   4
ATOM      4  N   UNL A   1      38.102  23.648  25.358  1.00  0.00    -0.352 N 
ATOM      5  C   UNL A   1      36.907  23.327  24.784  1.00  0.00     0.251 C 
ATOM      6  O   UNL A   1      36.955  22.733  23.704  1.00  0.00    -0.269 OA
ATOM      7  H   UNL A   1      38.883  23.431  24.798  1.00  0.00     0.163 HD
BRANCH   5   8
ATOM      8  C   UNL A   1      35.581  23.689  25.359  1.00  0.00     0.039 A 
ATOM      9  C   UNL A   1      33.044  24.604  26.271  1.00  0.00    -0.025 A 
ATOM     10  C   UNL A   1      33.872  25.407  25.474  1.00  0.00     0.006 A 
ATOM     11  C   UNL A   1      33.538  23.347  26.641  1.00  0.00     0.006 A 
ATOM     12  C   UNL A   1      35.117  24.963  25.032  1.00  0.00     0.014 A 
ATOM     13  C   UNL A   1      34.762  22.878  26.149  1.00  0.00     0.014 A 
BRANCH   9  14
ATOM     14  C   UNL A   1      31.601  24.970  26.632  1.00  0.00     0.114 C 
ATOM     15  C   UNL A   1      31.076  28.013  23.707  1.00  0.00     0.065 A 
ATOM     16  C   UNL A   1      31.619  29.274  23.975  1.00  0.00     0.016 A 
ATOM     17  C   UNL A   1      31.011  27.027  24.714  1.00  0.00    -0.003 A 
ATOM     18  C   UNL A   1      32.074  29.578  25.254  1.00  0.00     0.006 A 
ATOM     19  C   UNL A   1      31.444  27.354  26.027  1.00  0.00     0.042 A 
ATOM     20  C   UNL A   1      30.522  25.623  24.401  1.00  0.00     0.050 C 
ATOM     21  C   UNL A   1      31.991  28.633  26.288  1.00  0.00    -0.028 A 
ATOM     22  N   UNL A   1      31.483  26.369  27.005  1.00  0.00    -0.377 N 
ATOM     23  C   UNL A   1      31.345  24.840  23.401  1.00  0.00    -0.023 C 
ATOM     24  C   UNL A   1      30.504  24.644  25.594  1.00  0.00     0.031 C 
ATOM     25  C   UNL A   1      32.565  29.040  27.623  1.00  0.00     0.046 C 
ATOM     26  H   UNL A   1      31.429  26.620  27.956  1.00  0.00     0.161 HD
ATOM     27  C   UNL A   1      31.387  23.536  23.703  1.00  0.00    -0.030 C 
ATOM     28  C   UNL A   1      30.624  23.250  24.956  1.00  0.00     0.034 C 
BRANCH  15  29
ATOM     29  C   UNL A   1      30.551  27.759  22.343  1.00  0.00     0.338 C 
ATOM     30  O   UNL A   1      31.016  26.947  21.566  1.00  0.00    -0.246 OA
BRANCH  29  31
ATOM     31  O   UNL A   1      29.509  28.598  22.105  1.00  0.00    -0.465 OA
ATOM     32  C   UNL A   1      28.359  28.317  22.903  1.00  0.00     0.282 C 
ENDBRANCH  29  31
ENDBRANCH  15  29
ENDBRANCH   9  14
ENDBRANCH   5   8
ENDBRANCH   3   4
ENDBRANCH   2   3
ENDBRANCH   1   2
BRANCH   1  33
ATOM     33  C   UNL A   1      41.047  21.626  26.155  1.00  0.00     0.002 C 
BRANCH  33  34
ATOM     34  C   UNL A   1      41.214  20.106  26.111  1.00  0.00     0.021 C 
BRANCH  34  35
ATOM     35  C   UNL A   1      42.575  19.651  26.620  1.00  0.00     0.116 C 
BRANCH  35  36
ATOM     36  N   UNL A   1      43.370  19.100  25.532  1.00  0.00    -0.352 N 
ATOM     37  C   UNL A   1      44.146  19.785  24.634  1.00  0.00     0.251 C 
ATOM     38  H   UNL A   1      43.347  18.121  25.429  1.00  0.00     0.163 HD
ATOM     39  O   UNL A   1      44.523  19.263  23.592  1.00  0.00    -0.269 OA
BRANCH  37  40
ATOM     40  C   UNL A   1      44.509  21.173  24.963  1.00  0.00     0.039 A 
ATOM     41  C   UNL A   1      44.193  22.198  24.072  1.00  0.00     0.014 A 
ATOM     42  C   UNL A   1      45.108  21.447  26.199  1.00  0.00     0.014 A 
ATOM     43  C   UNL A   1      44.458  23.516  24.437  1.00  0.00     0.010 A 
ATOM     44  C   UNL A   1      45.301  22.764  26.590  1.00  0.00     0.010 A 
ATOM     45  C   UNL A   1      45.002  23.806  25.701  1.00  0.00    -0.014 A 
BRANCH  45  46
ATOM     46  C   UNL A   1      45.339  25.199  26.068  1.00  0.00     0.031 A 
ATOM     47  C   UNL A   1      44.259  26.091  26.614  1.00  0.00     0.074 A 
ATOM     48  C   UNL A   1      46.596  25.656  25.907  1.00  0.00     0.049 A 
ATOM     49  N   UNL A   1      44.348  27.324  27.036  1.00  0.00    -0.248 NA
ATOM     50  C   UNL A   1      42.895  25.534  26.678  1.00  0.00     0.031 C 
ATOM     51  C   UNL A   1      47.707  24.889  25.339  1.00  0.00     0.029 A 
ATOM     52  N   UNL A   1      47.151  26.873  26.208  1.00  0.00    -0.354 N 
ATOM     53  C   UNL A   1      43.063  27.682  27.422  1.00  0.00     0.074 A 
ATOM     54  C   UNL A   1      42.196  26.568  27.119  1.00  0.00     0.031 C 
ATOM     55  C   UNL A   1      48.816  25.648  25.356  1.00  0.00     0.029 A 
ATOM     56  C   UNL A   1      48.492  26.958  25.914  1.00  0.00     0.049 A 
ATOM     57  H   UNL A   1      46.638  27.616  26.598  1.00  0.00     0.167 HD
ATOM     58  C   UNL A   1      42.653  28.826  28.013  1.00  0.00     0.037 A 
ATOM     59  C   UNL A   1      49.357  27.978  26.080  1.00  0.00     0.037 A 
ATOM     60  C   UNL A   1      43.530  29.915  28.339  1.00  0.00     0.049 A 
ATOM     61  C   UNL A   1      48.867  29.252  26.719  1.00  0.00     0.074 A 
ATOM     62  C   UNL A   1      43.226  31.088  29.004  1.00  0.00     0.029 A 
ATOM     63  N   UNL A   1      44.878  29.969  28.018  1.00  0.00    -0.354 N 
ATOM     64  N   UNL A   1      47.670  29.536  27.176  1.00  0.00    -0.248 NA
ATOM     65  C   UNL A   1      49.840  30.344  26.873  1.00  0.00     0.031 C 
ATOM     66  C   UNL A   1      44.376  31.879  29.032  1.00  0.00     0.029 A 
ATOM     67  C   UNL A   1      45.411  31.175  28.435  1.00  0.00     0.049 A 
ATOM     68  H   UNL A   1      45.381  29.256  27.562  1.00  0.00     0.167 HD
ATOM     69  C   UNL A   1      47.750  30.828  27.683  1.00  0.00     0.074 A 
ATOM     70  C   UNL A   1      49.118  31.264  27.498  1.00  0.00     0.031 C 
ATOM     71  C   UNL A   1      46.779  31.588  28.246  1.00  0.00     0.037 A 
BRANCH  58  72
ATOM     72  C   UNL A   1      41.201  28.955  28.372  1.00  0.00     0.058 A 
ATOM     73  C   UNL A   1      40.768  28.885  29.705  1.00  0.00     0.135 A 
ATOM     74  C   UNL A   1      40.245  29.240  27.384  1.00  0.00     0.135 A 
ATOM     75  F   UNL A   1      41.638  28.592  30.685  1.00  0.00    -0.206 F 
ATOM     76  C   UNL A   1      39.437  29.093  30.048  1.00  0.00     0.059 A 
ATOM     77  C   UNL A   1      38.913  29.479  27.707  1.00  0.00     0.059 A 
ATOM     78  F   UNL A   1      40.607  29.308  26.094  1.00  0.00    -0.206 F 
ATOM     79  C   UNL A   1      38.519  29.402  29.043  1.00  0.00     0.060 A 
BRANCH  79  80
ATOM     80  S   UNL A   1      36.809  29.726  29.516  1.00  0.00     0.124 S 
ATOM     81  O   UNL A   1      36.701  28.968  30.759  1.00  0.00    -0.237 OA
ATOM     82  O   UNL A   1      36.798  31.179  29.656  1.00  0.00    -0.237 OA
ATOM     83  O   UNL A   1      36.038  29.200  28.395  1.00  0.00    -0.744 OA
ENDBRANCH  79  80
ENDBRANCH  58  72
BRANCH  59  84
ATOM     84  C   UNL A   1      50.775  27.833  25.648  1.00  0.00     0.058 A 
ATOM     85  C   UNL A   1      51.148  28.003  24.307  1.00  0.00     0.135 A 
ATOM     86  C   UNL A   1      51.786  27.523  26.572  1.00  0.00     0.135 A 
ATOM     87  F   UNL A   1      50.220  28.295  23.383  1.00  0.00    -0.206 F 
ATOM     88  C   UNL A   1      52.468  27.852  23.892  1.00  0.00     0.059 A 
ATOM     89  C   UNL A   1      53.117  27.394  26.186  1.00  0.00     0.059 A 
ATOM     90  F   UNL A   1      51.487  27.365  27.870  1.00  0.00    -0.206 F 
ATOM     91  C   UNL A   1      53.447  27.550  24.841  1.00  0.00     0.060 A 
BRANCH  91  92
ATOM     92  S   UNL A   1      55.161  27.389  24.296  1.00  0.00     0.124 S 
ATOM     93  O   UNL A   1      55.844  28.313  25.194  1.00  0.00    -0.237 OA
ATOM     94  O   UNL A   1      55.419  25.970  24.521  1.00  0.00    -0.237 OA
ATOM     95  O   UNL A   1      55.107  27.794  22.894  1.00  0.00    -0.744 OA
ENDBRANCH  91  92
ENDBRANCH  59  84
BRANCH  71  96
ATOM     96  C   UNL A   1      47.138  32.973  28.703  1.00  0.00     0.058 A 
ATOM     97  C   UNL A   1      46.982  34.080  27.856  1.00  0.00     0.135 A 
ATOM     98  C   UNL A   1      47.510  33.212  30.036  1.00  0.00     0.135 A 
ATOM     99  F   UNL A   1      46.634  33.904  26.571  1.00  0.00    -0.206 F 
ATOM    100  C   UNL A   1      47.176  35.377  28.316  1.00  0.00     0.059 A 
ATOM    101  C   UNL A   1      47.681  34.503  30.525  1.00  0.00     0.059 A 
ATOM    102  F   UNL A   1      47.661  32.186  30.891  1.00  0.00    -0.206 F 
ATOM    103  C   UNL A   1      47.509  35.580  29.657  1.00  0.00     0.060 A 
BRANCH 103 104
ATOM    104  S   UNL A   1      47.670  37.275  30.254  1.00  0.00     0.124 S 
ATOM    105  O   UNL A   1      48.391  37.909  29.154  1.00  0.00    -0.237 OA
ATOM    106  O   UNL A   1      46.277  37.678  30.417  1.00  0.00    -0.237 OA
ATOM    107  O   UNL A   1      48.425  37.129  31.496  1.00  0.00    -0.744 OA
ENDBRANCH 103 104
ENDBRANCH  71  96
ENDBRANCH  45  46
ENDBRANCH  37  40
ENDBRANCH  35  36
ENDBRANCH  34  35
ENDBRANCH  33  34
ENDBRANCH   1  33
TORSDOF 19
ENDMDL
MODEL 3
REMARK VINA RESULT:     -11.9      6.188     11.844
REMARK SMILES COC(=O)c1ccc(C)c2c1[C@H]1C=CC[C@H]1[C@@H](c1ccc(C(=O)NCCCCCCNC(=O)c3ccc(-c4c5nc(c(-c6c(F)cc(S(=O)(=O)[O-])cc6F)c6ccc([nH]6)c(-c6c(F)cc(S(=O)(=O)[O-])cc6F)c6nc(c(-c7c(F)cc(S(=O)(=O)[O-])cc7F)c7ccc4[nH]7)C=C6)C=C5)cc3)cc1)N2
REMARK SMILES IDX 27 1 26 2 25 3 24 4 22 5 23 6 21 8 18 9 19 10 101 11 20 12
REMARK SMILES IDX 100 13 17 14 5 15 6 16 11 17 7 18 10 19 12 20 8 21 102 22
REMARK SMILES IDX 13 23 16 24 9 25 14 27 15 28 3 29 4 30 2 31 1 32 28 33 29 34
REMARK SMILES IDX 30 35 31 36 32 37 33 39 34 40 35 41 99 42 36 43 98 44 37 45
REMARK SMILES IDX 38 46 39 47 92 48 40 49 97 50 91 51 93 52 41 53 96 54 90 55
REMARK SMILES IDX 89 56 42 58 76 59 55 60 75 61 56 62 59 63 74 64 94 65 57 66
REMARK SMILES IDX 58 67 73 69 95 70 60 71 43 72 44 73 53 74 45 75 46 76 52 77
REMARK SMILES IDX 54 78 47 79 48 80 49 81 50 82 51 83 77 84 78 85 87 86 79 87
REMARK SMILES IDX 80 88 86 89 88 90 81 91 82 92 83 93 84 94 85 95 61 96 62 97
REMARK SMILES IDX 71 98 63 99 64 100 70 101 72 102 65 103 66 104 67 105 68 106
REMARK SMILES IDX 69 107
REMARK H PARENT 24 7 102 26 31 38 93 57 59 68
REMARK Flexibility Score: inf
ROOT
ATOM      1  C   UNL A   1      34.614  31.969  28.716  1.00  0.00     0.002 C 
ENDROOT
BRANCH   1   2
ATOM      2  C   UNL A   1      33.672  31.775  27.519  1.00  0.00     0.021 C 
BRANCH   2   3
ATOM      3  C   UNL A   1      33.680  30.331  27.015  1.00  0.00     0.116 C 
BRANCH   3   4
ATOM      4  N   UNL A   1      32.589  29.613  27.628  1.00  0.00    -0.352 N 
ATOM      5  C   UNL A   1      31.990  28.423  27.336  1.00  0.00     0.251 C 
ATOM      6  O   UNL A   1      31.003  28.121  28.010  1.00  0.00    -0.269 OA
ATOM      7  H   UNL A   1      32.201  30.071  28.409  1.00  0.00     0.163 HD
BRANCH   5   8
ATOM      8  C   UNL A   1      32.485  27.473  26.300  1.00  0.00     0.039 A 
ATOM      9  C   UNL A   1      33.339  25.850  24.122  1.00  0.00    -0.025 A 
ATOM     10  C   UNL A   1      32.469  26.934  23.934  1.00  0.00     0.006 A 
ATOM     11  C   UNL A   1      33.735  25.569  25.434  1.00  0.00     0.006 A 
ATOM     12  C   UNL A   1      32.045  27.725  25.000  1.00  0.00     0.014 A 
ATOM     13  C   UNL A   1      33.356  26.399  26.497  1.00  0.00     0.014 A 
BRANCH   9  14
ATOM     14  C   UNL A   1      33.974  25.065  22.970  1.00  0.00     0.114 C 
ATOM     15  C   UNL A   1      33.755  21.215  24.765  1.00  0.00     0.065 A 
ATOM     16  C   UNL A   1      34.723  20.885  25.719  1.00  0.00     0.016 A 
ATOM     17  C   UNL A   1      33.891  22.372  23.968  1.00  0.00    -0.003 A 
ATOM     18  C   UNL A   1      35.852  21.685  25.869  1.00  0.00     0.006 A 
ATOM     19  C   UNL A   1      35.063  23.165  24.101  1.00  0.00     0.042 A 
ATOM     20  C   UNL A   1      32.792  22.791  23.008  1.00  0.00     0.050 C 
ATOM     21  C   UNL A   1      36.037  22.823  25.068  1.00  0.00    -0.028 A 
ATOM     22  N   UNL A   1      35.169  24.359  23.400  1.00  0.00    -0.377 N 
ATOM     23  C   UNL A   1      31.456  23.131  23.633  1.00  0.00    -0.023 C 
ATOM     24  C   UNL A   1      33.070  24.077  22.200  1.00  0.00     0.031 C 
ATOM     25  C   UNL A   1      37.265  23.654  25.349  1.00  0.00     0.046 C 
ATOM     26  H   UNL A   1      36.058  24.728  23.193  1.00  0.00     0.161 HD
ATOM     27  C   UNL A   1      30.843  24.130  22.986  1.00  0.00    -0.030 C 
ATOM     28  C   UNL A   1      31.677  24.627  21.850  1.00  0.00     0.034 C 
BRANCH  15  29
ATOM     29  C   UNL A   1      32.600  20.299  24.604  1.00  0.00     0.338 C 
ATOM     30  O   UNL A   1      31.641  20.259  25.352  1.00  0.00    -0.246 OA
BRANCH  29  31
ATOM     31  O   UNL A   1      32.811  19.505  23.522  1.00  0.00    -0.465 OA
ATOM     32  C   UNL A   1      32.938  18.121  23.848  1.00  0.00     0.282 C 
ENDBRANCH  29  31
ENDBRANCH  15  29
ENDBRANCH   9  14
ENDBRANCH   5   8
ENDBRANCH   3   4
ENDBRANCH   2   3
ENDBRANCH   1   2
BRANCH   1  33
ATOM     33  C   UNL A   1      35.871  32.788  28.393  1.00  0.00     0.002 C 
BRANCH  33  34
ATOM     34  C   UNL A   1      36.236  33.811  29.472  1.00  0.00     0.021 C 
BRANCH  34  35
ATOM     35  C   UNL A   1      37.228  33.261  30.488  1.00  0.00     0.116 C 
BRANCH  35  36
ATOM     36  N   UNL A   1      36.597  32.251  31.324  1.00  0.00    -0.352 N 
ATOM     37  C   UNL A   1      36.872  30.909  31.365  1.00  0.00     0.251 C 
ATOM     38  H   UNL A   1      35.890  32.569  31.932  1.00  0.00     0.163 HD
ATOM     39  O   UNL A   1      36.089  30.116  31.873  1.00  0.00    -0.269 OA
BRANCH  37  40
ATOM     40  C   UNL A   1      38.140  30.452  30.773  1.00  0.00     0.039 A 
ATOM     41  C   UNL A   1      38.198  30.160  29.411  1.00  0.00     0.014 A 
ATOM     42  C   UNL A   1      39.283  30.381  31.579  1.00  0.00     0.014 A 
ATOM     43  C   UNL A   1      39.425  29.819  28.846  1.00  0.00     0.010 A 
ATOM     44  C   UNL A   1      40.514  30.115  30.999  1.00  0.00     0.010 A 
ATOM     45  C   UNL A   1      40.590  29.806  29.634  1.00  0.00    -0.014 A 
BRANCH  45  46
ATOM     46  C   UNL A   1      41.883  29.387  29.050  1.00  0.00     0.031 A 
ATOM     47  C   UNL A   1      42.984  30.401  28.913  1.00  0.00     0.074 A 
ATOM     48  C   UNL A   1      42.061  28.115  28.644  1.00  0.00     0.049 A 
ATOM     49  N   UNL A   1      44.202  30.235  28.471  1.00  0.00    -0.248 NA
ATOM     50  C   UNL A   1      42.673  31.788  29.306  1.00  0.00     0.031 C 
ATOM     51  C   UNL A   1      41.041  27.065  28.684  1.00  0.00     0.029 A 
ATOM     52  N   UNL A   1      43.162  27.489  28.118  1.00  0.00    -0.354 N 
ATOM     53  C   UNL A   1      44.800  31.487  28.543  1.00  0.00     0.074 A 
ATOM     54  C   UNL A   1      43.797  32.419  29.001  1.00  0.00     0.031 C 
ATOM     55  C   UNL A   1      41.575  25.919  28.227  1.00  0.00     0.029 A 
ATOM     56  C   UNL A   1      42.964  26.157  27.842  1.00  0.00     0.049 A 
ATOM     57  H   UNL A   1      44.016  27.951  27.956  1.00  0.00     0.167 HD
ATOM     58  C   UNL A   1      46.085  31.818  28.287  1.00  0.00     0.037 A 
ATOM     59  C   UNL A   1      43.808  25.237  27.337  1.00  0.00     0.037 A 
ATOM     60  C   UNL A   1      47.083  30.877  27.862  1.00  0.00     0.049 A 
ATOM     61  C   UNL A   1      45.229  25.639  27.036  1.00  0.00     0.074 A 
ATOM     62  C   UNL A   1      48.430  31.098  27.646  1.00  0.00     0.029 A 
ATOM     63  N   UNL A   1      46.842  29.540  27.584  1.00  0.00    -0.354 N 
ATOM     64  N   UNL A   1      45.809  26.805  27.210  1.00  0.00    -0.248 NA
ATOM     65  C   UNL A   1      46.116  24.608  26.476  1.00  0.00     0.031 C 
ATOM     66  C   UNL A   1      48.993  29.910  27.177  1.00  0.00     0.029 A 
ATOM     67  C   UNL A   1      48.009  28.933  27.157  1.00  0.00     0.049 A 
ATOM     68  H   UNL A   1      45.972  29.090  27.677  1.00  0.00     0.167 HD
ATOM     69  C   UNL A   1      47.127  26.641  26.797  1.00  0.00     0.074 A 
ATOM     70  C   UNL A   1      47.266  25.261  26.385  1.00  0.00     0.031 C 
ATOM     71  C   UNL A   1      48.129  27.553  26.757  1.00  0.00     0.037 A 
BRANCH  58  72
ATOM     72  C   UNL A   1      46.499  33.248  28.480  1.00  0.00     0.058 A 
ATOM     73  C   UNL A   1      46.419  34.181  27.435  1.00  0.00     0.135 A 
ATOM     74  C   UNL A   1      46.897  33.710  29.745  1.00  0.00     0.135 A 
ATOM     75  F   UNL A   1      46.066  33.786  26.201  1.00  0.00    -0.206 F 
ATOM     76  C   UNL A   1      46.718  35.524  27.636  1.00  0.00     0.059 A 
ATOM     77  C   UNL A   1      47.174  35.054  29.976  1.00  0.00     0.059 A 
ATOM     78  F   UNL A   1      46.999  32.855  30.775  1.00  0.00    -0.206 F 
ATOM     79  C   UNL A   1      47.081  35.953  28.913  1.00  0.00     0.060 A 
BRANCH  79  80
ATOM     80  S   UNL A   1      47.408  37.709  29.165  1.00  0.00     0.124 S 
ATOM     81  O   UNL A   1      46.265  38.319  28.493  1.00  0.00    -0.237 OA
ATOM     82  O   UNL A   1      47.418  37.814  30.621  1.00  0.00    -0.237 OA
ATOM     83  O   UNL A   1      48.698  37.913  28.514  1.00  0.00    -0.744 OA
ENDBRANCH  79  80
ENDBRANCH  58  72
BRANCH  59  84
ATOM     84  C   UNL A   1      43.339  23.844  27.096  1.00  0.00     0.058 A 
ATOM     85  C   UNL A   1      43.051  23.386  25.802  1.00  0.00     0.135 A 
ATOM     86  C   UNL A   1      43.171  22.942  28.159  1.00  0.00     0.135 A 
ATOM     87  F   UNL A   1      43.190  24.210  24.752  1.00  0.00    -0.206 F 
ATOM     88  C   UNL A   1      42.596  22.092  25.570  1.00  0.00     0.059 A 
ATOM     89  C   UNL A   1      42.743  21.634  27.950  1.00  0.00     0.059 A 
ATOM     90  F   UNL A   1      43.447  23.322  29.415  1.00  0.00    -0.206 F 
ATOM     91  C   UNL A   1      42.447  21.221  26.652  1.00  0.00     0.060 A 
BRANCH  91  92
ATOM     92  S   UNL A   1      41.886  19.534  26.335  1.00  0.00     0.124 S 
ATOM     93  O   UNL A   1      42.636  19.196  25.130  1.00  0.00    -0.237 OA
ATOM     94  O   UNL A   1      42.292  18.845  27.556  1.00  0.00    -0.237 OA
ATOM     95  O   UNL A   1      40.445  19.686  26.158  1.00  0.00    -0.744 OA
ENDBRANCH  91  92
ENDBRANCH  59  84
BRANCH  71  96
ATOM     96  C   UNL A   1      49.471  27.109  26.248  1.00  0.00     0.058 A 
ATOM     97  C   UNL A   1      49.811  27.235  24.893  1.00  0.00     0.135 A 
ATOM     98  C   UNL A   1      50.468  26.684  27.140  1.00  0.00     0.135 A 
ATOM     99  F   UNL A   1      48.891  27.632  23.999  1.00  0.00    -0.206 F 
ATOM    100  C   UNL A   1      51.096  26.961  24.440  1.00  0.00     0.059 A 
ATOM    101  C   UNL A   1      51.769  26.431  26.714  1.00  0.00     0.059 A 
ATOM    102  F   UNL A   1      50.196  26.559  28.449  1.00  0.00    -0.206 F 
ATOM    103  C   UNL A   1      52.073  26.575  25.361  1.00  0.00     0.060 A 
BRANCH 103 104
ATOM    104  S   UNL A   1      53.755  26.309  24.765  1.00  0.00     0.124 S 
ATOM    105  O   UNL A   1      54.029  27.568  24.081  1.00  0.00    -0.237 OA
ATOM    106  O   UNL A   1      54.490  26.087  26.006  1.00  0.00    -0.237 OA
ATOM    107  O   UNL A   1      53.629  25.139  23.900  1.00  0.00    -0.744 OA
ENDBRANCH 103 104
ENDBRANCH  71  96
ENDBRANCH  45  46
ENDBRANCH  37  40
ENDBRANCH  35  36
ENDBRANCH  34  35
ENDBRANCH  33  34
ENDBRANCH   1  33
TORSDOF 19
ENDMDL
