MODEL 1
REMARK VINA RESULT:     -11.7      0.000      0.000
REMARK SMILES CCc1nc2sc(C(=O)NCC(=O)NCCCCCCNC(=O)c3ccc(-c4c5nc(c(-c6c(F)cc(S(=O)(=O)[O-])cc6F)c6ccc([nH]6)c(-c6c(F)cc(S(=O)(=O)[O-])cc6F)c6nc(c(-c7c(F)cc(S(=O)(=O)[O-])cc7F)c7ccc4[nH]7)C=C6)C=C5)cc3)c(N)c2c(C(F)(F)F)c1C
REMARK SMILES IDX 17 1 16 2 15 3 14 4 12 5 13 6 11 8 10 9 8 10 9 11 7 13 3 14
REMARK SMILES IDX 4 15 98 16 5 17 93 18 99 19 6 20 92 21 90 22 2 23 1 24 94 25
REMARK SMILES IDX 95 26 96 27 97 28 91 29 18 32 19 33 20 34 21 35 22 36 23 38
REMARK SMILES IDX 24 39 25 40 89 41 26 42 88 43 27 44 28 45 29 46 82 47 30 48
REMARK SMILES IDX 87 49 81 50 83 51 31 52 86 53 80 54 79 55 32 57 66 58 45 59
REMARK SMILES IDX 65 60 46 61 49 62 64 63 84 64 47 65 48 66 63 68 85 69 50 70
REMARK SMILES IDX 33 71 34 72 43 73 35 74 36 75 42 76 44 77 37 78 38 79 39 80
REMARK SMILES IDX 40 81 41 82 67 83 68 84 77 85 69 86 70 87 76 88 78 89 71 90
REMARK SMILES IDX 72 91 73 92 74 93 75 94 51 95 52 96 61 97 53 98 54 99 60 100
REMARK SMILES IDX 62 101 55 102 56 103 57 104 58 105 59 106
REMARK H PARENT 14 7 10 12 91 30 91 31 21 37 83 56 49 67
REMARK Flexibility Score: inf
ROOT
ATOM      1  C   UNL A   1      40.171  22.322  26.433  1.00  0.00     0.002 C 
ENDROOT
BRANCH   1   2
ATOM      2  C   UNL A   1      38.974  23.221  26.749  1.00  0.00     0.021 C 
BRANCH   2   3
ATOM      3  C   UNL A   1      37.790  23.021  25.813  1.00  0.00     0.116 C 
BRANCH   3   4
ATOM      4  N   UNL A   1      36.509  23.148  26.479  1.00  0.00    -0.355 N 
ATOM      5  C   UNL A   1      35.232  23.234  26.012  1.00  0.00     0.239 C 
ATOM      6  O   UNL A   1      34.349  23.310  26.877  1.00  0.00    -0.273 OA
ATOM      7  H   UNL A   1      36.573  23.181  27.461  1.00  0.00     0.163 HD
BRANCH   5   8
ATOM      8  C   UNL A   1      34.826  23.061  24.533  1.00  0.00     0.216 C 
BRANCH   8   9
ATOM      9  N   UNL A   1      33.522  22.568  24.155  1.00  0.00    -0.342 N 
ATOM     10  C   UNL A   1      32.370  23.162  23.700  1.00  0.00     0.264 C 
ATOM     11  O   UNL A   1      31.547  22.334  23.292  1.00  0.00    -0.268 OA
ATOM     12  H   UNL A   1      33.441  21.590  24.242  1.00  0.00     0.164 HD
BRANCH  10  13
ATOM     13  C   UNL A   1      32.072  24.599  23.761  1.00  0.00     0.118 A 
ATOM     14  C   UNL A   1      30.513  28.963  22.785  1.00  0.00     0.045 A 
ATOM     15  N   UNL A   1      30.709  27.778  22.178  1.00  0.00    -0.242 NA
ATOM     16  C   UNL A   1      30.802  29.198  24.140  1.00  0.00    -0.017 A 
ATOM     17  C   UNL A   1      31.227  26.800  22.933  1.00  0.00     0.127 A 
ATOM     18  C   UNL A   1      31.398  28.149  24.905  1.00  0.00     0.073 A 
ATOM     19  C   UNL A   1      30.528  30.532  24.786  1.00  0.00     0.047 C 
ATOM     20  S   UNL A   1      31.478  25.268  22.270  1.00  0.00    -0.108 S 
ATOM     21  C   UNL A   1      31.605  26.890  24.258  1.00  0.00     0.048 A 
ATOM     22  C   UNL A   1      32.091  25.604  24.721  1.00  0.00     0.066 A 
BRANCH  14  23
ATOM     23  C   UNL A   1      29.973  30.017  21.844  1.00  0.00     0.053 C 
ATOM     24  C   UNL A   1      28.452  30.005  21.767  1.00  0.00     0.011 C 
ENDBRANCH  14  23
BRANCH  18  25
ATOM     25  C   UNL A   1      31.773  28.316  26.361  1.00  0.00     0.417 C 
ATOM     26  F   UNL A   1      31.558  29.585  26.814  1.00  0.00    -0.166 F 
ATOM     27  F   UNL A   1      31.050  27.502  27.190  1.00  0.00    -0.166 F 
ATOM     28  F   UNL A   1      33.069  28.041  26.678  1.00  0.00    -0.166 F 
ENDBRANCH  18  25
BRANCH  22  29
ATOM     29  N   UNL A   1      32.448  25.450  26.012  1.00  0.00    -0.397 N 
ATOM     30  H   UNL A   1      31.904  25.856  26.724  1.00  0.00     0.156 HD
ATOM     31  H   UNL A   1      33.253  24.931  26.242  1.00  0.00     0.156 HD
ENDBRANCH  22  29
ENDBRANCH  10  13
ENDBRANCH   8   9
ENDBRANCH   5   8
ENDBRANCH   3   4
ENDBRANCH   2   3
ENDBRANCH   1   2
BRANCH   1  32
ATOM     32  C   UNL A   1      40.877  21.686  27.643  1.00  0.00     0.002 C 
BRANCH  32  33
ATOM     33  C   UNL A   1      41.753  20.454  27.367  1.00  0.00     0.021 C 
BRANCH  33  34
ATOM     34  C   UNL A   1      41.878  20.103  25.894  1.00  0.00     0.116 C 
BRANCH  34  35
ATOM     35  N   UNL A   1      43.243  19.736  25.516  1.00  0.00    -0.352 N 
ATOM     36  C   UNL A   1      44.289  20.576  25.172  1.00  0.00     0.251 C 
ATOM     37  H   UNL A   1      43.442  18.772  25.504  1.00  0.00     0.163 HD
ATOM     38  O   UNL A   1      45.248  20.163  24.546  1.00  0.00    -0.269 OA
BRANCH  36  39
ATOM     39  C   UNL A   1      44.206  21.988  25.590  1.00  0.00     0.039 A 
ATOM     40  C   UNL A   1      43.446  22.924  24.885  1.00  0.00     0.014 A 
ATOM     41  C   UNL A   1      44.876  22.346  26.755  1.00  0.00     0.014 A 
ATOM     42  C   UNL A   1      43.304  24.205  25.417  1.00  0.00     0.010 A 
ATOM     43  C   UNL A   1      44.581  23.533  27.366  1.00  0.00     0.010 A 
ATOM     44  C   UNL A   1      43.859  24.496  26.673  1.00  0.00    -0.014 A 
BRANCH  44  45
ATOM     45  C   UNL A   1      43.642  25.783  27.323  1.00  0.00     0.031 A 
ATOM     46  C   UNL A   1      44.634  26.839  26.985  1.00  0.00     0.074 A 
ATOM     47  C   UNL A   1      42.514  26.067  28.012  1.00  0.00     0.049 A 
ATOM     48  N   UNL A   1      45.530  27.354  27.760  1.00  0.00    -0.248 NA
ATOM     49  C   UNL A   1      44.735  27.286  25.586  1.00  0.00     0.031 C 
ATOM     50  C   UNL A   1      41.311  25.242  28.192  1.00  0.00     0.029 A 
ATOM     51  N   UNL A   1      42.165  27.227  28.626  1.00  0.00    -0.354 N 
ATOM     52  C   UNL A   1      46.157  28.351  27.017  1.00  0.00     0.074 A 
ATOM     53  C   UNL A   1      45.762  28.137  25.648  1.00  0.00     0.031 C 
ATOM     54  C   UNL A   1      40.296  26.008  28.650  1.00  0.00     0.029 A 
ATOM     55  C   UNL A   1      40.824  27.318  28.977  1.00  0.00     0.049 A 
ATOM     56  H   UNL A   1      42.812  27.948  28.807  1.00  0.00     0.167 HD
ATOM     57  C   UNL A   1      46.763  29.412  27.623  1.00  0.00     0.037 A 
ATOM     58  C   UNL A   1      40.191  28.397  29.497  1.00  0.00     0.037 A 
ATOM     59  C   UNL A   1      46.953  29.170  29.031  1.00  0.00     0.049 A 
ATOM     60  C   UNL A   1      41.244  29.241  30.120  1.00  0.00     0.074 A 
ATOM     61  C   UNL A   1      47.636  28.223  29.770  1.00  0.00     0.029 A 
ATOM     62  N   UNL A   1      46.059  29.745  29.903  1.00  0.00    -0.354 N 
ATOM     63  N   UNL A   1      41.959  28.865  31.147  1.00  0.00    -0.248 NA
ATOM     64  C   UNL A   1      41.825  30.300  29.311  1.00  0.00     0.031 C 
ATOM     65  C   UNL A   1      46.787  27.939  30.880  1.00  0.00     0.029 A 
ATOM     66  C   UNL A   1      45.671  28.775  30.793  1.00  0.00     0.049 A 
ATOM     67  H   UNL A   1      45.752  30.681  29.890  1.00  0.00     0.167 HD
ATOM     68  C   UNL A   1      43.242  29.319  30.872  1.00  0.00     0.074 A 
ATOM     69  C   UNL A   1      43.078  30.269  29.773  1.00  0.00     0.031 C 
ATOM     70  C   UNL A   1      44.345  28.683  31.369  1.00  0.00     0.037 A 
BRANCH  57  71
ATOM     71  C   UNL A   1      46.858  30.798  27.032  1.00  0.00     0.058 A 
ATOM     72  C   UNL A   1      48.102  31.460  27.012  1.00  0.00     0.135 A 
ATOM     73  C   UNL A   1      45.734  31.605  26.745  1.00  0.00     0.135 A 
ATOM     74  F   UNL A   1      49.237  30.793  27.280  1.00  0.00    -0.206 F 
ATOM     75  C   UNL A   1      48.215  32.835  26.795  1.00  0.00     0.059 A 
ATOM     76  C   UNL A   1      45.829  32.965  26.472  1.00  0.00     0.059 A 
ATOM     77  F   UNL A   1      44.483  31.136  26.817  1.00  0.00    -0.206 F 
ATOM     78  C   UNL A   1      47.068  33.581  26.540  1.00  0.00     0.060 A 
BRANCH  78  79
ATOM     79  S   UNL A   1      47.196  35.369  26.376  1.00  0.00     0.124 S 
ATOM     80  O   UNL A   1      48.148  35.493  25.278  1.00  0.00    -0.237 OA
ATOM     81  O   UNL A   1      45.819  35.745  26.074  1.00  0.00    -0.237 OA
ATOM     82  O   UNL A   1      47.683  35.793  27.686  1.00  0.00    -0.744 OA
ENDBRANCH  78  79
ENDBRANCH  57  71
BRANCH  58  83
ATOM     83  C   UNL A   1      38.835  28.906  29.156  1.00  0.00     0.058 A 
ATOM     84  C   UNL A   1      37.869  29.121  30.155  1.00  0.00     0.135 A 
ATOM     85  C   UNL A   1      38.556  29.465  27.892  1.00  0.00     0.135 A 
ATOM     86  F   UNL A   1      38.061  28.637  31.392  1.00  0.00    -0.206 F 
ATOM     87  C   UNL A   1      36.723  29.894  29.933  1.00  0.00     0.059 A 
ATOM     88  C   UNL A   1      37.417  30.234  27.645  1.00  0.00     0.059 A 
ATOM     89  F   UNL A   1      39.428  29.357  26.880  1.00  0.00    -0.206 F 
ATOM     90  C   UNL A   1      36.518  30.467  28.679  1.00  0.00     0.060 A 
BRANCH  90  91
ATOM     91  S   UNL A   1      35.130  31.601  28.437  1.00  0.00     0.124 S 
ATOM     92  O   UNL A   1      34.151  30.744  27.777  1.00  0.00    -0.237 OA
ATOM     93  O   UNL A   1      34.813  31.994  29.806  1.00  0.00    -0.237 OA
ATOM     94  O   UNL A   1      35.694  32.658  27.602  1.00  0.00    -0.744 OA
ENDBRANCH  90  91
ENDBRANCH  58  83
BRANCH  70  95
ATOM     95  C   UNL A   1      44.151  27.644  32.448  1.00  0.00     0.058 A 
ATOM     96  C   UNL A   1      44.073  26.257  32.220  1.00  0.00     0.135 A 
ATOM     97  C   UNL A   1      44.215  28.064  33.786  1.00  0.00     0.135 A 
ATOM     98  F   UNL A   1      44.104  25.759  30.978  1.00  0.00    -0.206 F 
ATOM     99  C   UNL A   1      44.028  25.337  33.272  1.00  0.00     0.059 A 
ATOM    100  C   UNL A   1      44.202  27.164  34.848  1.00  0.00     0.059 A 
ATOM    101  F   UNL A   1      44.351  29.369  34.072  1.00  0.00    -0.206 F 
ATOM    102  C   UNL A   1      44.098  25.800  34.584  1.00  0.00     0.060 A 
BRANCH 102 103
ATOM    103  S   UNL A   1      44.117  24.607  35.940  1.00  0.00     0.124 S 
ATOM    104  O   UNL A   1      45.439  24.819  36.521  1.00  0.00    -0.237 OA
ATOM    105  O   UNL A   1      42.988  25.041  36.760  1.00  0.00    -0.237 OA
ATOM    106  O   UNL A   1      43.931  23.323  35.270  1.00  0.00    -0.744 OA
ENDBRANCH 102 103
ENDBRANCH  70  95
ENDBRANCH  44  45
ENDBRANCH  36  39
ENDBRANCH  34  35
ENDBRANCH  33  34
ENDBRANCH  32  33
ENDBRANCH   1  32
TORSDOF 21
ENDMDL
MODEL 2
REMARK VINA RESULT:     -11.5      2.648      4.038
REMARK SMILES CCc1nc2sc(C(=O)NCC(=O)NCCCCCCNC(=O)c3ccc(-c4c5nc(c(-c6c(F)cc(S(=O)(=O)[O-])cc6F)c6ccc([nH]6)c(-c6c(F)cc(S(=O)(=O)[O-])cc6F)c6nc(c(-c7c(F)cc(S(=O)(=O)[O-])cc7F)c7ccc4[nH]7)C=C6)C=C5)cc3)c(N)c2c(C(F)(F)F)c1C
REMARK SMILES IDX 17 1 16 2 15 3 14 4 12 5 13 6 11 8 10 9 8 10 9 11 7 13 3 14
REMARK SMILES IDX 4 15 98 16 5 17 93 18 99 19 6 20 92 21 90 22 2 23 1 24 94 25
REMARK SMILES IDX 95 26 96 27 97 28 91 29 18 32 19 33 20 34 21 35 22 36 23 38
REMARK SMILES IDX 24 39 25 40 89 41 26 42 88 43 27 44 28 45 29 46 82 47 30 48
REMARK SMILES IDX 87 49 81 50 83 51 31 52 86 53 80 54 79 55 32 57 66 58 45 59
REMARK SMILES IDX 65 60 46 61 49 62 64 63 84 64 47 65 48 66 63 68 85 69 50 70
REMARK SMILES IDX 33 71 34 72 43 73 35 74 36 75 42 76 44 77 37 78 38 79 39 80
REMARK SMILES IDX 40 81 41 82 67 83 68 84 77 85 69 86 70 87 76 88 78 89 71 90
REMARK SMILES IDX 72 91 73 92 74 93 75 94 51 95 52 96 61 97 53 98 54 99 60 100
REMARK SMILES IDX 62 101 55 102 56 103 57 104 58 105 59 106
REMARK H PARENT 14 7 10 12 91 30 91 31 21 37 83 56 49 67
REMARK Flexibility Score: inf
ROOT
ATOM      1  C   UNL A   1      34.569  21.770  26.156  1.00  0.00     0.002 C 
ENDROOT
BRANCH   1   2
ATOM      2  C   UNL A   1      34.077  20.566  25.349  1.00  0.00     0.021 C 
BRANCH   2   3
ATOM      3  C   UNL A   1      32.579  20.574  25.083  1.00  0.00     0.116 C 
BRANCH   3   4
ATOM      4  N   UNL A   1      32.249  20.449  23.676  1.00  0.00    -0.355 N 
ATOM      5  C   UNL A   1      32.132  21.361  22.672  1.00  0.00     0.239 C 
ATOM      6  O   UNL A   1      31.854  20.898  21.558  1.00  0.00    -0.273 OA
ATOM      7  H   UNL A   1      32.073  19.523  23.392  1.00  0.00     0.163 HD
BRANCH   5   8
ATOM      8  C   UNL A   1      32.494  22.856  22.799  1.00  0.00     0.216 C 
BRANCH   8   9
ATOM      9  N   UNL A   1      32.689  23.693  21.639  1.00  0.00    -0.342 N 
ATOM     10  C   UNL A   1      32.893  25.038  21.453  1.00  0.00     0.264 C 
ATOM     11  O   UNL A   1      33.227  25.306  20.292  1.00  0.00    -0.268 OA
ATOM     12  H   UNL A   1      32.672  23.187  20.793  1.00  0.00     0.164 HD
BRANCH  10  13
ATOM     13  C   UNL A   1      32.662  26.082  22.462  1.00  0.00     0.118 A 
ATOM     14  C   UNL A   1      33.162  29.096  26.080  1.00  0.00     0.045 A 
ATOM     15  N   UNL A   1      33.736  27.990  25.572  1.00  0.00    -0.242 NA
ATOM     16  C   UNL A   1      32.039  29.718  25.510  1.00  0.00    -0.017 A 
ATOM     17  C   UNL A   1      33.166  27.472  24.476  1.00  0.00     0.127 A 
ATOM     18  C   UNL A   1      31.426  29.114  24.369  1.00  0.00     0.073 A 
ATOM     19  C   UNL A   1      31.454  30.979  26.093  1.00  0.00     0.047 C 
ATOM     20  S   UNL A   1      33.835  26.105  23.745  1.00  0.00    -0.108 S 
ATOM     21  C   UNL A   1      32.039  27.939  23.831  1.00  0.00     0.048 A 
ATOM     22  C   UNL A   1      31.763  27.121  22.665  1.00  0.00     0.066 A 
BRANCH  14  23
ATOM     23  C   UNL A   1      33.843  29.578  27.342  1.00  0.00     0.053 C 
ATOM     24  C   UNL A   1      35.325  29.233  27.373  1.00  0.00     0.011 C 
ENDBRANCH  14  23
BRANCH  18  25
ATOM     25  C   UNL A   1      30.196  29.692  23.704  1.00  0.00     0.417 C 
ATOM     26  F   UNL A   1      30.420  30.041  22.404  1.00  0.00    -0.166 F 
ATOM     27  F   UNL A   1      29.149  28.811  23.673  1.00  0.00    -0.166 F 
ATOM     28  F   UNL A   1      29.672  30.807  24.287  1.00  0.00    -0.166 F 
ENDBRANCH  18  25
BRANCH  22  29
ATOM     29  N   UNL A   1      30.740  27.446  21.848  1.00  0.00    -0.397 N 
ATOM     30  H   UNL A   1      29.957  27.922  22.205  1.00  0.00     0.156 HD
ATOM     31  H   UNL A   1      30.778  27.206  20.893  1.00  0.00     0.156 HD
ENDBRANCH  22  29
ENDBRANCH  10  13
ENDBRANCH   8   9
ENDBRANCH   5   8
ENDBRANCH   3   4
ENDBRANCH   2   3
ENDBRANCH   1   2
BRANCH   1  32
ATOM     32  C   UNL A   1      35.312  22.859  25.363  1.00  0.00     0.002 C 
BRANCH  32  33
ATOM     33  C   UNL A   1      36.357  23.685  26.128  1.00  0.00     0.021 C 
BRANCH  33  34
ATOM     34  C   UNL A   1      37.688  23.817  25.407  1.00  0.00     0.116 C 
BRANCH  34  35
ATOM     35  N   UNL A   1      38.588  22.696  25.677  1.00  0.00    -0.352 N 
ATOM     36  C   UNL A   1      39.808  22.720  26.333  1.00  0.00     0.251 C 
ATOM     37  H   UNL A   1      38.290  21.815  25.353  1.00  0.00     0.163 HD
ATOM     38  O   UNL A   1      40.617  21.820  26.191  1.00  0.00    -0.269 OA
BRANCH  36  39
ATOM     39  C   UNL A   1      40.097  23.868  27.213  1.00  0.00     0.039 A 
ATOM     40  C   UNL A   1      41.375  24.104  27.723  1.00  0.00     0.014 A 
ATOM     41  C   UNL A   1      39.050  24.746  27.474  1.00  0.00     0.014 A 
ATOM     42  C   UNL A   1      41.603  25.283  28.432  1.00  0.00     0.010 A 
ATOM     43  C   UNL A   1      39.320  25.980  27.999  1.00  0.00     0.010 A 
ATOM     44  C   UNL A   1      40.571  26.229  28.548  1.00  0.00    -0.014 A 
BRANCH  44  45
ATOM     45  C   UNL A   1      40.792  27.524  29.180  1.00  0.00     0.031 A 
ATOM     46  C   UNL A   1      41.857  28.358  28.560  1.00  0.00     0.074 A 
ATOM     47  C   UNL A   1      39.960  28.024  30.121  1.00  0.00     0.049 A 
ATOM     48  N   UNL A   1      43.007  28.667  29.062  1.00  0.00    -0.248 NA
ATOM     49  C   UNL A   1      41.684  28.794  27.165  1.00  0.00     0.031 C 
ATOM     50  C   UNL A   1      38.702  27.462  30.632  1.00  0.00     0.029 A 
ATOM     51  N   UNL A   1      40.022  29.223  30.756  1.00  0.00    -0.354 N 
ATOM     52  C   UNL A   1      43.610  29.524  28.146  1.00  0.00     0.074 A 
ATOM     53  C   UNL A   1      42.843  29.415  26.931  1.00  0.00     0.031 C 
ATOM     54  C   UNL A   1      38.014  28.414  31.301  1.00  0.00     0.029 A 
ATOM     55  C   UNL A   1      38.862  29.582  31.432  1.00  0.00     0.049 A 
ATOM     56  H   UNL A   1      40.825  29.793  30.739  1.00  0.00     0.167 HD
ATOM     57  C   UNL A   1      44.553  30.430  28.535  1.00  0.00     0.037 A 
ATOM     58  C   UNL A   1      38.615  30.762  32.052  1.00  0.00     0.037 A 
ATOM     59  C   UNL A   1      45.044  30.134  29.859  1.00  0.00     0.049 A 
ATOM     60  C   UNL A   1      39.940  31.362  32.354  1.00  0.00     0.074 A 
ATOM     61  C   UNL A   1      45.688  29.057  30.437  1.00  0.00     0.029 A 
ATOM     62  N   UNL A   1      44.538  30.869  30.905  1.00  0.00    -0.354 N 
ATOM     63  N   UNL A   1      40.803  30.833  33.180  1.00  0.00    -0.248 NA
ATOM     64  C   UNL A   1      40.497  32.290  31.383  1.00  0.00     0.031 C 
ATOM     65  C   UNL A   1      45.112  28.939  31.737  1.00  0.00     0.029 A 
ATOM     66  C   UNL A   1      44.204  29.987  31.902  1.00  0.00     0.049 A 
ATOM     67  H   UNL A   1      44.434  31.848  30.933  1.00  0.00     0.167 HD
ATOM     68  C   UNL A   1      42.038  31.018  32.572  1.00  0.00     0.074 A 
ATOM     69  C   UNL A   1      41.793  31.996  31.513  1.00  0.00     0.031 C 
ATOM     70  C   UNL A   1      43.079  30.162  32.797  1.00  0.00     0.037 A 
BRANCH  57  71
ATOM     71  C   UNL A   1      44.771  31.775  27.886  1.00  0.00     0.058 A 
ATOM     72  C   UNL A   1      45.977  32.027  27.201  1.00  0.00     0.135 A 
ATOM     73  C   UNL A   1      43.972  32.910  28.147  1.00  0.00     0.135 A 
ATOM     74  F   UNL A   1      46.821  31.023  26.908  1.00  0.00    -0.206 F 
ATOM     75  C   UNL A   1      46.392  33.317  26.865  1.00  0.00     0.059 A 
ATOM     76  C   UNL A   1      44.339  34.197  27.773  1.00  0.00     0.059 A 
ATOM     77  F   UNL A   1      42.846  32.837  28.867  1.00  0.00    -0.206 F 
ATOM     78  C   UNL A   1      45.570  34.398  27.170  1.00  0.00     0.060 A 
BRANCH  78  79
ATOM     79  S   UNL A   1      46.153  36.070  26.844  1.00  0.00     0.124 S 
ATOM     80  O   UNL A   1      46.845  35.894  25.573  1.00  0.00    -0.237 OA
ATOM     81  O   UNL A   1      44.902  36.821  26.794  1.00  0.00    -0.237 OA
ATOM     82  O   UNL A   1      47.005  36.359  27.994  1.00  0.00    -0.744 OA
ENDBRANCH  78  79
ENDBRANCH  57  71
BRANCH  58  83
ATOM     83  C   UNL A   1      37.349  31.543  32.046  1.00  0.00     0.058 A 
ATOM     84  C   UNL A   1      36.796  32.037  33.241  1.00  0.00     0.135 A 
ATOM     85  C   UNL A   1      36.815  32.068  30.851  1.00  0.00     0.135 A 
ATOM     86  F   UNL A   1      37.255  31.603  34.425  1.00  0.00    -0.206 F 
ATOM     87  C   UNL A   1      35.814  33.034  33.253  1.00  0.00     0.059 A 
ATOM     88  C   UNL A   1      35.831  33.058  30.839  1.00  0.00     0.059 A 
ATOM     89  F   UNL A   1      37.298  31.699  29.656  1.00  0.00    -0.206 F 
ATOM     90  C   UNL A   1      35.355  33.557  32.045  1.00  0.00     0.060 A 
BRANCH  90  91
ATOM     91  S   UNL A   1      34.212  34.959  32.061  1.00  0.00     0.124 S 
ATOM     92  O   UNL A   1      34.952  35.942  32.846  1.00  0.00    -0.237 OA
ATOM     93  O   UNL A   1      34.071  35.254  30.640  1.00  0.00    -0.237 OA
ATOM     94  O   UNL A   1      33.018  34.419  32.706  1.00  0.00    -0.744 OA
ENDBRANCH  90  91
ENDBRANCH  58  83
BRANCH  70  95
ATOM     95  C   UNL A   1      42.962  29.171  33.932  1.00  0.00     0.058 A 
ATOM     96  C   UNL A   1      43.167  29.480  35.289  1.00  0.00     0.135 A 
ATOM     97  C   UNL A   1      42.455  27.895  33.642  1.00  0.00     0.135 A 
ATOM     98  F   UNL A   1      43.555  30.705  35.667  1.00  0.00    -0.206 F 
ATOM     99  C   UNL A   1      42.911  28.555  36.306  1.00  0.00     0.059 A 
ATOM    100  C   UNL A   1      42.166  26.967  34.640  1.00  0.00     0.059 A 
ATOM    101  F   UNL A   1      42.179  27.556  32.372  1.00  0.00    -0.206 F 
ATOM    102  C   UNL A   1      42.406  27.300  35.971  1.00  0.00     0.060 A 
BRANCH 102 103
ATOM    103  S   UNL A   1      42.004  26.131  37.288  1.00  0.00     0.124 S 
ATOM    104  O   UNL A   1      43.065  26.382  38.258  1.00  0.00    -0.237 OA
ATOM    105  O   UNL A   1      40.665  26.554  37.690  1.00  0.00    -0.237 OA
ATOM    106  O   UNL A   1      42.064  24.832  36.624  1.00  0.00    -0.744 OA
ENDBRANCH 102 103
ENDBRANCH  70  95
ENDBRANCH  44  45
ENDBRANCH  36  39
ENDBRANCH  34  35
ENDBRANCH  33  34
ENDBRANCH  32  33
ENDBRANCH   1  32
TORSDOF 21
ENDMDL
MODEL 3
REMARK VINA RESULT:     -11.3      3.291      9.493
REMARK SMILES CCc1nc2sc(C(=O)NCC(=O)NCCCCCCNC(=O)c3ccc(-c4c5nc(c(-c6c(F)cc(S(=O)(=O)[O-])cc6F)c6ccc([nH]6)c(-c6c(F)cc(S(=O)(=O)[O-])cc6F)c6nc(c(-c7c(F)cc(S(=O)(=O)[O-])cc7F)c7ccc4[nH]7)C=C6)C=C5)cc3)c(N)c2c(C(F)(F)F)c1C
REMARK SMILES IDX 17 1 16 2 15 3 14 4 12 5 13 6 11 8 10 9 8 10 9 11 7 13 3 14
REMARK SMILES IDX 4 15 98 16 5 17 93 18 99 19 6 20 92 21 90 22 2 23 1 24 94 25
REMARK SMILES IDX 95 26 96 27 97 28 91 29 18 32 19 33 20 34 21 35 22 36 23 38
REMARK SMILES IDX 24 39 25 40 89 41 26 42 88 43 27 44 28 45 29 46 82 47 30 48
REMARK SMILES IDX 87 49 81 50 83 51 31 52 86 53 80 54 79 55 32 57 66 58 45 59
REMARK SMILES IDX 65 60 46 61 49 62 64 63 84 64 47 65 48 66 63 68 85 69 50 70
REMARK SMILES IDX 33 71 34 72 43 73 35 74 36 75 42 76 44 77 37 78 38 79 39 80
REMARK SMILES IDX 40 81 41 82 67 83 68 84 77 85 69 86 70 87 76 88 78 89 71 90
REMARK SMILES IDX 72 91 73 92 74 93 75 94 51 95 52 96 61 97 53 98 54 99 60 100
REMARK SMILES IDX 62 101 55 102 56 103 57 104 58 105 59 106
REMARK H PARENT 14 7 10 12 91 30 91 31 21 37 83 56 49 67
REMARK Flexibility Score: inf
ROOT
ATOM      1  C   UNL A   1      35.682  30.563  28.485  1.00  0.00     0.002 C 
ENDROOT
BRANCH   1   2
ATOM      2  C   UNL A   1      35.046  29.659  27.426  1.00  0.00     0.021 C 
BRANCH   2   3
ATOM      3  C   UNL A   1      33.681  30.134  26.951  1.00  0.00     0.116 C 
BRANCH   3   4
ATOM      4  N   UNL A   1      32.582  29.399  27.547  1.00  0.00    -0.355 N 
ATOM      5  C   UNL A   1      31.949  28.244  27.198  1.00  0.00     0.239 C 
ATOM      6  O   UNL A   1      31.045  27.878  27.961  1.00  0.00    -0.273 OA
ATOM      7  H   UNL A   1      32.220  29.817  28.361  1.00  0.00     0.163 HD
BRANCH   5   8
ATOM      8  C   UNL A   1      32.401  27.306  26.059  1.00  0.00     0.216 C 
BRANCH   8   9
ATOM      9  N   UNL A   1      31.495  26.885  25.016  1.00  0.00    -0.342 N 
ATOM     10  C   UNL A   1      31.161  25.668  24.474  1.00  0.00     0.264 C 
ATOM     11  O   UNL A   1      30.171  25.740  23.736  1.00  0.00    -0.268 OA
ATOM     12  H   UNL A   1      31.010  27.635  24.603  1.00  0.00     0.164 HD
BRANCH  10  13
ATOM     13  C   UNL A   1      31.918  24.420  24.649  1.00  0.00     0.118 A 
ATOM     14  C   UNL A   1      33.121  19.883  25.277  1.00  0.00     0.045 A 
ATOM     15  N   UNL A   1      32.051  20.691  25.387  1.00  0.00    -0.242 NA
ATOM     16  C   UNL A   1      34.388  20.327  24.862  1.00  0.00    -0.017 A 
ATOM     17  C   UNL A   1      32.248  21.984  25.097  1.00  0.00     0.127 A 
ATOM     18  C   UNL A   1      34.577  21.720  24.606  1.00  0.00     0.073 A 
ATOM     19  C   UNL A   1      35.549  19.376  24.715  1.00  0.00     0.047 C 
ATOM     20  S   UNL A   1      30.956  23.070  25.173  1.00  0.00    -0.108 S 
ATOM     21  C   UNL A   1      33.437  22.576  24.723  1.00  0.00     0.048 A 
ATOM     22  C   UNL A   1      33.227  23.989  24.467  1.00  0.00     0.066 A 
BRANCH  14  23
ATOM     23  C   UNL A   1      32.816  18.455  25.671  1.00  0.00     0.053 C 
ATOM     24  C   UNL A   1      32.393  17.601  24.484  1.00  0.00     0.011 C 
ENDBRANCH  14  23
BRANCH  18  25
ATOM     25  C   UNL A   1      35.910  22.297  24.185  1.00  0.00     0.417 C 
ATOM     26  F   UNL A   1      35.867  22.860  22.943  1.00  0.00    -0.166 F 
ATOM     27  F   UNL A   1      36.345  23.288  25.022  1.00  0.00    -0.166 F 
ATOM     28  F   UNL A   1      36.952  21.421  24.142  1.00  0.00    -0.166 F 
ENDBRANCH  18  25
BRANCH  22  29
ATOM     29  N   UNL A   1      34.248  24.747  24.020  1.00  0.00    -0.397 N 
ATOM     30  H   UNL A   1      34.097  25.692  23.792  1.00  0.00     0.156 HD
ATOM     31  H   UNL A   1      35.146  24.354  23.921  1.00  0.00     0.156 HD
ENDBRANCH  22  29
ENDBRANCH  10  13
ENDBRANCH   8   9
ENDBRANCH   5   8
ENDBRANCH   3   4
ENDBRANCH   2   3
ENDBRANCH   1   2
BRANCH   1  32
ATOM     32  C   UNL A   1      36.278  31.886  27.976  1.00  0.00     0.002 C 
BRANCH  32  33
ATOM     33  C   UNL A   1      35.386  33.133  28.073  1.00  0.00     0.021 C 
BRANCH  33  34
ATOM     34  C   UNL A   1      34.323  33.049  29.156  1.00  0.00     0.116 C 
BRANCH  34  35
ATOM     35  N   UNL A   1      34.395  34.160  30.105  1.00  0.00    -0.352 N 
ATOM     36  C   UNL A   1      35.132  34.237  31.275  1.00  0.00     0.251 C 
ATOM     37  H   UNL A   1      33.851  34.951  29.884  1.00  0.00     0.163 HD
ATOM     38  O   UNL A   1      34.847  35.040  32.145  1.00  0.00    -0.269 OA
BRANCH  36  39
ATOM     39  C   UNL A   1      36.275  33.319  31.433  1.00  0.00     0.039 A 
ATOM     40  C   UNL A   1      36.107  31.996  31.848  1.00  0.00     0.014 A 
ATOM     41  C   UNL A   1      37.533  33.808  31.098  1.00  0.00     0.014 A 
ATOM     42  C   UNL A   1      37.215  31.149  31.841  1.00  0.00     0.010 A 
ATOM     43  C   UNL A   1      38.569  32.934  30.910  1.00  0.00     0.010 A 
ATOM     44  C   UNL A   1      38.442  31.622  31.349  1.00  0.00    -0.014 A 
BRANCH  44  45
ATOM     45  C   UNL A   1      39.599  30.744  31.214  1.00  0.00     0.031 A 
ATOM     46  C   UNL A   1      40.314  30.440  32.483  1.00  0.00     0.074 A 
ATOM     47  C   UNL A   1      39.881  30.086  30.068  1.00  0.00     0.049 A 
ATOM     48  N   UNL A   1      41.493  30.833  32.835  1.00  0.00    -0.248 NA
ATOM     49  C   UNL A   1      39.587  29.725  33.544  1.00  0.00     0.031 C 
ATOM     50  C   UNL A   1      39.113  30.043  28.815  1.00  0.00     0.029 A 
ATOM     51  N   UNL A   1      40.891  29.213  29.819  1.00  0.00    -0.354 N 
ATOM     52  C   UNL A   1      41.751  30.228  34.062  1.00  0.00     0.074 A 
ATOM     53  C   UNL A   1      40.487  29.720  34.531  1.00  0.00     0.031 C 
ATOM     54  C   UNL A   1      39.547  29.020  28.047  1.00  0.00     0.029 A 
ATOM     55  C   UNL A   1      40.738  28.464  28.658  1.00  0.00     0.049 A 
ATOM     56  H   UNL A   1      41.670  29.118  30.414  1.00  0.00     0.167 HD
ATOM     57  C   UNL A   1      43.027  29.991  34.482  1.00  0.00     0.037 A 
ATOM     58  C   UNL A   1      41.534  27.454  28.231  1.00  0.00     0.037 A 
ATOM     59  C   UNL A   1      43.982  30.729  33.692  1.00  0.00     0.049 A 
ATOM     60  C   UNL A   1      42.849  27.648  28.896  1.00  0.00     0.074 A 
ATOM     61  C   UNL A   1      44.202  32.070  33.439  1.00  0.00     0.029 A 
ATOM     62  N   UNL A   1      44.648  30.050  32.700  1.00  0.00    -0.354 N 
ATOM     63  N   UNL A   1      43.627  28.674  28.676  1.00  0.00    -0.248 NA
ATOM     64  C   UNL A   1      43.080  26.949  30.150  1.00  0.00     0.031 C 
ATOM     65  C   UNL A   1      44.555  32.129  32.058  1.00  0.00     0.029 A 
ATOM     66  C   UNL A   1      44.597  30.823  31.567  1.00  0.00     0.049 A 
ATOM     67  H   UNL A   1      45.083  29.170  32.787  1.00  0.00     0.167 HD
ATOM     68  C   UNL A   1      44.135  29.009  29.924  1.00  0.00     0.074 A 
ATOM     69  C   UNL A   1      43.832  27.858  30.775  1.00  0.00     0.031 C 
ATOM     70  C   UNL A   1      44.506  30.290  30.224  1.00  0.00     0.037 A 
BRANCH  57  71
ATOM     71  C   UNL A   1      43.441  28.831  35.355  1.00  0.00     0.058 A 
ATOM     72  C   UNL A   1      44.210  29.074  36.512  1.00  0.00     0.135 A 
ATOM     73  C   UNL A   1      43.355  27.479  34.955  1.00  0.00     0.135 A 
ATOM     74  F   UNL A   1      44.368  30.323  36.979  1.00  0.00    -0.206 F 
ATOM     75  C   UNL A   1      44.900  28.059  37.178  1.00  0.00     0.059 A 
ATOM     76  C   UNL A   1      43.989  26.446  35.635  1.00  0.00     0.059 A 
ATOM     77  F   UNL A   1      42.738  27.109  33.826  1.00  0.00    -0.206 F 
ATOM     78  C   UNL A   1      44.794  26.749  36.720  1.00  0.00     0.060 A 
BRANCH  78  79
ATOM     79  S   UNL A   1      45.774  25.459  37.505  1.00  0.00     0.124 S 
ATOM     80  O   UNL A   1      44.772  24.793  38.330  1.00  0.00    -0.237 OA
ATOM     81  O   UNL A   1      46.259  24.705  36.353  1.00  0.00    -0.237 OA
ATOM     82  O   UNL A   1      46.796  26.207  38.232  1.00  0.00    -0.744 OA
ENDBRANCH  78  79
ENDBRANCH  57  71
BRANCH  58  83
ATOM     83  C   UNL A   1      41.115  26.168  27.613  1.00  0.00     0.058 A 
ATOM     84  C   UNL A   1      41.914  25.536  26.643  1.00  0.00     0.135 A 
ATOM     85  C   UNL A   1      40.078  25.389  28.166  1.00  0.00     0.135 A 
ATOM     86  F   UNL A   1      42.933  26.198  26.075  1.00  0.00    -0.206 F 
ATOM     87  C   UNL A   1      41.733  24.194  26.285  1.00  0.00     0.059 A 
ATOM     88  C   UNL A   1      39.875  24.052  27.821  1.00  0.00     0.059 A 
ATOM     89  F   UNL A   1      39.284  25.879  29.129  1.00  0.00    -0.206 F 
ATOM     90  C   UNL A   1      40.725  23.453  26.898  1.00  0.00     0.060 A 
BRANCH  90  91
ATOM     91  S   UNL A   1      40.597  21.679  26.564  1.00  0.00     0.124 S 
ATOM     92  O   UNL A   1      39.272  21.580  25.963  1.00  0.00    -0.237 OA
ATOM     93  O   UNL A   1      41.723  21.457  25.663  1.00  0.00    -0.237 OA
ATOM     94  O   UNL A   1      40.730  21.072  27.885  1.00  0.00    -0.744 OA
ENDBRANCH  90  91
ENDBRANCH  58  83
BRANCH  70  95
ATOM     95  C   UNL A   1      44.619  31.287  29.095  1.00  0.00     0.058 A 
ATOM     96  C   UNL A   1      45.702  31.361  28.198  1.00  0.00     0.135 A 
ATOM     97  C   UNL A   1      43.504  32.089  28.809  1.00  0.00     0.135 A 
ATOM     98  F   UNL A   1      46.768  30.563  28.336  1.00  0.00    -0.206 F 
ATOM     99  C   UNL A   1      45.688  32.215  27.091  1.00  0.00     0.059 A 
ATOM    100  C   UNL A   1      43.456  32.925  27.697  1.00  0.00     0.059 A 
ATOM    101  F   UNL A   1      42.414  32.022  29.591  1.00  0.00    -0.206 F 
ATOM    102  C   UNL A   1      44.557  32.992  26.846  1.00  0.00     0.060 A 
BRANCH 102 103
ATOM    103  S   UNL A   1      44.508  34.039  25.375  1.00  0.00     0.124 S 
ATOM    104  O   UNL A   1      45.711  34.850  25.533  1.00  0.00    -0.237 OA
ATOM    105  O   UNL A   1      44.542  33.062  24.290  1.00  0.00    -0.237 OA
ATOM    106  O   UNL A   1      43.247  34.763  25.510  1.00  0.00    -0.744 OA
ENDBRANCH 102 103
ENDBRANCH  70  95
ENDBRANCH  44  45
ENDBRANCH  36  39
ENDBRANCH  34  35
ENDBRANCH  33  34
ENDBRANCH  32  33
ENDBRANCH   1  32
TORSDOF 21
ENDMDL
