MODEL 1
REMARK VINA RESULT:     -11.2      0.000      0.000
REMARK SMILES O=C(Cc1ccc(S(=O)(=O)N2CCNC(=O)C2)cc1)NCCCCCCNC(=O)c1ccc(-c2c3nc(c(-c4c(F)cc(S(=O)(=O)[O-])cc4F)c4ccc([nH]4)c(-c4c(F)cc(S(=O)(=O)[O-])cc4F)c4nc(c(-c5c(F)cc(S(=O)(=O)[O-])cc5F)c5ccc2[nH]5)C=C4)C=C3)cc1
REMARK SMILES IDX 23 1 22 2 21 3 20 4 1 5 2 6 3 8 4 9 5 10 19 11 6 12 18 13
REMARK SMILES IDX 7 14 8 15 9 16 10 17 11 18 12 19 17 20 13 21 15 22 14 23
REMARK SMILES IDX 16 24 24 26 25 27 26 28 27 29 28 30 29 32 30 33 31 34 95 35
REMARK SMILES IDX 32 36 94 37 33 38 34 39 35 40 88 41 36 42 93 43 87 44 89 45
REMARK SMILES IDX 37 46 92 47 86 48 85 49 38 51 72 52 51 53 71 54 52 55 55 56
REMARK SMILES IDX 70 57 90 58 53 59 54 60 69 62 91 63 56 64 39 65 40 66 49 67
REMARK SMILES IDX 41 68 42 69 48 70 50 71 43 72 44 73 45 74 46 75 47 76 73 77
REMARK SMILES IDX 74 78 83 79 75 80 76 81 82 82 84 83 77 84 78 85 79 86 80 87
REMARK SMILES IDX 81 88 57 89 58 90 67 91 59 92 60 93 66 94 68 95 61 96 62 97
REMARK SMILES IDX 63 98 64 99 65 100
REMARK H PARENT 20 7 14 25 27 31 89 50 55 61
REMARK Flexibility Score: inf
ROOT
ATOM      1  C   UNL A   1      41.213  21.818  27.960  1.00  0.00     0.002 C 
ENDROOT
BRANCH   1   2
ATOM      2  C   UNL A   1      40.138  22.468  27.069  1.00  0.00     0.021 C 
BRANCH   2   3
ATOM      3  C   UNL A   1      39.370  21.490  26.176  1.00  0.00     0.116 C 
BRANCH   3   4
ATOM      4  N   UNL A   1      38.481  22.215  25.300  1.00  0.00    -0.356 N 
ATOM      5  O   UNL A   1      36.676  20.797  25.374  1.00  0.00    -0.275 OA
ATOM      6  C   UNL A   1      37.250  21.766  24.888  1.00  0.00     0.224 C 
ATOM      7  H   UNL A   1      38.779  23.095  24.974  1.00  0.00     0.163 HD
BRANCH   6   8
ATOM      8  C   UNL A   1      36.711  22.501  23.668  1.00  0.00     0.135 C 
BRANCH   8   9
ATOM      9  C   UNL A   1      35.486  23.340  23.946  1.00  0.00    -0.039 A 
ATOM     10  C   UNL A   1      34.401  23.377  23.057  1.00  0.00     0.005 A 
ATOM     11  C   UNL A   1      35.459  24.155  25.078  1.00  0.00     0.005 A 
ATOM     12  C   UNL A   1      33.320  24.231  23.294  1.00  0.00     0.022 A 
ATOM     13  C   UNL A   1      34.381  25.011  25.308  1.00  0.00     0.022 A 
ATOM     14  C   UNL A   1      33.303  25.047  24.430  1.00  0.00     0.082 A 
BRANCH  14  15
ATOM     15  S   UNL A   1      31.874  26.088  24.662  1.00  0.00     0.243 S 
ATOM     16  O   UNL A   1      30.837  25.538  23.816  1.00  0.00    -0.207 OA
ATOM     17  O   UNL A   1      31.693  26.191  26.095  1.00  0.00    -0.207 OA
BRANCH  15  18
ATOM     18  N   UNL A   1      32.214  27.634  24.116  1.00  0.00    -0.187 NA
ATOM     19  C   UNL A   1      31.285  28.383  23.254  1.00  0.00     0.124 C 
ATOM     20  C   UNL A   1      33.214  28.480  24.793  1.00  0.00     0.202 C 
ATOM     21  C   UNL A   1      30.557  29.458  24.058  1.00  0.00     0.132 C 
ATOM     22  C   UNL A   1      32.612  29.703  25.470  1.00  0.00     0.235 C 
ATOM     23  N   UNL A   1      31.407  30.169  25.000  1.00  0.00    -0.354 N 
ATOM     24  O   UNL A   1      33.167  30.291  26.396  1.00  0.00    -0.274 OA
ATOM     25  H   UNL A   1      31.097  31.046  25.323  1.00  0.00     0.163 HD
ENDBRANCH  15  18
ENDBRANCH  14  15
ENDBRANCH   8   9
ENDBRANCH   6   8
ENDBRANCH   3   4
ENDBRANCH   2   3
ENDBRANCH   1   2
BRANCH   1  26
ATOM     26  C   UNL A   1      42.207  22.785  28.610  1.00  0.00     0.002 C 
BRANCH  26  27
ATOM     27  C   UNL A   1      43.578  22.851  27.940  1.00  0.00     0.021 C 
BRANCH  27  28
ATOM     28  C   UNL A   1      43.944  24.217  27.379  1.00  0.00     0.116 C 
BRANCH  28  29
ATOM     29  N   UNL A   1      43.181  24.553  26.188  1.00  0.00    -0.352 N 
ATOM     30  C   UNL A   1      42.171  25.474  26.054  1.00  0.00     0.251 C 
ATOM     31  H   UNL A   1      43.419  24.054  25.372  1.00  0.00     0.163 HD
ATOM     32  O   UNL A   1      41.514  25.521  25.018  1.00  0.00    -0.269 OA
BRANCH  30  33
ATOM     33  C   UNL A   1      41.867  26.388  27.176  1.00  0.00     0.039 A 
ATOM     34  C   UNL A   1      40.863  26.040  28.082  1.00  0.00     0.014 A 
ATOM     35  C   UNL A   1      42.579  27.581  27.340  1.00  0.00     0.014 A 
ATOM     36  C   UNL A   1      40.602  26.867  29.176  1.00  0.00     0.010 A 
ATOM     37  C   UNL A   1      42.375  28.360  28.475  1.00  0.00     0.010 A 
ATOM     38  C   UNL A   1      41.372  28.022  29.396  1.00  0.00    -0.014 A 
BRANCH  38  39
ATOM     39  C   UNL A   1      41.110  28.914  30.556  1.00  0.00     0.031 A 
ATOM     40  C   UNL A   1      41.934  28.770  31.809  1.00  0.00     0.074 A 
ATOM     41  C   UNL A   1      40.116  29.823  30.498  1.00  0.00     0.049 A 
ATOM     42  N   UNL A   1      41.820  29.399  32.951  1.00  0.00    -0.248 NA
ATOM     43  C   UNL A   1      43.012  27.766  31.787  1.00  0.00     0.031 C 
ATOM     44  C   UNL A   1      39.220  30.029  29.358  1.00  0.00     0.029 A 
ATOM     45  N   UNL A   1      39.685  30.740  31.424  1.00  0.00    -0.354 N 
ATOM     46  C   UNL A   1      42.808  28.872  33.775  1.00  0.00     0.074 A 
ATOM     47  C   UNL A   1      43.462  27.820  33.032  1.00  0.00     0.031 C 
ATOM     48  C   UNL A   1      38.358  31.018  29.646  1.00  0.00     0.029 A 
ATOM     49  C   UNL A   1      38.615  31.493  31.002  1.00  0.00     0.049 A 
ATOM     50  H   UNL A   1      40.103  30.847  32.310  1.00  0.00     0.167 HD
ATOM     51  C   UNL A   1      43.163  29.254  35.024  1.00  0.00     0.037 A 
ATOM     52  C   UNL A   1      37.912  32.451  31.641  1.00  0.00     0.037 A 
ATOM     53  C   UNL A   1      42.522  30.315  35.755  1.00  0.00     0.049 A 
ATOM     54  C   UNL A   1      38.322  32.848  33.037  1.00  0.00     0.074 A 
ATOM     55  C   UNL A   1      42.815  30.788  37.023  1.00  0.00     0.029 A 
ATOM     56  N   UNL A   1      41.466  31.078  35.278  1.00  0.00    -0.354 N 
ATOM     57  N   UNL A   1      39.283  32.361  33.785  1.00  0.00    -0.248 NA
ATOM     58  C   UNL A   1      37.561  33.935  33.670  1.00  0.00     0.031 C 
ATOM     59  C   UNL A   1      41.914  31.813  37.326  1.00  0.00     0.029 A 
ATOM     60  C   UNL A   1      41.097  32.018  36.226  1.00  0.00     0.049 A 
ATOM     61  H   UNL A   1      41.042  30.968  34.396  1.00  0.00     0.167 HD
ATOM     62  C   UNL A   1      39.269  33.112  34.957  1.00  0.00     0.074 A 
ATOM     63  C   UNL A   1      38.212  34.091  34.812  1.00  0.00     0.031 C 
ATOM     64  C   UNL A   1      40.061  33.005  36.052  1.00  0.00     0.037 A 
BRANCH  51  65
ATOM     65  C   UNL A   1      44.320  28.541  35.672  1.00  0.00     0.058 A 
ATOM     66  C   UNL A   1      45.642  28.979  35.489  1.00  0.00     0.135 A 
ATOM     67  C   UNL A   1      44.106  27.449  36.527  1.00  0.00     0.135 A 
ATOM     68  F   UNL A   1      45.907  30.006  34.665  1.00  0.00    -0.206 F 
ATOM     69  C   UNL A   1      46.712  28.351  36.117  1.00  0.00     0.059 A 
ATOM     70  C   UNL A   1      45.159  26.823  37.190  1.00  0.00     0.059 A 
ATOM     71  F   UNL A   1      42.865  26.985  36.735  1.00  0.00    -0.206 F 
ATOM     72  C   UNL A   1      46.459  27.277  36.972  1.00  0.00     0.060 A 
BRANCH  72  73
ATOM     73  S   UNL A   1      47.858  26.498  37.807  1.00  0.00     0.124 S 
ATOM     74  O   UNL A   1      48.746  27.639  38.011  1.00  0.00    -0.237 OA
ATOM     75  O   UNL A   1      47.238  25.955  39.010  1.00  0.00    -0.237 OA
ATOM     76  O   UNL A   1      48.322  25.508  36.841  1.00  0.00    -0.744 OA
ENDBRANCH  72  73
ENDBRANCH  51  65
BRANCH  52  77
ATOM     77  C   UNL A   1      36.756  33.111  30.974  1.00  0.00     0.058 A 
ATOM     78  C   UNL A   1      35.435  32.813  31.344  1.00  0.00     0.135 A 
ATOM     79  C   UNL A   1      36.948  34.026  29.927  1.00  0.00     0.135 A 
ATOM     80  F   UNL A   1      35.196  31.944  32.338  1.00  0.00    -0.206 F 
ATOM     81  C   UNL A   1      34.347  33.359  30.669  1.00  0.00     0.059 A 
ATOM     82  C   UNL A   1      35.876  34.611  29.259  1.00  0.00     0.059 A 
ATOM     83  F   UNL A   1      38.190  34.365  29.549  1.00  0.00    -0.206 F 
ATOM     84  C   UNL A   1      34.580  34.253  29.622  1.00  0.00     0.060 A 
BRANCH  84  85
ATOM     85  S   UNL A   1      33.163  34.952  28.748  1.00  0.00     0.124 S 
ATOM     86  O   UNL A   1      32.297  35.336  29.857  1.00  0.00    -0.237 OA
ATOM     87  O   UNL A   1      33.772  36.048  28.001  1.00  0.00    -0.237 OA
ATOM     88  O   UNL A   1      32.689  33.836  27.934  1.00  0.00    -0.744 OA
ENDBRANCH  84  85
ENDBRANCH  52  77
BRANCH  64  89
ATOM     89  C   UNL A   1      39.869  34.016  37.151  1.00  0.00     0.058 A 
ATOM     90  C   UNL A   1      39.091  33.745  38.287  1.00  0.00     0.135 A 
ATOM     91  C   UNL A   1      40.510  35.264  37.078  1.00  0.00     0.135 A 
ATOM     92  F   UNL A   1      38.455  32.569  38.407  1.00  0.00    -0.206 F 
ATOM     93  C   UNL A   1      38.925  34.691  39.294  1.00  0.00     0.059 A 
ATOM     94  C   UNL A   1      40.385  36.210  38.089  1.00  0.00     0.059 A 
ATOM     95  F   UNL A   1      41.278  35.569  36.020  1.00  0.00    -0.206 F 
ATOM     96  C   UNL A   1      39.575  35.921  39.186  1.00  0.00     0.060 A 
BRANCH  96  97
ATOM     97  S   UNL A   1      39.364  37.132  40.507  1.00  0.00     0.124 S 
ATOM     98  O   UNL A   1      40.745  37.363  40.917  1.00  0.00    -0.237 OA
ATOM     99  O   UNL A   1      38.715  38.240  39.814  1.00  0.00    -0.237 OA
ATOM    100  O   UNL A   1      38.529  36.434  41.480  1.00  0.00    -0.744 OA
ENDBRANCH  96  97
ENDBRANCH  64  89
ENDBRANCH  38  39
ENDBRANCH  30  33
ENDBRANCH  28  29
ENDBRANCH  27  28
ENDBRANCH  26  27
ENDBRANCH   1  26
TORSDOF 19
ENDMDL
MODEL 2
REMARK VINA RESULT:     -11.0      6.369      8.726
REMARK SMILES O=C(Cc1ccc(S(=O)(=O)N2CCNC(=O)C2)cc1)NCCCCCCNC(=O)c1ccc(-c2c3nc(c(-c4c(F)cc(S(=O)(=O)[O-])cc4F)c4ccc([nH]4)c(-c4c(F)cc(S(=O)(=O)[O-])cc4F)c4nc(c(-c5c(F)cc(S(=O)(=O)[O-])cc5F)c5ccc2[nH]5)C=C4)C=C3)cc1
REMARK SMILES IDX 23 1 22 2 21 3 20 4 1 5 2 6 3 8 4 9 5 10 19 11 6 12 18 13
REMARK SMILES IDX 7 14 8 15 9 16 10 17 11 18 12 19 17 20 13 21 15 22 14 23
REMARK SMILES IDX 16 24 24 26 25 27 26 28 27 29 28 30 29 32 30 33 31 34 95 35
REMARK SMILES IDX 32 36 94 37 33 38 34 39 35 40 88 41 36 42 93 43 87 44 89 45
REMARK SMILES IDX 37 46 92 47 86 48 85 49 38 51 72 52 51 53 71 54 52 55 55 56
REMARK SMILES IDX 70 57 90 58 53 59 54 60 69 62 91 63 56 64 39 65 40 66 49 67
REMARK SMILES IDX 41 68 42 69 48 70 50 71 43 72 44 73 45 74 46 75 47 76 73 77
REMARK SMILES IDX 74 78 83 79 75 80 76 81 82 82 84 83 77 84 78 85 79 86 80 87
REMARK SMILES IDX 81 88 57 89 58 90 67 91 59 92 60 93 66 94 68 95 61 96 62 97
REMARK SMILES IDX 63 98 64 99 65 100
REMARK H PARENT 20 7 14 25 27 31 89 50 55 61
REMARK Flexibility Score: inf
ROOT
ATOM      1  C   UNL A   1      40.973  22.088  26.763  1.00  0.00     0.002 C 
ENDROOT
BRANCH   1   2
ATOM      2  C   UNL A   1      39.545  22.664  26.750  1.00  0.00     0.021 C 
BRANCH   2   3
ATOM      3  C   UNL A   1      38.618  22.054  25.696  1.00  0.00     0.116 C 
BRANCH   3   4
ATOM      4  N   UNL A   1      37.245  22.153  26.129  1.00  0.00    -0.356 N 
ATOM      5  O   UNL A   1      36.388  20.342  25.008  1.00  0.00    -0.275 OA
ATOM      6  C   UNL A   1      36.222  21.357  25.676  1.00  0.00     0.224 C 
ATOM      7  H   UNL A   1      37.026  22.841  26.799  1.00  0.00     0.163 HD
BRANCH   6   8
ATOM      8  C   UNL A   1      34.837  21.923  25.961  1.00  0.00     0.135 C 
BRANCH   8   9
ATOM      9  C   UNL A   1      34.542  23.219  25.242  1.00  0.00    -0.039 A 
ATOM     10  C   UNL A   1      34.416  24.433  25.932  1.00  0.00     0.005 A 
ATOM     11  C   UNL A   1      34.317  23.199  23.865  1.00  0.00     0.005 A 
ATOM     12  C   UNL A   1      34.053  25.601  25.253  1.00  0.00     0.022 A 
ATOM     13  C   UNL A   1      33.948  24.364  23.192  1.00  0.00     0.022 A 
ATOM     14  C   UNL A   1      33.827  25.571  23.873  1.00  0.00     0.082 A 
BRANCH  14  15
ATOM     15  S   UNL A   1      33.389  27.110  23.088  1.00  0.00     0.243 S 
ATOM     16  O   UNL A   1      34.215  28.124  23.706  1.00  0.00    -0.207 OA
ATOM     17  O   UNL A   1      33.457  26.856  21.663  1.00  0.00    -0.207 OA
BRANCH  15  18
ATOM     18  N   UNL A   1      31.790  27.476  23.427  1.00  0.00    -0.187 NA
ATOM     19  C   UNL A   1      31.357  27.938  24.755  1.00  0.00     0.124 C 
ATOM     20  C   UNL A   1      30.830  27.775  22.348  1.00  0.00     0.202 C 
ATOM     21  C   UNL A   1      31.088  29.441  24.738  1.00  0.00     0.132 C 
ATOM     22  C   UNL A   1      30.338  29.215  22.358  1.00  0.00     0.235 C 
ATOM     23  N   UNL A   1      30.394  29.904  23.546  1.00  0.00    -0.354 N 
ATOM     24  O   UNL A   1      29.884  29.769  21.359  1.00  0.00    -0.274 OA
ATOM     25  H   UNL A   1      29.931  30.772  23.595  1.00  0.00     0.163 HD
ENDBRANCH  15  18
ENDBRANCH  14  15
ENDBRANCH   8   9
ENDBRANCH   6   8
ENDBRANCH   3   4
ENDBRANCH   2   3
ENDBRANCH   1   2
BRANCH   1  26
ATOM     26  C   UNL A   1      41.212  20.930  27.738  1.00  0.00     0.002 C 
BRANCH  26  27
ATOM     27  C   UNL A   1      42.046  19.778  27.181  1.00  0.00     0.021 C 
BRANCH  27  28
ATOM     28  C   UNL A   1      41.893  19.551  25.684  1.00  0.00     0.116 C 
BRANCH  28  29
ATOM     29  N   UNL A   1      43.095  19.003  25.078  1.00  0.00    -0.352 N 
ATOM     30  C   UNL A   1      44.251  19.660  24.730  1.00  0.00     0.251 C 
ATOM     31  H   UNL A   1      43.079  18.036  24.892  1.00  0.00     0.163 HD
ATOM     32  O   UNL A   1      45.114  19.084  24.075  1.00  0.00    -0.269 OA
BRANCH  30  33
ATOM     33  C   UNL A   1      44.432  21.073  25.130  1.00  0.00     0.039 A 
ATOM     34  C   UNL A   1      44.917  21.359  26.407  1.00  0.00     0.014 A 
ATOM     35  C   UNL A   1      44.133  22.111  24.242  1.00  0.00     0.014 A 
ATOM     36  C   UNL A   1      45.144  22.686  26.779  1.00  0.00     0.010 A 
ATOM     37  C   UNL A   1      44.437  23.425  24.584  1.00  0.00     0.010 A 
ATOM     38  C   UNL A   1      44.929  23.729  25.863  1.00  0.00    -0.014 A 
BRANCH  38  39
ATOM     39  C   UNL A   1      45.166  25.148  26.240  1.00  0.00     0.031 A 
ATOM     40  C   UNL A   1      46.553  25.727  26.135  1.00  0.00     0.074 A 
ATOM     41  C   UNL A   1      44.150  25.901  26.708  1.00  0.00     0.049 A 
ATOM     42  N   UNL A   1      46.982  26.914  26.477  1.00  0.00    -0.248 NA
ATOM     43  C   UNL A   1      47.605  24.845  25.598  1.00  0.00     0.031 C 
ATOM     44  C   UNL A   1      42.772  25.443  26.898  1.00  0.00     0.029 A 
ATOM     45  N   UNL A   1      44.121  27.210  27.118  1.00  0.00    -0.354 N 
ATOM     46  C   UNL A   1      48.344  26.922  26.196  1.00  0.00     0.074 A 
ATOM     47  C   UNL A   1      48.686  25.599  25.727  1.00  0.00     0.031 C 
ATOM     48  C   UNL A   1      42.031  26.457  27.372  1.00  0.00     0.029 A 
ATOM     49  C   UNL A   1      42.884  27.628  27.553  1.00  0.00     0.049 A 
ATOM     50  H   UNL A   1      44.912  27.797  27.103  1.00  0.00     0.167 HD
ATOM     51  C   UNL A   1      49.223  27.948  26.285  1.00  0.00     0.037 A 
ATOM     52  C   UNL A   1      42.487  28.815  28.053  1.00  0.00     0.037 A 
ATOM     53  C   UNL A   1      48.874  29.269  26.735  1.00  0.00     0.049 A 
ATOM     54  C   UNL A   1      43.490  29.937  28.154  1.00  0.00     0.074 A 
ATOM     55  C   UNL A   1      49.689  30.383  26.851  1.00  0.00     0.029 A 
ATOM     56  N   UNL A   1      47.604  29.661  27.132  1.00  0.00    -0.354 N 
ATOM     57  N   UNL A   1      44.766  29.934  27.848  1.00  0.00    -0.248 NA
ATOM     58  C   UNL A   1      42.996  31.228  28.652  1.00  0.00     0.031 C 
ATOM     59  C   UNL A   1      48.919  31.438  27.350  1.00  0.00     0.029 A 
ATOM     60  C   UNL A   1      47.613  30.998  27.491  1.00  0.00     0.049 A 
ATOM     61  H   UNL A   1      46.813  29.075  27.154  1.00  0.00     0.167 HD
ATOM     62  C   UNL A   1      45.214  31.231  28.075  1.00  0.00     0.074 A 
ATOM     63  C   UNL A   1      44.071  31.993  28.534  1.00  0.00     0.031 C 
ATOM     64  C   UNL A   1      46.458  31.748  27.917  1.00  0.00     0.037 A 
BRANCH  51  65
ATOM     65  C   UNL A   1      50.643  27.692  25.857  1.00  0.00     0.058 A 
ATOM     66  C   UNL A   1      51.037  27.825  24.516  1.00  0.00     0.135 A 
ATOM     67  C   UNL A   1      51.632  27.367  26.799  1.00  0.00     0.135 A 
ATOM     68  F   UNL A   1      50.128  28.113  23.569  1.00  0.00    -0.206 F 
ATOM     69  C   UNL A   1      52.355  27.631  24.120  1.00  0.00     0.059 A 
ATOM     70  C   UNL A   1      52.964  27.197  26.431  1.00  0.00     0.059 A 
ATOM     71  F   UNL A   1      51.312  27.223  28.094  1.00  0.00    -0.206 F 
ATOM     72  C   UNL A   1      53.315  27.324  25.087  1.00  0.00     0.060 A 
BRANCH  72  73
ATOM     73  S   UNL A   1      55.027  27.112  24.559  1.00  0.00     0.124 S 
ATOM     74  O   UNL A   1      55.727  28.007  25.475  1.00  0.00    -0.237 OA
ATOM     75  O   UNL A   1      55.245  25.686  24.777  1.00  0.00    -0.237 OA
ATOM     76  O   UNL A   1      55.008  27.535  23.162  1.00  0.00    -0.744 OA
ENDBRANCH  72  73
ENDBRANCH  51  65
BRANCH  52  77
ATOM     77  C   UNL A   1      41.079  29.017  28.492  1.00  0.00     0.058 A 
ATOM     78  C   UNL A   1      40.057  29.276  27.565  1.00  0.00     0.135 A 
ATOM     79  C   UNL A   1      40.732  28.993  29.851  1.00  0.00     0.135 A 
ATOM     80  F   UNL A   1      40.335  29.312  26.252  1.00  0.00    -0.206 F 
ATOM     81  C   UNL A   1      38.755  29.552  27.972  1.00  0.00     0.059 A 
ATOM     82  C   UNL A   1      39.431  29.232  30.281  1.00  0.00     0.059 A 
ATOM     83  F   UNL A   1      41.665  28.726  30.779  1.00  0.00    -0.206 F 
ATOM     84  C   UNL A   1      38.454  29.534  29.335  1.00  0.00     0.060 A 
BRANCH  84  85
ATOM     85  S   UNL A   1      36.764  29.898  29.854  1.00  0.00     0.124 S 
ATOM     86  O   UNL A   1      36.806  31.350  29.989  1.00  0.00    -0.237 OA
ATOM     87  O   UNL A   1      35.980  29.381  28.737  1.00  0.00    -0.237 OA
ATOM     88  O   UNL A   1      36.629  29.152  31.102  1.00  0.00    -0.744 OA
ENDBRANCH  84  85
ENDBRANCH  52  77
BRANCH  64  89
ATOM     89  C   UNL A   1      46.636  33.222  28.167  1.00  0.00     0.058 A 
ATOM     90  C   UNL A   1      46.450  34.178  27.157  1.00  0.00     0.135 A 
ATOM     91  C   UNL A   1      46.961  33.683  29.454  1.00  0.00     0.135 A 
ATOM     92  F   UNL A   1      46.140  33.793  25.909  1.00  0.00    -0.206 F 
ATOM     93  C   UNL A   1      46.617  35.537  27.406  1.00  0.00     0.059 A 
ATOM     94  C   UNL A   1      47.099  35.037  29.732  1.00  0.00     0.059 A 
ATOM     95  F   UNL A   1      47.136  32.811  30.460  1.00  0.00    -0.206 F 
ATOM     96  C   UNL A   1      46.942  35.957  28.696  1.00  0.00     0.060 A 
BRANCH  96  97
ATOM     97  S   UNL A   1      47.140  37.724  29.009  1.00  0.00     0.124 S 
ATOM     98  O   UNL A   1      48.546  37.925  28.679  1.00  0.00    -0.237 OA
ATOM     99  O   UNL A   1      46.180  38.314  28.080  1.00  0.00    -0.237 OA
ATOM    100  O   UNL A   1      46.800  37.860  30.422  1.00  0.00    -0.744 OA
ENDBRANCH  96  97
ENDBRANCH  64  89
ENDBRANCH  38  39
ENDBRANCH  30  33
ENDBRANCH  28  29
ENDBRANCH  27  28
ENDBRANCH  26  27
ENDBRANCH   1  26
TORSDOF 19
ENDMDL
MODEL 3
REMARK VINA RESULT:     -11.0      0.998      2.080
REMARK SMILES O=C(Cc1ccc(S(=O)(=O)N2CCNC(=O)C2)cc1)NCCCCCCNC(=O)c1ccc(-c2c3nc(c(-c4c(F)cc(S(=O)(=O)[O-])cc4F)c4ccc([nH]4)c(-c4c(F)cc(S(=O)(=O)[O-])cc4F)c4nc(c(-c5c(F)cc(S(=O)(=O)[O-])cc5F)c5ccc2[nH]5)C=C4)C=C3)cc1
REMARK SMILES IDX 23 1 22 2 21 3 20 4 1 5 2 6 3 8 4 9 5 10 19 11 6 12 18 13
REMARK SMILES IDX 7 14 8 15 9 16 10 17 11 18 12 19 17 20 13 21 15 22 14 23
REMARK SMILES IDX 16 24 24 26 25 27 26 28 27 29 28 30 29 32 30 33 31 34 95 35
REMARK SMILES IDX 32 36 94 37 33 38 34 39 35 40 88 41 36 42 93 43 87 44 89 45
REMARK SMILES IDX 37 46 92 47 86 48 85 49 38 51 72 52 51 53 71 54 52 55 55 56
REMARK SMILES IDX 70 57 90 58 53 59 54 60 69 62 91 63 56 64 39 65 40 66 49 67
REMARK SMILES IDX 41 68 42 69 48 70 50 71 43 72 44 73 45 74 46 75 47 76 73 77
REMARK SMILES IDX 74 78 83 79 75 80 76 81 82 82 84 83 77 84 78 85 79 86 80 87
REMARK SMILES IDX 81 88 57 89 58 90 67 91 59 92 60 93 66 94 68 95 61 96 62 97
REMARK SMILES IDX 63 98 64 99 65 100
REMARK H PARENT 20 7 14 25 27 31 89 50 55 61
REMARK Flexibility Score: inf
ROOT
ATOM      1  C   UNL A   1      42.298  21.440  27.622  1.00  0.00     0.002 C 
ENDROOT
BRANCH   1   2
ATOM      2  C   UNL A   1      40.758  21.458  27.566  1.00  0.00     0.021 C 
BRANCH   2   3
ATOM      3  C   UNL A   1      40.169  21.455  26.153  1.00  0.00     0.116 C 
BRANCH   3   4
ATOM      4  N   UNL A   1      39.222  22.534  26.012  1.00  0.00    -0.356 N 
ATOM      5  O   UNL A   1      37.372  21.308  25.423  1.00  0.00    -0.275 OA
ATOM      6  C   UNL A   1      37.932  22.390  25.562  1.00  0.00     0.224 C 
ATOM      7  H   UNL A   1      39.521  23.440  26.256  1.00  0.00     0.163 HD
BRANCH   6   8
ATOM      8  C   UNL A   1      37.293  23.698  25.115  1.00  0.00     0.135 C 
BRANCH   8   9
ATOM      9  C   UNL A   1      35.790  23.730  25.258  1.00  0.00    -0.039 A 
ATOM     10  C   UNL A   1      34.957  24.139  24.206  1.00  0.00     0.005 A 
ATOM     11  C   UNL A   1      35.214  23.413  26.490  1.00  0.00     0.005 A 
ATOM     12  C   UNL A   1      33.576  24.245  24.394  1.00  0.00     0.022 A 
ATOM     13  C   UNL A   1      33.836  23.526  26.676  1.00  0.00     0.022 A 
ATOM     14  C   UNL A   1      33.008  23.928  25.633  1.00  0.00     0.082 A 
BRANCH  14  15
ATOM     15  S   UNL A   1      31.237  24.072  25.776  1.00  0.00     0.243 S 
ATOM     16  O   UNL A   1      30.682  23.160  24.799  1.00  0.00    -0.207 OA
ATOM     17  O   UNL A   1      30.945  23.925  27.187  1.00  0.00    -0.207 OA
BRANCH  15  18
ATOM     18  N   UNL A   1      30.766  25.622  25.354  1.00  0.00    -0.187 NA
ATOM     19  C   UNL A   1      31.248  26.812  26.074  1.00  0.00     0.124 C 
ATOM     20  C   UNL A   1      30.218  25.916  24.016  1.00  0.00     0.202 C 
ATOM     21  C   UNL A   1      32.311  27.541  25.256  1.00  0.00     0.132 C 
ATOM     22  C   UNL A   1      31.119  26.810  23.176  1.00  0.00     0.235 C 
ATOM     23  N   UNL A   1      32.008  27.626  23.836  1.00  0.00    -0.354 N 
ATOM     24  O   UNL A   1      31.066  26.841  21.949  1.00  0.00    -0.274 OA
ATOM     25  H   UNL A   1      32.473  28.316  23.310  1.00  0.00     0.163 HD
ENDBRANCH  15  18
ENDBRANCH  14  15
ENDBRANCH   8   9
ENDBRANCH   6   8
ENDBRANCH   3   4
ENDBRANCH   2   3
ENDBRANCH   1   2
BRANCH   1  26
ATOM     26  C   UNL A   1      42.945  22.587  28.403  1.00  0.00     0.002 C 
BRANCH  26  27
ATOM     27  C   UNL A   1      44.183  23.197  27.748  1.00  0.00     0.021 C 
BRANCH  27  28
ATOM     28  C   UNL A   1      43.967  24.580  27.151  1.00  0.00     0.116 C 
BRANCH  28  29
ATOM     29  N   UNL A   1      42.913  24.597  26.151  1.00  0.00    -0.352 N 
ATOM     30  C   UNL A   1      41.709  25.259  26.192  1.00  0.00     0.251 C 
ATOM     31  H   UNL A   1      43.081  24.063  25.341  1.00  0.00     0.163 HD
ATOM     32  O   UNL A   1      40.855  25.038  25.338  1.00  0.00    -0.269 OA
BRANCH  30  33
ATOM     33  C   UNL A   1      41.445  26.220  27.286  1.00  0.00     0.039 A 
ATOM     34  C   UNL A   1      40.541  25.871  28.290  1.00  0.00     0.014 A 
ATOM     35  C   UNL A   1      42.097  27.457  27.324  1.00  0.00     0.014 A 
ATOM     36  C   UNL A   1      40.323  26.746  29.357  1.00  0.00     0.010 A 
ATOM     37  C   UNL A   1      41.941  28.289  28.428  1.00  0.00     0.010 A 
ATOM     38  C   UNL A   1      41.038  27.952  29.448  1.00  0.00    -0.014 A 
BRANCH  38  39
ATOM     39  C   UNL A   1      40.821  28.894  30.577  1.00  0.00     0.031 A 
ATOM     40  C   UNL A   1      41.657  28.772  31.824  1.00  0.00     0.074 A 
ATOM     41  C   UNL A   1      39.854  29.831  30.497  1.00  0.00     0.049 A 
ATOM     42  N   UNL A   1      41.578  29.447  32.942  1.00  0.00    -0.248 NA
ATOM     43  C   UNL A   1      42.704  27.734  31.826  1.00  0.00     0.031 C 
ATOM     44  C   UNL A   1      38.948  30.021  29.362  1.00  0.00     0.029 A 
ATOM     45  N   UNL A   1      39.464  30.795  31.393  1.00  0.00    -0.354 N 
ATOM     46  C   UNL A   1      42.562  28.920  33.773  1.00  0.00     0.074 A 
ATOM     47  C   UNL A   1      43.173  27.821  33.062  1.00  0.00     0.031 C 
ATOM     48  C   UNL A   1      38.122  31.047  29.623  1.00  0.00     0.029 A 
ATOM     49  C   UNL A   1      38.412  31.565  30.957  1.00  0.00     0.049 A 
ATOM     50  H   UNL A   1      39.898  30.922  32.268  1.00  0.00     0.167 HD
ATOM     51  C   UNL A   1      42.946  29.338  35.002  1.00  0.00     0.037 A 
ATOM     52  C   UNL A   1      37.748  32.568  31.567  1.00  0.00     0.037 A 
ATOM     53  C   UNL A   1      42.348  30.445  35.699  1.00  0.00     0.049 A 
ATOM     54  C   UNL A   1      38.189  33.004  32.942  1.00  0.00     0.074 A 
ATOM     55  C   UNL A   1      42.673  30.956  36.945  1.00  0.00     0.029 A 
ATOM     56  N   UNL A   1      41.309  31.222  35.208  1.00  0.00    -0.354 N 
ATOM     57  N   UNL A   1      39.146  32.516  33.696  1.00  0.00    -0.248 NA
ATOM     58  C   UNL A   1      37.471  34.137  33.543  1.00  0.00     0.031 C 
ATOM     59  C   UNL A   1      41.808  32.019  37.220  1.00  0.00     0.029 A 
ATOM     60  C   UNL A   1      40.983  32.208  36.124  1.00  0.00     0.049 A 
ATOM     61  H   UNL A   1      40.869  31.093  34.336  1.00  0.00     0.167 HD
ATOM     62  C   UNL A   1      39.172  33.311  34.838  1.00  0.00     0.074 A 
ATOM     63  C   UNL A   1      38.143  34.316  34.670  1.00  0.00     0.031 C 
ATOM     64  C   UNL A   1      39.975  33.220  35.926  1.00  0.00     0.037 A 
BRANCH  51  65
ATOM     65  C   UNL A   1      44.090  28.614  35.661  1.00  0.00     0.058 A 
ATOM     66  C   UNL A   1      43.868  27.517  36.508  1.00  0.00     0.135 A 
ATOM     67  C   UNL A   1      45.420  28.980  35.400  1.00  0.00     0.135 A 
ATOM     68  F   UNL A   1      42.615  27.136  36.809  1.00  0.00    -0.206 F 
ATOM     69  C   UNL A   1      44.921  26.818  37.087  1.00  0.00     0.059 A 
ATOM     70  C   UNL A   1      46.491  28.277  35.945  1.00  0.00     0.059 A 
ATOM     71  F   UNL A   1      45.691  30.024  34.602  1.00  0.00    -0.206 F 
ATOM     72  C   UNL A   1      46.231  27.201  36.794  1.00  0.00     0.060 A 
BRANCH  72  73
ATOM     73  S   UNL A   1      47.585  26.258  37.526  1.00  0.00     0.124 S 
ATOM     74  O   UNL A   1      48.347  25.876  36.340  1.00  0.00    -0.237 OA
ATOM     75  O   UNL A   1      48.216  27.245  38.394  1.00  0.00    -0.237 OA
ATOM     76  O   UNL A   1      46.906  25.164  38.213  1.00  0.00    -0.744 OA
ENDBRANCH  72  73
ENDBRANCH  51  65
BRANCH  52  77
ATOM     77  C   UNL A   1      36.603  33.238  30.891  1.00  0.00     0.058 A 
ATOM     78  C   UNL A   1      36.799  34.059  29.770  1.00  0.00     0.135 A 
ATOM     79  C   UNL A   1      35.294  33.100  31.376  1.00  0.00     0.135 A 
ATOM     80  F   UNL A   1      38.032  34.227  29.267  1.00  0.00    -0.206 F 
ATOM     81  C   UNL A   1      35.747  34.758  29.185  1.00  0.00     0.059 A 
ATOM     82  C   UNL A   1      34.220  33.761  30.787  1.00  0.00     0.059 A 
ATOM     83  F   UNL A   1      35.046  32.307  32.431  1.00  0.00    -0.206 F 
ATOM     84  C   UNL A   1      34.461  34.607  29.707  1.00  0.00     0.060 A 
BRANCH  84  85
ATOM     85  S   UNL A   1      33.103  35.521  28.945  1.00  0.00     0.124 S 
ATOM     86  O   UNL A   1      33.816  36.614  28.293  1.00  0.00    -0.237 OA
ATOM     87  O   UNL A   1      32.517  34.521  28.059  1.00  0.00    -0.237 OA
ATOM     88  O   UNL A   1      32.274  35.900  30.085  1.00  0.00    -0.744 OA
ENDBRANCH  84  85
ENDBRANCH  52  77
BRANCH  64  89
ATOM     89  C   UNL A   1      39.830  34.277  36.989  1.00  0.00     0.058 A 
ATOM     90  C   UNL A   1      40.417  35.545  36.865  1.00  0.00     0.135 A 
ATOM     91  C   UNL A   1      39.054  34.023  38.132  1.00  0.00     0.135 A 
ATOM     92  F   UNL A   1      41.169  35.841  35.793  1.00  0.00    -0.206 F 
ATOM     93  C   UNL A   1      40.271  36.512  37.855  1.00  0.00     0.059 A 
ATOM     94  C   UNL A   1      38.868  34.984  39.118  1.00  0.00     0.059 A 
ATOM     95  F   UNL A   1      38.458  32.830  38.294  1.00  0.00    -0.206 F 
ATOM     96  C   UNL A   1      39.495  36.222  38.979  1.00  0.00     0.060 A 
BRANCH  96  97
ATOM     97  S   UNL A   1      39.300  37.490  40.249  1.00  0.00     0.124 S 
ATOM     98  O   UNL A   1      38.625  36.746  41.306  1.00  0.00    -0.237 OA
ATOM     99  O   UNL A   1      40.682  37.870  40.524  1.00  0.00    -0.237 OA
ATOM    100  O   UNL A   1      38.495  38.513  39.588  1.00  0.00    -0.744 OA
ENDBRANCH  96  97
ENDBRANCH  64  89
ENDBRANCH  38  39
ENDBRANCH  30  33
ENDBRANCH  28  29
ENDBRANCH  27  28
ENDBRANCH  26  27
ENDBRANCH   1  26
TORSDOF 19
ENDMDL
