MODEL 1
REMARK VINA RESULT:     -10.7      0.000      0.000
REMARK SMILES COc1ncccc1Cn1ccc(C(=O)NCCCCCCNC(=O)c2ccc(-c3c4nc(c(-c5c(F)cc(S(=O)(=O)[O-])cc5F)c5ccc([nH]5)c(-c5c(F)cc(S(=O)(=O)[O-])cc5F)c5nc(c(-c6c(F)cc(S(=O)(=O)[O-])cc6F)c6ccc3[nH]6)C=C5)C=C4)cc2)n1
REMARK SMILES IDX 19 1 18 2 17 3 16 4 14 5 15 6 13 8 10 9 11 10 92 11 12 12
REMARK SMILES IDX 9 13 8 14 3 15 4 16 5 17 7 18 6 19 2 20 1 21 20 22 21 23
REMARK SMILES IDX 22 24 23 25 24 26 25 28 26 29 27 30 91 31 28 32 90 33 29 34
REMARK SMILES IDX 30 35 31 36 84 37 32 38 89 39 83 40 85 41 33 42 88 43 82 44
REMARK SMILES IDX 81 45 34 47 68 48 47 49 67 50 48 51 51 52 66 53 86 54 49 55
REMARK SMILES IDX 50 56 65 58 87 59 52 60 35 61 36 62 45 63 37 64 38 65 44 66
REMARK SMILES IDX 46 67 39 68 40 69 41 70 42 71 43 72 69 73 70 74 79 75 71 76
REMARK SMILES IDX 72 77 78 78 80 79 73 80 74 81 75 82 76 83 77 84 53 85 54 86
REMARK SMILES IDX 63 87 55 88 56 89 62 90 64 91 57 92 58 93 59 94 60 95 61 96
REMARK H PARENT 16 7 23 27 85 46 51 57
REMARK Flexibility Score: inf
ROOT
ATOM      1  C   UNL A   1      35.466  31.180  27.845  1.00  0.00     0.002 C 
ENDROOT
BRANCH   1   2
ATOM      2  C   UNL A   1      35.341  29.657  27.921  1.00  0.00     0.021 C 
BRANCH   2   3
ATOM      3  C   UNL A   1      34.311  29.052  26.969  1.00  0.00     0.116 C 
BRANCH   3   4
ATOM      4  N   UNL A   1      33.104  28.619  27.653  1.00  0.00    -0.351 N 
ATOM      5  C   UNL A   1      32.103  27.786  27.201  1.00  0.00     0.271 C 
ATOM      6  O   UNL A   1      31.097  27.637  27.898  1.00  0.00    -0.267 OA
ATOM      7  H   UNL A   1      32.985  28.967  28.565  1.00  0.00     0.163 HD
BRANCH   5   8
ATOM      8  C   UNL A   1      32.238  27.167  25.879  1.00  0.00     0.150 A 
ATOM      9  N   UNL A   1      33.079  26.012  24.297  1.00  0.00    -0.267 N 
ATOM     10  C   UNL A   1      32.200  26.864  23.687  1.00  0.00     0.110 A 
ATOM     11  N   UNL A   1      33.038  26.111  25.639  1.00  0.00    -0.167 NA
ATOM     12  C   UNL A   1      31.579  27.567  24.693  1.00  0.00     0.056 A 
BRANCH   9  13
ATOM     13  C   UNL A   1      34.010  25.036  23.727  1.00  0.00     0.185 C 
BRANCH  13  14
ATOM     14  C   UNL A   1      33.505  23.629  23.724  1.00  0.00     0.036 A 
ATOM     15  C   UNL A   1      33.965  22.667  24.623  1.00  0.00     0.218 A 
ATOM     16  N   UNL A   1      33.479  21.410  24.684  1.00  0.00    -0.222 NA
ATOM     17  C   UNL A   1      32.515  21.080  23.792  1.00  0.00     0.115 A 
ATOM     18  C   UNL A   1      32.530  23.235  22.795  1.00  0.00     0.013 A 
ATOM     19  C   UNL A   1      32.037  21.938  22.818  1.00  0.00     0.021 A 
BRANCH  15  20
ATOM     20  O   UNL A   1      35.128  22.865  25.326  1.00  0.00    -0.481 OA
ATOM     21  C   UNL A   1      35.495  21.761  26.143  1.00  0.00     0.280 C 
ENDBRANCH  15  20
ENDBRANCH  13  14
ENDBRANCH   9  13
ENDBRANCH   5   8
ENDBRANCH   3   4
ENDBRANCH   2   3
ENDBRANCH   1   2
BRANCH   1  22
ATOM     22  C   UNL A   1      34.273  31.976  28.393  1.00  0.00     0.002 C 
BRANCH  22  23
ATOM     23  C   UNL A   1      34.197  33.459  27.999  1.00  0.00     0.021 C 
BRANCH  23  24
ATOM     24  C   UNL A   1      35.261  34.325  28.651  1.00  0.00     0.116 C 
BRANCH  24  25
ATOM     25  N   UNL A   1      34.829  34.854  29.945  1.00  0.00    -0.352 N 
ATOM     26  C   UNL A   1      35.042  34.302  31.190  1.00  0.00     0.251 C 
ATOM     27  H   UNL A   1      34.328  35.701  29.923  1.00  0.00     0.163 HD
ATOM     28  O   UNL A   1      34.330  34.604  32.147  1.00  0.00    -0.269 OA
BRANCH  26  29
ATOM     29  C   UNL A   1      36.155  33.356  31.348  1.00  0.00     0.039 A 
ATOM     30  C   UNL A   1      35.944  31.986  31.525  1.00  0.00     0.014 A 
ATOM     31  C   UNL A   1      37.442  33.880  31.263  1.00  0.00     0.014 A 
ATOM     32  C   UNL A   1      37.048  31.138  31.535  1.00  0.00     0.010 A 
ATOM     33  C   UNL A   1      38.506  33.035  31.104  1.00  0.00     0.010 A 
ATOM     34  C   UNL A   1      38.327  31.672  31.307  1.00  0.00    -0.014 A 
BRANCH  34  35
ATOM     35  C   UNL A   1      39.497  30.816  31.175  1.00  0.00     0.031 A 
ATOM     36  C   UNL A   1      40.190  30.514  32.457  1.00  0.00     0.074 A 
ATOM     37  C   UNL A   1      39.777  30.152  30.032  1.00  0.00     0.049 A 
ATOM     38  N   UNL A   1      41.343  30.944  32.849  1.00  0.00    -0.248 NA
ATOM     39  C   UNL A   1      39.452  29.779  33.499  1.00  0.00     0.031 C 
ATOM     40  C   UNL A   1      38.988  30.090  28.794  1.00  0.00     0.029 A 
ATOM     41  N   UNL A   1      40.791  29.288  29.773  1.00  0.00    -0.354 N 
ATOM     42  C   UNL A   1      41.584  30.332  34.077  1.00  0.00     0.074 A 
ATOM     43  C   UNL A   1      40.316  29.811  34.516  1.00  0.00     0.031 C 
ATOM     44  C   UNL A   1      39.419  29.061  28.031  1.00  0.00     0.029 A 
ATOM     45  C   UNL A   1      40.619  28.509  28.632  1.00  0.00     0.049 A 
ATOM     46  H   UNL A   1      41.588  29.218  30.347  1.00  0.00     0.167 HD
ATOM     47  C   UNL A   1      42.854  30.089  34.508  1.00  0.00     0.037 A 
ATOM     48  C   UNL A   1      41.397  27.470  28.236  1.00  0.00     0.037 A 
ATOM     49  C   UNL A   1      43.816  30.801  33.702  1.00  0.00     0.049 A 
ATOM     50  C   UNL A   1      42.700  27.621  28.940  1.00  0.00     0.074 A 
ATOM     51  C   UNL A   1      44.038  32.133  33.406  1.00  0.00     0.029 A 
ATOM     52  N   UNL A   1      44.476  30.088  32.729  1.00  0.00    -0.354 N 
ATOM     53  N   UNL A   1      43.527  28.607  28.721  1.00  0.00    -0.248 NA
ATOM     54  C   UNL A   1      42.851  26.957  30.226  1.00  0.00     0.031 C 
ATOM     55  C   UNL A   1      44.379  32.149  32.022  1.00  0.00     0.029 A 
ATOM     56  C   UNL A   1      44.433  30.827  31.574  1.00  0.00     0.049 A 
ATOM     57  H   UNL A   1      44.901  29.207  32.840  1.00  0.00     0.167 HD
ATOM     58  C   UNL A   1      43.991  28.969  29.979  1.00  0.00     0.074 A 
ATOM     59  C   UNL A   1      43.600  27.866  30.857  1.00  0.00     0.031 C 
ATOM     60  C   UNL A   1      44.383  30.250  30.248  1.00  0.00     0.037 A 
BRANCH  47  61
ATOM     61  C   UNL A   1      43.268  28.941  35.400  1.00  0.00     0.058 A 
ATOM     62  C   UNL A   1      44.061  29.205  36.538  1.00  0.00     0.135 A 
ATOM     63  C   UNL A   1      43.157  27.580  35.040  1.00  0.00     0.135 A 
ATOM     64  F   UNL A   1      44.242  30.464  36.968  1.00  0.00    -0.206 F 
ATOM     65  C   UNL A   1      44.750  28.201  37.220  1.00  0.00     0.059 A 
ATOM     66  C   UNL A   1      43.790  26.559  35.739  1.00  0.00     0.059 A 
ATOM     67  F   UNL A   1      42.512  27.183  33.937  1.00  0.00    -0.206 F 
ATOM     68  C   UNL A   1      44.617  26.880  36.802  1.00  0.00     0.060 A 
BRANCH  68  69
ATOM     69  S   UNL A   1      45.574  25.594  37.621  1.00  0.00     0.124 S 
ATOM     70  O   UNL A   1      45.056  24.393  36.978  1.00  0.00    -0.237 OA
ATOM     71  O   UNL A   1      46.940  25.969  37.276  1.00  0.00    -0.237 OA
ATOM     72  O   UNL A   1      45.220  25.760  39.028  1.00  0.00    -0.744 OA
ENDBRANCH  68  69
ENDBRANCH  47  61
BRANCH  48  73
ATOM     73  C   UNL A   1      40.972  26.194  27.598  1.00  0.00     0.058 A 
ATOM     74  C   UNL A   1      41.752  25.587  26.596  1.00  0.00     0.135 A 
ATOM     75  C   UNL A   1      39.956  25.395  28.162  1.00  0.00     0.135 A 
ATOM     76  F   UNL A   1      42.752  26.267  26.015  1.00  0.00    -0.206 F 
ATOM     77  C   UNL A   1      41.578  24.248  26.221  1.00  0.00     0.059 A 
ATOM     78  C   UNL A   1      39.758  24.063  27.797  1.00  0.00     0.059 A 
ATOM     79  F   UNL A   1      39.187  25.855  29.158  1.00  0.00    -0.206 F 
ATOM     80  C   UNL A   1      40.593  23.486  26.847  1.00  0.00     0.060 A 
BRANCH  80  81
ATOM     81  S   UNL A   1      40.494  21.708  26.520  1.00  0.00     0.124 S 
ATOM     82  O   UNL A   1      39.182  21.588  25.892  1.00  0.00    -0.237 OA
ATOM     83  O   UNL A   1      41.643  21.491  25.647  1.00  0.00    -0.237 OA
ATOM     84  O   UNL A   1      40.607  21.113  27.849  1.00  0.00    -0.744 OA
ENDBRANCH  80  81
ENDBRANCH  48  73
BRANCH  60  85
ATOM     85  C   UNL A   1      44.588  31.195  29.089  1.00  0.00     0.058 A 
ATOM     86  C   UNL A   1      45.702  31.190  28.229  1.00  0.00     0.135 A 
ATOM     87  C   UNL A   1      43.533  32.058  28.756  1.00  0.00     0.135 A 
ATOM     88  F   UNL A   1      46.707  30.323  28.405  1.00  0.00    -0.206 F 
ATOM     89  C   UNL A   1      45.785  32.044  27.125  1.00  0.00     0.059 A 
ATOM     90  C   UNL A   1      43.579  32.892  27.644  1.00  0.00     0.059 A 
ATOM     91  F   UNL A   1      42.412  32.064  29.497  1.00  0.00    -0.206 F 
ATOM     92  C   UNL A   1      44.717  32.895  26.843  1.00  0.00     0.060 A 
BRANCH  92  93
ATOM     93  S   UNL A   1      44.806  33.976  25.399  1.00  0.00     0.124 S 
ATOM     94  O   UNL A   1      43.797  34.983  25.708  1.00  0.00    -0.237 OA
ATOM     95  O   UNL A   1      46.192  34.434  25.430  1.00  0.00    -0.237 OA
ATOM     96  O   UNL A   1      44.478  33.087  24.286  1.00  0.00    -0.744 OA
ENDBRANCH  92  93
ENDBRANCH  60  85
ENDBRANCH  34  35
ENDBRANCH  26  29
ENDBRANCH  24  25
ENDBRANCH  23  24
ENDBRANCH  22  23
ENDBRANCH   1  22
TORSDOF 19
ENDMDL
MODEL 2
REMARK VINA RESULT:     -10.6      1.853      2.648
REMARK SMILES COc1ncccc1Cn1ccc(C(=O)NCCCCCCNC(=O)c2ccc(-c3c4nc(c(-c5c(F)cc(S(=O)(=O)[O-])cc5F)c5ccc([nH]5)c(-c5c(F)cc(S(=O)(=O)[O-])cc5F)c5nc(c(-c6c(F)cc(S(=O)(=O)[O-])cc6F)c6ccc3[nH]6)C=C5)C=C4)cc2)n1
REMARK SMILES IDX 19 1 18 2 17 3 16 4 14 5 15 6 13 8 10 9 11 10 92 11 12 12
REMARK SMILES IDX 9 13 8 14 3 15 4 16 5 17 7 18 6 19 2 20 1 21 20 22 21 23
REMARK SMILES IDX 22 24 23 25 24 26 25 28 26 29 27 30 91 31 28 32 90 33 29 34
REMARK SMILES IDX 30 35 31 36 84 37 32 38 89 39 83 40 85 41 33 42 88 43 82 44
REMARK SMILES IDX 81 45 34 47 68 48 47 49 67 50 48 51 51 52 66 53 86 54 49 55
REMARK SMILES IDX 50 56 65 58 87 59 52 60 35 61 36 62 45 63 37 64 38 65 44 66
REMARK SMILES IDX 46 67 39 68 40 69 41 70 42 71 43 72 69 73 70 74 79 75 71 76
REMARK SMILES IDX 72 77 78 78 80 79 73 80 74 81 75 82 76 83 77 84 53 85 54 86
REMARK SMILES IDX 63 87 55 88 56 89 62 90 64 91 57 92 58 93 59 94 60 95 61 96
REMARK H PARENT 16 7 23 27 85 46 51 57
REMARK Flexibility Score: inf
ROOT
ATOM      1  C   UNL A   1      31.034  29.707  24.711  1.00  0.00     0.002 C 
ENDROOT
BRANCH   1   2
ATOM      2  C   UNL A   1      30.701  29.109  23.343  1.00  0.00     0.021 C 
BRANCH   2   3
ATOM      3  C   UNL A   1      30.358  27.621  23.362  1.00  0.00     0.116 C 
BRANCH   3   4
ATOM      4  N   UNL A   1      30.151  27.111  24.708  1.00  0.00    -0.351 N 
ATOM      5  C   UNL A   1      30.902  26.197  25.414  1.00  0.00     0.271 C 
ATOM      6  O   UNL A   1      30.486  25.807  26.507  1.00  0.00    -0.267 OA
ATOM      7  H   UNL A   1      29.366  27.470  25.180  1.00  0.00     0.163 HD
BRANCH   5   8
ATOM      8  C   UNL A   1      32.128  25.667  24.809  1.00  0.00     0.150 A 
ATOM      9  N   UNL A   1      33.420  24.323  23.775  1.00  0.00    -0.267 N 
ATOM     10  C   UNL A   1      34.253  25.144  24.483  1.00  0.00     0.110 A 
ATOM     11  N   UNL A   1      32.130  24.693  23.880  1.00  0.00    -0.167 NA
ATOM     12  C   UNL A   1      33.451  26.077  25.096  1.00  0.00     0.056 A 
BRANCH   9  13
ATOM     13  C   UNL A   1      33.714  23.156  22.941  1.00  0.00     0.185 C 
BRANCH  13  14
ATOM     14  C   UNL A   1      33.626  21.846  23.657  1.00  0.00     0.036 A 
ATOM     15  C   UNL A   1      34.653  21.367  24.470  1.00  0.00     0.218 A 
ATOM     16  N   UNL A   1      34.571  20.222  25.178  1.00  0.00    -0.222 NA
ATOM     17  C   UNL A   1      33.432  19.501  25.050  1.00  0.00     0.115 A 
ATOM     18  C   UNL A   1      32.477  21.052  23.526  1.00  0.00     0.013 A 
ATOM     19  C   UNL A   1      32.382  19.853  24.221  1.00  0.00     0.021 A 
BRANCH  15  20
ATOM     20  O   UNL A   1      35.915  21.902  24.391  1.00  0.00    -0.481 OA
ATOM     21  C   UNL A   1      36.887  21.180  25.136  1.00  0.00     0.280 C 
ENDBRANCH  15  20
ENDBRANCH  13  14
ENDBRANCH   9  13
ENDBRANCH   5   8
ENDBRANCH   3   4
ENDBRANCH   2   3
ENDBRANCH   1   2
BRANCH   1  22
ATOM     22  C   UNL A   1      32.513  29.654  25.120  1.00  0.00     0.002 C 
BRANCH  22  23
ATOM     23  C   UNL A   1      32.808  29.308  26.588  1.00  0.00     0.021 C 
BRANCH  23  24
ATOM     24  C   UNL A   1      34.164  29.787  27.074  1.00  0.00     0.116 C 
BRANCH  24  25
ATOM     25  N   UNL A   1      34.130  31.176  27.534  1.00  0.00    -0.352 N 
ATOM     26  C   UNL A   1      34.857  31.736  28.563  1.00  0.00     0.251 C 
ATOM     27  H   UNL A   1      33.518  31.778  27.054  1.00  0.00     0.163 HD
ATOM     28  O   UNL A   1      34.486  32.775  29.108  1.00  0.00    -0.269 OA
BRANCH  26  29
ATOM     29  C   UNL A   1      36.098  31.069  28.980  1.00  0.00     0.039 A 
ATOM     30  C   UNL A   1      36.203  29.677  29.052  1.00  0.00     0.014 A 
ATOM     31  C   UNL A   1      37.191  31.888  29.252  1.00  0.00     0.014 A 
ATOM     32  C   UNL A   1      37.448  29.116  29.327  1.00  0.00     0.010 A 
ATOM     33  C   UNL A   1      38.439  31.336  29.353  1.00  0.00     0.010 A 
ATOM     34  C   UNL A   1      38.565  29.957  29.461  1.00  0.00    -0.014 A 
BRANCH  34  35
ATOM     35  C   UNL A   1      39.909  29.418  29.616  1.00  0.00     0.031 A 
ATOM     36  C   UNL A   1      40.305  29.140  31.023  1.00  0.00     0.074 A 
ATOM     37  C   UNL A   1      40.630  28.974  28.563  1.00  0.00     0.049 A 
ATOM     38  N   UNL A   1      41.171  29.778  31.738  1.00  0.00    -0.248 NA
ATOM     39  C   UNL A   1      39.539  28.139  31.784  1.00  0.00     0.031 C 
ATOM     40  C   UNL A   1      40.226  28.872  27.154  1.00  0.00     0.029 A 
ATOM     41  N   UNL A   1      41.863  28.405  28.553  1.00  0.00    -0.354 N 
ATOM     42  C   UNL A   1      41.239  29.103  32.953  1.00  0.00     0.074 A 
ATOM     43  C   UNL A   1      40.077  28.254  33.000  1.00  0.00     0.031 C 
ATOM     44  C   UNL A   1      41.086  28.066  26.491  1.00  0.00     0.029 A 
ATOM     45  C   UNL A   1      42.192  27.744  27.373  1.00  0.00     0.049 A 
ATOM     46  H   UNL A   1      42.478  28.456  29.320  1.00  0.00     0.167 HD
ATOM     47  C   UNL A   1      42.376  29.114  33.706  1.00  0.00     0.037 A 
ATOM     48  C   UNL A   1      43.285  26.967  27.157  1.00  0.00     0.037 A 
ATOM     49  C   UNL A   1      43.297  30.119  33.231  1.00  0.00     0.049 A 
ATOM     50  C   UNL A   1      44.281  27.335  28.199  1.00  0.00     0.074 A 
ATOM     51  C   UNL A   1      43.239  31.490  33.072  1.00  0.00     0.029 A 
ATOM     52  N   UNL A   1      44.342  29.695  32.444  1.00  0.00    -0.354 N 
ATOM     53  N   UNL A   1      44.857  28.505  28.265  1.00  0.00    -0.248 NA
ATOM     54  C   UNL A   1      44.264  26.581  29.443  1.00  0.00     0.031 C 
ATOM     55  C   UNL A   1      43.906  31.745  31.838  1.00  0.00     0.029 A 
ATOM     56  C   UNL A   1      44.407  30.532  31.359  1.00  0.00     0.049 A 
ATOM     57  H   UNL A   1      44.935  28.931  32.626  1.00  0.00     0.167 HD
ATOM     58  C   UNL A   1      44.876  28.818  29.617  1.00  0.00     0.074 A 
ATOM     59  C   UNL A   1      44.569  27.561  30.300  1.00  0.00     0.031 C 
ATOM     60  C   UNL A   1      44.846  30.116  30.045  1.00  0.00     0.037 A 
BRANCH  47  61
ATOM     61  C   UNL A   1      42.827  28.000  34.621  1.00  0.00     0.058 A 
ATOM     62  C   UNL A   1      43.010  28.269  35.995  1.00  0.00     0.135 A 
ATOM     63  C   UNL A   1      43.349  26.768  34.169  1.00  0.00     0.135 A 
ATOM     64  F   UNL A   1      42.560  29.414  36.533  1.00  0.00    -0.206 F 
ATOM     65  C   UNL A   1      43.722  27.414  36.837  1.00  0.00     0.059 A 
ATOM     66  C   UNL A   1      44.013  25.876  35.004  1.00  0.00     0.059 A 
ATOM     67  F   UNL A   1      43.329  26.413  32.879  1.00  0.00    -0.206 F 
ATOM     68  C   UNL A   1      44.231  26.224  36.326  1.00  0.00     0.060 A 
BRANCH  68  69
ATOM     69  S   UNL A   1      45.226  25.162  37.386  1.00  0.00     0.124 S 
ATOM     70  O   UNL A   1      44.704  25.498  38.705  1.00  0.00    -0.237 OA
ATOM     71  O   UNL A   1      44.892  23.835  36.882  1.00  0.00    -0.237 OA
ATOM     72  O   UNL A   1      46.591  25.604  37.115  1.00  0.00    -0.744 OA
ENDBRANCH  68  69
ENDBRANCH  47  61
BRANCH  48  73
ATOM     73  C   UNL A   1      43.377  25.709  26.367  1.00  0.00     0.058 A 
ATOM     74  C   UNL A   1      44.373  25.536  25.388  1.00  0.00     0.135 A 
ATOM     75  C   UNL A   1      42.684  24.544  26.757  1.00  0.00     0.135 A 
ATOM     76  F   UNL A   1      45.093  26.587  24.967  1.00  0.00    -0.206 F 
ATOM     77  C   UNL A   1      44.707  24.276  24.874  1.00  0.00     0.059 A 
ATOM     78  C   UNL A   1      42.994  23.281  26.253  1.00  0.00     0.059 A 
ATOM     79  F   UNL A   1      41.750  24.585  27.718  1.00  0.00    -0.206 F 
ATOM     80  C   UNL A   1      44.027  23.149  25.334  1.00  0.00     0.060 A 
BRANCH  80  81
ATOM     81  S   UNL A   1      44.587  21.502  24.834  1.00  0.00     0.124 S 
ATOM     82  O   UNL A   1      43.549  20.646  25.399  1.00  0.00    -0.237 OA
ATOM     83  O   UNL A   1      44.604  21.610  23.380  1.00  0.00    -0.237 OA
ATOM     84  O   UNL A   1      45.901  21.386  25.461  1.00  0.00    -0.744 OA
ENDBRANCH  80  81
ENDBRANCH  48  73
BRANCH  60  85
ATOM     85  C   UNL A   1      45.092  31.209  29.034  1.00  0.00     0.058 A 
ATOM     86  C   UNL A   1      46.360  31.634  28.594  1.00  0.00     0.135 A 
ATOM     87  C   UNL A   1      43.977  31.756  28.380  1.00  0.00     0.135 A 
ATOM     88  F   UNL A   1      47.480  31.087  29.083  1.00  0.00    -0.206 F 
ATOM     89  C   UNL A   1      46.508  32.599  27.593  1.00  0.00     0.059 A 
ATOM     90  C   UNL A   1      44.101  32.692  27.358  1.00  0.00     0.059 A 
ATOM     91  F   UNL A   1      42.740  31.344  28.705  1.00  0.00    -0.206 F 
ATOM     92  C   UNL A   1      45.370  33.125  26.983  1.00  0.00     0.060 A 
BRANCH  92  93
ATOM     93  S   UNL A   1      45.557  34.347  25.667  1.00  0.00     0.124 S 
ATOM     94  O   UNL A   1      45.057  35.561  26.302  1.00  0.00    -0.237 OA
ATOM     95  O   UNL A   1      46.992  34.311  25.403  1.00  0.00    -0.237 OA
ATOM     96  O   UNL A   1      44.721  33.819  24.590  1.00  0.00    -0.744 OA
ENDBRANCH  92  93
ENDBRANCH  60  85
ENDBRANCH  34  35
ENDBRANCH  26  29
ENDBRANCH  24  25
ENDBRANCH  23  24
ENDBRANCH  22  23
ENDBRANCH   1  22
TORSDOF 19
ENDMDL
MODEL 3
REMARK VINA RESULT:     -10.4      1.805      2.637
REMARK SMILES COc1ncccc1Cn1ccc(C(=O)NCCCCCCNC(=O)c2ccc(-c3c4nc(c(-c5c(F)cc(S(=O)(=O)[O-])cc5F)c5ccc([nH]5)c(-c5c(F)cc(S(=O)(=O)[O-])cc5F)c5nc(c(-c6c(F)cc(S(=O)(=O)[O-])cc6F)c6ccc3[nH]6)C=C5)C=C4)cc2)n1
REMARK SMILES IDX 19 1 18 2 17 3 16 4 14 5 15 6 13 8 10 9 11 10 92 11 12 12
REMARK SMILES IDX 9 13 8 14 3 15 4 16 5 17 7 18 6 19 2 20 1 21 20 22 21 23
REMARK SMILES IDX 22 24 23 25 24 26 25 28 26 29 27 30 91 31 28 32 90 33 29 34
REMARK SMILES IDX 30 35 31 36 84 37 32 38 89 39 83 40 85 41 33 42 88 43 82 44
REMARK SMILES IDX 81 45 34 47 68 48 47 49 67 50 48 51 51 52 66 53 86 54 49 55
REMARK SMILES IDX 50 56 65 58 87 59 52 60 35 61 36 62 45 63 37 64 38 65 44 66
REMARK SMILES IDX 46 67 39 68 40 69 41 70 42 71 43 72 69 73 70 74 79 75 71 76
REMARK SMILES IDX 72 77 78 78 80 79 73 80 74 81 75 82 76 83 77 84 53 85 54 86
REMARK SMILES IDX 63 87 55 88 56 89 62 90 64 91 57 92 58 93 59 94 60 95 61 96
REMARK H PARENT 16 7 23 27 85 46 51 57
REMARK Flexibility Score: inf
ROOT
ATOM      1  C   UNL A   1      33.436  27.984  26.313  1.00  0.00     0.002 C 
ENDROOT
BRANCH   1   2
ATOM      2  C   UNL A   1      32.021  27.874  26.885  1.00  0.00     0.021 C 
BRANCH   2   3
ATOM      3  C   UNL A   1      31.042  27.081  26.022  1.00  0.00     0.116 C 
BRANCH   3   4
ATOM      4  N   UNL A   1      30.539  25.893  26.693  1.00  0.00    -0.351 N 
ATOM      5  C   UNL A   1      30.463  24.599  26.226  1.00  0.00     0.271 C 
ATOM      6  O   UNL A   1      29.889  23.754  26.915  1.00  0.00    -0.267 OA
ATOM      7  H   UNL A   1      30.207  26.033  27.609  1.00  0.00     0.163 HD
BRANCH   5   8
ATOM      8  C   UNL A   1      31.003  24.292  24.898  1.00  0.00     0.150 A 
ATOM      9  N   UNL A   1      32.357  23.580  23.413  1.00  0.00    -0.267 N 
ATOM     10  C   UNL A   1      31.546  24.466  22.760  1.00  0.00     0.110 A 
ATOM     11  N   UNL A   1      31.974  23.384  24.689  1.00  0.00    -0.167 NA
ATOM     12  C   UNL A   1      30.606  24.881  23.674  1.00  0.00     0.056 A 
BRANCH   9  13
ATOM     13  C   UNL A   1      33.524  22.831  22.943  1.00  0.00     0.185 C 
BRANCH  13  14
ATOM     14  C   UNL A   1      34.626  22.710  23.947  1.00  0.00     0.036 A 
ATOM     15  C   UNL A   1      34.920  21.510  24.593  1.00  0.00     0.218 A 
ATOM     16  N   UNL A   1      35.949  21.359  25.453  1.00  0.00    -0.222 NA
ATOM     17  C   UNL A   1      36.702  22.456  25.709  1.00  0.00     0.115 A 
ATOM     18  C   UNL A   1      35.409  23.829  24.266  1.00  0.00     0.013 A 
ATOM     19  C   UNL A   1      36.454  23.706  25.172  1.00  0.00     0.021 A 
BRANCH  15  20
ATOM     20  O   UNL A   1      34.017  20.476  24.595  1.00  0.00    -0.481 OA
ATOM     21  C   UNL A   1      33.388  20.271  25.853  1.00  0.00     0.280 C 
ENDBRANCH  15  20
ENDBRANCH  13  14
ENDBRANCH   9  13
ENDBRANCH   5   8
ENDBRANCH   3   4
ENDBRANCH   2   3
ENDBRANCH   1   2
BRANCH   1  22
ATOM     22  C   UNL A   1      34.286  29.143  26.854  1.00  0.00     0.002 C 
BRANCH  22  23
ATOM     23  C   UNL A   1      33.523  30.359  27.400  1.00  0.00     0.021 C 
BRANCH  23  24
ATOM     24  C   UNL A   1      34.369  31.614  27.520  1.00  0.00     0.116 C 
BRANCH  24  25
ATOM     25  N   UNL A   1      34.206  32.272  28.817  1.00  0.00    -0.352 N 
ATOM     26  C   UNL A   1      34.974  32.097  29.948  1.00  0.00     0.251 C 
ATOM     27  H   UNL A   1      33.461  32.912  28.890  1.00  0.00     0.163 HD
ATOM     28  O   UNL A   1      34.538  32.387  31.062  1.00  0.00    -0.269 OA
BRANCH  26  29
ATOM     29  C   UNL A   1      36.337  31.572  29.787  1.00  0.00     0.039 A 
ATOM     30  C   UNL A   1      37.453  32.411  29.727  1.00  0.00     0.014 A 
ATOM     31  C   UNL A   1      36.476  30.186  29.747  1.00  0.00     0.014 A 
ATOM     32  C   UNL A   1      38.720  31.833  29.706  1.00  0.00     0.010 A 
ATOM     33  C   UNL A   1      37.716  29.628  29.897  1.00  0.00     0.010 A 
ATOM     34  C   UNL A   1      38.841  30.438  29.807  1.00  0.00    -0.014 A 
BRANCH  34  35
ATOM     35  C   UNL A   1      40.141  29.793  29.924  1.00  0.00     0.031 A 
ATOM     36  C   UNL A   1      40.583  29.540  31.322  1.00  0.00     0.074 A 
ATOM     37  C   UNL A   1      40.769  29.245  28.859  1.00  0.00     0.049 A 
ATOM     38  N   UNL A   1      41.534  30.130  31.966  1.00  0.00    -0.248 NA
ATOM     39  C   UNL A   1      39.775  28.640  32.162  1.00  0.00     0.031 C 
ATOM     40  C   UNL A   1      40.287  29.121  27.477  1.00  0.00     0.029 A 
ATOM     41  N   UNL A   1      41.948  28.574  28.818  1.00  0.00    -0.354 N 
ATOM     42  C   UNL A   1      41.606  29.502  33.206  1.00  0.00     0.074 A 
ATOM     43  C   UNL A   1      40.382  28.759  33.346  1.00  0.00     0.031 C 
ATOM     44  C   UNL A   1      41.042  28.218  26.812  1.00  0.00     0.029 A 
ATOM     45  C   UNL A   1      42.161  27.839  27.654  1.00  0.00     0.049 A 
ATOM     46  H   UNL A   1      42.602  28.603  29.552  1.00  0.00     0.167 HD
ATOM     47  C   UNL A   1      42.776  29.447  33.903  1.00  0.00     0.037 A 
ATOM     48  C   UNL A   1      43.172  26.962  27.424  1.00  0.00     0.037 A 
ATOM     49  C   UNL A   1      43.753  30.349  33.341  1.00  0.00     0.049 A 
ATOM     50  C   UNL A   1      44.247  27.287  28.400  1.00  0.00     0.074 A 
ATOM     51  C   UNL A   1      43.802  31.712  33.124  1.00  0.00     0.029 A 
ATOM     52  N   UNL A   1      44.718  29.805  32.527  1.00  0.00    -0.354 N 
ATOM     53  N   UNL A   1      44.922  28.405  28.386  1.00  0.00    -0.248 NA
ATOM     54  C   UNL A   1      44.230  26.589  29.676  1.00  0.00     0.031 C 
ATOM     55  C   UNL A   1      44.425  31.858  31.849  1.00  0.00     0.029 A 
ATOM     56  C   UNL A   1      44.799  30.589  31.403  1.00  0.00     0.049 A 
ATOM     57  H   UNL A   1      45.254  29.001  32.715  1.00  0.00     0.167 HD
ATOM     58  C   UNL A   1      45.035  28.770  29.720  1.00  0.00     0.074 A 
ATOM     59  C   UNL A   1      44.658  27.574  30.473  1.00  0.00     0.031 C 
ATOM     60  C   UNL A   1      45.135  30.083  30.090  1.00  0.00     0.037 A 
BRANCH  47  61
ATOM     61  C   UNL A   1      43.178  28.336  34.846  1.00  0.00     0.058 A 
ATOM     62  C   UNL A   1      43.612  28.663  36.149  1.00  0.00     0.135 A 
ATOM     63  C   UNL A   1      43.420  27.005  34.443  1.00  0.00     0.135 A 
ATOM     64  F   UNL A   1      43.441  29.903  36.636  1.00  0.00    -0.206 F 
ATOM     65  C   UNL A   1      44.299  27.757  36.959  1.00  0.00     0.059 A 
ATOM     66  C   UNL A   1      44.052  26.071  35.255  1.00  0.00     0.059 A 
ATOM     67  F   UNL A   1      43.144  26.571  33.207  1.00  0.00    -0.206 F 
ATOM     68  C   UNL A   1      44.525  26.465  36.495  1.00  0.00     0.060 A 
BRANCH  68  69
ATOM     69  S   UNL A   1      45.488  25.322  37.498  1.00  0.00     0.124 S 
ATOM     70  O   UNL A   1      45.468  24.122  36.670  1.00  0.00    -0.237 OA
ATOM     71  O   UNL A   1      46.769  26.013  37.596  1.00  0.00    -0.237 OA
ATOM     72  O   UNL A   1      44.726  25.246  38.742  1.00  0.00    -0.744 OA
ENDBRANCH  68  69
ENDBRANCH  47  61
BRANCH  48  73
ATOM     73  C   UNL A   1      43.119  25.670  26.687  1.00  0.00     0.058 A 
ATOM     74  C   UNL A   1      43.775  25.509  25.452  1.00  0.00     0.135 A 
ATOM     75  C   UNL A   1      42.681  24.486  27.314  1.00  0.00     0.135 A 
ATOM     76  F   UNL A   1      44.240  26.580  24.792  1.00  0.00    -0.206 F 
ATOM     77  C   UNL A   1      44.037  24.247  24.903  1.00  0.00     0.059 A 
ATOM     78  C   UNL A   1      42.922  23.219  26.782  1.00  0.00     0.059 A 
ATOM     79  F   UNL A   1      42.089  24.519  28.517  1.00  0.00    -0.206 F 
ATOM     80  C   UNL A   1      43.628  23.105  25.590  1.00  0.00     0.060 A 
BRANCH  80  81
ATOM     81  S   UNL A   1      44.140  21.473  24.997  1.00  0.00     0.124 S 
ATOM     82  O   UNL A   1      44.309  21.710  23.567  1.00  0.00    -0.237 OA
ATOM     83  O   UNL A   1      45.364  21.240  25.755  1.00  0.00    -0.237 OA
ATOM     84  O   UNL A   1      43.015  20.614  25.359  1.00  0.00    -0.744 OA
ENDBRANCH  80  81
ENDBRANCH  48  73
BRANCH  60  85
ATOM     85  C   UNL A   1      45.420  31.108  29.020  1.00  0.00     0.058 A 
ATOM     86  C   UNL A   1      44.448  31.722  28.208  1.00  0.00     0.135 A 
ATOM     87  C   UNL A   1      46.734  31.590  28.911  1.00  0.00     0.135 A 
ATOM     88  F   UNL A   1      43.152  31.404  28.322  1.00  0.00    -0.206 F 
ATOM     89  C   UNL A   1      44.779  32.725  27.292  1.00  0.00     0.059 A 
ATOM     90  C   UNL A   1      47.080  32.610  28.032  1.00  0.00     0.059 A 
ATOM     91  F   UNL A   1      47.698  31.094  29.705  1.00  0.00    -0.206 F 
ATOM     92  C   UNL A   1      46.100  33.160  27.210  1.00  0.00     0.060 A 
BRANCH  92  93
ATOM     93  S   UNL A   1      46.526  34.478  26.051  1.00  0.00     0.124 S 
ATOM     94  O   UNL A   1      47.866  34.090  25.624  1.00  0.00    -0.237 OA
ATOM     95  O   UNL A   1      45.479  34.364  25.041  1.00  0.00    -0.237 OA
ATOM     96  O   UNL A   1      46.460  35.687  26.871  1.00  0.00    -0.744 OA
ENDBRANCH  92  93
ENDBRANCH  60  85
ENDBRANCH  34  35
ENDBRANCH  26  29
ENDBRANCH  24  25
ENDBRANCH  23  24
ENDBRANCH  22  23
ENDBRANCH   1  22
TORSDOF 19
ENDMDL
