MODEL 1
REMARK VINA RESULT:     -11.8      0.000      0.000
REMARK SMILES N#C/C(=C/c1cccc(OCC(=O)NCCCCCCNC(=O)c2ccc(-c3c4nc(c(-c5c(F)cc(S(=O)(=O)[O-])cc5F)c5ccc([nH]5)c(-c5c(F)cc(S(=O)(=O)[O-])cc5F)c5nc(c(-c6c(F)cc(S(=O)(=O)[O-])cc6F)c6ccc3[nH]6)C=C5)C=C4)cc2)c1)c1nc2ccccc2[nH]1
REMARK SMILES IDX 17 1 16 2 15 3 14 4 12 5 13 6 11 8 10 9 9 10 5 11 6 12 90 13
REMARK SMILES IDX 7 14 8 15 4 16 3 17 2 18 1 19 91 20 92 21 99 22 93 23 98 24
REMARK SMILES IDX 94 26 97 27 95 28 96 29 18 30 19 31 20 32 21 33 22 34 23 36
REMARK SMILES IDX 24 37 25 38 89 39 26 40 88 41 27 42 28 43 29 44 82 45 30 46
REMARK SMILES IDX 87 47 81 48 83 49 31 50 86 51 80 52 79 53 32 55 66 56 45 57
REMARK SMILES IDX 65 58 46 59 49 60 64 61 84 62 47 63 48 64 63 66 85 67 50 68
REMARK SMILES IDX 33 69 34 70 43 71 35 72 36 73 42 74 44 75 37 76 38 77 39 78
REMARK SMILES IDX 40 79 41 80 67 81 68 82 77 83 69 84 70 85 76 86 78 87 71 88
REMARK SMILES IDX 72 89 73 90 74 91 75 92 51 93 52 94 61 95 53 96 54 97 60 98
REMARK SMILES IDX 62 99 55 100 56 101 57 102 58 103 59 104
REMARK H PARENT 14 7 99 25 21 35 83 54 49 65
REMARK Flexibility Score: inf
ROOT
ATOM      1  C   UNL A   1      34.592  28.575  26.559  1.00  0.00     0.002 C 
ENDROOT
BRANCH   1   2
ATOM      2  C   UNL A   1      33.621  27.616  25.863  1.00  0.00     0.021 C 
BRANCH   2   3
ATOM      3  C   UNL A   1      33.063  28.076  24.517  1.00  0.00     0.116 C 
BRANCH   3   4
ATOM      4  N   UNL A   1      33.694  27.452  23.366  1.00  0.00    -0.353 N 
ATOM      5  C   UNL A   1      33.124  26.609  22.451  1.00  0.00     0.257 C 
ATOM      6  O   UNL A   1      33.719  26.339  21.404  1.00  0.00    -0.271 OA
ATOM      7  H   UNL A   1      34.646  27.661  23.228  1.00  0.00     0.163 HD
BRANCH   5   8
ATOM      8  C   UNL A   1      31.730  26.033  22.720  1.00  0.00     0.329 C 
BRANCH   8   9
ATOM      9  O   UNL A   1      31.535  24.667  22.389  1.00  0.00    -0.484 OA
BRANCH   9  10
ATOM     10  C   UNL A   1      31.571  23.745  23.398  1.00  0.00     0.120 A 
ATOM     11  C   UNL A   1      32.086  21.611  24.447  1.00  0.00    -0.021 A 
ATOM     12  C   UNL A   1      31.569  22.085  25.657  1.00  0.00     0.008 A 
ATOM     13  C   UNL A   1      32.060  22.440  23.313  1.00  0.00     0.054 A 
ATOM     14  C   UNL A   1      31.055  23.378  25.740  1.00  0.00     0.004 A 
ATOM     15  C   UNL A   1      31.061  24.203  24.615  1.00  0.00     0.046 A 
BRANCH  11  16
ATOM     16  C   UNL A   1      32.628  20.244  24.380  1.00  0.00     0.031 C 
ATOM     17  C   UNL A   1      33.906  19.885  24.601  1.00  0.00     0.095 C 
BRANCH  17  18
ATOM     18  C   UNL A   1      34.319  18.427  24.489  1.00  0.00     0.103 C 
ATOM     19  N   UNL A   1      34.661  17.217  24.395  1.00  0.00    -0.192 NA
ENDBRANCH  17  18
BRANCH  17  20
ATOM     20  C   UNL A   1      34.908  20.808  25.009  1.00  0.00     0.149 A 
ATOM     21  N   UNL A   1      34.826  22.083  25.340  1.00  0.00    -0.228 NA
ATOM     22  N   UNL A   1      36.207  20.362  25.131  1.00  0.00    -0.337 N 
ATOM     23  C   UNL A   1      36.105  22.472  25.655  1.00  0.00     0.089 A 
ATOM     24  C   UNL A   1      36.993  21.413  25.526  1.00  0.00     0.066 A 
ATOM     25  H   UNL A   1      36.517  19.443  24.963  1.00  0.00     0.168 HD
ATOM     26  C   UNL A   1      36.595  23.722  26.051  1.00  0.00     0.030 A 
ATOM     27  C   UNL A   1      38.368  21.528  25.741  1.00  0.00     0.028 A 
ATOM     28  C   UNL A   1      37.975  23.875  26.253  1.00  0.00     0.002 A 
ATOM     29  C   UNL A   1      38.844  22.796  26.092  1.00  0.00     0.002 A 
ENDBRANCH  17  20
ENDBRANCH  11  16
ENDBRANCH   9  10
ENDBRANCH   8   9
ENDBRANCH   5   8
ENDBRANCH   3   4
ENDBRANCH   2   3
ENDBRANCH   1   2
BRANCH   1  30
ATOM     30  C   UNL A   1      33.991  29.564  27.562  1.00  0.00     0.002 C 
BRANCH  30  31
ATOM     31  C   UNL A   1      34.558  30.981  27.503  1.00  0.00     0.021 C 
BRANCH  31  32
ATOM     32  C   UNL A   1      35.822  31.202  28.329  1.00  0.00     0.116 C 
BRANCH  32  33
ATOM     33  N   UNL A   1      35.624  31.034  29.764  1.00  0.00    -0.352 N 
ATOM     34  C   UNL A   1      36.418  30.342  30.652  1.00  0.00     0.251 C 
ATOM     35  H   UNL A   1      34.828  31.468  30.145  1.00  0.00     0.163 HD
ATOM     36  O   UNL A   1      36.090  30.214  31.826  1.00  0.00    -0.269 OA
BRANCH  34  37
ATOM     37  C   UNL A   1      37.654  29.713  30.143  1.00  0.00     0.039 A 
ATOM     38  C   UNL A   1      37.976  29.839  28.790  1.00  0.00     0.014 A 
ATOM     39  C   UNL A   1      38.538  29.096  31.032  1.00  0.00     0.014 A 
ATOM     40  C   UNL A   1      39.232  29.424  28.344  1.00  0.00     0.010 A 
ATOM     41  C   UNL A   1      39.815  28.759  30.602  1.00  0.00     0.010 A 
ATOM     42  C   UNL A   1      40.178  28.926  29.257  1.00  0.00    -0.014 A 
BRANCH  42  43
ATOM     43  C   UNL A   1      41.558  28.578  28.832  1.00  0.00     0.031 A 
ATOM     44  C   UNL A   1      42.611  29.650  28.767  1.00  0.00     0.074 A 
ATOM     45  C   UNL A   1      41.836  27.325  28.421  1.00  0.00     0.049 A 
ATOM     46  N   UNL A   1      43.839  29.577  28.325  1.00  0.00    -0.248 NA
ATOM     47  C   UNL A   1      42.216  30.993  29.224  1.00  0.00     0.031 C 
ATOM     48  C   UNL A   1      40.881  26.215  28.372  1.00  0.00     0.029 A 
ATOM     49  N   UNL A   1      43.003  26.775  27.951  1.00  0.00    -0.354 N 
ATOM     50  C   UNL A   1      44.354  30.863  28.428  1.00  0.00     0.074 A 
ATOM     51  C   UNL A   1      43.288  31.709  28.918  1.00  0.00     0.031 C 
ATOM     52  C   UNL A   1      41.505  25.115  27.923  1.00  0.00     0.029 A 
ATOM     53  C   UNL A   1      42.894  25.444  27.620  1.00  0.00     0.049 A 
ATOM     54  H   UNL A   1      43.840  27.286  27.860  1.00  0.00     0.167 HD
ATOM     55  C   UNL A   1      45.609  31.296  28.163  1.00  0.00     0.037 A 
ATOM     56  C   UNL A   1      43.812  24.589  27.128  1.00  0.00     0.037 A 
ATOM     57  C   UNL A   1      46.676  30.441  27.719  1.00  0.00     0.049 A 
ATOM     58  C   UNL A   1      45.212  25.082  26.885  1.00  0.00     0.074 A 
ATOM     59  C   UNL A   1      48.000  30.764  27.485  1.00  0.00     0.029 A 
ATOM     60  N   UNL A   1      46.541  29.086  27.448  1.00  0.00    -0.354 N 
ATOM     61  N   UNL A   1      45.699  26.290  27.045  1.00  0.00    -0.248 NA
ATOM     62  C   UNL A   1      46.192  24.097  26.403  1.00  0.00     0.031 C 
ATOM     63  C   UNL A   1      48.661  29.610  27.048  1.00  0.00     0.029 A 
ATOM     64  C   UNL A   1      47.756  28.561  27.045  1.00  0.00     0.049 A 
ATOM     65  H   UNL A   1      45.704  28.575  27.531  1.00  0.00     0.167 HD
ATOM     66  C   UNL A   1      47.046  26.205  26.708  1.00  0.00     0.074 A 
ATOM     67  C   UNL A   1      47.299  24.825  26.346  1.00  0.00     0.031 C 
ATOM     68  C   UNL A   1      47.987  27.181  26.699  1.00  0.00     0.037 A 
BRANCH  55  69
ATOM     69  C   UNL A   1      45.893  32.758  28.370  1.00  0.00     0.058 A 
ATOM     70  C   UNL A   1      45.742  33.689  27.329  1.00  0.00     0.135 A 
ATOM     71  C   UNL A   1      46.314  33.237  29.621  1.00  0.00     0.135 A 
ATOM     72  F   UNL A   1      45.358  33.283  26.108  1.00  0.00    -0.206 F 
ATOM     73  C   UNL A   1      46.033  35.037  27.511  1.00  0.00     0.059 A 
ATOM     74  C   UNL A   1      46.584  34.586  29.832  1.00  0.00     0.059 A 
ATOM     75  F   UNL A   1      46.476  32.391  30.650  1.00  0.00    -0.206 F 
ATOM     76  C   UNL A   1      46.458  35.476  28.765  1.00  0.00     0.060 A 
BRANCH  76  77
ATOM     77  S   UNL A   1      46.840  37.226  28.983  1.00  0.00     0.124 S 
ATOM     78  O   UNL A   1      48.013  37.375  28.126  1.00  0.00    -0.237 OA
ATOM     79  O   UNL A   1      45.622  37.875  28.509  1.00  0.00    -0.237 OA
ATOM     80  O   UNL A   1      47.091  37.342  30.416  1.00  0.00    -0.744 OA
ENDBRANCH  76  77
ENDBRANCH  55  69
BRANCH  56  81
ATOM     81  C   UNL A   1      43.445  23.171  26.869  1.00  0.00     0.058 A 
ATOM     82  C   UNL A   1      43.214  22.284  27.931  1.00  0.00     0.135 A 
ATOM     83  C   UNL A   1      43.301  22.679  25.564  1.00  0.00     0.135 A 
ATOM     84  F   UNL A   1      43.343  22.706  29.198  1.00  0.00    -0.206 F 
ATOM     85  C   UNL A   1      42.868  20.955  27.709  1.00  0.00     0.059 A 
ATOM     86  C   UNL A   1      42.936  21.359  25.316  1.00  0.00     0.059 A 
ATOM     87  F   UNL A   1      43.494  23.492  24.513  1.00  0.00    -0.206 F 
ATOM     88  C   UNL A   1      42.730  20.501  26.397  1.00  0.00     0.060 A 
BRANCH  88  89
ATOM     89  S   UNL A   1      42.229  18.788  26.118  1.00  0.00     0.124 S 
ATOM     90  O   UNL A   1      43.161  18.376  25.076  1.00  0.00    -0.237 OA
ATOM     91  O   UNL A   1      42.433  18.189  27.433  1.00  0.00    -0.237 OA
ATOM     92  O   UNL A   1      40.833  18.912  25.706  1.00  0.00    -0.744 OA
ENDBRANCH  88  89
ENDBRANCH  56  81
BRANCH  68  93
ATOM     93  C   UNL A   1      49.384  26.787  26.315  1.00  0.00     0.058 A 
ATOM     94  C   UNL A   1      49.844  26.905  24.995  1.00  0.00     0.135 A 
ATOM     95  C   UNL A   1      50.291  26.343  27.292  1.00  0.00     0.135 A 
ATOM     96  F   UNL A   1      49.014  27.319  24.025  1.00  0.00    -0.206 F 
ATOM     97  C   UNL A   1      51.153  26.580  24.653  1.00  0.00     0.059 A 
ATOM     98  C   UNL A   1      51.609  26.036  26.976  1.00  0.00     0.059 A 
ATOM     99  F   UNL A   1      49.901  26.223  28.571  1.00  0.00    -0.206 F 
ATOM    100  C   UNL A   1      52.028  26.147  25.651  1.00  0.00     0.060 A 
BRANCH 100 101
ATOM    101  S   UNL A   1      53.735  25.768  25.201  1.00  0.00     0.124 S 
ATOM    102  O   UNL A   1      53.615  24.392  24.732  1.00  0.00    -0.237 OA
ATOM    103  O   UNL A   1      54.019  26.766  24.174  1.00  0.00    -0.237 OA
ATOM    104  O   UNL A   1      54.463  25.946  26.455  1.00  0.00    -0.744 OA
ENDBRANCH 100 101
ENDBRANCH  68  93
ENDBRANCH  42  43
ENDBRANCH  34  37
ENDBRANCH  32  33
ENDBRANCH  31  32
ENDBRANCH  30  31
ENDBRANCH   1  30
TORSDOF 21
ENDMDL
MODEL 2
REMARK VINA RESULT:     -10.4      6.234     12.217
REMARK SMILES N#C/C(=C/c1cccc(OCC(=O)NCCCCCCNC(=O)c2ccc(-c3c4nc(c(-c5c(F)cc(S(=O)(=O)[O-])cc5F)c5ccc([nH]5)c(-c5c(F)cc(S(=O)(=O)[O-])cc5F)c5nc(c(-c6c(F)cc(S(=O)(=O)[O-])cc6F)c6ccc3[nH]6)C=C5)C=C4)cc2)c1)c1nc2ccccc2[nH]1
REMARK SMILES IDX 17 1 16 2 15 3 14 4 12 5 13 6 11 8 10 9 9 10 5 11 6 12 90 13
REMARK SMILES IDX 7 14 8 15 4 16 3 17 2 18 1 19 91 20 92 21 99 22 93 23 98 24
REMARK SMILES IDX 94 26 97 27 95 28 96 29 18 30 19 31 20 32 21 33 22 34 23 36
REMARK SMILES IDX 24 37 25 38 89 39 26 40 88 41 27 42 28 43 29 44 82 45 30 46
REMARK SMILES IDX 87 47 81 48 83 49 31 50 86 51 80 52 79 53 32 55 66 56 45 57
REMARK SMILES IDX 65 58 46 59 49 60 64 61 84 62 47 63 48 64 63 66 85 67 50 68
REMARK SMILES IDX 33 69 34 70 43 71 35 72 36 73 42 74 44 75 37 76 38 77 39 78
REMARK SMILES IDX 40 79 41 80 67 81 68 82 77 83 69 84 70 85 76 86 78 87 71 88
REMARK SMILES IDX 72 89 73 90 74 91 75 92 51 93 52 94 61 95 53 96 54 97 60 98
REMARK SMILES IDX 62 99 55 100 56 101 57 102 58 103 59 104
REMARK H PARENT 14 7 99 25 21 35 83 54 49 65
REMARK Flexibility Score: inf
ROOT
ATOM      1  C   UNL A   1      45.800  24.178  25.187  1.00  0.00     0.002 C 
ENDROOT
BRANCH   1   2
ATOM      2  C   UNL A   1      45.037  22.906  24.805  1.00  0.00     0.021 C 
BRANCH   2   3
ATOM      3  C   UNL A   1      44.782  21.905  25.931  1.00  0.00     0.116 C 
BRANCH   3   4
ATOM      4  N   UNL A   1      44.595  20.536  25.481  1.00  0.00    -0.353 N 
ATOM      5  C   UNL A   1      43.428  19.827  25.414  1.00  0.00     0.257 C 
ATOM      6  O   UNL A   1      43.388  18.757  24.800  1.00  0.00    -0.271 OA
ATOM      7  H   UNL A   1      45.407  20.062  25.187  1.00  0.00     0.163 HD
BRANCH   5   8
ATOM      8  C   UNL A   1      42.164  20.387  26.075  1.00  0.00     0.329 C 
BRANCH   8   9
ATOM      9  O   UNL A   1      41.042  19.521  26.133  1.00  0.00    -0.484 OA
BRANCH   9  10
ATOM     10  C   UNL A   1      39.809  20.039  25.852  1.00  0.00     0.120 A 
ATOM     11  C   UNL A   1      37.458  19.979  25.225  1.00  0.00    -0.021 A 
ATOM     12  C   UNL A   1      37.381  21.365  25.400  1.00  0.00     0.008 A 
ATOM     13  C   UNL A   1      38.685  19.326  25.429  1.00  0.00     0.054 A 
ATOM     14  C   UNL A   1      38.506  22.085  25.796  1.00  0.00     0.004 A 
ATOM     15  C   UNL A   1      39.712  21.422  26.024  1.00  0.00     0.046 A 
BRANCH  11  16
ATOM     16  C   UNL A   1      36.258  19.236  24.809  1.00  0.00     0.031 C 
ATOM     17  C   UNL A   1      35.012  19.734  24.708  1.00  0.00     0.095 C 
BRANCH  17  18
ATOM     18  C   UNL A   1      33.865  18.837  24.269  1.00  0.00     0.103 C 
ATOM     19  N   UNL A   1      32.915  18.094  23.904  1.00  0.00    -0.192 NA
ENDBRANCH  17  18
BRANCH  17  20
ATOM     20  C   UNL A   1      34.707  21.105  24.932  1.00  0.00     0.149 A 
ATOM     21  N   UNL A   1      34.386  21.750  26.037  1.00  0.00    -0.228 NA
ATOM     22  N   UNL A   1      34.764  21.976  23.865  1.00  0.00    -0.337 N 
ATOM     23  C   UNL A   1      34.206  23.061  25.668  1.00  0.00     0.089 A 
ATOM     24  C   UNL A   1      34.429  23.230  24.309  1.00  0.00     0.066 A 
ATOM     25  H   UNL A   1      35.004  21.739  22.941  1.00  0.00     0.168 HD
ATOM     26  C   UNL A   1      33.836  24.171  26.437  1.00  0.00     0.030 A 
ATOM     27  C   UNL A   1      34.278  24.451  23.648  1.00  0.00     0.028 A 
ATOM     28  C   UNL A   1      33.654  25.406  25.798  1.00  0.00     0.002 A 
ATOM     29  C   UNL A   1      33.865  25.538  24.425  1.00  0.00     0.002 A 
ENDBRANCH  17  20
ENDBRANCH  11  16
ENDBRANCH   9  10
ENDBRANCH   8   9
ENDBRANCH   5   8
ENDBRANCH   3   4
ENDBRANCH   2   3
ENDBRANCH   1   2
BRANCH   1  30
ATOM     30  C   UNL A   1      45.765  24.593  26.660  1.00  0.00     0.002 C 
BRANCH  30  31
ATOM     31  C   UNL A   1      44.560  25.434  27.075  1.00  0.00     0.021 C 
BRANCH  31  32
ATOM     32  C   UNL A   1      43.364  24.637  27.585  1.00  0.00     0.116 C 
BRANCH  32  33
ATOM     33  N   UNL A   1      42.342  24.396  26.573  1.00  0.00    -0.352 N 
ATOM     34  C   UNL A   1      41.112  25.005  26.453  1.00  0.00     0.251 C 
ATOM     35  H   UNL A   1      42.556  23.718  25.893  1.00  0.00     0.163 HD
ATOM     36  O   UNL A   1      40.312  24.649  25.594  1.00  0.00    -0.269 OA
BRANCH  34  37
ATOM     37  C   UNL A   1      40.758  26.068  27.416  1.00  0.00     0.039 A 
ATOM     38  C   UNL A   1      39.926  25.760  28.495  1.00  0.00     0.014 A 
ATOM     39  C   UNL A   1      41.341  27.332  27.303  1.00  0.00     0.014 A 
ATOM     40  C   UNL A   1      39.752  26.699  29.513  1.00  0.00     0.010 A 
ATOM     41  C   UNL A   1      41.230  28.232  28.355  1.00  0.00     0.010 A 
ATOM     42  C   UNL A   1      40.441  27.922  29.474  1.00  0.00    -0.014 A 
BRANCH  42  43
ATOM     43  C   UNL A   1      40.360  28.896  30.593  1.00  0.00     0.031 A 
ATOM     44  C   UNL A   1      41.255  28.730  31.790  1.00  0.00     0.074 A 
ATOM     45  C   UNL A   1      39.426  29.867  30.570  1.00  0.00     0.049 A 
ATOM     46  N   UNL A   1      41.269  29.403  32.911  1.00  0.00    -0.248 NA
ATOM     47  C   UNL A   1      42.239  27.636  31.735  1.00  0.00     0.031 C 
ATOM     48  C   UNL A   1      38.454  30.085  29.496  1.00  0.00     0.029 A 
ATOM     49  N   UNL A   1      39.128  30.845  31.486  1.00  0.00    -0.354 N 
ATOM     50  C   UNL A   1      42.241  28.802  33.700  1.00  0.00     0.074 A 
ATOM     51  C   UNL A   1      42.754  27.673  32.954  1.00  0.00     0.031 C 
ATOM     52  C   UNL A   1      37.687  31.144  29.803  1.00  0.00     0.029 A 
ATOM     53  C   UNL A   1      38.087  31.660  31.108  1.00  0.00     0.049 A 
ATOM     54  H   UNL A   1      39.615  30.953  32.335  1.00  0.00     0.167 HD
ATOM     55  C   UNL A   1      42.686  29.171  34.924  1.00  0.00     0.037 A 
ATOM     56  C   UNL A   1      37.520  32.704  31.743  1.00  0.00     0.037 A 
ATOM     57  C   UNL A   1      42.203  30.321  35.640  1.00  0.00     0.049 A 
ATOM     58  C   UNL A   1      38.062  33.125  33.082  1.00  0.00     0.074 A 
ATOM     59  C   UNL A   1      42.631  30.822  36.856  1.00  0.00     0.029 A 
ATOM     60  N   UNL A   1      41.185  31.155  35.199  1.00  0.00    -0.354 N 
ATOM     61  N   UNL A   1      39.024  32.580  33.789  1.00  0.00    -0.248 NA
ATOM     62  C   UNL A   1      37.448  34.304  33.709  1.00  0.00     0.031 C 
ATOM     63  C   UNL A   1      41.854  31.946  37.163  1.00  0.00     0.029 A 
ATOM     64  C   UNL A   1      40.968  32.164  36.120  1.00  0.00     0.049 A 
ATOM     65  H   UNL A   1      40.691  31.045  34.355  1.00  0.00     0.167 HD
ATOM     66  C   UNL A   1      39.149  33.365  34.930  1.00  0.00     0.074 A 
ATOM     67  C   UNL A   1      38.171  34.427  34.814  1.00  0.00     0.031 C 
ATOM     68  C   UNL A   1      39.995  33.219  35.979  1.00  0.00     0.037 A 
BRANCH  55  69
ATOM     69  C   UNL A   1      43.763  28.330  35.551  1.00  0.00     0.058 A 
ATOM     70  C   UNL A   1      43.454  27.267  36.415  1.00  0.00     0.135 A 
ATOM     71  C   UNL A   1      45.118  28.581  35.280  1.00  0.00     0.135 A 
ATOM     72  F   UNL A   1      42.176  26.994  36.722  1.00  0.00    -0.206 F 
ATOM     73  C   UNL A   1      44.451  26.507  37.019  1.00  0.00     0.059 A 
ATOM     74  C   UNL A   1      46.131  27.816  35.852  1.00  0.00     0.059 A 
ATOM     75  F   UNL A   1      45.469  29.585  34.461  1.00  0.00    -0.206 F 
ATOM     76  C   UNL A   1      45.787  26.792  36.734  1.00  0.00     0.060 A 
BRANCH  76  77
ATOM     77  S   UNL A   1      47.069  25.803  37.532  1.00  0.00     0.124 S 
ATOM     78  O   UNL A   1      47.889  25.416  36.388  1.00  0.00    -0.237 OA
ATOM     79  O   UNL A   1      47.676  26.759  38.451  1.00  0.00    -0.237 OA
ATOM     80  O   UNL A   1      46.319  24.721  38.162  1.00  0.00    -0.744 OA
ENDBRANCH  76  77
ENDBRANCH  55  69
BRANCH  56  81
ATOM     81  C   UNL A   1      36.402  33.447  31.104  1.00  0.00     0.058 A 
ATOM     82  C   UNL A   1      36.635  34.291  30.007  1.00  0.00     0.135 A 
ATOM     83  C   UNL A   1      35.082  33.318  31.559  1.00  0.00     0.135 A 
ATOM     84  F   UNL A   1      37.881  34.451  29.537  1.00  0.00    -0.206 F 
ATOM     85  C   UNL A   1      35.602  34.993  29.394  1.00  0.00     0.059 A 
ATOM     86  C   UNL A   1      34.028  33.993  30.950  1.00  0.00     0.059 A 
ATOM     87  F   UNL A   1      34.803  32.509  32.594  1.00  0.00    -0.206 F 
ATOM     88  C   UNL A   1      34.300  34.836  29.872  1.00  0.00     0.060 A 
BRANCH  88  89
ATOM     89  S   UNL A   1      32.957  35.710  29.037  1.00  0.00     0.124 S 
ATOM     90  O   UNL A   1      32.393  34.654  28.206  1.00  0.00    -0.237 OA
ATOM     91  O   UNL A   1      32.133  36.151  30.158  1.00  0.00    -0.237 OA
ATOM     92  O   UNL A   1      33.649  36.778  28.321  1.00  0.00    -0.744 OA
ENDBRANCH  88  89
ENDBRANCH  56  81
BRANCH  68  93
ATOM     93  C   UNL A   1      39.925  34.248  37.070  1.00  0.00     0.058 A 
ATOM     94  C   UNL A   1      40.617  35.464  36.978  1.00  0.00     0.135 A 
ATOM     95  C   UNL A   1      39.108  34.037  38.193  1.00  0.00     0.135 A 
ATOM     96  F   UNL A   1      41.415  35.710  35.927  1.00  0.00    -0.206 F 
ATOM     97  C   UNL A   1      40.515  36.433  37.972  1.00  0.00     0.059 A 
ATOM     98  C   UNL A   1      38.973  35.001  39.186  1.00  0.00     0.059 A 
ATOM     99  F   UNL A   1      38.419  32.892  38.322  1.00  0.00    -0.206 F 
ATOM    100  C   UNL A   1      39.688  36.192  39.072  1.00  0.00     0.060 A 
BRANCH 100 101
ATOM    101  S   UNL A   1      39.531  37.473  40.334  1.00  0.00     0.124 S 
ATOM    102  O   UNL A   1      40.930  37.765  40.629  1.00  0.00    -0.237 OA
ATOM    103  O   UNL A   1      38.800  38.521  39.629  1.00  0.00    -0.237 OA
ATOM    104  O   UNL A   1      38.788  36.808  41.401  1.00  0.00    -0.744 OA
ENDBRANCH 100 101
ENDBRANCH  68  93
ENDBRANCH  42  43
ENDBRANCH  34  37
ENDBRANCH  32  33
ENDBRANCH  31  32
ENDBRANCH  30  31
ENDBRANCH   1  30
TORSDOF 21
ENDMDL
MODEL 3
REMARK VINA RESULT:     -10.3      2.766      8.915
REMARK SMILES N#C/C(=C/c1cccc(OCC(=O)NCCCCCCNC(=O)c2ccc(-c3c4nc(c(-c5c(F)cc(S(=O)(=O)[O-])cc5F)c5ccc([nH]5)c(-c5c(F)cc(S(=O)(=O)[O-])cc5F)c5nc(c(-c6c(F)cc(S(=O)(=O)[O-])cc6F)c6ccc3[nH]6)C=C5)C=C4)cc2)c1)c1nc2ccccc2[nH]1
REMARK SMILES IDX 17 1 16 2 15 3 14 4 12 5 13 6 11 8 10 9 9 10 5 11 6 12 90 13
REMARK SMILES IDX 7 14 8 15 4 16 3 17 2 18 1 19 91 20 92 21 99 22 93 23 98 24
REMARK SMILES IDX 94 26 97 27 95 28 96 29 18 30 19 31 20 32 21 33 22 34 23 36
REMARK SMILES IDX 24 37 25 38 89 39 26 40 88 41 27 42 28 43 29 44 82 45 30 46
REMARK SMILES IDX 87 47 81 48 83 49 31 50 86 51 80 52 79 53 32 55 66 56 45 57
REMARK SMILES IDX 65 58 46 59 49 60 64 61 84 62 47 63 48 64 63 66 85 67 50 68
REMARK SMILES IDX 33 69 34 70 43 71 35 72 36 73 42 74 44 75 37 76 38 77 39 78
REMARK SMILES IDX 40 79 41 80 67 81 68 82 77 83 69 84 70 85 76 86 78 87 71 88
REMARK SMILES IDX 72 89 73 90 74 91 75 92 51 93 52 94 61 95 53 96 54 97 60 98
REMARK SMILES IDX 62 99 55 100 56 101 57 102 58 103 59 104
REMARK H PARENT 14 7 99 25 21 35 83 54 49 65
REMARK Flexibility Score: inf
ROOT
ATOM      1  C   UNL A   1      40.906  21.761  25.969  1.00  0.00     0.002 C 
ENDROOT
BRANCH   1   2
ATOM      2  C   UNL A   1      39.460  22.242  26.121  1.00  0.00     0.021 C 
BRANCH   2   3
ATOM      3  C   UNL A   1      39.268  23.627  26.736  1.00  0.00     0.116 C 
BRANCH   3   4
ATOM      4  N   UNL A   1      37.878  24.012  26.915  1.00  0.00    -0.353 N 
ATOM      5  C   UNL A   1      36.827  23.775  26.073  1.00  0.00     0.257 C 
ATOM      6  O   UNL A   1      35.669  23.959  26.460  1.00  0.00    -0.271 OA
ATOM      7  H   UNL A   1      37.667  24.501  27.744  1.00  0.00     0.163 HD
BRANCH   5   8
ATOM      8  C   UNL A   1      37.094  23.247  24.659  1.00  0.00     0.329 C 
BRANCH   8   9
ATOM      9  O   UNL A   1      36.291  22.161  24.227  1.00  0.00    -0.484 OA
BRANCH   9  10
ATOM     10  C   UNL A   1      34.966  22.394  23.981  1.00  0.00     0.120 A 
ATOM     11  C   UNL A   1      32.584  22.432  24.474  1.00  0.00    -0.021 A 
ATOM     12  C   UNL A   1      32.342  23.038  23.237  1.00  0.00     0.008 A 
ATOM     13  C   UNL A   1      33.899  22.089  24.829  1.00  0.00     0.054 A 
ATOM     14  C   UNL A   1      33.401  23.320  22.376  1.00  0.00     0.004 A 
ATOM     15  C   UNL A   1      34.706  23.002  22.751  1.00  0.00     0.046 A 
BRANCH  11  16
ATOM     16  C   UNL A   1      31.452  22.144  25.371  1.00  0.00     0.031 C 
ATOM     17  C   UNL A   1      30.688  23.056  26.001  1.00  0.00     0.095 C 
BRANCH  17  18
ATOM     18  C   UNL A   1      29.552  22.605  26.905  1.00  0.00     0.103 C 
ATOM     19  N   UNL A   1      28.610  22.230  27.655  1.00  0.00    -0.192 NA
ENDBRANCH  17  18
BRANCH  17  20
ATOM     20  C   UNL A   1      30.845  24.457  25.814  1.00  0.00     0.149 A 
ATOM     21  N   UNL A   1      30.479  25.243  24.820  1.00  0.00    -0.228 NA
ATOM     22  N   UNL A   1      31.448  25.192  26.812  1.00  0.00    -0.337 N 
ATOM     23  C   UNL A   1      30.880  26.508  25.174  1.00  0.00     0.089 A 
ATOM     24  C   UNL A   1      31.497  26.504  26.417  1.00  0.00     0.066 A 
ATOM     25  H   UNL A   1      31.786  24.835  27.665  1.00  0.00     0.168 HD
ATOM     26  C   UNL A   1      30.763  27.718  24.480  1.00  0.00     0.030 A 
ATOM     27  C   UNL A   1      32.043  27.644  27.012  1.00  0.00     0.028 A 
ATOM     28  C   UNL A   1      31.321  28.876  25.041  1.00  0.00     0.002 A 
ATOM     29  C   UNL A   1      31.956  28.835  26.283  1.00  0.00     0.002 A 
ENDBRANCH  17  20
ENDBRANCH  11  16
ENDBRANCH   9  10
ENDBRANCH   8   9
ENDBRANCH   5   8
ENDBRANCH   3   4
ENDBRANCH   2   3
ENDBRANCH   1   2
BRANCH   1  30
ATOM     30  C   UNL A   1      41.398  20.713  26.971  1.00  0.00     0.002 C 
BRANCH  30  31
ATOM     31  C   UNL A   1      41.714  19.340  26.380  1.00  0.00     0.021 C 
BRANCH  31  32
ATOM     32  C   UNL A   1      43.177  18.921  26.475  1.00  0.00     0.116 C 
BRANCH  32  33
ATOM     33  N   UNL A   1      43.839  18.798  25.181  1.00  0.00    -0.352 N 
ATOM     34  C   UNL A   1      44.408  19.799  24.424  1.00  0.00     0.251 C 
ATOM     35  H   UNL A   1      43.887  17.891  24.803  1.00  0.00     0.163 HD
ATOM     36  O   UNL A   1      44.865  19.566  23.311  1.00  0.00    -0.269 OA
BRANCH  34  37
ATOM     37  C   UNL A   1      44.410  21.173  24.967  1.00  0.00     0.039 A 
ATOM     38  C   UNL A   1      45.034  21.421  26.192  1.00  0.00     0.014 A 
ATOM     39  C   UNL A   1      43.889  22.222  24.206  1.00  0.00     0.014 A 
ATOM     40  C   UNL A   1      45.216  22.739  26.611  1.00  0.00     0.010 A 
ATOM     41  C   UNL A   1      44.143  23.533  24.588  1.00  0.00     0.010 A 
ATOM     42  C   UNL A   1      44.815  23.806  25.789  1.00  0.00    -0.014 A 
BRANCH  42  43
ATOM     43  C   UNL A   1      45.091  25.218  26.159  1.00  0.00     0.031 A 
ATOM     44  C   UNL A   1      46.490  25.758  26.045  1.00  0.00     0.074 A 
ATOM     45  C   UNL A   1      44.107  25.979  26.678  1.00  0.00     0.049 A 
ATOM     46  N   UNL A   1      46.959  26.921  26.412  1.00  0.00    -0.248 NA
ATOM     47  C   UNL A   1      47.504  24.853  25.477  1.00  0.00     0.031 C 
ATOM     48  C   UNL A   1      42.726  25.545  26.903  1.00  0.00     0.029 A 
ATOM     49  N   UNL A   1      44.121  27.276  27.126  1.00  0.00    -0.354 N 
ATOM     50  C   UNL A   1      48.321  26.880  26.144  1.00  0.00     0.074 A 
ATOM     51  C   UNL A   1      48.614  25.557  25.638  1.00  0.00     0.031 C 
ATOM     52  C   UNL A   1      42.023  26.564  27.423  1.00  0.00     0.029 A 
ATOM     53  C   UNL A   1      42.905  27.712  27.600  1.00  0.00     0.049 A 
ATOM     54  H   UNL A   1      44.927  27.842  27.111  1.00  0.00     0.167 HD
ATOM     55  C   UNL A   1      49.242  27.863  26.282  1.00  0.00     0.037 A 
ATOM     56  C   UNL A   1      42.546  28.903  28.118  1.00  0.00     0.037 A 
ATOM     57  C   UNL A   1      48.935  29.190  26.743  1.00  0.00     0.049 A 
ATOM     58  C   UNL A   1      43.575  29.995  28.218  1.00  0.00     0.074 A 
ATOM     59  C   UNL A   1      49.779  30.280  26.857  1.00  0.00     0.029 A 
ATOM     60  N   UNL A   1      47.680  29.610  27.160  1.00  0.00    -0.354 N 
ATOM     61  N   UNL A   1      44.849  29.958  27.904  1.00  0.00    -0.248 NA
ATOM     62  C   UNL A   1      43.121  31.294  28.737  1.00  0.00     0.031 C 
ATOM     63  C   UNL A   1      49.039  31.353  27.368  1.00  0.00     0.029 A 
ATOM     64  C   UNL A   1      47.727  30.940  27.537  1.00  0.00     0.049 A 
ATOM     65  H   UNL A   1      46.875  29.044  27.185  1.00  0.00     0.167 HD
ATOM     66  C   UNL A   1      45.341  31.233  28.161  1.00  0.00     0.074 A 
ATOM     67  C   UNL A   1      44.227  32.020  28.647  1.00  0.00     0.031 C 
ATOM     68  C   UNL A   1      46.602  31.708  28.009  1.00  0.00     0.037 A 
BRANCH  55  69
ATOM     69  C   UNL A   1      50.662  27.539  25.907  1.00  0.00     0.058 A 
ATOM     70  C   UNL A   1      51.149  27.767  24.610  1.00  0.00     0.135 A 
ATOM     71  C   UNL A   1      51.548  27.001  26.854  1.00  0.00     0.135 A 
ATOM     72  F   UNL A   1      50.339  28.264  23.661  1.00  0.00    -0.206 F 
ATOM     73  C   UNL A   1      52.452  27.439  24.254  1.00  0.00     0.059 A 
ATOM     74  C   UNL A   1      52.865  26.691  26.527  1.00  0.00     0.059 A 
ATOM     75  F   UNL A   1      51.135  26.762  28.108  1.00  0.00    -0.206 F 
ATOM     76  C   UNL A   1      53.303  26.898  25.219  1.00  0.00     0.060 A 
BRANCH  76  77
ATOM     77  S   UNL A   1      54.990  26.469  24.740  1.00  0.00     0.124 S 
ATOM     78  O   UNL A   1      55.160  25.180  25.403  1.00  0.00    -0.237 OA
ATOM     79  O   UNL A   1      54.901  26.426  23.284  1.00  0.00    -0.237 OA
ATOM     80  O   UNL A   1      55.784  27.566  25.284  1.00  0.00    -0.744 OA
ENDBRANCH  76  77
ENDBRANCH  55  69
BRANCH  56  81
ATOM     81  C   UNL A   1      41.141  29.135  28.545  1.00  0.00     0.058 A 
ATOM     82  C   UNL A   1      40.810  29.231  29.906  1.00  0.00     0.135 A 
ATOM     83  C   UNL A   1      40.106  29.284  27.610  1.00  0.00     0.135 A 
ATOM     84  F   UNL A   1      41.763  29.091  30.838  1.00  0.00    -0.206 F 
ATOM     85  C   UNL A   1      39.501  29.449  30.325  1.00  0.00     0.059 A 
ATOM     86  C   UNL A   1      38.793  29.524  28.003  1.00  0.00     0.059 A 
ATOM     87  F   UNL A   1      40.374  29.218  26.295  1.00  0.00    -0.206 F 
ATOM     88  C   UNL A   1      38.499  29.596  29.365  1.00  0.00     0.060 A 
BRANCH  88  89
ATOM     89  S   UNL A   1      36.812  29.933  29.916  1.00  0.00     0.124 S 
ATOM     90  O   UNL A   1      36.651  28.953  30.983  1.00  0.00    -0.237 OA
ATOM     91  O   UNL A   1      36.898  31.328  30.337  1.00  0.00    -0.237 OA
ATOM     92  O   UNL A   1      36.015  29.698  28.715  1.00  0.00    -0.744 OA
ENDBRANCH  88  89
ENDBRANCH  56  81
BRANCH  68  93
ATOM     93  C   UNL A   1      46.839  33.153  28.342  1.00  0.00     0.058 A 
ATOM     94  C   UNL A   1      47.263  33.554  29.617  1.00  0.00     0.135 A 
ATOM     95  C   UNL A   1      46.696  34.142  27.354  1.00  0.00     0.135 A 
ATOM     96  F   UNL A   1      47.408  32.647  30.596  1.00  0.00    -0.206 F 
ATOM     97  C   UNL A   1      47.523  34.889  29.908  1.00  0.00     0.059 A 
ATOM     98  C   UNL A   1      46.973  35.479  27.616  1.00  0.00     0.059 A 
ATOM     99  F   UNL A   1      46.302  33.807  26.115  1.00  0.00    -0.206 F 
ATOM    100  C   UNL A   1      47.376  35.844  28.899  1.00  0.00     0.060 A 
BRANCH 100 101
ATOM    101  S   UNL A   1      47.757  37.568  29.278  1.00  0.00     0.124 S 
ATOM    102  O   UNL A   1      48.911  37.808  28.418  1.00  0.00    -0.237 OA
ATOM    103  O   UNL A   1      46.526  38.253  28.894  1.00  0.00    -0.237 OA
ATOM    104  O   UNL A   1      48.033  37.546  30.712  1.00  0.00    -0.744 OA
ENDBRANCH 100 101
ENDBRANCH  68  93
ENDBRANCH  42  43
ENDBRANCH  34  37
ENDBRANCH  32  33
ENDBRANCH  31  32
ENDBRANCH  30  31
ENDBRANCH   1  30
TORSDOF 21
ENDMDL
