MODEL 1
REMARK VINA RESULT:     -11.1      0.000      0.000
REMARK SMILES C[C@@H]1[C@@H](C(=O)NCCCCCCNC(=O)c2ccc(-c3c4nc(c(-c5c(F)cc(S(=O)(=O)[O-])cc5F)c5ccc([nH]5)c(-c5c(F)cc(S(=O)(=O)[O-])cc5F)c5nc(c(-c6c(F)cc(S(=O)(=O)[O-])cc6F)c6ccc3[nH]6)C=C5)C=C4)cc2)CCN1C(=O)[C@]1([NH3+])CCOC1
REMARK SMILES IDX 9 1 8 2 7 3 6 4 4 5 5 6 3 8 1 9 2 10 84 11 82 12 83 13 85 14
REMARK SMILES IDX 86 15 87 16 89 17 92 18 90 19 91 20 88 21 10 25 11 26 12 27
REMARK SMILES IDX 13 28 14 29 15 31 16 32 17 33 81 34 18 35 80 36 19 37 20 38
REMARK SMILES IDX 21 39 74 40 22 41 79 42 73 43 75 44 23 45 78 46 72 47 71 48
REMARK SMILES IDX 24 50 58 51 37 52 57 53 38 54 41 55 56 56 76 57 39 58 40 59
REMARK SMILES IDX 55 61 77 62 42 63 25 64 26 65 35 66 27 67 28 68 34 69 36 70
REMARK SMILES IDX 29 71 30 72 31 73 32 74 33 75 59 76 60 77 69 78 61 79 62 80
REMARK SMILES IDX 68 81 70 82 63 83 64 84 65 85 66 86 67 87 43 88 44 89 53 90
REMARK SMILES IDX 45 91 46 92 52 93 54 94 47 95 48 96 49 97 50 98 51 99
REMARK H PARENT 6 7 88 22 88 23 88 24 13 30 75 49 41 60
REMARK Flexibility Score: inf
ROOT
ATOM      1  C   UNL A   1      31.845  28.324  26.658  1.00  0.00     0.002 C 
ENDROOT
BRANCH   1   2
ATOM      2  C   UNL A   1      31.354  26.929  26.245  1.00  0.00     0.021 C 
BRANCH   2   3
ATOM      3  C   UNL A   1      32.459  25.893  26.044  1.00  0.00     0.116 C 
BRANCH   3   4
ATOM      4  N   UNL A   1      31.908  24.600  25.683  1.00  0.00    -0.356 N 
ATOM      5  C   UNL A   1      32.529  23.454  25.293  1.00  0.00     0.225 C 
ATOM      6  O   UNL A   1      31.824  22.477  25.037  1.00  0.00    -0.275 OA
ATOM      7  H   UNL A   1      30.926  24.544  25.724  1.00  0.00     0.163 HD
BRANCH   5   8
ATOM      8  C   UNL A   1      34.048  23.404  25.244  1.00  0.00     0.102 C 
ATOM      9  C   UNL A   1      35.971  22.731  23.790  1.00  0.00     0.032 C 
ATOM     10  C   UNL A   1      34.580  22.317  24.289  1.00  0.00     0.094 C 
ATOM     11  N   UNL A   1      34.655  21.105  25.114  1.00  0.00    -0.334 N 
ATOM     12  C   UNL A   1      34.639  22.978  26.593  1.00  0.00     0.037 C 
ATOM     13  C   UNL A   1      34.608  21.458  26.531  1.00  0.00     0.121 C 
BRANCH  11  14
ATOM     14  C   UNL A   1      34.623  19.766  24.784  1.00  0.00     0.286 C 
ATOM     15  O   UNL A   1      35.703  19.153  24.704  1.00  0.00    -0.267 OA
BRANCH  14  16
ATOM     16  C   UNL A   1      33.304  18.937  24.541  1.00  0.00     0.199 C 
ATOM     17  C   UNL A   1      32.689  18.302  25.771  1.00  0.00     0.110 C 
ATOM     18  C   UNL A   1      33.489  17.778  23.567  1.00  0.00     0.239 C 
ATOM     19  C   UNL A   1      32.886  16.810  25.604  1.00  0.00     0.167 C 
ATOM     20  O   UNL A   1      33.429  16.551  24.312  1.00  0.00    -0.374 OA
BRANCH  16  21
ATOM     21  N   UNL A   1      32.294  19.902  23.984  1.00  0.00    -0.343 N 
ATOM     22  H   UNL A   1      32.488  20.839  24.337  1.00  0.00     0.345 HD
ATOM     23  H   UNL A   1      31.357  19.618  24.271  1.00  0.00     0.345 HD
ATOM     24  H   UNL A   1      32.351  19.904  22.966  1.00  0.00     0.345 HD
ENDBRANCH  16  21
ENDBRANCH  14  16
ENDBRANCH  11  14
ENDBRANCH   5   8
ENDBRANCH   3   4
ENDBRANCH   2   3
ENDBRANCH   1   2
BRANCH   1  25
ATOM     25  C   UNL A   1      33.364  28.518  26.640  1.00  0.00     0.002 C 
BRANCH  25  26
ATOM     26  C   UNL A   1      33.865  29.814  27.282  1.00  0.00     0.021 C 
BRANCH  26  27
ATOM     27  C   UNL A   1      35.245  29.726  27.930  1.00  0.00     0.116 C 
BRANCH  27  28
ATOM     28  N   UNL A   1      35.319  30.464  29.180  1.00  0.00    -0.352 N 
ATOM     29  C   UNL A   1      36.375  30.625  30.043  1.00  0.00     0.251 C 
ATOM     30  H   UNL A   1      34.486  30.915  29.450  1.00  0.00     0.163 HD
ATOM     31  O   UNL A   1      36.187  31.149  31.137  1.00  0.00    -0.269 OA
BRANCH  29  32
ATOM     32  C   UNL A   1      37.730  30.152  29.673  1.00  0.00     0.039 A 
ATOM     33  C   UNL A   1      38.099  30.165  28.325  1.00  0.00     0.014 A 
ATOM     34  C   UNL A   1      38.623  29.670  30.635  1.00  0.00     0.014 A 
ATOM     35  C   UNL A   1      39.376  29.741  27.948  1.00  0.00     0.010 A 
ATOM     36  C   UNL A   1      39.920  29.315  30.266  1.00  0.00     0.010 A 
ATOM     37  C   UNL A   1      40.309  29.338  28.918  1.00  0.00    -0.014 A 
BRANCH  37  38
ATOM     38  C   UNL A   1      41.685  28.932  28.531  1.00  0.00     0.031 A 
ATOM     39  C   UNL A   1      42.797  29.947  28.488  1.00  0.00     0.074 A 
ATOM     40  C   UNL A   1      41.928  27.653  28.178  1.00  0.00     0.049 A 
ATOM     41  N   UNL A   1      44.051  29.785  28.152  1.00  0.00    -0.248 NA
ATOM     42  C   UNL A   1      42.448  31.331  28.848  1.00  0.00     0.031 C 
ATOM     43  C   UNL A   1      40.926  26.586  28.129  1.00  0.00     0.029 A 
ATOM     44  N   UNL A   1      43.090  27.034  27.790  1.00  0.00    -0.354 N 
ATOM     45  C   UNL A   1      44.638  31.042  28.253  1.00  0.00     0.074 A 
ATOM     46  C   UNL A   1      43.590  31.966  28.626  1.00  0.00     0.031 C 
ATOM     47  C   UNL A   1      41.522  25.439  27.762  1.00  0.00     0.029 A 
ATOM     48  C   UNL A   1      42.938  25.695  27.515  1.00  0.00     0.049 A 
ATOM     49  H   UNL A   1      43.952  27.504  27.716  1.00  0.00     0.167 HD
ATOM     50  C   UNL A   1      45.935  31.388  28.075  1.00  0.00     0.037 A 
ATOM     51  C   UNL A   1      43.836  24.776  27.109  1.00  0.00     0.037 A 
ATOM     52  C   UNL A   1      46.980  30.460  27.728  1.00  0.00     0.049 A 
ATOM     53  C   UNL A   1      45.271  25.186  26.918  1.00  0.00     0.074 A 
ATOM     54  C   UNL A   1      48.335  30.703  27.583  1.00  0.00     0.029 A 
ATOM     55  N   UNL A   1      46.788  29.111  27.469  1.00  0.00    -0.354 N 
ATOM     56  N   UNL A   1      45.820  26.366  27.084  1.00  0.00    -0.248 NA
ATOM     57  C   UNL A   1      46.211  24.139  26.495  1.00  0.00     0.031 C 
ATOM     58  C   UNL A   1      48.956  29.512  27.194  1.00  0.00     0.029 A 
ATOM     59  C   UNL A   1      47.996  28.514  27.144  1.00  0.00     0.049 A 
ATOM     60  H   UNL A   1      45.922  28.646  27.510  1.00  0.00     0.167 HD
ATOM     61  C   UNL A   1      47.172  26.199  26.807  1.00  0.00     0.074 A 
ATOM     62  C   UNL A   1      47.360  24.800  26.480  1.00  0.00     0.031 C 
ATOM     63  C   UNL A   1      48.168  27.119  26.821  1.00  0.00     0.037 A 
BRANCH  50  64
ATOM     64  C   UNL A   1      46.302  32.838  28.262  1.00  0.00     0.058 A 
ATOM     65  C   UNL A   1      46.224  33.758  27.204  1.00  0.00     0.135 A 
ATOM     66  C   UNL A   1      46.697  33.319  29.520  1.00  0.00     0.135 A 
ATOM     67  F   UNL A   1      45.865  33.351  25.977  1.00  0.00    -0.206 F 
ATOM     68  C   UNL A   1      46.555  35.098  27.380  1.00  0.00     0.059 A 
ATOM     69  C   UNL A   1      47.005  34.661  29.726  1.00  0.00     0.059 A 
ATOM     70  F   UNL A   1      46.787  32.483  30.566  1.00  0.00    -0.206 F 
ATOM     71  C   UNL A   1      46.945  35.540  28.646  1.00  0.00     0.060 A 
BRANCH  71  72
ATOM     72  S   UNL A   1      47.367  37.282  28.857  1.00  0.00     0.124 S 
ATOM     73  O   UNL A   1      48.683  37.189  29.483  1.00  0.00    -0.237 OA
ATOM     74  O   UNL A   1      47.353  37.776  27.484  1.00  0.00    -0.237 OA
ATOM     75  O   UNL A   1      46.299  37.789  29.713  1.00  0.00    -0.744 OA
ENDBRANCH  71  72
ENDBRANCH  50  64
BRANCH  51  76
ATOM     76  C   UNL A   1      43.407  23.370  26.875  1.00  0.00     0.058 A 
ATOM     77  C   UNL A   1      43.088  22.526  27.948  1.00  0.00     0.135 A 
ATOM     78  C   UNL A   1      43.300  22.848  25.577  1.00  0.00     0.135 A 
ATOM     79  F   UNL A   1      43.181  22.978  29.208  1.00  0.00    -0.206 F 
ATOM     80  C   UNL A   1      42.694  21.207  27.745  1.00  0.00     0.059 A 
ATOM     81  C   UNL A   1      42.885  21.541  25.348  1.00  0.00     0.059 A 
ATOM     82  F   UNL A   1      43.579  23.620  24.515  1.00  0.00    -0.206 F 
ATOM     83  C   UNL A   1      42.594  20.723  26.439  1.00  0.00     0.060 A 
BRANCH  83  84
ATOM     84  S   UNL A   1      42.038  19.024  26.184  1.00  0.00     0.124 S 
ATOM     85  O   UNL A   1      42.917  18.587  25.106  1.00  0.00    -0.237 OA
ATOM     86  O   UNL A   1      42.281  18.423  27.492  1.00  0.00    -0.237 OA
ATOM     87  O   UNL A   1      40.630  19.183  25.828  1.00  0.00    -0.744 OA
ENDBRANCH  83  84
ENDBRANCH  51  76
BRANCH  63  88
ATOM     88  C   UNL A   1      49.556  26.640  26.497  1.00  0.00     0.058 A 
ATOM     89  C   UNL A   1      50.373  26.037  27.465  1.00  0.00     0.135 A 
ATOM     90  C   UNL A   1      50.059  26.746  25.189  1.00  0.00     0.135 A 
ATOM     91  F   UNL A   1      49.943  25.916  28.732  1.00  0.00    -0.206 F 
ATOM     92  C   UNL A   1      51.650  25.580  27.157  1.00  0.00     0.059 A 
ATOM     93  C   UNL A   1      51.322  26.271  24.851  1.00  0.00     0.059 A 
ATOM     94  F   UNL A   1      49.314  27.306  24.221  1.00  0.00    -0.206 F 
ATOM     95  C   UNL A   1      52.116  25.701  25.846  1.00  0.00     0.060 A 
BRANCH  95  96
ATOM     96  S   UNL A   1      53.764  25.079  25.452  1.00  0.00     0.124 S 
ATOM     97  O   UNL A   1      54.016  25.711  24.161  1.00  0.00    -0.237 OA
ATOM     98  O   UNL A   1      54.562  25.577  26.568  1.00  0.00    -0.237 OA
ATOM     99  O   UNL A   1      53.581  23.631  25.418  1.00  0.00    -0.744 OA
ENDBRANCH  95  96
ENDBRANCH  63  88
ENDBRANCH  37  38
ENDBRANCH  29  32
ENDBRANCH  27  28
ENDBRANCH  26  27
ENDBRANCH  25  26
ENDBRANCH   1  25
TORSDOF 19
ENDMDL
MODEL 2
REMARK VINA RESULT:     -10.8      4.642      7.512
REMARK SMILES C[C@@H]1[C@@H](C(=O)NCCCCCCNC(=O)c2ccc(-c3c4nc(c(-c5c(F)cc(S(=O)(=O)[O-])cc5F)c5ccc([nH]5)c(-c5c(F)cc(S(=O)(=O)[O-])cc5F)c5nc(c(-c6c(F)cc(S(=O)(=O)[O-])cc6F)c6ccc3[nH]6)C=C5)C=C4)cc2)CCN1C(=O)[C@]1([NH3+])CCOC1
REMARK SMILES IDX 9 1 8 2 7 3 6 4 4 5 5 6 3 8 1 9 2 10 84 11 82 12 83 13 85 14
REMARK SMILES IDX 86 15 87 16 89 17 92 18 90 19 91 20 88 21 10 25 11 26 12 27
REMARK SMILES IDX 13 28 14 29 15 31 16 32 17 33 81 34 18 35 80 36 19 37 20 38
REMARK SMILES IDX 21 39 74 40 22 41 79 42 73 43 75 44 23 45 78 46 72 47 71 48
REMARK SMILES IDX 24 50 58 51 37 52 57 53 38 54 41 55 56 56 76 57 39 58 40 59
REMARK SMILES IDX 55 61 77 62 42 63 25 64 26 65 35 66 27 67 28 68 34 69 36 70
REMARK SMILES IDX 29 71 30 72 31 73 32 74 33 75 59 76 60 77 69 78 61 79 62 80
REMARK SMILES IDX 68 81 70 82 63 83 64 84 65 85 66 86 67 87 43 88 44 89 53 90
REMARK SMILES IDX 45 91 46 92 52 93 54 94 47 95 48 96 49 97 50 98 51 99
REMARK H PARENT 6 7 88 22 88 23 88 24 13 30 75 49 41 60
REMARK Flexibility Score: inf
ROOT
ATOM      1  C   UNL A   1      37.230  32.179  31.828  1.00  0.00     0.002 C 
ENDROOT
BRANCH   1   2
ATOM      2  C   UNL A   1      38.233  32.905  32.736  1.00  0.00     0.021 C 
BRANCH   2   3
ATOM      3  C   UNL A   1      39.256  31.997  33.416  1.00  0.00     0.116 C 
BRANCH   3   4
ATOM      4  N   UNL A   1      38.864  30.602  33.325  1.00  0.00    -0.356 N 
ATOM      5  C   UNL A   1      39.617  29.470  33.351  1.00  0.00     0.225 C 
ATOM      6  O   UNL A   1      39.034  28.390  33.254  1.00  0.00    -0.275 OA
ATOM      7  H   UNL A   1      37.895  30.452  33.228  1.00  0.00     0.163 HD
BRANCH   5   8
ATOM      8  C   UNL A   1      41.121  29.575  33.552  1.00  0.00     0.102 C 
ATOM      9  C   UNL A   1      43.272  28.359  33.151  1.00  0.00     0.032 C 
ATOM     10  C   UNL A   1      41.814  28.200  33.606  1.00  0.00     0.094 C 
ATOM     11  N   UNL A   1      41.742  27.804  35.018  1.00  0.00    -0.334 N 
ATOM     12  C   UNL A   1      41.464  30.173  34.921  1.00  0.00     0.037 C 
ATOM     13  C   UNL A   1      41.445  28.968  35.850  1.00  0.00     0.121 C 
BRANCH  11  14
ATOM     14  C   UNL A   1      41.770  26.568  35.627  1.00  0.00     0.286 C 
ATOM     15  O   UNL A   1      40.699  25.945  35.746  1.00  0.00    -0.267 OA
BRANCH  14  16
ATOM     16  C   UNL A   1      43.078  25.858  36.149  1.00  0.00     0.199 C 
ATOM     17  C   UNL A   1      44.117  26.765  36.774  1.00  0.00     0.110 C 
ATOM     18  C   UNL A   1      43.835  25.108  35.058  1.00  0.00     0.239 C 
ATOM     19  C   UNL A   1      45.285  26.775  35.811  1.00  0.00     0.167 C 
ATOM     20  O   UNL A   1      45.042  25.831  34.771  1.00  0.00    -0.374 OA
BRANCH  16  21
ATOM     21  N   UNL A   1      42.637  24.886  37.209  1.00  0.00    -0.343 N 
ATOM     22  H   UNL A   1      43.414  24.699  37.843  1.00  0.00     0.345 HD
ATOM     23  H   UNL A   1      42.339  24.015  36.770  1.00  0.00     0.345 HD
ATOM     24  H   UNL A   1      41.858  25.285  37.734  1.00  0.00     0.345 HD
ENDBRANCH  16  21
ENDBRANCH  14  16
ENDBRANCH  11  14
ENDBRANCH   5   8
ENDBRANCH   3   4
ENDBRANCH   2   3
ENDBRANCH   1   2
BRANCH   1  25
ATOM     25  C   UNL A   1      36.664  33.012  30.675  1.00  0.00     0.002 C 
BRANCH  25  26
ATOM     26  C   UNL A   1      35.187  32.767  30.354  1.00  0.00     0.021 C 
BRANCH  26  27
ATOM     27  C   UNL A   1      34.839  32.753  28.868  1.00  0.00     0.116 C 
BRANCH  27  28
ATOM     28  N   UNL A   1      34.082  31.573  28.486  1.00  0.00    -0.352 N 
ATOM     29  C   UNL A   1      34.521  30.302  28.205  1.00  0.00     0.251 C 
ATOM     30  H   UNL A   1      33.109  31.704  28.417  1.00  0.00     0.163 HD
ATOM     31  O   UNL A   1      33.736  29.483  27.735  1.00  0.00    -0.269 OA
BRANCH  29  32
ATOM     32  C   UNL A   1      35.933  29.921  28.442  1.00  0.00     0.039 A 
ATOM     33  C   UNL A   1      36.857  30.098  27.408  1.00  0.00     0.014 A 
ATOM     34  C   UNL A   1      36.345  29.365  29.656  1.00  0.00     0.014 A 
ATOM     35  C   UNL A   1      38.198  29.764  27.607  1.00  0.00     0.010 A 
ATOM     36  C   UNL A   1      37.696  29.099  29.878  1.00  0.00     0.010 A 
ATOM     37  C   UNL A   1      38.637  29.287  28.854  1.00  0.00    -0.014 A 
BRANCH  37  38
ATOM     38  C   UNL A   1      40.071  28.976  29.090  1.00  0.00     0.031 A 
ATOM     39  C   UNL A   1      40.987  30.008  29.694  1.00  0.00     0.074 A 
ATOM     40  C   UNL A   1      40.560  27.774  28.724  1.00  0.00     0.049 A 
ATOM     41  N   UNL A   1      42.267  29.926  29.951  1.00  0.00    -0.248 NA
ATOM     42  C   UNL A   1      40.390  31.311  30.031  1.00  0.00     0.031 C 
ATOM     43  C   UNL A   1      39.788  26.707  28.084  1.00  0.00     0.029 A 
ATOM     44  N   UNL A   1      41.823  27.247  28.834  1.00  0.00    -0.354 N 
ATOM     45  C   UNL A   1      42.630  31.163  30.472  1.00  0.00     0.074 A 
ATOM     46  C   UNL A   1      41.448  31.996  30.441  1.00  0.00     0.031 C 
ATOM     47  C   UNL A   1      40.585  25.645  27.883  1.00  0.00     0.029 A 
ATOM     48  C   UNL A   1      41.931  25.965  28.348  1.00  0.00     0.049 A 
ATOM     49  H   UNL A   1      42.580  27.740  29.225  1.00  0.00     0.167 HD
ATOM     50  C   UNL A   1      43.832  31.560  30.954  1.00  0.00     0.037 A 
ATOM     51  C   UNL A   1      42.995  25.140  28.281  1.00  0.00     0.037 A 
ATOM     52  C   UNL A   1      45.000  30.720  31.006  1.00  0.00     0.049 A 
ATOM     53  C   UNL A   1      44.319  25.604  28.824  1.00  0.00     0.074 A 
ATOM     54  C   UNL A   1      46.248  31.011  31.531  1.00  0.00     0.029 A 
ATOM     55  N   UNL A   1      45.067  29.424  30.515  1.00  0.00    -0.354 N 
ATOM     56  N   UNL A   1      44.627  26.755  29.375  1.00  0.00    -0.248 NA
ATOM     57  C   UNL A   1      45.439  24.656  28.746  1.00  0.00     0.031 C 
ATOM     58  C   UNL A   1      47.082  29.908  31.317  1.00  0.00     0.029 A 
ATOM     59  C   UNL A   1      46.341  28.911  30.703  1.00  0.00     0.049 A 
ATOM     60  H   UNL A   1      44.321  28.941  30.094  1.00  0.00     0.167 HD
ATOM     61  C   UNL A   1      45.968  26.661  29.728  1.00  0.00     0.074 A 
ATOM     62  C   UNL A   1      46.408  25.335  29.345  1.00  0.00     0.031 C 
ATOM     63  C   UNL A   1      46.765  27.588  30.317  1.00  0.00     0.037 A 
BRANCH  50  64
ATOM     64  C   UNL A   1      43.943  32.969  31.475  1.00  0.00     0.058 A 
ATOM     65  C   UNL A   1      44.138  34.060  30.612  1.00  0.00     0.135 A 
ATOM     66  C   UNL A   1      43.816  33.237  32.848  1.00  0.00     0.135 A 
ATOM     67  F   UNL A   1      44.280  33.861  29.292  1.00  0.00    -0.206 F 
ATOM     68  C   UNL A   1      44.232  35.361  31.093  1.00  0.00     0.059 A 
ATOM     69  C   UNL A   1      43.879  34.534  33.349  1.00  0.00     0.059 A 
ATOM     70  F   UNL A   1      43.628  32.232  33.718  1.00  0.00    -0.206 F 
ATOM     71  C   UNL A   1      44.102  35.589  32.465  1.00  0.00     0.060 A 
BRANCH  71  72
ATOM     72  S   UNL A   1      44.223  37.284  33.072  1.00  0.00     0.124 S 
ATOM     73  O   UNL A   1      42.878  37.501  33.598  1.00  0.00    -0.237 OA
ATOM     74  O   UNL A   1      45.284  37.185  34.069  1.00  0.00    -0.237 OA
ATOM     75  O   UNL A   1      44.560  38.050  31.876  1.00  0.00    -0.744 OA
ENDBRANCH  71  72
ENDBRANCH  50  64
BRANCH  51  76
ATOM     76  C   UNL A   1      42.846  23.780  27.696  1.00  0.00     0.058 A 
ATOM     77  C   UNL A   1      42.780  23.596  26.308  1.00  0.00     0.135 A 
ATOM     78  C   UNL A   1      42.777  22.640  28.511  1.00  0.00     0.135 A 
ATOM     79  F   UNL A   1      42.836  24.656  25.487  1.00  0.00    -0.206 F 
ATOM     80  C   UNL A   1      42.633  22.331  25.746  1.00  0.00     0.059 A 
ATOM     81  C   UNL A   1      42.654  21.364  27.973  1.00  0.00     0.059 A 
ATOM     82  F   UNL A   1      42.852  22.761  29.845  1.00  0.00    -0.206 F 
ATOM     83  C   UNL A   1      42.572  21.220  26.588  1.00  0.00     0.060 A 
BRANCH  83  84
ATOM     84  S   UNL A   1      42.426  19.579  25.849  1.00  0.00     0.124 S 
ATOM     85  O   UNL A   1      42.737  18.718  26.983  1.00  0.00    -0.237 OA
ATOM     86  O   UNL A   1      41.038  19.568  25.398  1.00  0.00    -0.237 OA
ATOM     87  O   UNL A   1      43.423  19.604  24.781  1.00  0.00    -0.744 OA
ENDBRANCH  83  84
ENDBRANCH  51  76
BRANCH  63  88
ATOM     88  C   UNL A   1      48.187  27.195  30.604  1.00  0.00     0.058 A 
ATOM     89  C   UNL A   1      48.522  26.394  31.707  1.00  0.00     0.135 A 
ATOM     90  C   UNL A   1      49.223  27.587  29.740  1.00  0.00     0.135 A 
ATOM     91  F   UNL A   1      47.571  25.996  32.567  1.00  0.00    -0.206 F 
ATOM     92  C   UNL A   1      49.837  26.018  31.959  1.00  0.00     0.059 A 
ATOM     93  C   UNL A   1      50.542  27.200  29.958  1.00  0.00     0.059 A 
ATOM     94  F   UNL A   1      48.956  28.345  28.664  1.00  0.00    -0.206 F 
ATOM     95  C   UNL A   1      50.841  26.427  31.079  1.00  0.00     0.060 A 
BRANCH  95  96
ATOM     96  S   UNL A   1      52.540  25.909  31.402  1.00  0.00     0.124 S 
ATOM     97  O   UNL A   1      53.075  27.076  32.094  1.00  0.00    -0.237 OA
ATOM     98  O   UNL A   1      52.353  24.716  32.222  1.00  0.00    -0.237 OA
ATOM     99  O   UNL A   1      53.081  25.666  30.068  1.00  0.00    -0.744 OA
ENDBRANCH  95  96
ENDBRANCH  63  88
ENDBRANCH  37  38
ENDBRANCH  29  32
ENDBRANCH  27  28
ENDBRANCH  26  27
ENDBRANCH  25  26
ENDBRANCH   1  25
TORSDOF 19
ENDMDL
MODEL 3
REMARK VINA RESULT:     -10.7      1.162      8.317
REMARK SMILES C[C@@H]1[C@@H](C(=O)NCCCCCCNC(=O)c2ccc(-c3c4nc(c(-c5c(F)cc(S(=O)(=O)[O-])cc5F)c5ccc([nH]5)c(-c5c(F)cc(S(=O)(=O)[O-])cc5F)c5nc(c(-c6c(F)cc(S(=O)(=O)[O-])cc6F)c6ccc3[nH]6)C=C5)C=C4)cc2)CCN1C(=O)[C@]1([NH3+])CCOC1
REMARK SMILES IDX 9 1 8 2 7 3 6 4 4 5 5 6 3 8 1 9 2 10 84 11 82 12 83 13 85 14
REMARK SMILES IDX 86 15 87 16 89 17 92 18 90 19 91 20 88 21 10 25 11 26 12 27
REMARK SMILES IDX 13 28 14 29 15 31 16 32 17 33 81 34 18 35 80 36 19 37 20 38
REMARK SMILES IDX 21 39 74 40 22 41 79 42 73 43 75 44 23 45 78 46 72 47 71 48
REMARK SMILES IDX 24 50 58 51 37 52 57 53 38 54 41 55 56 56 76 57 39 58 40 59
REMARK SMILES IDX 55 61 77 62 42 63 25 64 26 65 35 66 27 67 28 68 34 69 36 70
REMARK SMILES IDX 29 71 30 72 31 73 32 74 33 75 59 76 60 77 69 78 61 79 62 80
REMARK SMILES IDX 68 81 70 82 63 83 64 84 65 85 66 86 67 87 43 88 44 89 53 90
REMARK SMILES IDX 45 91 46 92 52 93 54 94 47 95 48 96 49 97 50 98 51 99
REMARK H PARENT 6 7 88 22 88 23 88 24 13 30 75 49 41 60
REMARK Flexibility Score: inf
ROOT
ATOM      1  C   UNL A   1      33.454  28.752  27.216  1.00  0.00     0.002 C 
ENDROOT
BRANCH   1   2
ATOM      2  C   UNL A   1      31.933  28.541  27.252  1.00  0.00     0.021 C 
BRANCH   2   3
ATOM      3  C   UNL A   1      31.388  27.617  26.164  1.00  0.00     0.116 C 
BRANCH   3   4
ATOM      4  N   UNL A   1      31.297  26.247  26.636  1.00  0.00    -0.356 N 
ATOM      5  C   UNL A   1      31.883  25.112  26.168  1.00  0.00     0.225 C 
ATOM      6  O   UNL A   1      31.641  24.057  26.754  1.00  0.00    -0.275 OA
ATOM      7  H   UNL A   1      30.716  26.119  27.420  1.00  0.00     0.163 HD
BRANCH   5   8
ATOM      8  C   UNL A   1      32.845  25.194  24.993  1.00  0.00     0.102 C 
ATOM      9  C   UNL A   1      33.272  24.278  22.703  1.00  0.00     0.032 C 
ATOM     10  C   UNL A   1      32.850  23.915  24.133  1.00  0.00     0.094 C 
ATOM     11  N   UNL A   1      33.844  23.045  24.772  1.00  0.00    -0.334 N 
ATOM     12  C   UNL A   1      34.300  25.282  25.464  1.00  0.00     0.037 C 
ATOM     13  C   UNL A   1      34.699  23.827  25.661  1.00  0.00     0.121 C 
BRANCH  11  14
ATOM     14  C   UNL A   1      33.999  21.674  24.773  1.00  0.00     0.286 C 
ATOM     15  O   UNL A   1      35.155  21.212  24.772  1.00  0.00    -0.267 OA
BRANCH  14  16
ATOM     16  C   UNL A   1      32.810  20.641  24.820  1.00  0.00     0.199 C 
ATOM     17  C   UNL A   1      33.158  19.257  25.329  1.00  0.00     0.110 C 
ATOM     18  C   UNL A   1      32.167  20.395  23.459  1.00  0.00     0.239 C 
ATOM     19  C   UNL A   1      33.051  18.340  24.128  1.00  0.00     0.167 C 
ATOM     20  O   UNL A   1      32.527  19.074  23.024  1.00  0.00    -0.374 OA
BRANCH  16  21
ATOM     21  N   UNL A   1      31.786  21.217  25.760  1.00  0.00    -0.343 N 
ATOM     22  H   UNL A   1      32.258  21.645  26.556  1.00  0.00     0.345 HD
ATOM     23  H   UNL A   1      31.169  20.474  26.089  1.00  0.00     0.345 HD
ATOM     24  H   UNL A   1      31.235  21.923  25.271  1.00  0.00     0.345 HD
ENDBRANCH  16  21
ENDBRANCH  14  16
ENDBRANCH  11  14
ENDBRANCH   5   8
ENDBRANCH   3   4
ENDBRANCH   2   3
ENDBRANCH   1   2
BRANCH   1  25
ATOM     25  C   UNL A   1      33.917  30.211  27.246  1.00  0.00     0.002 C 
BRANCH  25  26
ATOM     26  C   UNL A   1      35.306  30.445  27.845  1.00  0.00     0.021 C 
BRANCH  26  27
ATOM     27  C   UNL A   1      35.577  29.716  29.159  1.00  0.00     0.116 C 
BRANCH  27  28
ATOM     28  N   UNL A   1      35.714  30.629  30.282  1.00  0.00    -0.352 N 
ATOM     29  C   UNL A   1      36.842  31.027  30.957  1.00  0.00     0.251 C 
ATOM     30  H   UNL A   1      34.871  31.021  30.609  1.00  0.00     0.163 HD
ATOM     31  O   UNL A   1      36.728  31.678  31.992  1.00  0.00    -0.269 OA
BRANCH  29  32
ATOM     32  C   UNL A   1      38.188  30.657  30.460  1.00  0.00     0.039 A 
ATOM     33  C   UNL A   1      39.073  30.019  31.335  1.00  0.00     0.014 A 
ATOM     34  C   UNL A   1      38.594  30.960  29.158  1.00  0.00     0.014 A 
ATOM     35  C   UNL A   1      40.342  29.644  30.890  1.00  0.00     0.010 A 
ATOM     36  C   UNL A   1      39.834  30.521  28.694  1.00  0.00     0.010 A 
ATOM     37  C   UNL A   1      40.726  29.865  29.557  1.00  0.00    -0.014 A 
BRANCH  37  38
ATOM     38  C   UNL A   1      42.056  29.425  29.062  1.00  0.00     0.031 A 
ATOM     39  C   UNL A   1      42.265  28.010  28.589  1.00  0.00     0.074 A 
ATOM     40  C   UNL A   1      43.091  30.289  29.075  1.00  0.00     0.049 A 
ATOM     41  N   UNL A   1      43.356  27.439  28.148  1.00  0.00    -0.248 NA
ATOM     42  C   UNL A   1      41.099  27.113  28.642  1.00  0.00     0.031 C 
ATOM     43  C   UNL A   1      43.031  31.671  29.556  1.00  0.00     0.029 A 
ATOM     44  N   UNL A   1      44.396  30.134  28.676  1.00  0.00    -0.354 N 
ATOM     45  C   UNL A   1      43.012  26.119  27.877  1.00  0.00     0.074 A 
ATOM     46  C   UNL A   1      41.626  25.959  28.258  1.00  0.00     0.031 C 
ATOM     47  C   UNL A   1      44.235  32.245  29.398  1.00  0.00     0.029 A 
ATOM     48  C   UNL A   1      45.161  31.265  28.839  1.00  0.00     0.049 A 
ATOM     49  H   UNL A   1      44.750  29.292  28.308  1.00  0.00     0.167 HD
ATOM     50  C   UNL A   1      43.775  25.138  27.338  1.00  0.00     0.037 A 
ATOM     51  C   UNL A   1      46.463  31.488  28.570  1.00  0.00     0.037 A 
ATOM     52  C   UNL A   1      45.148  25.309  26.937  1.00  0.00     0.049 A 
ATOM     53  C   UNL A   1      47.289  30.382  27.971  1.00  0.00     0.074 A 
ATOM     54  C   UNL A   1      45.987  24.393  26.327  1.00  0.00     0.029 A 
ATOM     55  N   UNL A   1      45.884  26.472  27.107  1.00  0.00    -0.354 N 
ATOM     56  N   UNL A   1      46.928  29.160  27.659  1.00  0.00    -0.248 NA
ATOM     57  C   UNL A   1      48.696  30.687  27.678  1.00  0.00     0.031 C 
ATOM     58  C   UNL A   1      47.243  24.986  26.168  1.00  0.00     0.029 A 
ATOM     59  C   UNL A   1      47.174  26.289  26.634  1.00  0.00     0.049 A 
ATOM     60  H   UNL A   1      45.542  27.304  27.505  1.00  0.00     0.167 HD
ATOM     61  C   UNL A   1      48.056  28.558  27.114  1.00  0.00     0.074 A 
ATOM     62  C   UNL A   1      49.106  29.555  27.122  1.00  0.00     0.031 C 
ATOM     63  C   UNL A   1      48.210  27.293  26.648  1.00  0.00     0.037 A 
BRANCH  50  64
ATOM     64  C   UNL A   1      43.137  23.788  27.141  1.00  0.00     0.058 A 
ATOM     65  C   UNL A   1      43.024  22.866  28.194  1.00  0.00     0.135 A 
ATOM     66  C   UNL A   1      42.598  23.426  25.895  1.00  0.00     0.135 A 
ATOM     67  F   UNL A   1      43.534  23.154  29.402  1.00  0.00    -0.206 F 
ATOM     68  C   UNL A   1      42.428  21.623  28.013  1.00  0.00     0.059 A 
ATOM     69  C   UNL A   1      41.971  22.198  25.698  1.00  0.00     0.059 A 
ATOM     70  F   UNL A   1      42.677  24.269  24.854  1.00  0.00    -0.206 F 
ATOM     71  C   UNL A   1      41.904  21.298  26.760  1.00  0.00     0.060 A 
BRANCH  71  72
ATOM     72  S   UNL A   1      41.130  19.682  26.544  1.00  0.00     0.124 S 
ATOM     73  O   UNL A   1      41.043  19.214  27.924  1.00  0.00    -0.237 OA
ATOM     74  O   UNL A   1      39.860  20.025  25.911  1.00  0.00    -0.237 OA
ATOM     75  O   UNL A   1      42.075  18.962  25.696  1.00  0.00    -0.744 OA
ENDBRANCH  71  72
ENDBRANCH  50  64
BRANCH  51  76
ATOM     76  C   UNL A   1      47.061  32.822  28.845  1.00  0.00     0.058 A 
ATOM     77  C   UNL A   1      47.678  33.096  30.075  1.00  0.00     0.135 A 
ATOM     78  C   UNL A   1      47.036  33.844  27.884  1.00  0.00     0.135 A 
ATOM     79  F   UNL A   1      47.722  32.153  31.028  1.00  0.00    -0.206 F 
ATOM     80  C   UNL A   1      48.235  34.341  30.350  1.00  0.00     0.059 A 
ATOM     81  C   UNL A   1      47.608  35.089  28.126  1.00  0.00     0.059 A 
ATOM     82  F   UNL A   1      46.472  33.628  26.686  1.00  0.00    -0.206 F 
ATOM     83  C   UNL A   1      48.196  35.332  29.367  1.00  0.00     0.060 A 
BRANCH  83  84
ATOM     84  S   UNL A   1      48.961  36.930  29.717  1.00  0.00     0.124 S 
ATOM     85  O   UNL A   1      49.747  37.149  28.509  1.00  0.00    -0.237 OA
ATOM     86  O   UNL A   1      47.798  37.795  29.890  1.00  0.00    -0.237 OA
ATOM     87  O   UNL A   1      49.728  36.674  30.933  1.00  0.00    -0.744 OA
ENDBRANCH  83  84
ENDBRANCH  51  76
BRANCH  63  88
ATOM     88  C   UNL A   1      49.555  26.922  26.087  1.00  0.00     0.058 A 
ATOM     89  C   UNL A   1      50.566  26.381  26.895  1.00  0.00     0.135 A 
ATOM     90  C   UNL A   1      49.819  27.067  24.715  1.00  0.00     0.135 A 
ATOM     91  F   UNL A   1      50.368  26.226  28.214  1.00  0.00    -0.206 F 
ATOM     92  C   UNL A   1      51.803  26.022  26.368  1.00  0.00     0.059 A 
ATOM     93  C   UNL A   1      51.038  26.690  24.161  1.00  0.00     0.059 A 
ATOM     94  F   UNL A   1      48.881  27.570  23.895  1.00  0.00    -0.206 F 
ATOM     95  C   UNL A   1      52.029  26.181  24.999  1.00  0.00     0.060 A 
BRANCH  95  96
ATOM     96  S   UNL A   1      53.628  25.685  24.323  1.00  0.00     0.124 S 
ATOM     97  O   UNL A   1      54.542  26.542  25.072  1.00  0.00    -0.237 OA
ATOM     98  O   UNL A   1      53.680  24.264  24.651  1.00  0.00    -0.237 OA
ATOM     99  O   UNL A   1      53.505  25.990  22.901  1.00  0.00    -0.744 OA
ENDBRANCH  95  96
ENDBRANCH  63  88
ENDBRANCH  37  38
ENDBRANCH  29  32
ENDBRANCH  27  28
ENDBRANCH  26  27
ENDBRANCH  25  26
ENDBRANCH   1  25
TORSDOF 19
ENDMDL
