MODEL 1
REMARK VINA RESULT:     -12.0      0.000      0.000
REMARK SMILES CC1=C2C(=O)N(C[C@H]3CCCO3)C(=O)N=C2S[C@@H]1C(=O)NCCCCCCNC(=O)c1ccc(-c2c3nc(c(-c4c(F)cc(S(=O)(=O)[O-])cc4F)c4ccc([nH]4)c(-c4c(F)cc(S(=O)(=O)[O-])cc4F)c4nc(c(-c5c(F)cc(S(=O)(=O)[O-])cc5F)c5ccc2[nH]5)C=C4)C=C3)cc1
REMARK SMILES IDX 25 1 24 2 23 3 22 4 21 5 19 6 20 7 18 9 1 10 2 11 3 12 4 13
REMARK SMILES IDX 16 14 17 15 5 16 6 17 15 18 13 19 14 20 7 21 8 22 9 23 12 24
REMARK SMILES IDX 10 25 11 26 26 27 27 28 28 29 29 30 30 32 31 33 32 34 96 35
REMARK SMILES IDX 33 36 95 37 34 38 35 39 36 40 89 41 37 42 94 43 88 44 90 45
REMARK SMILES IDX 38 46 93 47 87 48 86 49 39 51 73 52 52 53 72 54 53 55 56 56
REMARK SMILES IDX 71 57 91 58 54 59 55 60 70 62 92 63 57 64 40 65 41 66 50 67
REMARK SMILES IDX 42 68 43 69 49 70 51 71 44 72 45 73 46 74 47 75 48 76 74 77
REMARK SMILES IDX 75 78 84 79 76 80 77 81 83 82 85 83 78 84 79 85 80 86 81 87
REMARK SMILES IDX 82 88 58 89 59 90 68 91 60 92 61 93 67 94 69 95 62 96 63 97
REMARK SMILES IDX 64 98 65 99 66 100
REMARK H PARENT 21 8 28 31 90 50 56 61
REMARK Flexibility Score: inf
ROOT
ATOM      1  C   UNL A   1      34.052  29.404  26.943  1.00  0.00     0.002 C 
ENDROOT
BRANCH   1   2
ATOM      2  C   UNL A   1      32.610  28.895  27.038  1.00  0.00     0.002 C 
BRANCH   2   3
ATOM      3  C   UNL A   1      31.676  29.372  25.923  1.00  0.00     0.021 C 
BRANCH   3   4
ATOM      4  C   UNL A   1      32.317  29.395  24.540  1.00  0.00     0.116 C 
BRANCH   4   5
ATOM      5  N   UNL A   1      31.317  29.384  23.488  1.00  0.00    -0.355 N 
ATOM      6  C   UNL A   1      30.862  28.377  22.691  1.00  0.00     0.237 C 
ATOM      7  O   UNL A   1      29.979  28.660  21.874  1.00  0.00    -0.273 OA
ATOM      8  H   UNL A   1      30.894  30.257  23.321  1.00  0.00     0.163 HD
BRANCH   6   9
ATOM      9  C   UNL A   1      31.348  26.927  22.818  1.00  0.00     0.169 C 
ATOM     10  C   UNL A   1      29.657  26.242  24.634  1.00  0.00     0.042 C 
ATOM     11  C   UNL A   1      31.075  26.292  24.154  1.00  0.00    -0.035 C 
ATOM     12  C   UNL A   1      32.145  25.777  24.776  1.00  0.00     0.073 C 
ATOM     13  C   UNL A   1      32.260  25.124  26.080  1.00  0.00     0.264 C 
ATOM     14  C   UNL A   1      33.367  25.860  23.998  1.00  0.00     0.116 C 
ATOM     15  S   UNL A   1      33.146  26.782  22.540  1.00  0.00    -0.087 SA
ATOM     16  O   UNL A   1      31.509  25.415  27.000  1.00  0.00    -0.268 OA
ATOM     17  N   UNL A   1      33.311  24.240  26.123  1.00  0.00    -0.256 N 
ATOM     18  N   UNL A   1      34.479  25.314  24.317  1.00  0.00    -0.186 NA
ATOM     19  C   UNL A   1      34.501  24.483  25.414  1.00  0.00     0.351 C 
ATOM     20  O   UNL A   1      35.551  23.935  25.738  1.00  0.00    -0.246 OA
BRANCH  17  21
ATOM     21  C   UNL A   1      33.246  23.005  26.908  1.00  0.00     0.163 C 
BRANCH  21  22
ATOM     22  C   UNL A   1      32.721  21.689  26.303  1.00  0.00     0.138 C 
ATOM     23  C   UNL A   1      32.058  21.760  24.931  1.00  0.00     0.036 C 
ATOM     24  O   UNL A   1      33.893  20.854  26.091  1.00  0.00    -0.376 OA
ATOM     25  C   UNL A   1      33.201  21.632  23.964  1.00  0.00     0.031 C 
ATOM     26  C   UNL A   1      34.120  20.681  24.686  1.00  0.00     0.160 C 
ENDBRANCH  21  22
ENDBRANCH  17  21
ENDBRANCH   6   9
ENDBRANCH   4   5
ENDBRANCH   3   4
ENDBRANCH   2   3
ENDBRANCH   1   2
BRANCH   1  27
ATOM     27  C   UNL A   1      34.284  30.830  27.454  1.00  0.00     0.021 C 
BRANCH  27  28
ATOM     28  C   UNL A   1      35.606  31.055  28.182  1.00  0.00     0.116 C 
BRANCH  28  29
ATOM     29  N   UNL A   1      35.472  30.926  29.622  1.00  0.00    -0.352 N 
ATOM     30  C   UNL A   1      36.373  30.442  30.539  1.00  0.00     0.251 C 
ATOM     31  H   UNL A   1      34.613  31.226  29.996  1.00  0.00     0.163 HD
ATOM     32  O   UNL A   1      36.020  30.258  31.701  1.00  0.00    -0.269 OA
BRANCH  30  33
ATOM     33  C   UNL A   1      37.757  30.124  30.125  1.00  0.00     0.039 A 
ATOM     34  C   UNL A   1      38.708  29.851  31.111  1.00  0.00     0.014 A 
ATOM     35  C   UNL A   1      38.124  30.116  28.775  1.00  0.00     0.014 A 
ATOM     36  C   UNL A   1      40.014  29.515  30.744  1.00  0.00     0.010 A 
ATOM     37  C   UNL A   1      39.411  29.728  28.408  1.00  0.00     0.010 A 
ATOM     38  C   UNL A   1      40.368  29.427  29.389  1.00  0.00    -0.014 A 
BRANCH  38  39
ATOM     39  C   UNL A   1      41.736  29.019  28.979  1.00  0.00     0.031 A 
ATOM     40  C   UNL A   1      42.844  30.035  28.931  1.00  0.00     0.074 A 
ATOM     41  C   UNL A   1      41.962  27.751  28.583  1.00  0.00     0.049 A 
ATOM     42  N   UNL A   1      44.080  29.889  28.525  1.00  0.00    -0.248 NA
ATOM     43  C   UNL A   1      42.515  31.399  29.374  1.00  0.00     0.031 C 
ATOM     44  C   UNL A   1      40.956  26.686  28.538  1.00  0.00     0.029 A 
ATOM     45  N   UNL A   1      43.106  27.145  28.127  1.00  0.00    -0.354 N 
ATOM     46  C   UNL A   1      44.666  31.144  28.639  1.00  0.00     0.074 A 
ATOM     47  C   UNL A   1      43.644  32.046  29.123  1.00  0.00     0.031 C 
ATOM     48  C   UNL A   1      41.530  25.558  28.088  1.00  0.00     0.029 A 
ATOM     49  C   UNL A   1      42.933  25.824  27.786  1.00  0.00     0.049 A 
ATOM     50  H   UNL A   1      43.968  27.613  28.050  1.00  0.00     0.167 HD
ATOM     51  C   UNL A   1      45.946  31.507  28.378  1.00  0.00     0.037 A 
ATOM     52  C   UNL A   1      43.806  24.931  27.281  1.00  0.00     0.037 A 
ATOM     53  C   UNL A   1      46.971  30.597  27.940  1.00  0.00     0.049 A 
ATOM     54  C   UNL A   1      45.228  25.351  27.029  1.00  0.00     0.074 A 
ATOM     55  C   UNL A   1      48.315  30.850  27.731  1.00  0.00     0.029 A 
ATOM     56  N   UNL A   1      46.767  29.257  27.644  1.00  0.00    -0.354 N 
ATOM     57  N   UNL A   1      45.783  26.526  27.211  1.00  0.00    -0.248 NA
ATOM     58  C   UNL A   1      46.142  24.327  26.507  1.00  0.00     0.031 C 
ATOM     59  C   UNL A   1      48.919  29.672  27.279  1.00  0.00     0.029 A 
ATOM     60  C   UNL A   1      47.956  28.675  27.240  1.00  0.00     0.049 A 
ATOM     61  H   UNL A   1      45.904  28.788  27.712  1.00  0.00     0.167 HD
ATOM     62  C   UNL A   1      47.116  26.374  26.851  1.00  0.00     0.074 A 
ATOM     63  C   UNL A   1      47.288  24.993  26.447  1.00  0.00     0.031 C 
ATOM     64  C   UNL A   1      48.112  27.296  26.853  1.00  0.00     0.037 A 
BRANCH  51  65
ATOM     65  C   UNL A   1      46.313  32.951  28.566  1.00  0.00     0.058 A 
ATOM     66  C   UNL A   1      46.779  33.438  29.796  1.00  0.00     0.135 A 
ATOM     67  C   UNL A   1      46.235  33.852  27.490  1.00  0.00     0.135 A 
ATOM     68  F   UNL A   1      46.857  32.622  30.860  1.00  0.00    -0.206 F 
ATOM     69  C   UNL A   1      47.134  34.773  29.962  1.00  0.00     0.059 A 
ATOM     70  C   UNL A   1      46.607  35.186  27.628  1.00  0.00     0.059 A 
ATOM     71  F   UNL A   1      45.795  33.437  26.292  1.00  0.00    -0.206 F 
ATOM     72  C   UNL A   1      47.043  35.640  28.873  1.00  0.00     0.060 A 
BRANCH  72  73
ATOM     73  S   UNL A   1      47.516  37.367  29.099  1.00  0.00     0.124 S 
ATOM     74  O   UNL A   1      46.592  38.042  28.192  1.00  0.00    -0.237 OA
ATOM     75  O   UNL A   1      47.273  37.577  30.522  1.00  0.00    -0.237 OA
ATOM     76  O   UNL A   1      48.919  37.390  28.696  1.00  0.00    -0.744 OA
ENDBRANCH  72  73
ENDBRANCH  51  65
BRANCH  52  77
ATOM     77  C   UNL A   1      43.365  23.540  26.997  1.00  0.00     0.058 A 
ATOM     78  C   UNL A   1      43.182  22.618  28.038  1.00  0.00     0.135 A 
ATOM     79  C   UNL A   1      43.117  23.107  25.686  1.00  0.00     0.135 A 
ATOM     80  F   UNL A   1      43.413  22.987  29.307  1.00  0.00    -0.206 F 
ATOM     81  C   UNL A   1      42.784  21.309  27.790  1.00  0.00     0.059 A 
ATOM     82  C   UNL A   1      42.699  21.808  25.414  1.00  0.00     0.059 A 
ATOM     83  F   UNL A   1      43.262  23.957  24.658  1.00  0.00    -0.206 F 
ATOM     84  C   UNL A   1      42.547  20.912  26.472  1.00  0.00     0.060 A 
BRANCH  84  85
ATOM     85  S   UNL A   1      41.990  19.223  26.160  1.00  0.00     0.124 S 
ATOM     86  O   UNL A   1      42.328  18.567  27.418  1.00  0.00    -0.237 OA
ATOM     87  O   UNL A   1      40.567  19.408  25.898  1.00  0.00    -0.237 OA
ATOM     88  O   UNL A   1      42.784  18.819  25.003  1.00  0.00    -0.744 OA
ENDBRANCH  84  85
ENDBRANCH  52  77
BRANCH  64  89
ATOM     89  C   UNL A   1      49.479  26.834  26.441  1.00  0.00     0.058 A 
ATOM     90  C   UNL A   1      50.390  26.312  27.371  1.00  0.00     0.135 A 
ATOM     91  C   UNL A   1      49.862  26.868  25.090  1.00  0.00     0.135 A 
ATOM     92  F   UNL A   1      50.072  26.267  28.674  1.00  0.00    -0.206 F 
ATOM     93  C   UNL A   1      51.643  25.855  26.980  1.00  0.00     0.059 A 
ATOM     94  C   UNL A   1      51.102  26.396  24.674  1.00  0.00     0.059 A 
ATOM     95  F   UNL A   1      49.023  27.350  24.161  1.00  0.00    -0.206 F 
ATOM     96  C   UNL A   1      51.991  25.900  25.628  1.00  0.00     0.060 A 
BRANCH  96  97
ATOM     97  S   UNL A   1      53.605  25.270  25.123  1.00  0.00     0.124 S 
ATOM     98  O   UNL A   1      53.738  25.838  23.786  1.00  0.00    -0.237 OA
ATOM     99  O   UNL A   1      54.494  25.825  26.139  1.00  0.00    -0.237 OA
ATOM    100  O   UNL A   1      53.434  23.821  25.176  1.00  0.00    -0.744 OA
ENDBRANCH  96  97
ENDBRANCH  64  89
ENDBRANCH  38  39
ENDBRANCH  30  33
ENDBRANCH  28  29
ENDBRANCH  27  28
ENDBRANCH   1  27
TORSDOF 18
ENDMDL
MODEL 2
REMARK VINA RESULT:     -11.9      6.241     11.901
REMARK SMILES CC1=C2C(=O)N(C[C@H]3CCCO3)C(=O)N=C2S[C@@H]1C(=O)NCCCCCCNC(=O)c1ccc(-c2c3nc(c(-c4c(F)cc(S(=O)(=O)[O-])cc4F)c4ccc([nH]4)c(-c4c(F)cc(S(=O)(=O)[O-])cc4F)c4nc(c(-c5c(F)cc(S(=O)(=O)[O-])cc5F)c5ccc2[nH]5)C=C4)C=C3)cc1
REMARK SMILES IDX 25 1 24 2 23 3 22 4 21 5 19 6 20 7 18 9 1 10 2 11 3 12 4 13
REMARK SMILES IDX 16 14 17 15 5 16 6 17 15 18 13 19 14 20 7 21 8 22 9 23 12 24
REMARK SMILES IDX 10 25 11 26 26 27 27 28 28 29 29 30 30 32 31 33 32 34 96 35
REMARK SMILES IDX 33 36 95 37 34 38 35 39 36 40 89 41 37 42 94 43 88 44 90 45
REMARK SMILES IDX 38 46 93 47 87 48 86 49 39 51 73 52 52 53 72 54 53 55 56 56
REMARK SMILES IDX 71 57 91 58 54 59 55 60 70 62 92 63 57 64 40 65 41 66 50 67
REMARK SMILES IDX 42 68 43 69 49 70 51 71 44 72 45 73 46 74 47 75 48 76 74 77
REMARK SMILES IDX 75 78 84 79 76 80 77 81 83 82 85 83 78 84 79 85 80 86 81 87
REMARK SMILES IDX 82 88 58 89 59 90 68 91 60 92 61 93 67 94 69 95 62 96 63 97
REMARK SMILES IDX 64 98 65 99 66 100
REMARK H PARENT 21 8 28 31 90 50 56 61
REMARK Flexibility Score: inf
ROOT
ATOM      1  C   UNL A   1      38.739  22.472  26.120  1.00  0.00     0.002 C 
ENDROOT
BRANCH   1   2
ATOM      2  C   UNL A   1      37.900  21.420  25.387  1.00  0.00     0.002 C 
BRANCH   2   3
ATOM      3  C   UNL A   1      36.427  21.358  25.797  1.00  0.00     0.021 C 
BRANCH   3   4
ATOM      4  C   UNL A   1      35.479  20.986  24.663  1.00  0.00     0.116 C 
BRANCH   4   5
ATOM      5  N   UNL A   1      34.542  19.954  25.067  1.00  0.00    -0.355 N 
ATOM      6  C   UNL A   1      33.228  20.022  25.422  1.00  0.00     0.237 C 
ATOM      7  O   UNL A   1      32.668  18.960  25.713  1.00  0.00    -0.273 OA
ATOM      8  H   UNL A   1      34.923  19.046  25.088  1.00  0.00     0.163 HD
BRANCH   6   9
ATOM      9  C   UNL A   1      32.426  21.330  25.408  1.00  0.00     0.169 C 
ATOM     10  C   UNL A   1      32.115  21.418  22.855  1.00  0.00     0.042 C 
ATOM     11  C   UNL A   1      32.520  22.105  24.122  1.00  0.00    -0.035 C 
ATOM     12  C   UNL A   1      32.917  23.380  24.246  1.00  0.00     0.073 C 
ATOM     13  C   UNL A   1      33.148  24.403  23.228  1.00  0.00     0.264 C 
ATOM     14  C   UNL A   1      33.110  23.799  25.622  1.00  0.00     0.116 C 
ATOM     15  S   UNL A   1      32.954  22.469  26.732  1.00  0.00    -0.087 SA
ATOM     16  O   UNL A   1      33.511  24.100  22.100  1.00  0.00    -0.268 OA
ATOM     17  N   UNL A   1      32.968  25.672  23.721  1.00  0.00    -0.256 N 
ATOM     18  N   UNL A   1      33.348  24.998  25.998  1.00  0.00    -0.186 NA
ATOM     19  C   UNL A   1      33.300  25.995  25.049  1.00  0.00     0.351 C 
ATOM     20  O   UNL A   1      33.513  27.157  25.382  1.00  0.00    -0.246 OA
BRANCH  17  21
ATOM     21  C   UNL A   1      32.424  26.750  22.893  1.00  0.00     0.163 C 
BRANCH  21  22
ATOM     22  C   UNL A   1      30.912  27.041  22.835  1.00  0.00     0.138 C 
ATOM     23  C   UNL A   1      30.276  27.710  24.049  1.00  0.00     0.036 C 
ATOM     24  O   UNL A   1      30.734  28.005  21.760  1.00  0.00    -0.376 OA
ATOM     25  C   UNL A   1      30.467  29.179  23.800  1.00  0.00     0.031 C 
ATOM     26  C   UNL A   1      30.321  29.267  22.302  1.00  0.00     0.160 C 
ENDBRANCH  21  22
ENDBRANCH  17  21
ENDBRANCH   6   9
ENDBRANCH   4   5
ENDBRANCH   3   4
ENDBRANCH   2   3
ENDBRANCH   1   2
BRANCH   1  27
ATOM     27  C   UNL A   1      39.943  21.932  26.899  1.00  0.00     0.021 C 
BRANCH  27  28
ATOM     28  C   UNL A   1      40.977  22.978  27.308  1.00  0.00     0.116 C 
BRANCH  28  29
ATOM     29  N   UNL A   1      41.466  23.744  26.175  1.00  0.00    -0.352 N 
ATOM     30  C   UNL A   1      41.647  25.100  26.054  1.00  0.00     0.251 C 
ATOM     31  H   UNL A   1      41.702  23.215  25.379  1.00  0.00     0.163 HD
ATOM     32  O   UNL A   1      41.919  25.582  24.959  1.00  0.00    -0.269 OA
BRANCH  30  33
ATOM     33  C   UNL A   1      41.493  25.977  27.235  1.00  0.00     0.039 A 
ATOM     34  C   UNL A   1      42.504  26.897  27.525  1.00  0.00     0.014 A 
ATOM     35  C   UNL A   1      40.371  25.883  28.065  1.00  0.00     0.014 A 
ATOM     36  C   UNL A   1      42.368  27.760  28.616  1.00  0.00     0.010 A 
ATOM     37  C   UNL A   1      40.211  26.780  29.120  1.00  0.00     0.010 A 
ATOM     38  C   UNL A   1      41.208  27.724  29.406  1.00  0.00    -0.014 A 
BRANCH  38  39
ATOM     39  C   UNL A   1      41.021  28.670  30.535  1.00  0.00     0.031 A 
ATOM     40  C   UNL A   1      41.853  28.532  31.781  1.00  0.00     0.074 A 
ATOM     41  C   UNL A   1      40.054  29.606  30.467  1.00  0.00     0.049 A 
ATOM     42  N   UNL A   1      41.783  29.208  32.899  1.00  0.00    -0.248 NA
ATOM     43  C   UNL A   1      42.883  27.482  31.779  1.00  0.00     0.031 C 
ATOM     44  C   UNL A   1      39.148  29.806  29.332  1.00  0.00     0.029 A 
ATOM     45  N   UNL A   1      39.659  30.554  31.377  1.00  0.00    -0.354 N 
ATOM     46  C   UNL A   1      42.737  28.650  33.741  1.00  0.00     0.074 A 
ATOM     47  C   UNL A   1      43.354  27.560  33.016  1.00  0.00     0.031 C 
ATOM     48  C   UNL A   1      38.312  30.820  29.611  1.00  0.00     0.029 A 
ATOM     49  C   UNL A   1      38.600  31.321  30.951  1.00  0.00     0.049 A 
ATOM     50  H   UNL A   1      40.093  30.674  32.252  1.00  0.00     0.167 HD
ATOM     51  C   UNL A   1      43.079  29.023  34.998  1.00  0.00     0.037 A 
ATOM     52  C   UNL A   1      37.932  32.311  31.574  1.00  0.00     0.037 A 
ATOM     53  C   UNL A   1      42.494  30.136  35.698  1.00  0.00     0.049 A 
ATOM     54  C   UNL A   1      38.351  32.726  32.958  1.00  0.00     0.074 A 
ATOM     55  C   UNL A   1      42.832  30.645  36.939  1.00  0.00     0.029 A 
ATOM     56  N   UNL A   1      41.451  30.914  35.218  1.00  0.00    -0.354 N 
ATOM     57  N   UNL A   1      39.305  32.233  33.711  1.00  0.00    -0.248 NA
ATOM     58  C   UNL A   1      37.608  33.832  33.575  1.00  0.00     0.031 C 
ATOM     59  C   UNL A   1      41.973  31.712  37.225  1.00  0.00     0.029 A 
ATOM     60  C   UNL A   1      41.123  31.889  36.145  1.00  0.00     0.049 A 
ATOM     61  H   UNL A   1      41.009  30.792  34.347  1.00  0.00     0.167 HD
ATOM     62  C   UNL A   1      39.293  32.986  34.879  1.00  0.00     0.074 A 
ATOM     63  C   UNL A   1      38.242  33.972  34.731  1.00  0.00     0.031 C 
ATOM     64  C   UNL A   1      40.082  32.871  35.977  1.00  0.00     0.037 A 
BRANCH  51  65
ATOM     65  C   UNL A   1      44.141  28.224  35.697  1.00  0.00     0.058 A 
ATOM     66  C   UNL A   1      45.502  28.539  35.572  1.00  0.00     0.135 A 
ATOM     67  C   UNL A   1      43.790  27.153  36.537  1.00  0.00     0.135 A 
ATOM     68  F   UNL A   1      45.892  29.542  34.769  1.00  0.00    -0.206 F 
ATOM     69  C   UNL A   1      46.482  27.807  36.235  1.00  0.00     0.059 A 
ATOM     70  C   UNL A   1      44.752  26.422  37.227  1.00  0.00     0.059 A 
ATOM     71  F   UNL A   1      42.501  26.810  36.692  1.00  0.00    -0.206 F 
ATOM     72  C   UNL A   1      46.097  26.749  37.059  1.00  0.00     0.060 A 
BRANCH  72  73
ATOM     73  S   UNL A   1      47.378  25.813  37.922  1.00  0.00     0.124 S 
ATOM     74  O   UNL A   1      46.587  25.078  38.905  1.00  0.00    -0.237 OA
ATOM     75  O   UNL A   1      47.958  25.010  36.850  1.00  0.00    -0.237 OA
ATOM     76  O   UNL A   1      48.248  26.850  38.465  1.00  0.00    -0.744 OA
ENDBRANCH  72  73
ENDBRANCH  51  65
BRANCH  52  77
ATOM     77  C   UNL A   1      36.806  32.996  30.887  1.00  0.00     0.058 A 
ATOM     78  C   UNL A   1      35.477  32.735  31.250  1.00  0.00     0.135 A 
ATOM     79  C   UNL A   1      37.035  33.923  29.859  1.00  0.00     0.135 A 
ATOM     80  F   UNL A   1      35.210  31.852  32.224  1.00  0.00    -0.206 F 
ATOM     81  C   UNL A   1      34.411  33.356  30.608  1.00  0.00     0.059 A 
ATOM     82  C   UNL A   1      35.987  34.572  29.216  1.00  0.00     0.059 A 
ATOM     83  F   UNL A   1      38.290  34.219  29.488  1.00  0.00    -0.206 F 
ATOM     84  C   UNL A   1      34.677  34.273  29.589  1.00  0.00     0.060 A 
BRANCH  84  85
ATOM     85  S   UNL A   1      33.290  35.107  28.788  1.00  0.00     0.124 S 
ATOM     86  O   UNL A   1      33.974  36.150  28.032  1.00  0.00    -0.237 OA
ATOM     87  O   UNL A   1      32.694  34.034  27.999  1.00  0.00    -0.237 OA
ATOM     88  O   UNL A   1      32.482  35.567  29.914  1.00  0.00    -0.744 OA
ENDBRANCH  84  85
ENDBRANCH  52  77
BRANCH  64  89
ATOM     89  C   UNL A   1      39.862  33.855  37.089  1.00  0.00     0.058 A 
ATOM     90  C   UNL A   1      40.408  35.146  37.045  1.00  0.00     0.135 A 
ATOM     91  C   UNL A   1      39.053  33.518  38.186  1.00  0.00     0.135 A 
ATOM     92  F   UNL A   1      41.195  35.512  36.021  1.00  0.00    -0.206 F 
ATOM     93  C   UNL A   1      40.174  36.066  38.061  1.00  0.00     0.059 A 
ATOM     94  C   UNL A   1      38.788  34.429  39.202  1.00  0.00     0.059 A 
ATOM     95  F   UNL A   1      38.500  32.298  38.269  1.00  0.00    -0.206 F 
ATOM     96  C   UNL A   1      39.363  35.699  39.136  1.00  0.00     0.060 A 
BRANCH  96  97
ATOM     97  S   UNL A   1      39.034  36.912  40.432  1.00  0.00     0.124 S 
ATOM     98  O   UNL A   1      38.097  36.186  41.283  1.00  0.00    -0.237 OA
ATOM     99  O   UNL A   1      40.360  37.138  40.998  1.00  0.00    -0.237 OA
ATOM    100  O   UNL A   1      38.472  38.044  39.701  1.00  0.00    -0.744 OA
ENDBRANCH  96  97
ENDBRANCH  64  89
ENDBRANCH  38  39
ENDBRANCH  30  33
ENDBRANCH  28  29
ENDBRANCH  27  28
ENDBRANCH   1  27
TORSDOF 18
ENDMDL
MODEL 3
REMARK VINA RESULT:     -11.7      2.796      3.917
REMARK SMILES CC1=C2C(=O)N(C[C@H]3CCCO3)C(=O)N=C2S[C@@H]1C(=O)NCCCCCCNC(=O)c1ccc(-c2c3nc(c(-c4c(F)cc(S(=O)(=O)[O-])cc4F)c4ccc([nH]4)c(-c4c(F)cc(S(=O)(=O)[O-])cc4F)c4nc(c(-c5c(F)cc(S(=O)(=O)[O-])cc5F)c5ccc2[nH]5)C=C4)C=C3)cc1
REMARK SMILES IDX 25 1 24 2 23 3 22 4 21 5 19 6 20 7 18 9 1 10 2 11 3 12 4 13
REMARK SMILES IDX 16 14 17 15 5 16 6 17 15 18 13 19 14 20 7 21 8 22 9 23 12 24
REMARK SMILES IDX 10 25 11 26 26 27 27 28 28 29 29 30 30 32 31 33 32 34 96 35
REMARK SMILES IDX 33 36 95 37 34 38 35 39 36 40 89 41 37 42 94 43 88 44 90 45
REMARK SMILES IDX 38 46 93 47 87 48 86 49 39 51 73 52 52 53 72 54 53 55 56 56
REMARK SMILES IDX 71 57 91 58 54 59 55 60 70 62 92 63 57 64 40 65 41 66 50 67
REMARK SMILES IDX 42 68 43 69 49 70 51 71 44 72 45 73 46 74 47 75 48 76 74 77
REMARK SMILES IDX 75 78 84 79 76 80 77 81 83 82 85 83 78 84 79 85 80 86 81 87
REMARK SMILES IDX 82 88 58 89 59 90 68 91 60 92 61 93 67 94 69 95 62 96 63 97
REMARK SMILES IDX 64 98 65 99 66 100
REMARK H PARENT 21 8 28 31 90 50 56 61
REMARK Flexibility Score: inf
ROOT
ATOM      1  C   UNL A   1      31.610  28.595  25.489  1.00  0.00     0.002 C 
ENDROOT
BRANCH   1   2
ATOM      2  C   UNL A   1      30.836  27.890  24.370  1.00  0.00     0.002 C 
BRANCH   2   3
ATOM      3  C   UNL A   1      30.533  26.410  24.619  1.00  0.00     0.021 C 
BRANCH   3   4
ATOM      4  C   UNL A   1      31.067  25.475  23.540  1.00  0.00     0.116 C 
BRANCH   4   5
ATOM      5  N   UNL A   1      31.973  26.163  22.639  1.00  0.00    -0.355 N 
ATOM      6  C   UNL A   1      33.289  25.953  22.355  1.00  0.00     0.237 C 
ATOM      7  O   UNL A   1      33.812  26.701  21.521  1.00  0.00    -0.273 OA
ATOM      8  H   UNL A   1      31.566  26.912  22.147  1.00  0.00     0.163 HD
BRANCH   6   9
ATOM      9  C   UNL A   1      34.104  24.807  22.970  1.00  0.00     0.169 C 
ATOM     10  C   UNL A   1      33.171  22.968  21.430  1.00  0.00     0.042 C 
ATOM     11  C   UNL A   1      33.482  23.446  22.814  1.00  0.00    -0.035 C 
ATOM     12  C   UNL A   1      33.309  22.759  23.953  1.00  0.00     0.073 C 
ATOM     13  C   UNL A   1      32.716  21.443  24.184  1.00  0.00     0.264 C 
ATOM     14  C   UNL A   1      33.833  23.434  25.126  1.00  0.00     0.116 C 
ATOM     15  S   UNL A   1      34.376  25.045  24.758  1.00  0.00    -0.087 SA
ATOM     16  O   UNL A   1      31.836  21.011  23.454  1.00  0.00    -0.268 OA
ATOM     17  N   UNL A   1      33.225  20.838  25.308  1.00  0.00    -0.256 N 
ATOM     18  N   UNL A   1      33.912  22.920  26.295  1.00  0.00    -0.186 NA
ATOM     19  C   UNL A   1      33.594  21.589  26.438  1.00  0.00     0.351 C 
ATOM     20  O   UNL A   1      33.672  21.064  27.546  1.00  0.00    -0.246 OA
BRANCH  17  21
ATOM     21  C   UNL A   1      33.405  19.387  25.386  1.00  0.00     0.163 C 
BRANCH  21  22
ATOM     22  C   UNL A   1      34.052  18.590  24.238  1.00  0.00     0.138 C 
ATOM     23  C   UNL A   1      35.169  17.616  24.598  1.00  0.00     0.036 C 
ATOM     24  O   UNL A   1      32.998  17.744  23.699  1.00  0.00    -0.376 OA
ATOM     25  C   UNL A   1      34.448  16.343  24.942  1.00  0.00     0.031 C 
ATOM     26  C   UNL A   1      33.287  16.368  23.982  1.00  0.00     0.160 C 
ENDBRANCH  21  22
ENDBRANCH  17  21
ENDBRANCH   6   9
ENDBRANCH   4   5
ENDBRANCH   3   4
ENDBRANCH   2   3
ENDBRANCH   1   2
BRANCH   1  27
ATOM     27  C   UNL A   1      32.422  27.678  26.410  1.00  0.00     0.021 C 
BRANCH  27  28
ATOM     28  C   UNL A   1      33.699  28.292  26.978  1.00  0.00     0.116 C 
BRANCH  28  29
ATOM     29  N   UNL A   1      33.520  29.680  27.366  1.00  0.00    -0.352 N 
ATOM     30  C   UNL A   1      34.382  30.514  28.034  1.00  0.00     0.251 C 
ATOM     31  H   UNL A   1      32.656  30.080  27.116  1.00  0.00     0.163 HD
ATOM     32  O   UNL A   1      33.991  31.612  28.418  1.00  0.00    -0.269 OA
BRANCH  30  33
ATOM     33  C   UNL A   1      35.769  30.083  28.309  1.00  0.00     0.039 A 
ATOM     34  C   UNL A   1      36.703  30.119  27.270  1.00  0.00     0.014 A 
ATOM     35  C   UNL A   1      36.147  29.623  29.575  1.00  0.00     0.014 A 
ATOM     36  C   UNL A   1      38.028  29.748  27.512  1.00  0.00     0.010 A 
ATOM     37  C   UNL A   1      37.480  29.304  29.829  1.00  0.00     0.010 A 
ATOM     38  C   UNL A   1      38.432  29.362  28.799  1.00  0.00    -0.014 A 
BRANCH  38  39
ATOM     39  C   UNL A   1      39.847  29.016  29.088  1.00  0.00     0.031 A 
ATOM     40  C   UNL A   1      40.775  30.051  29.662  1.00  0.00     0.074 A 
ATOM     41  C   UNL A   1      40.312  27.792  28.767  1.00  0.00     0.049 A 
ATOM     42  N   UNL A   1      42.058  29.964  29.908  1.00  0.00    -0.248 NA
ATOM     43  C   UNL A   1      40.192  31.364  29.979  1.00  0.00     0.031 C 
ATOM     44  C   UNL A   1      39.521  26.719  28.158  1.00  0.00     0.029 A 
ATOM     45  N   UNL A   1      41.566  27.250  28.891  1.00  0.00    -0.354 N 
ATOM     46  C   UNL A   1      42.439  31.213  30.382  1.00  0.00     0.074 A 
ATOM     47  C   UNL A   1      41.260  32.051  30.362  1.00  0.00     0.031 C 
ATOM     48  C   UNL A   1      40.307  25.646  27.972  1.00  0.00     0.029 A 
ATOM     49  C   UNL A   1      41.660  25.962  28.419  1.00  0.00     0.049 A 
ATOM     50  H   UNL A   1      42.327  27.737  29.281  1.00  0.00     0.167 HD
ATOM     51  C   UNL A   1      43.659  31.619  30.810  1.00  0.00     0.037 A 
ATOM     52  C   UNL A   1      42.719  25.133  28.347  1.00  0.00     0.037 A 
ATOM     53  C   UNL A   1      44.818  30.770  30.871  1.00  0.00     0.049 A 
ATOM     54  C   UNL A   1      44.056  25.598  28.857  1.00  0.00     0.074 A 
ATOM     55  C   UNL A   1      46.076  31.064  31.369  1.00  0.00     0.029 A 
ATOM     56  N   UNL A   1      44.865  29.459  30.421  1.00  0.00    -0.354 N 
ATOM     57  N   UNL A   1      44.380  26.761  29.370  1.00  0.00    -0.248 NA
ATOM     58  C   UNL A   1      45.167  24.641  28.783  1.00  0.00     0.031 C 
ATOM     59  C   UNL A   1      46.891  29.941  31.191  1.00  0.00     0.029 A 
ATOM     60  C   UNL A   1      46.132  28.936  30.614  1.00  0.00     0.049 A 
ATOM     61  H   UNL A   1      44.108  28.971  30.022  1.00  0.00     0.167 HD
ATOM     62  C   UNL A   1      45.726  26.665  29.703  1.00  0.00     0.074 A 
ATOM     63  C   UNL A   1      46.154  25.329  29.341  1.00  0.00     0.031 C 
ATOM     64  C   UNL A   1      46.537  27.600  30.259  1.00  0.00     0.037 A 
BRANCH  51  65
ATOM     65  C   UNL A   1      43.801  33.047  31.255  1.00  0.00     0.058 A 
ATOM     66  C   UNL A   1      43.600  33.426  32.591  1.00  0.00     0.135 A 
ATOM     67  C   UNL A   1      44.183  34.043  30.341  1.00  0.00     0.135 A 
ATOM     68  F   UNL A   1      43.218  32.515  33.501  1.00  0.00    -0.206 F 
ATOM     69  C   UNL A   1      43.749  34.746  33.002  1.00  0.00     0.059 A 
ATOM     70  C   UNL A   1      44.360  35.366  30.735  1.00  0.00     0.059 A 
ATOM     71  F   UNL A   1      44.388  33.734  29.050  1.00  0.00    -0.206 F 
ATOM     72  C   UNL A   1      44.128  35.710  32.067  1.00  0.00     0.060 A 
BRANCH  72  73
ATOM     73  S   UNL A   1      44.328  37.418  32.616  1.00  0.00     0.124 S 
ATOM     74  O   UNL A   1      43.247  37.539  33.589  1.00  0.00    -0.237 OA
ATOM     75  O   UNL A   1      45.679  37.416  33.168  1.00  0.00    -0.237 OA
ATOM     76  O   UNL A   1      44.157  38.191  31.389  1.00  0.00    -0.744 OA
ENDBRANCH  72  73
ENDBRANCH  51  65
BRANCH  52  77
ATOM     77  C   UNL A   1      42.557  23.766  27.787  1.00  0.00     0.058 A 
ATOM     78  C   UNL A   1      42.535  23.555  26.401  1.00  0.00     0.135 A 
ATOM     79  C   UNL A   1      42.423  22.647  28.623  1.00  0.00     0.135 A 
ATOM     80  F   UNL A   1      42.654  24.596  25.564  1.00  0.00    -0.206 F 
ATOM     81  C   UNL A   1      42.370  22.284  25.860  1.00  0.00     0.059 A 
ATOM     82  C   UNL A   1      42.277  21.364  28.106  1.00  0.00     0.059 A 
ATOM     83  F   UNL A   1      42.455  22.796  29.956  1.00  0.00    -0.206 F 
ATOM     84  C   UNL A   1      42.239  21.194  26.722  1.00  0.00     0.060 A 
BRANCH  84  85
ATOM     85  S   UNL A   1      42.067  19.542  26.014  1.00  0.00     0.124 S 
ATOM     86  O   UNL A   1      42.967  19.620  24.869  1.00  0.00    -0.237 OA
ATOM     87  O   UNL A   1      42.503  18.685  27.112  1.00  0.00    -0.237 OA
ATOM     88  O   UNL A   1      40.644  19.462  25.696  1.00  0.00    -0.744 OA
ENDBRANCH  84  85
ENDBRANCH  52  77
BRANCH  64  89
ATOM     89  C   UNL A   1      47.957  27.201  30.542  1.00  0.00     0.058 A 
ATOM     90  C   UNL A   1      48.963  27.333  29.574  1.00  0.00     0.135 A 
ATOM     91  C   UNL A   1      48.322  26.729  31.813  1.00  0.00     0.135 A 
ATOM     92  F   UNL A   1      48.661  27.772  28.342  1.00  0.00    -0.206 F 
ATOM     93  C   UNL A   1      50.282  26.994  29.850  1.00  0.00     0.059 A 
ATOM     94  C   UNL A   1      49.639  26.404  32.118  1.00  0.00     0.059 A 
ATOM     95  F   UNL A   1      47.397  26.593  32.775  1.00  0.00    -0.206 F 
ATOM     96  C   UNL A   1      50.612  26.531  31.125  1.00  0.00     0.060 A 
BRANCH  96  97
ATOM     97  S   UNL A   1      52.334  26.128  31.487  1.00  0.00     0.124 S 
ATOM     98  O   UNL A   1      52.975  26.398  30.205  1.00  0.00    -0.237 OA
ATOM     99  O   UNL A   1      52.657  27.059  32.565  1.00  0.00    -0.237 OA
ATOM    100  O   UNL A   1      52.278  24.723  31.880  1.00  0.00    -0.744 OA
ENDBRANCH  96  97
ENDBRANCH  64  89
ENDBRANCH  38  39
ENDBRANCH  30  33
ENDBRANCH  28  29
ENDBRANCH  27  28
ENDBRANCH   1  27
TORSDOF 18
ENDMDL
