MODEL 1
REMARK VINA RESULT:     -11.7      0.000      0.000
REMARK SMILES O=C(C[C@@H]([NH2+]Cc1cccnc1)C(=O)NCCCCCCNC(=O)c1ccc(-c2c3nc(c(-c4c(F)cc(S(=O)(=O)[O-])cc4F)c4ccc([nH]4)c(-c4c(F)cc(S(=O)(=O)[O-])cc4F)c4nc(c(-c5c(F)cc(S(=O)(=O)[O-])cc5F)c5ccc2[nH]5)C=C4)C=C3)cc1)Nc1ccc2ccccc2c1
REMARK SMILES IDX 18 1 17 2 16 3 15 4 13 5 14 6 4 8 3 9 2 10 1 11 91 12 92 14
REMARK SMILES IDX 93 15 101 16 94 17 100 18 95 19 99 20 96 21 98 22 97 23 5 24
REMARK SMILES IDX 6 27 7 28 8 29 12 30 9 31 11 32 10 33 19 34 20 35 21 36
REMARK SMILES IDX 22 37 23 38 24 40 25 41 26 42 90 43 27 44 89 45 28 46 29 47
REMARK SMILES IDX 30 48 83 49 31 50 88 51 82 52 84 53 32 54 87 55 81 56 80 57
REMARK SMILES IDX 33 59 67 60 46 61 66 62 47 63 50 64 65 65 85 66 48 67 49 68
REMARK SMILES IDX 64 70 86 71 51 72 34 73 35 74 44 75 36 76 37 77 43 78 45 79
REMARK SMILES IDX 38 80 39 81 40 82 41 83 42 84 68 85 69 86 78 87 70 88 71 89
REMARK SMILES IDX 77 90 79 91 72 92 73 93 74 94 75 95 76 96 52 97 53 98 62 99
REMARK SMILES IDX 54 100 55 101 61 102 63 103 56 104 57 105 58 106 59 107
REMARK SMILES IDX 60 108
REMARK H PARENT 15 7 91 13 5 25 5 26 22 39 84 58 50 69
REMARK Flexibility Score: inf
ROOT
ATOM      1  C   UNL A   1      37.204  22.173  24.276  1.00  0.00     0.002 C 
ENDROOT
BRANCH   1   2
ATOM      2  C   UNL A   1      37.166  20.690  24.667  1.00  0.00     0.021 C 
BRANCH   2   3
ATOM      3  C   UNL A   1      35.760  20.187  24.994  1.00  0.00     0.116 C 
BRANCH   3   4
ATOM      4  N   UNL A   1      35.208  20.946  26.101  1.00  0.00    -0.351 N 
ATOM      5  C   UNL A   1      34.049  21.655  26.187  1.00  0.00     0.278 C 
ATOM      6  O   UNL A   1      33.830  22.269  27.235  1.00  0.00    -0.268 OA
ATOM      7  H   UNL A   1      35.758  20.947  26.918  1.00  0.00     0.163 HD
BRANCH   5   8
ATOM      8  C   UNL A   1      33.012  21.638  25.045  1.00  0.00     0.282 C 
BRANCH   8   9
ATOM      9  C   UNL A   1      31.602  21.976  25.582  1.00  0.00     0.175 C 
BRANCH   9  10
ATOM     10  C   UNL A   1      31.026  23.264  25.022  1.00  0.00     0.230 C 
ATOM     11  O   UNL A   1      30.699  23.363  23.843  1.00  0.00    -0.274 OA
ATOM     12  N   UNL A   1      30.976  24.282  25.964  1.00  0.00    -0.326 N 
ATOM     13  H   UNL A   1      31.027  24.051  26.920  1.00  0.00     0.169 HD
BRANCH  12  14
ATOM     14  C   UNL A   1      30.853  25.631  25.595  1.00  0.00     0.041 A 
ATOM     15  C   UNL A   1      31.404  26.587  26.447  1.00  0.00     0.027 A 
ATOM     16  C   UNL A   1      30.199  26.029  24.431  1.00  0.00     0.034 A 
ATOM     17  C   UNL A   1      31.449  27.923  26.064  1.00  0.00     0.011 A 
ATOM     18  C   UNL A   1      30.093  27.399  24.119  1.00  0.00    -0.016 A 
ATOM     19  C   UNL A   1      30.792  28.345  24.906  1.00  0.00    -0.018 A 
ATOM     20  C   UNL A   1      29.288  27.869  23.068  1.00  0.00     0.009 A 
ATOM     21  C   UNL A   1      30.783  29.699  24.548  1.00  0.00     0.009 A 
ATOM     22  C   UNL A   1      29.210  29.235  22.783  1.00  0.00     0.001 A 
ATOM     23  C   UNL A   1      29.986  30.144  23.497  1.00  0.00     0.001 A 
ENDBRANCH  12  14
ENDBRANCH   9  10
ENDBRANCH   8   9
BRANCH   8  24
ATOM     24  N   UNL A   1      33.450  22.507  23.909  1.00  0.00    -0.332 N 
ATOM     25  H   UNL A   1      32.621  22.794  23.389  1.00  0.00     0.347 HD
ATOM     26  H   UNL A   1      34.098  21.951  23.350  1.00  0.00     0.347 HD
BRANCH  24  27
ATOM     27  C   UNL A   1      34.183  23.722  24.316  1.00  0.00     0.299 C 
BRANCH  27  28
ATOM     28  C   UNL A   1      33.885  24.934  23.473  1.00  0.00     0.024 A 
ATOM     29  C   UNL A   1      34.001  26.225  23.991  1.00  0.00     0.013 A 
ATOM     30  C   UNL A   1      33.473  24.822  22.148  1.00  0.00     0.120 A 
ATOM     31  C   UNL A   1      33.744  27.323  23.175  1.00  0.00     0.021 A 
ATOM     32  N   UNL A   1      33.224  25.866  21.328  1.00  0.00    -0.264 NA
ATOM     33  C   UNL A   1      33.376  27.095  21.859  1.00  0.00     0.111 A 
ENDBRANCH  27  28
ENDBRANCH  24  27
ENDBRANCH   8  24
ENDBRANCH   5   8
ENDBRANCH   3   4
ENDBRANCH   2   3
ENDBRANCH   1   2
BRANCH   1  34
ATOM     34  C   UNL A   1      37.576  23.123  25.419  1.00  0.00     0.002 C 
BRANCH  34  35
ATOM     35  C   UNL A   1      38.798  22.696  26.233  1.00  0.00     0.021 C 
BRANCH  35  36
ATOM     36  C   UNL A   1      39.573  23.854  26.852  1.00  0.00     0.116 C 
BRANCH  36  37
ATOM     37  N   UNL A   1      40.766  24.175  26.085  1.00  0.00    -0.352 N 
ATOM     38  C   UNL A   1      41.614  25.248  26.210  1.00  0.00     0.251 C 
ATOM     39  H   UNL A   1      40.998  23.532  25.376  1.00  0.00     0.163 HD
ATOM     40  O   UNL A   1      42.440  25.481  25.336  1.00  0.00    -0.269 OA
BRANCH  38  41
ATOM     41  C   UNL A   1      41.509  26.125  27.395  1.00  0.00     0.039 A 
ATOM     42  C   UNL A   1      42.255  27.306  27.431  1.00  0.00     0.014 A 
ATOM     43  C   UNL A   1      40.677  25.783  28.466  1.00  0.00     0.014 A 
ATOM     44  C   UNL A   1      42.122  28.171  28.519  1.00  0.00     0.010 A 
ATOM     45  C   UNL A   1      40.487  26.684  29.509  1.00  0.00     0.010 A 
ATOM     46  C   UNL A   1      41.211  27.885  29.551  1.00  0.00    -0.014 A 
BRANCH  46  47
ATOM     47  C   UNL A   1      41.004  28.829  30.678  1.00  0.00     0.031 A 
ATOM     48  C   UNL A   1      41.850  28.723  31.919  1.00  0.00     0.074 A 
ATOM     49  C   UNL A   1      40.017  29.744  30.608  1.00  0.00     0.049 A 
ATOM     50  N   UNL A   1      41.781  29.417  33.026  1.00  0.00    -0.248 NA
ATOM     51  C   UNL A   1      42.894  27.685  31.927  1.00  0.00     0.031 C 
ATOM     52  C   UNL A   1      39.100  29.913  29.478  1.00  0.00     0.029 A 
ATOM     53  N   UNL A   1      39.611  30.698  31.507  1.00  0.00    -0.354 N 
ATOM     54  C   UNL A   1      42.760  28.894  33.863  1.00  0.00     0.074 A 
ATOM     55  C   UNL A   1      43.371  27.788  33.159  1.00  0.00     0.031 C 
ATOM     56  C   UNL A   1      38.258  30.924  29.741  1.00  0.00     0.029 A 
ATOM     57  C   UNL A   1      38.542  31.447  31.073  1.00  0.00     0.049 A 
ATOM     58  H   UNL A   1      40.044  30.832  32.381  1.00  0.00     0.167 HD
ATOM     59  C   UNL A   1      43.134  29.314  35.097  1.00  0.00     0.037 A 
ATOM     60  C   UNL A   1      37.861  32.437  31.683  1.00  0.00     0.037 A 
ATOM     61  C   UNL A   1      42.531  30.427  35.783  1.00  0.00     0.049 A 
ATOM     62  C   UNL A   1      38.284  32.876  33.059  1.00  0.00     0.074 A 
ATOM     63  C   UNL A   1      42.874  30.967  37.010  1.00  0.00     0.029 A 
ATOM     64  N   UNL A   1      41.459  31.169  35.307  1.00  0.00    -0.354 N 
ATOM     65  N   UNL A   1      39.258  32.415  33.808  1.00  0.00    -0.248 NA
ATOM     66  C   UNL A   1      37.522  33.972  33.672  1.00  0.00     0.031 C 
ATOM     67  C   UNL A   1      41.974  31.997  37.301  1.00  0.00     0.029 A 
ATOM     68  C   UNL A   1      41.109  32.142  36.228  1.00  0.00     0.049 A 
ATOM     69  H   UNL A   1      41.012  31.023  34.441  1.00  0.00     0.167 HD
ATOM     70  C   UNL A   1      39.243  33.183  34.968  1.00  0.00     0.074 A 
ATOM     71  C   UNL A   1      38.173  34.147  34.814  1.00  0.00     0.031 C 
ATOM     72  C   UNL A   1      40.043  33.099  36.060  1.00  0.00     0.037 A 
BRANCH  59  73
ATOM     73  C   UNL A   1      44.245  28.566  35.784  1.00  0.00     0.058 A 
ATOM     74  C   UNL A   1      43.988  27.489  36.648  1.00  0.00     0.135 A 
ATOM     75  C   UNL A   1      45.588  28.906  35.548  1.00  0.00     0.135 A 
ATOM     76  F   UNL A   1      42.724  27.129  36.922  1.00  0.00    -0.206 F 
ATOM     77  C   UNL A   1      45.018  26.796  37.275  1.00  0.00     0.059 A 
ATOM     78  C   UNL A   1      46.635  28.207  36.140  1.00  0.00     0.059 A 
ATOM     79  F   UNL A   1      45.893  29.927  34.732  1.00  0.00    -0.206 F 
ATOM     80  C   UNL A   1      46.340  27.162  37.014  1.00  0.00     0.060 A 
BRANCH  80  81
ATOM     81  S   UNL A   1      47.663  26.248  37.833  1.00  0.00     0.124 S 
ATOM     82  O   UNL A   1      48.848  26.915  37.304  1.00  0.00    -0.237 OA
ATOM     83  O   UNL A   1      47.378  26.486  39.245  1.00  0.00    -0.237 OA
ATOM     84  O   UNL A   1      47.461  24.875  37.379  1.00  0.00    -0.744 OA
ENDBRANCH  80  81
ENDBRANCH  59  73
BRANCH  60  85
ATOM     85  C   UNL A   1      36.719  33.091  30.989  1.00  0.00     0.058 A 
ATOM     86  C   UNL A   1      35.393  32.807  31.351  1.00  0.00     0.135 A 
ATOM     87  C   UNL A   1      36.928  34.022  29.960  1.00  0.00     0.135 A 
ATOM     88  F   UNL A   1      35.140  31.920  32.325  1.00  0.00    -0.206 F 
ATOM     89  C   UNL A   1      34.317  33.407  30.707  1.00  0.00     0.059 A 
ATOM     90  C   UNL A   1      35.869  34.657  29.320  1.00  0.00     0.059 A 
ATOM     91  F   UNL A   1      38.177  34.344  29.587  1.00  0.00    -0.206 F 
ATOM     92  C   UNL A   1      34.565  34.335  29.693  1.00  0.00     0.060 A 
BRANCH  92  93
ATOM     93  S   UNL A   1      33.161  35.145  28.898  1.00  0.00     0.124 S 
ATOM     94  O   UNL A   1      32.320  35.470  30.044  1.00  0.00    -0.237 OA
ATOM     95  O   UNL A   1      33.799  36.277  28.232  1.00  0.00    -0.237 OA
ATOM     96  O   UNL A   1      32.641  34.115  28.004  1.00  0.00    -0.744 OA
ENDBRANCH  92  93
ENDBRANCH  60  85
BRANCH  72  97
ATOM     97  C   UNL A   1      39.819  34.097  37.163  1.00  0.00     0.058 A 
ATOM     98  C   UNL A   1      39.021  33.800  38.280  1.00  0.00     0.135 A 
ATOM     99  C   UNL A   1      40.454  35.349  37.127  1.00  0.00     0.135 A 
ATOM    100  F   UNL A   1      38.385  32.621  38.362  1.00  0.00    -0.206 F 
ATOM    101  C   UNL A   1      38.841  34.719  39.309  1.00  0.00     0.059 A 
ATOM    102  C   UNL A   1      40.314  36.271  38.161  1.00  0.00     0.059 A 
ATOM    103  F   UNL A   1      41.237  35.681  36.089  1.00  0.00    -0.206 F 
ATOM    104  C   UNL A   1      39.494  35.951  39.241  1.00  0.00     0.060 A 
BRANCH 104 105
ATOM    105  S   UNL A   1      39.278  37.120  40.600  1.00  0.00     0.124 S 
ATOM    106  O   UNL A   1      38.327  38.066  40.026  1.00  0.00    -0.237 OA
ATOM    107  O   UNL A   1      38.760  36.267  41.665  1.00  0.00    -0.237 OA
ATOM    108  O   UNL A   1      40.624  37.640  40.820  1.00  0.00    -0.744 OA
ENDBRANCH 104 105
ENDBRANCH  72  97
ENDBRANCH  46  47
ENDBRANCH  38  41
ENDBRANCH  36  37
ENDBRANCH  35  36
ENDBRANCH  34  35
ENDBRANCH   1  34
TORSDOF 22
ENDMDL
MODEL 2
REMARK VINA RESULT:     -11.7      1.471      3.763
REMARK SMILES O=C(C[C@@H]([NH2+]Cc1cccnc1)C(=O)NCCCCCCNC(=O)c1ccc(-c2c3nc(c(-c4c(F)cc(S(=O)(=O)[O-])cc4F)c4ccc([nH]4)c(-c4c(F)cc(S(=O)(=O)[O-])cc4F)c4nc(c(-c5c(F)cc(S(=O)(=O)[O-])cc5F)c5ccc2[nH]5)C=C4)C=C3)cc1)Nc1ccc2ccccc2c1
REMARK SMILES IDX 18 1 17 2 16 3 15 4 13 5 14 6 4 8 3 9 2 10 1 11 91 12 92 14
REMARK SMILES IDX 93 15 101 16 94 17 100 18 95 19 99 20 96 21 98 22 97 23 5 24
REMARK SMILES IDX 6 27 7 28 8 29 12 30 9 31 11 32 10 33 19 34 20 35 21 36
REMARK SMILES IDX 22 37 23 38 24 40 25 41 26 42 90 43 27 44 89 45 28 46 29 47
REMARK SMILES IDX 30 48 83 49 31 50 88 51 82 52 84 53 32 54 87 55 81 56 80 57
REMARK SMILES IDX 33 59 67 60 46 61 66 62 47 63 50 64 65 65 85 66 48 67 49 68
REMARK SMILES IDX 64 70 86 71 51 72 34 73 35 74 44 75 36 76 37 77 43 78 45 79
REMARK SMILES IDX 38 80 39 81 40 82 41 83 42 84 68 85 69 86 78 87 70 88 71 89
REMARK SMILES IDX 77 90 79 91 72 92 73 93 74 94 75 95 76 96 52 97 53 98 62 99
REMARK SMILES IDX 54 100 55 101 61 102 63 103 56 104 57 105 58 106 59 107
REMARK SMILES IDX 60 108
REMARK H PARENT 15 7 91 13 5 25 5 26 22 39 84 58 50 69
REMARK Flexibility Score: inf
ROOT
ATOM      1  C   UNL A   1      36.954  22.657  24.035  1.00  0.00     0.002 C 
ENDROOT
BRANCH   1   2
ATOM      2  C   UNL A   1      35.421  22.620  23.989  1.00  0.00     0.021 C 
BRANCH   2   3
ATOM      3  C   UNL A   1      34.798  23.945  23.550  1.00  0.00     0.116 C 
BRANCH   3   4
ATOM      4  N   UNL A   1      34.685  24.839  24.688  1.00  0.00    -0.351 N 
ATOM      5  C   UNL A   1      33.634  25.597  25.106  1.00  0.00     0.278 C 
ATOM      6  O   UNL A   1      33.809  26.328  26.085  1.00  0.00    -0.268 OA
ATOM      7  H   UNL A   1      35.494  24.908  25.244  1.00  0.00     0.163 HD
BRANCH   5   8
ATOM      8  C   UNL A   1      32.252  25.496  24.428  1.00  0.00     0.282 C 
BRANCH   8   9
ATOM      9  C   UNL A   1      31.218  24.862  25.386  1.00  0.00     0.175 C 
BRANCH   9  10
ATOM     10  C   UNL A   1      31.037  23.367  25.191  1.00  0.00     0.230 C 
ATOM     11  O   UNL A   1      30.453  22.677  26.021  1.00  0.00    -0.274 OA
ATOM     12  N   UNL A   1      31.641  22.903  24.031  1.00  0.00    -0.326 N 
ATOM     13  H   UNL A   1      31.869  23.544  23.321  1.00  0.00     0.169 HD
BRANCH  12  14
ATOM     14  C   UNL A   1      31.937  21.543  23.841  1.00  0.00     0.041 A 
ATOM     15  C   UNL A   1      31.834  21.034  22.548  1.00  0.00     0.027 A 
ATOM     16  C   UNL A   1      32.314  20.708  24.891  1.00  0.00     0.034 A 
ATOM     17  C   UNL A   1      32.258  19.739  22.270  1.00  0.00     0.011 A 
ATOM     18  C   UNL A   1      32.584  19.348  24.644  1.00  0.00    -0.016 A 
ATOM     19  C   UNL A   1      32.630  18.883  23.308  1.00  0.00    -0.018 A 
ATOM     20  C   UNL A   1      32.781  18.421  25.681  1.00  0.00     0.009 A 
ATOM     21  C   UNL A   1      33.001  17.558  23.039  1.00  0.00     0.009 A 
ATOM     22  C   UNL A   1      33.052  17.079  25.400  1.00  0.00     0.001 A 
ATOM     23  C   UNL A   1      33.200  16.657  24.081  1.00  0.00     0.001 A 
ENDBRANCH  12  14
ENDBRANCH   9  10
ENDBRANCH   8   9
BRANCH   8  24
ATOM     24  N   UNL A   1      31.828  26.820  23.874  1.00  0.00    -0.332 N 
ATOM     25  H   UNL A   1      32.590  27.186  23.304  1.00  0.00     0.347 HD
ATOM     26  H   UNL A   1      31.608  27.413  24.674  1.00  0.00     0.347 HD
BRANCH  24  27
ATOM     27  C   UNL A   1      30.611  26.772  23.040  1.00  0.00     0.299 C 
BRANCH  27  28
ATOM     28  C   UNL A   1      29.741  27.996  23.146  1.00  0.00     0.024 A 
ATOM     29  C   UNL A   1      30.290  29.258  23.381  1.00  0.00     0.013 A 
ATOM     30  C   UNL A   1      28.356  27.925  23.024  1.00  0.00     0.120 A 
ATOM     31  C   UNL A   1      29.458  30.372  23.447  1.00  0.00     0.021 A 
ATOM     32  N   UNL A   1      27.523  28.987  23.074  1.00  0.00    -0.264 NA
ATOM     33  C   UNL A   1      28.096  30.190  23.273  1.00  0.00     0.111 A 
ENDBRANCH  27  28
ENDBRANCH  24  27
ENDBRANCH   8  24
ENDBRANCH   5   8
ENDBRANCH   3   4
ENDBRANCH   2   3
ENDBRANCH   1   2
BRANCH   1  34
ATOM     34  C   UNL A   1      37.552  22.546  25.442  1.00  0.00     0.002 C 
BRANCH  34  35
ATOM     35  C   UNL A   1      37.977  23.878  26.063  1.00  0.00     0.021 C 
BRANCH  35  36
ATOM     36  C   UNL A   1      39.243  23.797  26.909  1.00  0.00     0.116 C 
BRANCH  36  37
ATOM     37  N   UNL A   1      40.432  24.106  26.130  1.00  0.00    -0.352 N 
ATOM     38  C   UNL A   1      41.290  25.172  26.244  1.00  0.00     0.251 C 
ATOM     39  H   UNL A   1      40.651  23.460  25.420  1.00  0.00     0.163 HD
ATOM     40  O   UNL A   1      42.110  25.396  25.362  1.00  0.00    -0.269 OA
BRANCH  38  41
ATOM     41  C   UNL A   1      41.204  26.052  27.429  1.00  0.00     0.039 A 
ATOM     42  C   UNL A   1      42.134  27.084  27.574  1.00  0.00     0.014 A 
ATOM     43  C   UNL A   1      40.208  25.860  28.391  1.00  0.00     0.014 A 
ATOM     44  C   UNL A   1      42.030  27.957  28.658  1.00  0.00     0.010 A 
ATOM     45  C   UNL A   1      40.059  26.779  29.426  1.00  0.00     0.010 A 
ATOM     46  C   UNL A   1      40.971  27.834  29.574  1.00  0.00    -0.014 A 
BRANCH  46  47
ATOM     47  C   UNL A   1      40.804  28.799  30.691  1.00  0.00     0.031 A 
ATOM     48  C   UNL A   1      41.658  28.683  31.925  1.00  0.00     0.074 A 
ATOM     49  C   UNL A   1      39.844  29.742  30.618  1.00  0.00     0.049 A 
ATOM     50  N   UNL A   1      41.621  29.393  33.024  1.00  0.00    -0.248 NA
ATOM     51  C   UNL A   1      42.670  27.614  31.937  1.00  0.00     0.031 C 
ATOM     52  C   UNL A   1      38.922  29.924  29.494  1.00  0.00     0.029 A 
ATOM     53  N   UNL A   1      39.475  30.719  31.508  1.00  0.00    -0.354 N 
ATOM     54  C   UNL A   1      42.592  28.851  33.858  1.00  0.00     0.074 A 
ATOM     55  C   UNL A   1      43.162  27.718  33.163  1.00  0.00     0.031 C 
ATOM     56  C   UNL A   1      38.113  30.963  29.752  1.00  0.00     0.029 A 
ATOM     57  C   UNL A   1      38.426  31.495  31.074  1.00  0.00     0.049 A 
ATOM     58  H   UNL A   1      39.921  30.852  32.376  1.00  0.00     0.167 HD
ATOM     59  C   UNL A   1      42.990  29.275  35.082  1.00  0.00     0.037 A 
ATOM     60  C   UNL A   1      37.781  32.513  31.678  1.00  0.00     0.037 A 
ATOM     61  C   UNL A   1      42.428  30.415  35.760  1.00  0.00     0.049 A 
ATOM     62  C   UNL A   1      38.230  32.956  33.044  1.00  0.00     0.074 A 
ATOM     63  C   UNL A   1      42.798  30.960  36.977  1.00  0.00     0.029 A 
ATOM     64  N   UNL A   1      41.374  31.183  35.284  1.00  0.00    -0.354 N 
ATOM     65  N   UNL A   1      39.197  32.475  33.790  1.00  0.00    -0.248 NA
ATOM     66  C   UNL A   1      37.507  34.082  33.649  1.00  0.00     0.031 C 
ATOM     67  C   UNL A   1      41.932  32.020  37.263  1.00  0.00     0.029 A 
ATOM     68  C   UNL A   1      41.062  32.178  36.196  1.00  0.00     0.049 A 
ATOM     69  H   UNL A   1      40.914  31.040  34.424  1.00  0.00     0.167 HD
ATOM     70  C   UNL A   1      39.216  33.259  34.939  1.00  0.00     0.074 A 
ATOM     71  C   UNL A   1      38.174  34.253  34.782  1.00  0.00     0.031 C 
ATOM     72  C   UNL A   1      40.024  33.164  36.024  1.00  0.00     0.037 A 
BRANCH  59  73
ATOM     73  C   UNL A   1      44.084  28.503  35.769  1.00  0.00     0.058 A 
ATOM     74  C   UNL A   1      45.441  28.797  35.557  1.00  0.00     0.135 A 
ATOM     75  C   UNL A   1      43.774  27.479  36.680  1.00  0.00     0.135 A 
ATOM     76  F   UNL A   1      45.798  29.755  34.687  1.00  0.00    -0.206 F 
ATOM     77  C   UNL A   1      46.449  28.086  36.200  1.00  0.00     0.059 A 
ATOM     78  C   UNL A   1      44.765  26.776  37.357  1.00  0.00     0.059 A 
ATOM     79  F   UNL A   1      42.493  27.155  36.921  1.00  0.00    -0.206 F 
ATOM     80  C   UNL A   1      46.101  27.077  37.100  1.00  0.00     0.060 A 
BRANCH  80  81
ATOM     81  S   UNL A   1      47.423  26.169  37.927  1.00  0.00     0.124 S 
ATOM     82  O   UNL A   1      48.167  25.637  36.790  1.00  0.00    -0.237 OA
ATOM     83  O   UNL A   1      48.094  27.219  38.688  1.00  0.00    -0.237 OA
ATOM     84  O   UNL A   1      46.708  25.179  38.727  1.00  0.00    -0.744 OA
ENDBRANCH  80  81
ENDBRANCH  59  73
BRANCH  60  85
ATOM     85  C   UNL A   1      36.652  33.192  30.985  1.00  0.00     0.058 A 
ATOM     86  C   UNL A   1      35.325  32.985  31.391  1.00  0.00     0.135 A 
ATOM     87  C   UNL A   1      36.877  34.070  29.914  1.00  0.00     0.135 A 
ATOM     88  F   UNL A   1      35.056  32.151  32.407  1.00  0.00    -0.206 F 
ATOM     89  C   UNL A   1      34.260  33.609  30.750  1.00  0.00     0.059 A 
ATOM     90  C   UNL A   1      35.831  34.729  29.276  1.00  0.00     0.059 A 
ATOM     91  F   UNL A   1      38.129  34.318  29.498  1.00  0.00    -0.206 F 
ATOM     92  C   UNL A   1      34.524  34.484  29.694  1.00  0.00     0.060 A 
BRANCH  92  93
ATOM     93  S   UNL A   1      33.139  35.327  28.900  1.00  0.00     0.124 S 
ATOM     94  O   UNL A   1      32.344  35.736  30.052  1.00  0.00    -0.237 OA
ATOM     95  O   UNL A   1      33.811  36.401  28.174  1.00  0.00    -0.237 OA
ATOM     96  O   UNL A   1      32.549  34.288  28.062  1.00  0.00    -0.744 OA
ENDBRANCH  92  93
ENDBRANCH  60  85
BRANCH  72  97
ATOM     97  C   UNL A   1      39.840  34.183  37.117  1.00  0.00     0.058 A 
ATOM     98  C   UNL A   1      39.069  33.914  38.259  1.00  0.00     0.135 A 
ATOM     99  C   UNL A   1      40.489  35.427  37.043  1.00  0.00     0.135 A 
ATOM    100  F   UNL A   1      38.422  32.744  38.377  1.00  0.00    -0.206 F 
ATOM    101  C   UNL A   1      38.927  34.852  39.277  1.00  0.00     0.059 A 
ATOM    102  C   UNL A   1      40.387  36.367  38.065  1.00  0.00     0.059 A 
ATOM    103  F   UNL A   1      41.248  35.732  35.979  1.00  0.00    -0.206 F 
ATOM    104  C   UNL A   1      39.592  36.074  39.172  1.00  0.00     0.060 A 
BRANCH 104 105
ATOM    105  S   UNL A   1      39.426  37.268  40.516  1.00  0.00     0.124 S 
ATOM    106  O   UNL A   1      40.821  37.569  40.817  1.00  0.00    -0.237 OA
ATOM    107  O   UNL A   1      38.667  38.343  39.885  1.00  0.00    -0.237 OA
ATOM    108  O   UNL A   1      38.709  36.522  41.547  1.00  0.00    -0.744 OA
ENDBRANCH 104 105
ENDBRANCH  72  97
ENDBRANCH  46  47
ENDBRANCH  38  41
ENDBRANCH  36  37
ENDBRANCH  35  36
ENDBRANCH  34  35
ENDBRANCH   1  34
TORSDOF 22
ENDMDL
MODEL 3
REMARK VINA RESULT:     -11.6      1.199      2.672
REMARK SMILES O=C(C[C@@H]([NH2+]Cc1cccnc1)C(=O)NCCCCCCNC(=O)c1ccc(-c2c3nc(c(-c4c(F)cc(S(=O)(=O)[O-])cc4F)c4ccc([nH]4)c(-c4c(F)cc(S(=O)(=O)[O-])cc4F)c4nc(c(-c5c(F)cc(S(=O)(=O)[O-])cc5F)c5ccc2[nH]5)C=C4)C=C3)cc1)Nc1ccc2ccccc2c1
REMARK SMILES IDX 18 1 17 2 16 3 15 4 13 5 14 6 4 8 3 9 2 10 1 11 91 12 92 14
REMARK SMILES IDX 93 15 101 16 94 17 100 18 95 19 99 20 96 21 98 22 97 23 5 24
REMARK SMILES IDX 6 27 7 28 8 29 12 30 9 31 11 32 10 33 19 34 20 35 21 36
REMARK SMILES IDX 22 37 23 38 24 40 25 41 26 42 90 43 27 44 89 45 28 46 29 47
REMARK SMILES IDX 30 48 83 49 31 50 88 51 82 52 84 53 32 54 87 55 81 56 80 57
REMARK SMILES IDX 33 59 67 60 46 61 66 62 47 63 50 64 65 65 85 66 48 67 49 68
REMARK SMILES IDX 64 70 86 71 51 72 34 73 35 74 44 75 36 76 37 77 43 78 45 79
REMARK SMILES IDX 38 80 39 81 40 82 41 83 42 84 68 85 69 86 78 87 70 88 71 89
REMARK SMILES IDX 77 90 79 91 72 92 73 93 74 94 75 95 76 96 52 97 53 98 62 99
REMARK SMILES IDX 54 100 55 101 61 102 63 103 56 104 57 105 58 106 59 107
REMARK SMILES IDX 60 108
REMARK H PARENT 15 7 91 13 5 25 5 26 22 39 84 58 50 69
REMARK Flexibility Score: inf
ROOT
ATOM      1  C   UNL A   1      37.448  22.439  25.191  1.00  0.00     0.002 C 
ENDROOT
BRANCH   1   2
ATOM      2  C   UNL A   1      36.834  22.530  23.788  1.00  0.00     0.021 C 
BRANCH   2   3
ATOM      3  C   UNL A   1      35.311  22.663  23.802  1.00  0.00     0.116 C 
BRANCH   3   4
ATOM      4  N   UNL A   1      34.922  23.954  23.267  1.00  0.00    -0.351 N 
ATOM      5  C   UNL A   1      33.966  24.827  23.691  1.00  0.00     0.278 C 
ATOM      6  O   UNL A   1      33.787  25.849  23.022  1.00  0.00    -0.268 OA
ATOM      7  H   UNL A   1      35.429  24.245  22.475  1.00  0.00     0.163 HD
BRANCH   5   8
ATOM      8  C   UNL A   1      33.182  24.586  24.997  1.00  0.00     0.282 C 
BRANCH   8   9
ATOM      9  C   UNL A   1      33.490  25.692  26.032  1.00  0.00     0.175 C 
BRANCH   9  10
ATOM     10  C   UNL A   1      32.421  26.766  26.120  1.00  0.00     0.230 C 
ATOM     11  O   UNL A   1      31.422  26.622  26.818  1.00  0.00    -0.274 OA
ATOM     12  N   UNL A   1      32.687  27.853  25.299  1.00  0.00    -0.326 N 
ATOM     13  H   UNL A   1      33.604  27.990  24.970  1.00  0.00     0.169 HD
BRANCH  12  14
ATOM     14  C   UNL A   1      31.685  28.763  24.923  1.00  0.00     0.041 A 
ATOM     15  C   UNL A   1      31.653  29.994  25.576  1.00  0.00     0.027 A 
ATOM     16  C   UNL A   1      30.739  28.468  23.944  1.00  0.00     0.034 A 
ATOM     17  C   UNL A   1      30.784  30.991  25.146  1.00  0.00     0.011 A 
ATOM     18  C   UNL A   1      29.747  29.414  23.619  1.00  0.00    -0.016 A 
ATOM     19  C   UNL A   1      29.822  30.714  24.173  1.00  0.00    -0.018 A 
ATOM     20  C   UNL A   1      28.661  29.105  22.784  1.00  0.00     0.009 A 
ATOM     21  C   UNL A   1      28.906  31.698  23.779  1.00  0.00     0.009 A 
ATOM     22  C   UNL A   1      27.697  30.070  22.478  1.00  0.00     0.001 A 
ATOM     23  C   UNL A   1      27.840  31.375  22.944  1.00  0.00     0.001 A 
ENDBRANCH  12  14
ENDBRANCH   9  10
ENDBRANCH   8   9
BRANCH   8  24
ATOM     24  N   UNL A   1      31.722  24.408  24.721  1.00  0.00    -0.332 N 
ATOM     25  H   UNL A   1      31.312  25.328  24.565  1.00  0.00     0.347 HD
ATOM     26  H   UNL A   1      31.330  23.929  25.533  1.00  0.00     0.347 HD
BRANCH  24  27
ATOM     27  C   UNL A   1      31.420  23.563  23.549  1.00  0.00     0.299 C 
BRANCH  27  28
ATOM     28  C   UNL A   1      31.772  22.110  23.728  1.00  0.00     0.024 A 
ATOM     29  C   UNL A   1      32.090  21.300  22.636  1.00  0.00     0.013 A 
ATOM     30  C   UNL A   1      31.786  21.509  24.983  1.00  0.00     0.120 A 
ATOM     31  C   UNL A   1      32.437  19.968  22.842  1.00  0.00     0.021 A 
ATOM     32  N   UNL A   1      32.124  20.222  25.217  1.00  0.00    -0.264 NA
ATOM     33  C   UNL A   1      32.454  19.483  24.140  1.00  0.00     0.111 A 
ENDBRANCH  27  28
ENDBRANCH  24  27
ENDBRANCH   8  24
ENDBRANCH   5   8
ENDBRANCH   3   4
ENDBRANCH   2   3
ENDBRANCH   1   2
BRANCH   1  34
ATOM     34  C   UNL A   1      37.331  23.722  26.022  1.00  0.00     0.002 C 
BRANCH  34  35
ATOM     35  C   UNL A   1      38.658  24.436  26.285  1.00  0.00     0.021 C 
BRANCH  35  36
ATOM     36  C   UNL A   1      39.768  23.525  26.797  1.00  0.00     0.116 C 
BRANCH  36  37
ATOM     37  N   UNL A   1      41.041  23.814  26.157  1.00  0.00    -0.352 N 
ATOM     38  C   UNL A   1      41.833  24.931  26.269  1.00  0.00     0.251 C 
ATOM     39  H   UNL A   1      41.382  23.111  25.559  1.00  0.00     0.163 HD
ATOM     40  O   UNL A   1      42.759  25.106  25.487  1.00  0.00    -0.269 OA
BRANCH  38  41
ATOM     41  C   UNL A   1      41.548  25.923  27.327  1.00  0.00     0.039 A 
ATOM     42  C   UNL A   1      40.881  25.508  28.482  1.00  0.00     0.014 A 
ATOM     43  C   UNL A   1      41.941  27.257  27.180  1.00  0.00     0.014 A 
ATOM     44  C   UNL A   1      40.657  26.423  29.513  1.00  0.00     0.010 A 
ATOM     45  C   UNL A   1      41.787  28.145  28.240  1.00  0.00     0.010 A 
ATOM     46  C   UNL A   1      41.139  27.739  29.416  1.00  0.00    -0.014 A 
BRANCH  46  47
ATOM     47  C   UNL A   1      40.973  28.703  30.534  1.00  0.00     0.031 A 
ATOM     48  C   UNL A   1      41.842  28.599  31.759  1.00  0.00     0.074 A 
ATOM     49  C   UNL A   1      40.001  29.635  30.471  1.00  0.00     0.049 A 
ATOM     50  N   UNL A   1      41.809  29.309  32.857  1.00  0.00    -0.248 NA
ATOM     51  C   UNL A   1      42.867  27.542  31.760  1.00  0.00     0.031 C 
ATOM     52  C   UNL A   1      39.064  29.804  29.357  1.00  0.00     0.029 A 
ATOM     53  N   UNL A   1      39.630  30.608  31.364  1.00  0.00    -0.354 N 
ATOM     54  C   UNL A   1      42.795  28.780  33.681  1.00  0.00     0.074 A 
ATOM     55  C   UNL A   1      43.371  27.653  32.980  1.00  0.00     0.031 C 
ATOM     56  C   UNL A   1      38.246  30.834  29.623  1.00  0.00     0.029 A 
ATOM     57  C   UNL A   1      38.567  31.371  30.942  1.00  0.00     0.049 A 
ATOM     58  H   UNL A   1      40.084  30.747  32.227  1.00  0.00     0.167 HD
ATOM     59  C   UNL A   1      43.202  29.210  34.900  1.00  0.00     0.037 A 
ATOM     60  C   UNL A   1      37.917  32.382  31.551  1.00  0.00     0.037 A 
ATOM     61  C   UNL A   1      42.634  30.344  35.583  1.00  0.00     0.049 A 
ATOM     62  C   UNL A   1      38.376  32.832  32.912  1.00  0.00     0.074 A 
ATOM     63  C   UNL A   1      43.012  30.895  36.795  1.00  0.00     0.029 A 
ATOM     64  N   UNL A   1      41.566  31.099  35.118  1.00  0.00    -0.354 N 
ATOM     65  N   UNL A   1      39.357  32.364  33.647  1.00  0.00    -0.248 NA
ATOM     66  C   UNL A   1      37.647  33.950  33.524  1.00  0.00     0.031 C 
ATOM     67  C   UNL A   1      42.137  31.945  37.089  1.00  0.00     0.029 A 
ATOM     68  C   UNL A   1      41.253  32.091  36.032  1.00  0.00     0.049 A 
ATOM     69  H   UNL A   1      41.098  30.949  34.264  1.00  0.00     0.167 HD
ATOM     70  C   UNL A   1      39.380  33.149  34.795  1.00  0.00     0.074 A 
ATOM     71  C   UNL A   1      38.324  34.130  34.649  1.00  0.00     0.031 C 
ATOM     72  C   UNL A   1      40.201  33.065  35.872  1.00  0.00     0.037 A 
BRANCH  59  73
ATOM     73  C   UNL A   1      44.313  28.452  35.575  1.00  0.00     0.058 A 
ATOM     74  C   UNL A   1      45.664  28.776  35.365  1.00  0.00     0.135 A 
ATOM     75  C   UNL A   1      44.025  27.411  36.473  1.00  0.00     0.135 A 
ATOM     76  F   UNL A   1      46.000  29.752  34.506  1.00  0.00    -0.206 F 
ATOM     77  C   UNL A   1      46.687  28.077  35.997  1.00  0.00     0.059 A 
ATOM     78  C   UNL A   1      45.032  26.719  37.140  1.00  0.00     0.059 A 
ATOM     79  F   UNL A   1      42.752  27.058  36.713  1.00  0.00    -0.206 F 
ATOM     80  C   UNL A   1      46.361  27.051  36.884  1.00  0.00     0.060 A 
BRANCH  80  81
ATOM     81  S   UNL A   1      47.703  26.159  37.698  1.00  0.00     0.124 S 
ATOM     82  O   UNL A   1      48.074  27.094  38.755  1.00  0.00    -0.237 OA
ATOM     83  O   UNL A   1      47.042  24.935  38.138  1.00  0.00    -0.237 OA
ATOM     84  O   UNL A   1      48.691  25.988  36.638  1.00  0.00    -0.744 OA
ENDBRANCH  80  81
ENDBRANCH  59  73
BRANCH  60  85
ATOM     85  C   UNL A   1      36.772  33.047  30.871  1.00  0.00     0.058 A 
ATOM     86  C   UNL A   1      36.981  33.936  29.805  1.00  0.00     0.135 A 
ATOM     87  C   UNL A   1      35.448  32.800  31.263  1.00  0.00     0.135 A 
ATOM     88  F   UNL A   1      38.229  34.210  29.396  1.00  0.00    -0.206 F 
ATOM     89  C   UNL A   1      35.921  34.569  29.165  1.00  0.00     0.059 A 
ATOM     90  C   UNL A   1      34.370  33.398  30.619  1.00  0.00     0.059 A 
ATOM     91  F   UNL A   1      35.192  31.944  32.265  1.00  0.00    -0.206 F 
ATOM     92  C   UNL A   1      34.617  34.290  29.577  1.00  0.00     0.060 A 
BRANCH  92  93
ATOM     93  S   UNL A   1      33.246  35.078  28.706  1.00  0.00     0.124 S 
ATOM     94  O   UNL A   1      32.414  35.530  29.815  1.00  0.00    -0.237 OA
ATOM     95  O   UNL A   1      33.926  36.125  27.949  1.00  0.00    -0.237 OA
ATOM     96  O   UNL A   1      32.691  33.994  27.901  1.00  0.00    -0.744 OA
ENDBRANCH  92  93
ENDBRANCH  60  85
BRANCH  72  97
ATOM     97  C   UNL A   1      40.017  34.082  36.965  1.00  0.00     0.058 A 
ATOM     98  C   UNL A   1      40.607  35.355  36.901  1.00  0.00     0.135 A 
ATOM     99  C   UNL A   1      39.195  33.797  38.068  1.00  0.00     0.135 A 
ATOM    100  F   UNL A   1      41.408  35.678  35.872  1.00  0.00    -0.206 F 
ATOM    101  C   UNL A   1      40.410  36.299  37.904  1.00  0.00     0.059 A 
ATOM    102  C   UNL A   1      38.958  34.737  39.066  1.00  0.00     0.059 A 
ATOM    103  F   UNL A   1      38.598  32.600  38.174  1.00  0.00    -0.206 F 
ATOM    104  C   UNL A   1      39.581  35.981  38.981  1.00  0.00     0.060 A 
BRANCH 104 105
ATOM    105  S   UNL A   1      39.307  37.229  40.258  1.00  0.00     0.124 S 
ATOM    106  O   UNL A   1      38.550  38.238  39.525  1.00  0.00    -0.237 OA
ATOM    107  O   UNL A   1      38.559  36.483  41.265  1.00  0.00    -0.237 OA
ATOM    108  O   UNL A   1      40.658  37.619  40.649  1.00  0.00    -0.744 OA
ENDBRANCH 104 105
ENDBRANCH  72  97
ENDBRANCH  46  47
ENDBRANCH  38  41
ENDBRANCH  36  37
ENDBRANCH  35  36
ENDBRANCH  34  35
ENDBRANCH   1  34
TORSDOF 22
ENDMDL
