MODEL 1
REMARK VINA RESULT:      -9.2      0.000      0.000
REMARK SMILES O=C(NCCCCCCNC(=O)c1cnn2c(C(F)(F)F)ccnc12)c1ccc(-c2c3nc(c(-c4c(F)cc(S(=O)(=O)[O-])cc4F)c4ccc([nH]4)c(-c4c(F)cc(S(=O)(=O)[O-])cc4F)c4nc(c(-c5c(F)cc(S(=O)(=O)[O-])cc5F)c5ccc2[nH]5)C=C4)C=C3)cc1
REMARK SMILES IDX 5 1 4 2 3 3 1 4 2 5 26 7 27 8 91 9 28 10 90 11 29 12 30 13
REMARK SMILES IDX 31 14 84 15 32 16 89 17 83 18 85 19 33 20 88 21 82 22 81 23
REMARK SMILES IDX 34 25 68 26 47 27 67 28 48 29 51 30 66 31 86 32 49 33 50 34
REMARK SMILES IDX 65 36 87 37 52 38 35 39 36 40 45 41 37 42 38 43 44 44 46 45
REMARK SMILES IDX 39 46 40 47 41 48 42 49 43 50 69 51 70 52 79 53 71 54 72 55
REMARK SMILES IDX 78 56 80 57 73 58 74 59 75 60 76 61 77 62 53 63 54 64 63 65
REMARK SMILES IDX 55 66 56 67 62 68 64 69 57 70 58 71 59 72 60 73 61 74 6 75
REMARK SMILES IDX 7 76 8 77 9 78 10 79 11 80 12 82 13 83 14 84 25 85 15 86
REMARK SMILES IDX 16 87 24 88 17 89 23 90 22 91 18 92 19 93 20 94 21 95
REMARK H PARENT 3 6 85 24 51 35 10 81
REMARK Flexibility Score: inf
ROOT
ATOM      1  C   UNL A   1      34.447  33.257  29.389  1.00  0.00     0.021 C 
ENDROOT
BRANCH   1   2
ATOM      2  C   UNL A   1      34.622  32.705  27.976  1.00  0.00     0.116 C 
BRANCH   2   3
ATOM      3  N   UNL A   1      33.872  31.481  27.759  1.00  0.00    -0.352 N 
ATOM      4  O   UNL A   1      33.536  29.294  27.366  1.00  0.00    -0.269 OA
ATOM      5  C   UNL A   1      34.310  30.181  27.715  1.00  0.00     0.251 C 
ATOM      6  H   UNL A   1      32.905  31.601  27.622  1.00  0.00     0.163 HD
BRANCH   5   7
ATOM      7  C   UNL A   1      35.710  29.845  28.061  1.00  0.00     0.039 A 
ATOM      8  C   UNL A   1      36.058  29.384  29.335  1.00  0.00     0.014 A 
ATOM      9  C   UNL A   1      36.684  29.948  27.064  1.00  0.00     0.014 A 
ATOM     10  C   UNL A   1      37.393  29.115  29.639  1.00  0.00     0.010 A 
ATOM     11  C   UNL A   1      38.014  29.635  27.355  1.00  0.00     0.010 A 
ATOM     12  C   UNL A   1      38.382  29.236  28.650  1.00  0.00    -0.014 A 
BRANCH  12  13
ATOM     13  C   UNL A   1      39.797  28.902  28.950  1.00  0.00     0.031 A 
ATOM     14  C   UNL A   1      40.721  29.938  29.523  1.00  0.00     0.074 A 
ATOM     15  C   UNL A   1      40.258  27.671  28.663  1.00  0.00     0.049 A 
ATOM     16  N   UNL A   1      42.003  29.852  29.770  1.00  0.00    -0.248 NA
ATOM     17  C   UNL A   1      40.130  31.243  29.852  1.00  0.00     0.031 C 
ATOM     18  C   UNL A   1      39.460  26.586  28.091  1.00  0.00     0.029 A 
ATOM     19  N   UNL A   1      41.512  27.131  28.797  1.00  0.00    -0.354 N 
ATOM     20  C   UNL A   1      42.379  31.096  30.260  1.00  0.00     0.074 A 
ATOM     21  C   UNL A   1      41.190  31.924  30.265  1.00  0.00     0.031 C 
ATOM     22  C   UNL A   1      40.244  25.510  27.921  1.00  0.00     0.029 A 
ATOM     23  C   UNL A   1      41.606  25.842  28.331  1.00  0.00     0.049 A 
ATOM     24  H   UNL A   1      42.272  27.621  29.189  1.00  0.00     0.167 HD
ATOM     25  C   UNL A   1      43.604  31.509  30.669  1.00  0.00     0.037 A 
ATOM     26  C   UNL A   1      42.670  25.025  28.222  1.00  0.00     0.037 A 
ATOM     27  C   UNL A   1      44.780  30.682  30.674  1.00  0.00     0.049 A 
ATOM     28  C   UNL A   1      44.018  25.501  28.676  1.00  0.00     0.074 A 
ATOM     29  C   UNL A   1      46.056  30.999  31.108  1.00  0.00     0.029 A 
ATOM     30  N   UNL A   1      44.829  29.373  30.215  1.00  0.00    -0.354 N 
ATOM     31  N   UNL A   1      44.349  26.668  29.173  1.00  0.00    -0.248 NA
ATOM     32  C   UNL A   1      45.135  24.555  28.558  1.00  0.00     0.031 C 
ATOM     33  C   UNL A   1      46.881  29.889  30.887  1.00  0.00     0.029 A 
ATOM     34  C   UNL A   1      46.114  28.873  30.341  1.00  0.00     0.049 A 
ATOM     35  H   UNL A   1      44.061  28.873  29.852  1.00  0.00     0.167 HD
ATOM     36  C   UNL A   1      45.711  26.596  29.438  1.00  0.00     0.074 A 
ATOM     37  C   UNL A   1      46.142  25.267  29.052  1.00  0.00     0.031 C 
ATOM     38  C   UNL A   1      46.527  27.545  29.956  1.00  0.00     0.037 A 
BRANCH  25  39
ATOM     39  C   UNL A   1      43.727  32.935  31.124  1.00  0.00     0.058 A 
ATOM     40  C   UNL A   1      43.797  33.996  30.208  1.00  0.00     0.135 A 
ATOM     41  C   UNL A   1      43.784  33.243  32.493  1.00  0.00     0.135 A 
ATOM     42  F   UNL A   1      43.762  33.753  28.889  1.00  0.00    -0.206 F 
ATOM     43  C   UNL A   1      43.960  35.311  30.633  1.00  0.00     0.059 A 
ATOM     44  C   UNL A   1      43.929  34.552  32.940  1.00  0.00     0.059 A 
ATOM     45  F   UNL A   1      43.720  32.263  33.409  1.00  0.00    -0.206 F 
ATOM     46  C   UNL A   1      44.040  35.577  32.000  1.00  0.00     0.060 A 
BRANCH  46  47
ATOM     47  S   UNL A   1      44.299  37.280  32.541  1.00  0.00     0.124 S 
ATOM     48  O   UNL A   1      45.628  37.192  33.137  1.00  0.00    -0.237 OA
ATOM     49  O   UNL A   1      44.216  38.028  31.291  1.00  0.00    -0.237 OA
ATOM     50  O   UNL A   1      43.203  37.508  33.477  1.00  0.00    -0.744 OA
ENDBRANCH  46  47
ENDBRANCH  25  39
BRANCH  26  51
ATOM     51  C   UNL A   1      42.476  23.671  27.648  1.00  0.00     0.058 A 
ATOM     52  C   UNL A   1      42.555  23.457  26.266  1.00  0.00     0.135 A 
ATOM     53  C   UNL A   1      42.311  22.553  28.480  1.00  0.00     0.135 A 
ATOM     54  F   UNL A   1      42.711  24.498  25.435  1.00  0.00    -0.206 F 
ATOM     55  C   UNL A   1      42.493  22.178  25.726  1.00  0.00     0.059 A 
ATOM     56  C   UNL A   1      42.262  21.262  27.966  1.00  0.00     0.059 A 
ATOM     57  F   UNL A   1      42.247  22.710  29.812  1.00  0.00    -0.206 F 
ATOM     58  C   UNL A   1      42.357  21.085  26.585  1.00  0.00     0.060 A 
BRANCH  58  59
ATOM     59  S   UNL A   1      42.398  19.418  25.888  1.00  0.00     0.124 S 
ATOM     60  O   UNL A   1      40.985  19.179  25.618  1.00  0.00    -0.237 OA
ATOM     61  O   UNL A   1      43.252  19.592  24.717  1.00  0.00    -0.237 OA
ATOM     62  O   UNL A   1      42.982  18.622  26.963  1.00  0.00    -0.744 OA
ENDBRANCH  58  59
ENDBRANCH  26  51
BRANCH  38  63
ATOM     63  C   UNL A   1      47.969  27.184  30.159  1.00  0.00     0.058 A 
ATOM     64  C   UNL A   1      48.911  27.338  29.131  1.00  0.00     0.135 A 
ATOM     65  C   UNL A   1      48.425  26.758  31.416  1.00  0.00     0.135 A 
ATOM     66  F   UNL A   1      48.521  27.735  27.911  1.00  0.00    -0.206 F 
ATOM     67  C   UNL A   1      50.261  27.082  29.344  1.00  0.00     0.059 A 
ATOM     68  C   UNL A   1      49.773  26.511  31.654  1.00  0.00     0.059 A 
ATOM     69  F   UNL A   1      47.560  26.601  32.431  1.00  0.00    -0.206 F 
ATOM     70  C   UNL A   1      50.684  26.673  30.611  1.00  0.00     0.060 A 
BRANCH  70  71
ATOM     71  S   UNL A   1      52.447  26.407  30.899  1.00  0.00     0.124 S 
ATOM     72  O   UNL A   1      52.962  26.352  29.535  1.00  0.00    -0.237 OA
ATOM     73  O   UNL A   1      52.823  27.586  31.672  1.00  0.00    -0.237 OA
ATOM     74  O   UNL A   1      52.481  25.147  31.635  1.00  0.00    -0.744 OA
ENDBRANCH  70  71
ENDBRANCH  38  63
ENDBRANCH  12  13
ENDBRANCH   5   7
ENDBRANCH   2   3
ENDBRANCH   1   2
BRANCH   1  75
ATOM     75  C   UNL A   1      35.591  32.965  30.364  1.00  0.00     0.002 C 
BRANCH  75  76
ATOM     76  C   UNL A   1      36.989  32.867  29.748  1.00  0.00     0.002 C 
BRANCH  76  77
ATOM     77  C   UNL A   1      37.706  34.196  29.499  1.00  0.00     0.021 C 
BRANCH  77  78
ATOM     78  C   UNL A   1      38.685  34.632  30.589  1.00  0.00     0.116 C 
BRANCH  78  79
ATOM     79  N   UNL A   1      38.006  35.017  31.813  1.00  0.00    -0.352 N 
ATOM     80  C   UNL A   1      37.986  34.382  33.026  1.00  0.00     0.256 C 
ATOM     81  H   UNL A   1      37.487  35.852  31.763  1.00  0.00     0.163 HD
ATOM     82  O   UNL A   1      37.205  34.785  33.892  1.00  0.00    -0.269 OA
BRANCH  80  83
ATOM     83  C   UNL A   1      38.812  33.218  33.249  1.00  0.00     0.104 A 
ATOM     84  C   UNL A   1      40.182  33.217  33.567  1.00  0.00     0.151 A 
ATOM     85  C   UNL A   1      38.490  31.878  33.126  1.00  0.00     0.168 A 
ATOM     86  N   UNL A   1      40.683  31.994  33.729  1.00  0.00    -0.174 NA
ATOM     87  N   UNL A   1      39.646  31.160  33.473  1.00  0.00    -0.209 N 
ATOM     88  N   UNL A   1      37.329  31.246  32.763  1.00  0.00    -0.236 NA
ATOM     89  C   UNL A   1      39.627  29.768  33.521  1.00  0.00     0.150 A 
ATOM     90  C   UNL A   1      37.345  29.949  32.797  1.00  0.00     0.116 A 
ATOM     91  C   UNL A   1      38.499  29.107  33.197  1.00  0.00     0.053 A 
BRANCH  89  92
ATOM     92  C   UNL A   1      40.878  29.102  33.950  1.00  0.00     0.433 C 
ATOM     93  F   UNL A   1      41.229  29.407  35.224  1.00  0.00    -0.165 F 
ATOM     94  F   UNL A   1      40.817  27.751  33.847  1.00  0.00    -0.165 F 
ATOM     95  F   UNL A   1      41.932  29.486  33.175  1.00  0.00    -0.165 F 
ENDBRANCH  89  92
ENDBRANCH  80  83
ENDBRANCH  78  79
ENDBRANCH  77  78
ENDBRANCH  76  77
ENDBRANCH  75  76
ENDBRANCH   1  75
TORSDOF 17
ENDMDL
MODEL 2
REMARK VINA RESULT:      -9.1      4.106      6.860
REMARK SMILES O=C(NCCCCCCNC(=O)c1cnn2c(C(F)(F)F)ccnc12)c1ccc(-c2c3nc(c(-c4c(F)cc(S(=O)(=O)[O-])cc4F)c4ccc([nH]4)c(-c4c(F)cc(S(=O)(=O)[O-])cc4F)c4nc(c(-c5c(F)cc(S(=O)(=O)[O-])cc5F)c5ccc2[nH]5)C=C4)C=C3)cc1
REMARK SMILES IDX 5 1 4 2 3 3 1 4 2 5 26 7 27 8 91 9 28 10 90 11 29 12 30 13
REMARK SMILES IDX 31 14 84 15 32 16 89 17 83 18 85 19 33 20 88 21 82 22 81 23
REMARK SMILES IDX 34 25 68 26 47 27 67 28 48 29 51 30 66 31 86 32 49 33 50 34
REMARK SMILES IDX 65 36 87 37 52 38 35 39 36 40 45 41 37 42 38 43 44 44 46 45
REMARK SMILES IDX 39 46 40 47 41 48 42 49 43 50 69 51 70 52 79 53 71 54 72 55
REMARK SMILES IDX 78 56 80 57 73 58 74 59 75 60 76 61 77 62 53 63 54 64 63 65
REMARK SMILES IDX 55 66 56 67 62 68 64 69 57 70 58 71 59 72 60 73 61 74 6 75
REMARK SMILES IDX 7 76 8 77 9 78 10 79 11 80 12 82 13 83 14 84 25 85 15 86
REMARK SMILES IDX 16 87 24 88 17 89 23 90 22 91 18 92 19 93 20 94 21 95
REMARK H PARENT 3 6 85 24 51 35 10 81
REMARK Flexibility Score: inf
ROOT
ATOM      1  C   UNL A   1      33.909  29.533  26.748  1.00  0.00     0.021 C 
ENDROOT
BRANCH   1   2
ATOM      2  C   UNL A   1      35.133  29.300  27.631  1.00  0.00     0.116 C 
BRANCH   2   3
ATOM      3  N   UNL A   1      35.163  30.179  28.785  1.00  0.00    -0.352 N 
ATOM      4  O   UNL A   1      35.995  31.158  30.630  1.00  0.00    -0.269 OA
ATOM      5  C   UNL A   1      36.210  30.510  29.609  1.00  0.00     0.251 C 
ATOM      6  H   UNL A   1      34.303  30.603  29.012  1.00  0.00     0.163 HD
BRANCH   5   7
ATOM      7  C   UNL A   1      37.587  30.071  29.290  1.00  0.00     0.039 A 
ATOM      8  C   UNL A   1      38.046  30.005  27.970  1.00  0.00     0.014 A 
ATOM      9  C   UNL A   1      38.452  29.770  30.346  1.00  0.00     0.014 A 
ATOM     10  C   UNL A   1      39.338  29.549  27.702  1.00  0.00     0.010 A 
ATOM     11  C   UNL A   1      39.759  29.358  30.080  1.00  0.00     0.010 A 
ATOM     12  C   UNL A   1      40.206  29.224  28.756  1.00  0.00    -0.014 A 
BRANCH  12  13
ATOM     13  C   UNL A   1      41.598  28.788  28.482  1.00  0.00     0.031 A 
ATOM     14  C   UNL A   1      42.721  29.785  28.467  1.00  0.00     0.074 A 
ATOM     15  C   UNL A   1      41.839  27.495  28.201  1.00  0.00     0.049 A 
ATOM     16  N   UNL A   1      43.981  29.601  28.165  1.00  0.00    -0.248 NA
ATOM     17  C   UNL A   1      42.384  31.168  28.829  1.00  0.00     0.031 C 
ATOM     18  C   UNL A   1      40.828  26.437  28.171  1.00  0.00     0.029 A 
ATOM     19  N   UNL A   1      43.006  26.853  27.871  1.00  0.00    -0.354 N 
ATOM     20  C   UNL A   1      44.583  30.847  28.276  1.00  0.00     0.074 A 
ATOM     21  C   UNL A   1      43.547  31.783  28.663  1.00  0.00     0.031 C 
ATOM     22  C   UNL A   1      41.417  25.279  27.838  1.00  0.00     0.029 A 
ATOM     23  C   UNL A   1      42.837  25.518  27.592  1.00  0.00     0.049 A 
ATOM     24  H   UNL A   1      43.881  27.305  27.838  1.00  0.00     0.167 HD
ATOM     25  C   UNL A   1      45.882  31.181  28.075  1.00  0.00     0.037 A 
ATOM     26  C   UNL A   1      43.717  24.594  27.162  1.00  0.00     0.037 A 
ATOM     27  C   UNL A   1      46.911  30.248  27.701  1.00  0.00     0.049 A 
ATOM     28  C   UNL A   1      45.149  24.983  26.941  1.00  0.00     0.074 A 
ATOM     29  C   UNL A   1      48.263  30.484  27.514  1.00  0.00     0.029 A 
ATOM     30  N   UNL A   1      46.703  28.900  27.450  1.00  0.00    -0.354 N 
ATOM     31  N   UNL A   1      45.710  26.159  27.088  1.00  0.00    -0.248 NA
ATOM     32  C   UNL A   1      46.067  23.926  26.499  1.00  0.00     0.031 C 
ATOM     33  C   UNL A   1      48.866  29.283  27.124  1.00  0.00     0.029 A 
ATOM     34  C   UNL A   1      47.897  28.293  27.096  1.00  0.00     0.049 A 
ATOM     35  H   UNL A   1      45.834  28.441  27.513  1.00  0.00     0.167 HD
ATOM     36  C   UNL A   1      47.050  25.983  26.767  1.00  0.00     0.074 A 
ATOM     37  C   UNL A   1      47.217  24.585  26.423  1.00  0.00     0.031 C 
ATOM     38  C   UNL A   1      48.049  26.898  26.761  1.00  0.00     0.037 A 
BRANCH  25  39
ATOM     39  C   UNL A   1      46.248  32.628  28.235  1.00  0.00     0.058 A 
ATOM     40  C   UNL A   1      46.703  33.141  29.460  1.00  0.00     0.135 A 
ATOM     41  C   UNL A   1      46.135  33.515  27.152  1.00  0.00     0.135 A 
ATOM     42  F   UNL A   1      46.814  32.336  30.529  1.00  0.00    -0.206 F 
ATOM     43  C   UNL A   1      46.995  34.492  29.617  1.00  0.00     0.059 A 
ATOM     44  C   UNL A   1      46.439  34.866  27.283  1.00  0.00     0.059 A 
ATOM     45  F   UNL A   1      45.705  33.074  25.959  1.00  0.00    -0.206 F 
ATOM     46  C   UNL A   1      46.846  35.349  28.527  1.00  0.00     0.060 A 
BRANCH  46  47
ATOM     47  S   UNL A   1      47.182  37.109  28.752  1.00  0.00     0.124 S 
ATOM     48  O   UNL A   1      46.131  37.482  29.694  1.00  0.00    -0.237 OA
ATOM     49  O   UNL A   1      48.539  37.108  29.287  1.00  0.00    -0.237 OA
ATOM     50  O   UNL A   1      47.043  37.654  27.406  1.00  0.00    -0.744 OA
ENDBRANCH  46  47
ENDBRANCH  25  39
BRANCH  26  51
ATOM     51  C   UNL A   1      43.239  23.212  26.914  1.00  0.00     0.058 A 
ATOM     52  C   UNL A   1      43.123  22.713  25.611  1.00  0.00     0.135 A 
ATOM     53  C   UNL A   1      42.988  22.335  27.981  1.00  0.00     0.135 A 
ATOM     54  F   UNL A   1      43.351  23.519  24.562  1.00  0.00    -0.206 F 
ATOM     55  C   UNL A   1      42.790  21.385  25.369  1.00  0.00     0.059 A 
ATOM     56  C   UNL A   1      42.670  20.998  27.766  1.00  0.00     0.059 A 
ATOM     57  F   UNL A   1      43.104  22.766  29.247  1.00  0.00    -0.206 F 
ATOM     58  C   UNL A   1      42.576  20.532  26.455  1.00  0.00     0.060 A 
BRANCH  58  59
ATOM     59  S   UNL A   1      42.263  18.781  26.137  1.00  0.00     0.124 S 
ATOM     60  O   UNL A   1      42.566  18.190  27.435  1.00  0.00    -0.237 OA
ATOM     61  O   UNL A   1      40.856  18.782  25.748  1.00  0.00    -0.237 OA
ATOM     62  O   UNL A   1      43.200  18.466  25.063  1.00  0.00    -0.744 OA
ENDBRANCH  58  59
ENDBRANCH  26  51
BRANCH  38  63
ATOM     63  C   UNL A   1      49.422  26.422  26.389  1.00  0.00     0.058 A 
ATOM     64  C   UNL A   1      49.940  26.618  25.100  1.00  0.00     0.135 A 
ATOM     65  C   UNL A   1      50.258  25.839  27.355  1.00  0.00     0.135 A 
ATOM     66  F   UNL A   1      49.176  27.164  24.142  1.00  0.00    -0.206 F 
ATOM     67  C   UNL A   1      51.242  26.251  24.781  1.00  0.00     0.059 A 
ATOM     68  C   UNL A   1      51.568  25.478  27.061  1.00  0.00     0.059 A 
ATOM     69  F   UNL A   1      49.807  25.636  28.604  1.00  0.00    -0.206 F 
ATOM     70  C   UNL A   1      52.051  25.686  25.769  1.00  0.00     0.060 A 
BRANCH  70  71
ATOM     71  S   UNL A   1      53.763  25.274  25.366  1.00  0.00     0.124 S 
ATOM     72  O   UNL A   1      53.752  23.820  25.488  1.00  0.00    -0.237 OA
ATOM     73  O   UNL A   1      53.903  25.795  24.010  1.00  0.00    -0.237 OA
ATOM     74  O   UNL A   1      54.529  25.985  26.385  1.00  0.00    -0.744 OA
ENDBRANCH  70  71
ENDBRANCH  38  63
ENDBRANCH  12  13
ENDBRANCH   5   7
ENDBRANCH   2   3
ENDBRANCH   1   2
BRANCH   1  75
ATOM     75  C   UNL A   1      33.777  28.608  25.536  1.00  0.00     0.002 C 
BRANCH  75  76
ATOM     76  C   UNL A   1      33.412  27.152  25.838  1.00  0.00     0.002 C 
BRANCH  76  77
ATOM     77  C   UNL A   1      31.994  26.913  26.365  1.00  0.00     0.021 C 
BRANCH  77  78
ATOM     78  C   UNL A   1      31.558  25.450  26.442  1.00  0.00     0.116 C 
BRANCH  78  79
ATOM     79  N   UNL A   1      30.741  25.062  25.306  1.00  0.00    -0.352 N 
ATOM     80  C   UNL A   1      31.123  24.475  24.128  1.00  0.00     0.256 C 
ATOM     81  H   UNL A   1      29.779  25.248  25.394  1.00  0.00     0.163 HD
ATOM     82  O   UNL A   1      30.296  24.383  23.218  1.00  0.00    -0.269 OA
BRANCH  80  83
ATOM     83  C   UNL A   1      32.489  24.043  23.943  1.00  0.00     0.104 A 
ATOM     84  C   UNL A   1      33.405  24.555  23.008  1.00  0.00     0.151 A 
ATOM     85  C   UNL A   1      33.170  23.007  24.557  1.00  0.00     0.168 A 
ATOM     86  N   UNL A   1      34.601  23.973  23.070  1.00  0.00    -0.174 NA
ATOM     87  N   UNL A   1      34.474  23.026  24.032  1.00  0.00    -0.209 N 
ATOM     88  N   UNL A   1      32.786  22.090  25.499  1.00  0.00    -0.236 NA
ATOM     89  C   UNL A   1      35.441  22.143  24.506  1.00  0.00     0.150 A 
ATOM     90  C   UNL A   1      33.701  21.267  25.909  1.00  0.00     0.116 A 
ATOM     91  C   UNL A   1      35.112  21.242  25.451  1.00  0.00     0.053 A 
BRANCH  89  92
ATOM     92  C   UNL A   1      36.798  22.275  23.930  1.00  0.00     0.433 C 
ATOM     93  F   UNL A   1      36.785  22.577  22.608  1.00  0.00    -0.165 F 
ATOM     94  F   UNL A   1      37.549  23.211  24.562  1.00  0.00    -0.165 F 
ATOM     95  F   UNL A   1      37.495  21.108  24.035  1.00  0.00    -0.165 F 
ENDBRANCH  89  92
ENDBRANCH  80  83
ENDBRANCH  78  79
ENDBRANCH  77  78
ENDBRANCH  76  77
ENDBRANCH  75  76
ENDBRANCH   1  75
TORSDOF 17
ENDMDL
MODEL 3
REMARK VINA RESULT:      -9.1      4.612     10.971
REMARK SMILES O=C(NCCCCCCNC(=O)c1cnn2c(C(F)(F)F)ccnc12)c1ccc(-c2c3nc(c(-c4c(F)cc(S(=O)(=O)[O-])cc4F)c4ccc([nH]4)c(-c4c(F)cc(S(=O)(=O)[O-])cc4F)c4nc(c(-c5c(F)cc(S(=O)(=O)[O-])cc5F)c5ccc2[nH]5)C=C4)C=C3)cc1
REMARK SMILES IDX 5 1 4 2 3 3 1 4 2 5 26 7 27 8 91 9 28 10 90 11 29 12 30 13
REMARK SMILES IDX 31 14 84 15 32 16 89 17 83 18 85 19 33 20 88 21 82 22 81 23
REMARK SMILES IDX 34 25 68 26 47 27 67 28 48 29 51 30 66 31 86 32 49 33 50 34
REMARK SMILES IDX 65 36 87 37 52 38 35 39 36 40 45 41 37 42 38 43 44 44 46 45
REMARK SMILES IDX 39 46 40 47 41 48 42 49 43 50 69 51 70 52 79 53 71 54 72 55
REMARK SMILES IDX 78 56 80 57 73 58 74 59 75 60 76 61 77 62 53 63 54 64 63 65
REMARK SMILES IDX 55 66 56 67 62 68 64 69 57 70 58 71 59 72 60 73 61 74 6 75
REMARK SMILES IDX 7 76 8 77 9 78 10 79 11 80 12 82 13 83 14 84 25 85 15 86
REMARK SMILES IDX 16 87 24 88 17 89 23 90 22 91 18 92 19 93 20 94 21 95
REMARK H PARENT 3 6 85 24 51 35 10 81
REMARK Flexibility Score: inf
ROOT
ATOM      1  C   UNL A   1      35.256  23.477  25.465  1.00  0.00     0.021 C 
ENDROOT
BRANCH   1   2
ATOM      2  C   UNL A   1      36.667  24.061  25.425  1.00  0.00     0.116 C 
BRANCH   2   3
ATOM      3  N   UNL A   1      37.694  23.042  25.542  1.00  0.00    -0.352 N 
ATOM      4  O   UNL A   1      39.722  22.180  25.983  1.00  0.00    -0.269 OA
ATOM      5  C   UNL A   1      38.937  23.113  26.122  1.00  0.00     0.251 C 
ATOM      6  H   UNL A   1      37.466  22.170  25.147  1.00  0.00     0.163 HD
BRANCH   5   7
ATOM      7  C   UNL A   1      39.343  24.312  26.889  1.00  0.00     0.039 A 
ATOM      8  C   UNL A   1      38.966  24.488  28.224  1.00  0.00     0.014 A 
ATOM      9  C   UNL A   1      40.165  25.255  26.265  1.00  0.00     0.014 A 
ATOM     10  C   UNL A   1      39.333  25.650  28.905  1.00  0.00     0.010 A 
ATOM     11  C   UNL A   1      40.570  26.395  26.961  1.00  0.00     0.010 A 
ATOM     12  C   UNL A   1      40.141  26.612  28.279  1.00  0.00    -0.014 A 
BRANCH  12  13
ATOM     13  C   UNL A   1      40.578  27.825  29.014  1.00  0.00     0.031 A 
ATOM     14  C   UNL A   1      41.919  27.867  29.690  1.00  0.00     0.074 A 
ATOM     15  C   UNL A   1      39.743  28.876  29.108  1.00  0.00     0.049 A 
ATOM     16  N   UNL A   1      42.433  28.805  30.443  1.00  0.00    -0.248 NA
ATOM     17  C   UNL A   1      42.792  26.699  29.502  1.00  0.00     0.031 C 
ATOM     18  C   UNL A   1      38.410  28.947  28.506  1.00  0.00     0.029 A 
ATOM     19  N   UNL A   1      39.882  30.076  29.757  1.00  0.00    -0.354 N 
ATOM     20  C   UNL A   1      43.677  28.334  30.841  1.00  0.00     0.074 A 
ATOM     21  C   UNL A   1      43.837  27.019  30.253  1.00  0.00     0.031 C 
ATOM     22  C   UNL A   1      37.853  30.127  28.817  1.00  0.00     0.029 A 
ATOM     23  C   UNL A   1      38.770  30.878  29.671  1.00  0.00     0.049 A 
ATOM     24  H   UNL A   1      40.701  30.338  30.238  1.00  0.00     0.167 HD
ATOM     25  C   UNL A   1      44.602  28.941  31.624  1.00  0.00     0.037 A 
ATOM     26  C   UNL A   1      38.504  32.071  30.235  1.00  0.00     0.037 A 
ATOM     27  C   UNL A   1      44.445  30.251  32.198  1.00  0.00     0.049 A 
ATOM     28  C   UNL A   1      39.538  32.726  31.101  1.00  0.00     0.074 A 
ATOM     29  C   UNL A   1      45.343  30.968  32.971  1.00  0.00     0.029 A 
ATOM     30  N   UNL A   1      43.312  31.041  32.068  1.00  0.00    -0.354 N 
ATOM     31  N   UNL A   1      40.726  32.284  31.436  1.00  0.00    -0.248 NA
ATOM     32  C   UNL A   1      39.201  34.040  31.666  1.00  0.00     0.031 C 
ATOM     33  C   UNL A   1      44.742  32.180  33.329  1.00  0.00     0.029 A 
ATOM     34  C   UNL A   1      43.481  32.230  32.758  1.00  0.00     0.049 A 
ATOM     35  H   UNL A   1      42.505  30.792  31.561  1.00  0.00     0.167 HD
ATOM     36  C   UNL A   1      41.285  33.268  32.242  1.00  0.00     0.074 A 
ATOM     37  C   UNL A   1      40.308  34.333  32.340  1.00  0.00     0.031 C 
ATOM     38  C   UNL A   1      42.499  33.284  32.842  1.00  0.00     0.037 A 
BRANCH  25  39
ATOM     39  C   UNL A   1      45.857  28.174  31.919  1.00  0.00     0.058 A 
ATOM     40  C   UNL A   1      46.950  28.182  31.038  1.00  0.00     0.135 A 
ATOM     41  C   UNL A   1      45.967  27.413  33.095  1.00  0.00     0.135 A 
ATOM     42  F   UNL A   1      46.889  28.882  29.894  1.00  0.00    -0.206 F 
ATOM     43  C   UNL A   1      48.093  27.431  31.292  1.00  0.00     0.059 A 
ATOM     44  C   UNL A   1      47.107  26.668  33.377  1.00  0.00     0.059 A 
ATOM     45  F   UNL A   1      44.950  27.372  33.970  1.00  0.00    -0.206 F 
ATOM     46  C   UNL A   1      48.156  26.666  32.457  1.00  0.00     0.060 A 
BRANCH  46  47
ATOM     47  S   UNL A   1      49.623  25.657  32.756  1.00  0.00     0.124 S 
ATOM     48  O   UNL A   1      50.239  25.648  31.433  1.00  0.00    -0.237 OA
ATOM     49  O   UNL A   1      50.333  26.420  33.778  1.00  0.00    -0.237 OA
ATOM     50  O   UNL A   1      49.072  24.382  33.202  1.00  0.00    -0.744 OA
ENDBRANCH  46  47
ENDBRANCH  25  39
BRANCH  26  51
ATOM     51  C   UNL A   1      37.186  32.703  29.984  1.00  0.00     0.058 A 
ATOM     52  C   UNL A   1      36.099  32.464  30.834  1.00  0.00     0.135 A 
ATOM     53  C   UNL A   1      37.020  33.636  28.948  1.00  0.00     0.135 A 
ATOM     54  F   UNL A   1      36.214  31.578  31.835  1.00  0.00    -0.206 F 
ATOM     55  C   UNL A   1      34.894  33.139  30.678  1.00  0.00     0.059 A 
ATOM     56  C   UNL A   1      35.831  34.337  28.782  1.00  0.00     0.059 A 
ATOM     57  F   UNL A   1      38.040  33.908  28.119  1.00  0.00    -0.206 F 
ATOM     58  C   UNL A   1      34.773  34.083  29.655  1.00  0.00     0.060 A 
BRANCH  58  59
ATOM     59  S   UNL A   1      33.248  35.045  29.533  1.00  0.00     0.124 S 
ATOM     60  O   UNL A   1      33.761  36.361  29.173  1.00  0.00    -0.237 OA
ATOM     61  O   UNL A   1      32.517  34.335  28.488  1.00  0.00    -0.237 OA
ATOM     62  O   UNL A   1      32.676  34.931  30.871  1.00  0.00    -0.744 OA
ENDBRANCH  58  59
ENDBRANCH  26  51
BRANCH  38  63
ATOM     63  C   UNL A   1      42.857  34.499  33.647  1.00  0.00     0.058 A 
ATOM     64  C   UNL A   1      42.687  34.529  35.039  1.00  0.00     0.135 A 
ATOM     65  C   UNL A   1      43.451  35.611  33.030  1.00  0.00     0.135 A 
ATOM     66  F   UNL A   1      42.117  33.493  35.672  1.00  0.00    -0.206 F 
ATOM     67  C   UNL A   1      43.096  35.623  35.794  1.00  0.00     0.059 A 
ATOM     68  C   UNL A   1      43.880  36.709  33.767  1.00  0.00     0.059 A 
ATOM     69  F   UNL A   1      43.638  35.625  31.700  1.00  0.00    -0.206 F 
ATOM     70  C   UNL A   1      43.696  36.707  35.150  1.00  0.00     0.060 A 
BRANCH  70  71
ATOM     71  S   UNL A   1      44.286  38.095  36.144  1.00  0.00     0.124 S 
ATOM     72  O   UNL A   1      43.955  39.230  35.289  1.00  0.00    -0.237 OA
ATOM     73  O   UNL A   1      43.496  37.969  37.364  1.00  0.00    -0.237 OA
ATOM     74  O   UNL A   1      45.711  37.818  36.296  1.00  0.00    -0.744 OA
ENDBRANCH  70  71
ENDBRANCH  38  63
ENDBRANCH  12  13
ENDBRANCH   5   7
ENDBRANCH   2   3
ENDBRANCH   1   2
BRANCH   1  75
ATOM     75  C   UNL A   1      35.016  22.254  24.577  1.00  0.00     0.002 C 
BRANCH  75  76
ATOM     76  C   UNL A   1      33.913  22.393  23.524  1.00  0.00     0.002 C 
BRANCH  76  77
ATOM     77  C   UNL A   1      32.500  22.631  24.063  1.00  0.00     0.021 C 
BRANCH  77  78
ATOM     78  C   UNL A   1      31.628  23.574  23.234  1.00  0.00     0.116 C 
BRANCH  78  79
ATOM     79  N   UNL A   1      32.324  24.074  22.062  1.00  0.00    -0.352 N 
ATOM     80  C   UNL A   1      32.748  25.347  21.787  1.00  0.00     0.256 C 
ATOM     81  H   UNL A   1      32.519  23.404  21.368  1.00  0.00     0.163 HD
ATOM     82  O   UNL A   1      33.169  25.599  20.656  1.00  0.00    -0.269 OA
BRANCH  80  83
ATOM     83  C   UNL A   1      32.628  26.383  22.787  1.00  0.00     0.104 A 
ATOM     84  C   UNL A   1      33.461  26.564  23.905  1.00  0.00     0.151 A 
ATOM     85  C   UNL A   1      31.654  27.357  22.926  1.00  0.00     0.168 A 
ATOM     86  N   UNL A   1      33.120  27.612  24.651  1.00  0.00    -0.174 NA
ATOM     87  N   UNL A   1      32.015  28.118  24.050  1.00  0.00    -0.209 N 
ATOM     88  N   UNL A   1      30.532  27.640  22.193  1.00  0.00    -0.236 NA
ATOM     89  C   UNL A   1      31.269  29.235  24.418  1.00  0.00     0.150 A 
ATOM     90  C   UNL A   1      29.844  28.674  22.570  1.00  0.00     0.116 A 
ATOM     91  C   UNL A   1      30.173  29.565  23.709  1.00  0.00     0.053 A 
BRANCH  89  92
ATOM     92  C   UNL A   1      31.759  30.005  25.584  1.00  0.00     0.433 C 
ATOM     93  F   UNL A   1      33.091  30.251  25.533  1.00  0.00    -0.165 F 
ATOM     94  F   UNL A   1      31.122  31.193  25.736  1.00  0.00    -0.165 F 
ATOM     95  F   UNL A   1      31.553  29.324  26.747  1.00  0.00    -0.165 F 
ENDBRANCH  89  92
ENDBRANCH  80  83
ENDBRANCH  78  79
ENDBRANCH  77  78
ENDBRANCH  76  77
ENDBRANCH  75  76
ENDBRANCH   1  75
TORSDOF 17
ENDMDL
