MODEL 1
REMARK VINA RESULT:     -10.8      0.000      0.000
REMARK SMILES CO[C@H]1CCC[C@H]1NC(=O)N[C@](C)(C(=O)NCCCCCCNC(=O)c1ccc(-c2c3nc(c(-c4c(F)cc(S(=O)(=O)[O-])cc4F)c4ccc([nH]4)c(-c4c(F)cc(S(=O)(=O)[O-])cc4F)c4nc(c(-c5c(F)cc(S(=O)(=O)[O-])cc5F)c5ccc2[nH]5)C=C4)C=C3)cc1)C(F)(F)F
REMARK SMILES IDX 19 1 18 2 17 3 16 4 14 5 15 6 12 8 13 9 11 10 8 11 9 12
REMARK SMILES IDX 10 14 7 16 3 17 4 18 5 19 6 20 2 21 1 22 92 23 93 24 94 25
REMARK SMILES IDX 95 26 20 27 21 28 22 29 23 30 24 31 25 33 26 34 27 35 91 36
REMARK SMILES IDX 28 37 90 38 29 39 30 40 31 41 84 42 32 43 89 44 83 45 85 46
REMARK SMILES IDX 33 47 88 48 82 49 81 50 34 52 68 53 47 54 67 55 48 56 51 57
REMARK SMILES IDX 66 58 86 59 49 60 50 61 65 63 87 64 52 65 35 66 36 67 45 68
REMARK SMILES IDX 37 69 38 70 44 71 46 72 39 73 40 74 41 75 42 76 43 77 69 78
REMARK SMILES IDX 70 79 79 80 71 81 72 82 78 83 80 84 73 85 74 86 75 87 76 88
REMARK SMILES IDX 77 89 53 90 54 91 63 92 55 93 56 94 62 95 64 96 57 97 58 98
REMARK SMILES IDX 59 99 60 100 61 101
REMARK H PARENT 16 7 8 13 11 15 23 32 85 51 51 62
REMARK Flexibility Score: inf
ROOT
ATOM      1  C   UNL A   1      39.696  22.503  26.515  1.00  0.00     0.002 C 
ENDROOT
BRANCH   1   2
ATOM      2  C   UNL A   1      38.726  23.674  26.698  1.00  0.00     0.021 C 
BRANCH   2   3
ATOM      3  C   UNL A   1      37.378  23.511  25.994  1.00  0.00     0.116 C 
BRANCH   3   4
ATOM      4  N   UNL A   1      37.524  23.283  24.562  1.00  0.00    -0.354 N 
ATOM      5  C   UNL A   1      36.601  23.092  23.568  1.00  0.00     0.255 C 
ATOM      6  O   UNL A   1      37.045  22.673  22.497  1.00  0.00    -0.272 OA
ATOM      7  H   UNL A   1      38.459  23.262  24.253  1.00  0.00     0.163 HD
BRANCH   5   8
ATOM      8  C   UNL A   1      35.086  23.211  23.861  1.00  0.00     0.213 C 
ATOM      9  C   UNL A   1      34.963  24.488  24.716  1.00  0.00     0.056 C 
BRANCH   8  10
ATOM     10  N   UNL A   1      34.394  23.291  22.530  1.00  0.00    -0.316 N 
ATOM     11  N   UNL A   1      32.077  23.776  22.711  1.00  0.00    -0.333 N 
ATOM     12  C   UNL A   1      33.172  23.460  22.021  1.00  0.00     0.316 C 
ATOM     13  H   UNL A   1      31.265  23.812  22.157  1.00  0.00     0.165 HD
ATOM     14  O   UNL A   1      33.069  23.328  20.799  1.00  0.00    -0.249 OA
ATOM     15  H   UNL A   1      35.049  23.182  21.803  1.00  0.00     0.166 HD
BRANCH  11  16
ATOM     16  C   UNL A   1      31.835  24.076  24.095  1.00  0.00     0.112 C 
ATOM     17  C   UNL A   1      31.154  25.425  24.371  1.00  0.00     0.140 C 
ATOM     18  C   UNL A   1      30.905  25.321  25.881  1.00  0.00     0.034 C 
ATOM     19  C   UNL A   1      30.736  23.818  26.172  1.00  0.00     0.005 C 
ATOM     20  C   UNL A   1      30.945  23.095  24.839  1.00  0.00     0.028 C 
BRANCH  17  21
ATOM     21  O   UNL A   1      29.906  25.506  23.673  1.00  0.00    -0.379 OA
ATOM     22  C   UNL A   1      29.042  26.497  24.222  1.00  0.00     0.195 C 
ENDBRANCH  17  21
ENDBRANCH  11  16
ENDBRANCH   8  10
BRANCH   8  23
ATOM     23  C   UNL A   1      34.710  21.935  24.651  1.00  0.00     0.420 C 
ATOM     24  F   UNL A   1      34.354  22.210  25.929  1.00  0.00    -0.168 F 
ATOM     25  F   UNL A   1      33.646  21.295  24.103  1.00  0.00    -0.168 F 
ATOM     26  F   UNL A   1      35.709  21.023  24.675  1.00  0.00    -0.168 F 
ENDBRANCH   8  23
ENDBRANCH   5   8
ENDBRANCH   3   4
ENDBRANCH   2   3
ENDBRANCH   1   2
BRANCH   1  27
ATOM     27  C   UNL A   1      40.570  22.190  27.732  1.00  0.00     0.002 C 
BRANCH  27  28
ATOM     28  C   UNL A   1      42.050  21.957  27.424  1.00  0.00     0.021 C 
BRANCH  28  29
ATOM     29  C   UNL A   1      42.908  23.216  27.430  1.00  0.00     0.116 C 
BRANCH  29  30
ATOM     30  N   UNL A   1      42.710  24.013  26.231  1.00  0.00    -0.352 N 
ATOM     31  C   UNL A   1      42.196  25.280  26.106  1.00  0.00     0.251 C 
ATOM     32  H   UNL A   1      42.982  23.582  25.388  1.00  0.00     0.163 HD
ATOM     33  O   UNL A   1      41.900  25.712  24.998  1.00  0.00    -0.269 OA
BRANCH  31  34
ATOM     34  C   UNL A   1      41.991  26.114  27.311  1.00  0.00     0.039 A 
ATOM     35  C   UNL A   1      42.893  27.146  27.579  1.00  0.00     0.014 A 
ATOM     36  C   UNL A   1      40.922  25.872  28.179  1.00  0.00     0.014 A 
ATOM     37  C   UNL A   1      42.693  27.966  28.692  1.00  0.00     0.010 A 
ATOM     38  C   UNL A   1      40.682  26.737  29.244  1.00  0.00     0.010 A 
ATOM     39  C   UNL A   1      41.570  27.787  29.518  1.00  0.00    -0.014 A 
BRANCH  39  40
ATOM     40  C   UNL A   1      41.317  28.691  30.670  1.00  0.00     0.031 A 
ATOM     41  C   UNL A   1      42.151  28.581  31.920  1.00  0.00     0.074 A 
ATOM     42  C   UNL A   1      40.306  29.579  30.608  1.00  0.00     0.049 A 
ATOM     43  N   UNL A   1      42.060  29.260  33.034  1.00  0.00    -0.248 NA
ATOM     44  C   UNL A   1      43.207  27.556  31.928  1.00  0.00     0.031 C 
ATOM     45  C   UNL A   1      39.393  29.743  29.473  1.00  0.00     0.029 A 
ATOM     46  N   UNL A   1      39.870  30.509  31.518  1.00  0.00    -0.354 N 
ATOM     47  C   UNL A   1      43.037  28.741  33.876  1.00  0.00     0.074 A 
ATOM     48  C   UNL A   1      43.669  27.651  33.167  1.00  0.00     0.031 C 
ATOM     49  C   UNL A   1      38.528  30.732  29.744  1.00  0.00     0.029 A 
ATOM     50  C   UNL A   1      38.795  31.248  31.083  1.00  0.00     0.049 A 
ATOM     51  H   UNL A   1      40.288  30.634  32.401  1.00  0.00     0.167 HD
ATOM     52  C   UNL A   1      43.392  29.152  35.118  1.00  0.00     0.037 A 
ATOM     53  C   UNL A   1      38.102  32.229  31.692  1.00  0.00     0.037 A 
ATOM     54  C   UNL A   1      42.772  30.253  35.808  1.00  0.00     0.049 A 
ATOM     55  C   UNL A   1      38.517  32.670  33.070  1.00  0.00     0.074 A 
ATOM     56  C   UNL A   1      43.097  30.785  37.044  1.00  0.00     0.029 A 
ATOM     57  N   UNL A   1      41.698  30.989  35.327  1.00  0.00    -0.354 N 
ATOM     58  N   UNL A   1      39.490  32.215  33.823  1.00  0.00    -0.248 NA
ATOM     59  C   UNL A   1      37.748  33.765  33.677  1.00  0.00     0.031 C 
ATOM     60  C   UNL A   1      42.189  31.811  37.331  1.00  0.00     0.029 A 
ATOM     61  C   UNL A   1      41.334  31.956  36.250  1.00  0.00     0.049 A 
ATOM     62  H   UNL A   1      41.260  30.845  34.457  1.00  0.00     0.167 HD
ATOM     63  C   UNL A   1      39.469  32.987  34.981  1.00  0.00     0.074 A 
ATOM     64  C   UNL A   1      38.395  33.946  34.821  1.00  0.00     0.031 C 
ATOM     65  C   UNL A   1      40.267  32.910  36.074  1.00  0.00     0.037 A 
BRANCH  52  66
ATOM     66  C   UNL A   1      44.506  28.411  35.808  1.00  0.00     0.058 A 
ATOM     67  C   UNL A   1      45.852  28.774  35.635  1.00  0.00     0.135 A 
ATOM     68  C   UNL A   1      44.224  27.351  36.685  1.00  0.00     0.135 A 
ATOM     69  F   UNL A   1      46.183  29.771  34.798  1.00  0.00    -0.206 F 
ATOM     70  C   UNL A   1      46.880  28.093  36.281  1.00  0.00     0.059 A 
ATOM     71  C   UNL A   1      45.233  26.676  37.365  1.00  0.00     0.059 A 
ATOM     72  F   UNL A   1      42.956  26.961  36.889  1.00  0.00    -0.206 F 
ATOM     73  C   UNL A   1      46.560  27.044  37.144  1.00  0.00     0.060 A 
BRANCH  73  74
ATOM     74  S   UNL A   1      47.904  26.173  37.977  1.00  0.00     0.124 S 
ATOM     75  O   UNL A   1      48.731  27.286  38.433  1.00  0.00    -0.237 OA
ATOM     76  O   UNL A   1      47.199  25.437  39.021  1.00  0.00    -0.237 OA
ATOM     77  O   UNL A   1      48.485  25.354  36.918  1.00  0.00    -0.744 OA
ENDBRANCH  73  74
ENDBRANCH  52  66
BRANCH  53  78
ATOM     78  C   UNL A   1      36.960  32.878  30.992  1.00  0.00     0.058 A 
ATOM     79  C   UNL A   1      37.178  33.840  29.993  1.00  0.00     0.135 A 
ATOM     80  C   UNL A   1      35.633  32.542  31.297  1.00  0.00     0.135 A 
ATOM     81  F   UNL A   1      38.429  34.199  29.669  1.00  0.00    -0.206 F 
ATOM     82  C   UNL A   1      36.120  34.459  29.334  1.00  0.00     0.059 A 
ATOM     83  C   UNL A   1      34.559  33.126  30.633  1.00  0.00     0.059 A 
ATOM     84  F   UNL A   1      35.371  31.615  32.231  1.00  0.00    -0.206 F 
ATOM     85  C   UNL A   1      34.813  34.092  29.659  1.00  0.00     0.060 A 
BRANCH  85  86
ATOM     86  S   UNL A   1      33.449  34.869  28.766  1.00  0.00     0.124 S 
ATOM     87  O   UNL A   1      34.105  36.034  28.185  1.00  0.00    -0.237 OA
ATOM     88  O   UNL A   1      33.062  33.819  27.828  1.00  0.00    -0.237 OA
ATOM     89  O   UNL A   1      32.476  35.148  29.818  1.00  0.00    -0.744 OA
ENDBRANCH  85  86
ENDBRANCH  53  78
BRANCH  65  90
ATOM     90  C   UNL A   1      40.037  33.912  37.172  1.00  0.00     0.058 A 
ATOM     91  C   UNL A   1      40.696  35.152  37.192  1.00  0.00     0.135 A 
ATOM     92  C   UNL A   1      39.110  33.646  38.193  1.00  0.00     0.135 A 
ATOM     93  F   UNL A   1      41.595  35.456  36.243  1.00  0.00    -0.206 F 
ATOM     94  C   UNL A   1      40.462  36.081  38.201  1.00  0.00     0.059 A 
ATOM     95  C   UNL A   1      38.840  34.573  39.195  1.00  0.00     0.059 A 
ATOM     96  F   UNL A   1      38.445  32.480  38.215  1.00  0.00    -0.206 F 
ATOM     97  C   UNL A   1      39.531  35.783  39.197  1.00  0.00     0.060 A 
BRANCH  97  98
ATOM     98  S   UNL A   1      39.217  37.010  40.484  1.00  0.00     0.124 S 
ATOM     99  O   UNL A   1      38.399  37.983  39.769  1.00  0.00    -0.237 OA
ATOM    100  O   UNL A   1      38.525  36.226  41.502  1.00  0.00    -0.237 OA
ATOM    101  O   UNL A   1      40.555  37.464  40.853  1.00  0.00    -0.744 OA
ENDBRANCH  97  98
ENDBRANCH  65  90
ENDBRANCH  39  40
ENDBRANCH  31  34
ENDBRANCH  29  30
ENDBRANCH  28  29
ENDBRANCH  27  28
ENDBRANCH   1  27
TORSDOF 20
ENDMDL
MODEL 2
REMARK VINA RESULT:     -10.7      6.531     11.933
REMARK SMILES CO[C@H]1CCC[C@H]1NC(=O)N[C@](C)(C(=O)NCCCCCCNC(=O)c1ccc(-c2c3nc(c(-c4c(F)cc(S(=O)(=O)[O-])cc4F)c4ccc([nH]4)c(-c4c(F)cc(S(=O)(=O)[O-])cc4F)c4nc(c(-c5c(F)cc(S(=O)(=O)[O-])cc5F)c5ccc2[nH]5)C=C4)C=C3)cc1)C(F)(F)F
REMARK SMILES IDX 19 1 18 2 17 3 16 4 14 5 15 6 12 8 13 9 11 10 8 11 9 12
REMARK SMILES IDX 10 14 7 16 3 17 4 18 5 19 6 20 2 21 1 22 92 23 93 24 94 25
REMARK SMILES IDX 95 26 20 27 21 28 22 29 23 30 24 31 25 33 26 34 27 35 91 36
REMARK SMILES IDX 28 37 90 38 29 39 30 40 31 41 84 42 32 43 89 44 83 45 85 46
REMARK SMILES IDX 33 47 88 48 82 49 81 50 34 52 68 53 47 54 67 55 48 56 51 57
REMARK SMILES IDX 66 58 86 59 49 60 50 61 65 63 87 64 52 65 35 66 36 67 45 68
REMARK SMILES IDX 37 69 38 70 44 71 46 72 39 73 40 74 41 75 42 76 43 77 69 78
REMARK SMILES IDX 70 79 79 80 71 81 72 82 78 83 80 84 73 85 74 86 75 87 76 88
REMARK SMILES IDX 77 89 53 90 54 91 63 92 55 93 56 94 62 95 64 96 57 97 58 98
REMARK SMILES IDX 59 99 60 100 61 101
REMARK H PARENT 16 7 8 13 11 15 23 32 85 51 51 62
REMARK Flexibility Score: inf
ROOT
ATOM      1  C   UNL A   1      32.860  30.527  27.063  1.00  0.00     0.002 C 
ENDROOT
BRANCH   1   2
ATOM      2  C   UNL A   1      31.749  30.698  26.023  1.00  0.00     0.021 C 
BRANCH   2   3
ATOM      3  C   UNL A   1      31.287  29.402  25.355  1.00  0.00     0.116 C 
BRANCH   3   4
ATOM      4  N   UNL A   1      30.865  29.610  23.976  1.00  0.00    -0.354 N 
ATOM      5  C   UNL A   1      31.165  28.941  22.818  1.00  0.00     0.255 C 
ATOM      6  O   UNL A   1      30.851  29.512  21.772  1.00  0.00    -0.272 OA
ATOM      7  H   UNL A   1      30.253  30.371  23.853  1.00  0.00     0.163 HD
BRANCH   5   8
ATOM      8  C   UNL A   1      32.018  27.649  22.848  1.00  0.00     0.213 C 
ATOM      9  C   UNL A   1      31.497  26.877  24.076  1.00  0.00     0.056 C 
BRANCH   8  10
ATOM     10  N   UNL A   1      31.790  26.950  21.537  1.00  0.00    -0.316 N 
ATOM     11  N   UNL A   1      32.564  24.706  21.530  1.00  0.00    -0.333 N 
ATOM     12  C   UNL A   1      32.043  25.783  20.943  1.00  0.00     0.316 C 
ATOM     13  H   UNL A   1      32.714  23.959  20.909  1.00  0.00     0.165 HD
ATOM     14  O   UNL A   1      31.746  25.705  19.749  1.00  0.00    -0.249 OA
ATOM     15  H   UNL A   1      31.298  27.541  20.922  1.00  0.00     0.166 HD
BRANCH  11  16
ATOM     16  C   UNL A   1      32.949  24.409  22.882  1.00  0.00     0.112 C 
ATOM     17  C   UNL A   1      32.301  23.158  23.496  1.00  0.00     0.140 C 
ATOM     18  C   UNL A   1      33.058  23.062  24.825  1.00  0.00     0.034 C 
ATOM     19  C   UNL A   1      34.445  23.678  24.560  1.00  0.00     0.005 C 
ATOM     20  C   UNL A   1      34.431  24.160  23.107  1.00  0.00     0.028 C 
BRANCH  17  21
ATOM     21  O   UNL A   1      32.576  22.007  22.690  1.00  0.00    -0.379 OA
ATOM     22  C   UNL A   1      32.363  20.789  23.397  1.00  0.00     0.195 C 
ENDBRANCH  17  21
ENDBRANCH  11  16
ENDBRANCH   8  10
BRANCH   8  23
ATOM     23  C   UNL A   1      33.482  28.118  23.024  1.00  0.00     0.420 C 
ATOM     24  F   UNL A   1      34.229  27.891  21.917  1.00  0.00    -0.168 F 
ATOM     25  F   UNL A   1      33.561  29.454  23.252  1.00  0.00    -0.168 F 
ATOM     26  F   UNL A   1      34.095  27.532  24.078  1.00  0.00    -0.168 F 
ENDBRANCH   8  23
ENDBRANCH   5   8
ENDBRANCH   3   4
ENDBRANCH   2   3
ENDBRANCH   1   2
BRANCH   1  27
ATOM     27  C   UNL A   1      33.893  29.446  26.734  1.00  0.00     0.002 C 
BRANCH  27  28
ATOM     28  C   UNL A   1      35.027  29.302  27.751  1.00  0.00     0.021 C 
BRANCH  28  29
ATOM     29  C   UNL A   1      35.589  30.619  28.271  1.00  0.00     0.116 C 
BRANCH  29  30
ATOM     30  N   UNL A   1      35.573  30.679  29.723  1.00  0.00    -0.352 N 
ATOM     31  C   UNL A   1      36.501  30.212  30.622  1.00  0.00     0.251 C 
ATOM     32  H   UNL A   1      34.784  31.115  30.119  1.00  0.00     0.163 HD
ATOM     33  O   UNL A   1      36.221  30.155  31.813  1.00  0.00    -0.269 OA
BRANCH  31  34
ATOM     34  C   UNL A   1      37.829  29.769  30.145  1.00  0.00     0.039 A 
ATOM     35  C   UNL A   1      38.168  29.975  28.805  1.00  0.00     0.014 A 
ATOM     36  C   UNL A   1      38.733  29.143  31.009  1.00  0.00     0.014 A 
ATOM     37  C   UNL A   1      39.432  29.597  28.347  1.00  0.00     0.010 A 
ATOM     38  C   UNL A   1      40.018  28.836  30.568  1.00  0.00     0.010 A 
ATOM     39  C   UNL A   1      40.379  29.050  29.230  1.00  0.00    -0.014 A 
BRANCH  39  40
ATOM     40  C   UNL A   1      41.745  28.698  28.766  1.00  0.00     0.031 A 
ATOM     41  C   UNL A   1      42.817  29.754  28.691  1.00  0.00     0.074 A 
ATOM     42  C   UNL A   1      42.008  27.438  28.367  1.00  0.00     0.049 A 
ATOM     43  N   UNL A   1      44.056  29.644  28.285  1.00  0.00    -0.248 NA
ATOM     44  C   UNL A   1      42.440  31.117  29.101  1.00  0.00     0.031 C 
ATOM     45  C   UNL A   1      41.038  26.340  28.341  1.00  0.00     0.029 A 
ATOM     46  N   UNL A   1      43.165  26.866  27.902  1.00  0.00    -0.354 N 
ATOM     47  C   UNL A   1      44.602  30.918  28.381  1.00  0.00     0.074 A 
ATOM     48  C   UNL A   1      43.544  31.798  28.827  1.00  0.00     0.031 C 
ATOM     49  C   UNL A   1      41.648  25.224  27.913  1.00  0.00     0.029 A 
ATOM     50  C   UNL A   1      43.040  25.531  27.598  1.00  0.00     0.049 A 
ATOM     51  H   UNL A   1      44.008  27.366  27.796  1.00  0.00     0.167 HD
ATOM     52  C   UNL A   1      45.876  31.316  28.144  1.00  0.00     0.037 A 
ATOM     53  C   UNL A   1      43.942  24.653  27.118  1.00  0.00     0.037 A 
ATOM     54  C   UNL A   1      46.929  30.429  27.721  1.00  0.00     0.049 A 
ATOM     55  C   UNL A   1      45.351  25.117  26.865  1.00  0.00     0.074 A 
ATOM     56  C   UNL A   1      48.265  30.721  27.510  1.00  0.00     0.029 A 
ATOM     57  N   UNL A   1      46.767  29.080  27.441  1.00  0.00    -0.354 N 
ATOM     58  N   UNL A   1      45.867  26.311  27.030  1.00  0.00    -0.248 NA
ATOM     59  C   UNL A   1      46.303  24.112  26.372  1.00  0.00     0.031 C 
ATOM     60  C   UNL A   1      48.900  29.560  27.056  1.00  0.00     0.029 A 
ATOM     61  C   UNL A   1      47.973  28.530  27.039  1.00  0.00     0.049 A 
ATOM     62  H   UNL A   1      45.918  28.585  27.518  1.00  0.00     0.167 HD
ATOM     63  C   UNL A   1      47.211  26.196  26.689  1.00  0.00     0.074 A 
ATOM     64  C   UNL A   1      47.429  24.811  26.322  1.00  0.00     0.031 C 
ATOM     65  C   UNL A   1      48.177  27.148  26.682  1.00  0.00     0.037 A 
BRANCH  52  66
ATOM     66  C   UNL A   1      46.203  32.772  28.342  1.00  0.00     0.058 A 
ATOM     67  C   UNL A   1      46.093  33.702  27.295  1.00  0.00     0.135 A 
ATOM     68  C   UNL A   1      46.592  33.253  29.603  1.00  0.00     0.135 A 
ATOM     69  F   UNL A   1      45.739  33.298  26.064  1.00  0.00    -0.206 F 
ATOM     70  C   UNL A   1      46.388  35.049  27.482  1.00  0.00     0.059 A 
ATOM     71  C   UNL A   1      46.862  34.601  29.821  1.00  0.00     0.059 A 
ATOM     72  F   UNL A   1      46.714  32.409  30.640  1.00  0.00    -0.206 F 
ATOM     73  C   UNL A   1      46.772  35.489  28.750  1.00  0.00     0.060 A 
BRANCH  73  74
ATOM     74  S   UNL A   1      47.147  37.240  28.977  1.00  0.00     0.124 S 
ATOM     75  O   UNL A   1      45.864  37.856  28.652  1.00  0.00    -0.237 OA
ATOM     76  O   UNL A   1      47.538  37.295  30.382  1.00  0.00    -0.237 OA
ATOM     77  O   UNL A   1      48.221  37.485  28.020  1.00  0.00    -0.744 OA
ENDBRANCH  73  74
ENDBRANCH  52  66
BRANCH  53  78
ATOM     78  C   UNL A   1      43.545  23.240  26.870  1.00  0.00     0.058 A 
ATOM     79  C   UNL A   1      43.300  22.361  27.936  1.00  0.00     0.135 A 
ATOM     80  C   UNL A   1      43.389  22.745  25.566  1.00  0.00     0.135 A 
ATOM     81  F   UNL A   1      43.440  22.785  29.201  1.00  0.00    -0.206 F 
ATOM     82  C   UNL A   1      42.933  21.036  27.719  1.00  0.00     0.059 A 
ATOM     83  C   UNL A   1      42.996  21.433  25.324  1.00  0.00     0.059 A 
ATOM     84  F   UNL A   1      43.593  23.551  24.512  1.00  0.00    -0.206 F 
ATOM     85  C   UNL A   1      42.781  20.583  26.408  1.00  0.00     0.060 A 
BRANCH  85  86
ATOM     86  S   UNL A   1      42.261  18.874  26.138  1.00  0.00     0.124 S 
ATOM     87  O   UNL A   1      40.879  19.053  25.709  1.00  0.00    -0.237 OA
ATOM     88  O   UNL A   1      43.197  18.428  25.112  1.00  0.00    -0.237 OA
ATOM     89  O   UNL A   1      42.441  18.259  27.450  1.00  0.00    -0.744 OA
ENDBRANCH  85  86
ENDBRANCH  53  78
BRANCH  65  90
ATOM     90  C   UNL A   1      49.568  26.722  26.302  1.00  0.00     0.058 A 
ATOM     91  C   UNL A   1      50.084  26.938  25.015  1.00  0.00     0.135 A 
ATOM     92  C   UNL A   1      50.413  26.129  27.255  1.00  0.00     0.135 A 
ATOM     93  F   UNL A   1      49.318  27.496  24.064  1.00  0.00    -0.206 F 
ATOM     94  C   UNL A   1      51.379  26.558  24.678  1.00  0.00     0.059 A 
ATOM     95  C   UNL A   1      51.721  25.768  26.949  1.00  0.00     0.059 A 
ATOM     96  F   UNL A   1      49.974  25.909  28.505  1.00  0.00    -0.206 F 
ATOM     97  C   UNL A   1      52.191  25.975  25.653  1.00  0.00     0.060 A 
BRANCH  97  98
ATOM     98  S   UNL A   1      53.879  25.513  25.210  1.00  0.00     0.124 S 
ATOM     99  O   UNL A   1      53.934  24.127  25.663  1.00  0.00    -0.237 OA
ATOM    100  O   UNL A   1      53.887  25.708  23.763  1.00  0.00    -0.237 OA
ATOM    101  O   UNL A   1      54.698  26.454  25.967  1.00  0.00    -0.744 OA
ENDBRANCH  97  98
ENDBRANCH  65  90
ENDBRANCH  39  40
ENDBRANCH  31  34
ENDBRANCH  29  30
ENDBRANCH  28  29
ENDBRANCH  27  28
ENDBRANCH   1  27
TORSDOF 20
ENDMDL
MODEL 3
REMARK VINA RESULT:     -10.6      6.432     11.876
REMARK SMILES CO[C@H]1CCC[C@H]1NC(=O)N[C@](C)(C(=O)NCCCCCCNC(=O)c1ccc(-c2c3nc(c(-c4c(F)cc(S(=O)(=O)[O-])cc4F)c4ccc([nH]4)c(-c4c(F)cc(S(=O)(=O)[O-])cc4F)c4nc(c(-c5c(F)cc(S(=O)(=O)[O-])cc5F)c5ccc2[nH]5)C=C4)C=C3)cc1)C(F)(F)F
REMARK SMILES IDX 19 1 18 2 17 3 16 4 14 5 15 6 12 8 13 9 11 10 8 11 9 12
REMARK SMILES IDX 10 14 7 16 3 17 4 18 5 19 6 20 2 21 1 22 92 23 93 24 94 25
REMARK SMILES IDX 95 26 20 27 21 28 22 29 23 30 24 31 25 33 26 34 27 35 91 36
REMARK SMILES IDX 28 37 90 38 29 39 30 40 31 41 84 42 32 43 89 44 83 45 85 46
REMARK SMILES IDX 33 47 88 48 82 49 81 50 34 52 68 53 47 54 67 55 48 56 51 57
REMARK SMILES IDX 66 58 86 59 49 60 50 61 65 63 87 64 52 65 35 66 36 67 45 68
REMARK SMILES IDX 37 69 38 70 44 71 46 72 39 73 40 74 41 75 42 76 43 77 69 78
REMARK SMILES IDX 70 79 79 80 71 81 72 82 78 83 80 84 73 85 74 86 75 87 76 88
REMARK SMILES IDX 77 89 53 90 54 91 63 92 55 93 56 94 62 95 64 96 57 97 58 98
REMARK SMILES IDX 59 99 60 100 61 101
REMARK H PARENT 16 7 8 13 11 15 23 32 85 51 51 62
REMARK Flexibility Score: inf
ROOT
ATOM      1  C   UNL A   1      34.386  30.435  27.602  1.00  0.00     0.002 C 
ENDROOT
BRANCH   1   2
ATOM      2  C   UNL A   1      33.236  30.138  26.636  1.00  0.00     0.021 C 
BRANCH   2   3
ATOM      3  C   UNL A   1      33.589  29.199  25.481  1.00  0.00     0.116 C 
BRANCH   3   4
ATOM      4  N   UNL A   1      32.823  29.490  24.276  1.00  0.00    -0.354 N 
ATOM      5  C   UNL A   1      32.178  28.675  23.384  1.00  0.00     0.255 C 
ATOM      6  O   UNL A   1      31.832  29.204  22.326  1.00  0.00    -0.272 OA
ATOM      7  H   UNL A   1      32.757  30.450  24.065  1.00  0.00     0.163 HD
BRANCH   5   8
ATOM      8  C   UNL A   1      32.084  27.149  23.631  1.00  0.00     0.213 C 
ATOM      9  C   UNL A   1      33.469  26.611  23.220  1.00  0.00     0.056 C 
BRANCH   8  10
ATOM     10  N   UNL A   1      31.758  26.967  25.086  1.00  0.00    -0.316 N 
ATOM     11  N   UNL A   1      32.077  24.738  25.840  1.00  0.00    -0.333 N 
ATOM     12  C   UNL A   1      31.686  26.002  26.005  1.00  0.00     0.316 C 
ATOM     13  H   UNL A   1      31.900  24.171  26.624  1.00  0.00     0.165 HD
ATOM     14  O   UNL A   1      31.234  26.330  27.104  1.00  0.00    -0.249 OA
ATOM     15  H   UNL A   1      31.520  27.833  25.489  1.00  0.00     0.166 HD
BRANCH  11  16
ATOM     16  C   UNL A   1      32.704  24.032  24.757  1.00  0.00     0.112 C 
ATOM     17  C   UNL A   1      34.093  23.450  25.063  1.00  0.00     0.140 C 
ATOM     18  C   UNL A   1      34.357  22.646  23.784  1.00  0.00     0.034 C 
ATOM     19  C   UNL A   1      32.971  22.217  23.267  1.00  0.00     0.005 C 
ATOM     20  C   UNL A   1      31.946  22.827  24.228  1.00  0.00     0.028 C 
BRANCH  17  21
ATOM     21  O   UNL A   1      34.027  22.569  26.190  1.00  0.00    -0.379 OA
ATOM     22  C   UNL A   1      35.123  21.661  26.231  1.00  0.00     0.195 C 
ENDBRANCH  17  21
ENDBRANCH  11  16
ENDBRANCH   8  10
BRANCH   8  23
ATOM     23  C   UNL A   1      30.956  26.644  22.700  1.00  0.00     0.420 C 
ATOM     24  F   UNL A   1      30.401  25.492  23.148  1.00  0.00    -0.168 F 
ATOM     25  F   UNL A   1      29.934  27.533  22.613  1.00  0.00    -0.168 F 
ATOM     26  F   UNL A   1      31.376  26.447  21.429  1.00  0.00    -0.168 F 
ENDBRANCH   8  23
ENDBRANCH   5   8
ENDBRANCH   3   4
ENDBRANCH   2   3
ENDBRANCH   1   2
BRANCH   1  27
ATOM     27  C   UNL A   1      34.344  31.819  28.253  1.00  0.00     0.002 C 
BRANCH  27  28
ATOM     28  C   UNL A   1      35.597  32.672  28.046  1.00  0.00     0.021 C 
BRANCH  28  29
ATOM     29  C   UNL A   1      36.411  32.926  29.309  1.00  0.00     0.116 C 
BRANCH  29  30
ATOM     30  N   UNL A   1      36.036  32.025  30.386  1.00  0.00    -0.352 N 
ATOM     31  C   UNL A   1      36.650  30.870  30.805  1.00  0.00     0.251 C 
ATOM     32  H   UNL A   1      35.226  32.278  30.886  1.00  0.00     0.163 HD
ATOM     33  O   UNL A   1      36.074  30.122  31.586  1.00  0.00    -0.269 OA
BRANCH  31  34
ATOM     34  C   UNL A   1      37.998  30.528  30.301  1.00  0.00     0.039 A 
ATOM     35  C   UNL A   1      39.065  30.489  31.201  1.00  0.00     0.014 A 
ATOM     36  C   UNL A   1      38.213  30.258  28.946  1.00  0.00     0.014 A 
ATOM     37  C   UNL A   1      40.337  30.132  30.750  1.00  0.00     0.010 A 
ATOM     38  C   UNL A   1      39.465  29.829  28.512  1.00  0.00     0.010 A 
ATOM     39  C   UNL A   1      40.543  29.771  29.407  1.00  0.00    -0.014 A 
BRANCH  39  40
ATOM     40  C   UNL A   1      41.880  29.333  28.929  1.00  0.00     0.031 A 
ATOM     41  C   UNL A   1      43.014  30.320  28.834  1.00  0.00     0.074 A 
ATOM     42  C   UNL A   1      42.060  28.057  28.537  1.00  0.00     0.049 A 
ATOM     43  N   UNL A   1      44.239  30.131  28.414  1.00  0.00    -0.248 NA
ATOM     44  C   UNL A   1      42.727  31.706  29.238  1.00  0.00     0.031 C 
ATOM     45  C   UNL A   1      41.024  27.020  28.531  1.00  0.00     0.029 A 
ATOM     46  N   UNL A   1      43.175  27.411  28.064  1.00  0.00    -0.354 N 
ATOM     47  C   UNL A   1      44.863  31.371  28.495  1.00  0.00     0.074 A 
ATOM     48  C   UNL A   1      43.866  32.316  28.946  1.00  0.00     0.031 C 
ATOM     49  C   UNL A   1      41.560  25.865  28.105  1.00  0.00     0.029 A 
ATOM     50  C   UNL A   1      42.964  26.084  27.772  1.00  0.00     0.049 A 
ATOM     51  H   UNL A   1      44.045  27.857  27.944  1.00  0.00     0.167 HD
ATOM     52  C   UNL A   1      46.156  31.687  28.240  1.00  0.00     0.037 A 
ATOM     53  C   UNL A   1      43.804  25.149  27.288  1.00  0.00     0.037 A 
ATOM     54  C   UNL A   1      47.148  30.734  27.812  1.00  0.00     0.049 A 
ATOM     55  C   UNL A   1      45.236  25.524  27.015  1.00  0.00     0.074 A 
ATOM     56  C   UNL A   1      48.497  30.942  27.583  1.00  0.00     0.029 A 
ATOM     57  N   UNL A   1      46.899  29.396  27.544  1.00  0.00    -0.354 N 
ATOM     58  N   UNL A   1      45.827  26.685  27.164  1.00  0.00    -0.248 NA
ATOM     59  C   UNL A   1      46.119  24.459  26.518  1.00  0.00     0.031 C 
ATOM     60  C   UNL A   1      49.054  29.741  27.130  1.00  0.00     0.029 A 
ATOM     61  C   UNL A   1      48.065  28.770  27.132  1.00  0.00     0.049 A 
ATOM     62  H   UNL A   1      46.023  28.955  27.634  1.00  0.00     0.167 HD
ATOM     63  C   UNL A   1      47.157  26.485  26.809  1.00  0.00     0.074 A 
ATOM     64  C   UNL A   1      47.285  25.087  26.450  1.00  0.00     0.031 C 
ATOM     65  C   UNL A   1      48.179  27.376  26.784  1.00  0.00     0.037 A 
BRANCH  52  66
ATOM     66  C   UNL A   1      46.574  33.122  28.423  1.00  0.00     0.058 A 
ATOM     67  C   UNL A   1      46.507  34.050  27.370  1.00  0.00     0.135 A 
ATOM     68  C   UNL A   1      47.009  33.586  29.675  1.00  0.00     0.135 A 
ATOM     69  F   UNL A   1      46.112  33.660  26.148  1.00  0.00    -0.206 F 
ATOM     70  C   UNL A   1      46.886  35.378  27.544  1.00  0.00     0.059 A 
ATOM     71  C   UNL A   1      47.364  34.916  29.879  1.00  0.00     0.059 A 
ATOM     72  F   UNL A   1      47.093  32.743  30.716  1.00  0.00    -0.206 F 
ATOM     73  C   UNL A   1      47.314  35.801  28.803  1.00  0.00     0.060 A 
BRANCH  73  74
ATOM     74  S   UNL A   1      47.799  37.527  29.012  1.00  0.00     0.124 S 
ATOM     75  O   UNL A   1      49.231  37.462  28.737  1.00  0.00    -0.237 OA
ATOM     76  O   UNL A   1      46.989  38.203  28.003  1.00  0.00    -0.237 OA
ATOM     77  O   UNL A   1      47.440  37.817  30.397  1.00  0.00    -0.744 OA
ENDBRANCH  73  74
ENDBRANCH  52  66
BRANCH  53  78
ATOM     78  C   UNL A   1      43.318  23.762  27.055  1.00  0.00     0.058 A 
ATOM     79  C   UNL A   1      43.171  22.860  28.120  1.00  0.00     0.135 A 
ATOM     80  C   UNL A   1      42.978  23.315  25.769  1.00  0.00     0.135 A 
ATOM     81  F   UNL A   1      43.488  23.238  29.368  1.00  0.00    -0.206 F 
ATOM     82  C   UNL A   1      42.724  21.558  27.917  1.00  0.00     0.059 A 
ATOM     83  C   UNL A   1      42.501  22.027  25.544  1.00  0.00     0.059 A 
ATOM     84  F   UNL A   1      43.082  24.144  24.719  1.00  0.00    -0.206 F 
ATOM     85  C   UNL A   1      42.388  21.152  26.624  1.00  0.00     0.060 A 
BRANCH  85  86
ATOM     86  S   UNL A   1      41.764  19.475  26.379  1.00  0.00     0.124 S 
ATOM     87  O   UNL A   1      42.461  19.078  25.161  1.00  0.00    -0.237 OA
ATOM     88  O   UNL A   1      42.189  18.808  27.606  1.00  0.00    -0.237 OA
ATOM     89  O   UNL A   1      40.323  19.670  26.248  1.00  0.00    -0.744 OA
ENDBRANCH  85  86
ENDBRANCH  53  78
BRANCH  65  90
ATOM     90  C   UNL A   1      49.536  26.862  26.391  1.00  0.00     0.058 A 
ATOM     91  C   UNL A   1      50.395  26.251  27.318  1.00  0.00     0.135 A 
ATOM     92  C   UNL A   1      49.966  26.941  25.056  1.00  0.00     0.135 A 
ATOM     93  F   UNL A   1      50.037  26.153  28.609  1.00  0.00    -0.206 F 
ATOM     94  C   UNL A   1      51.641  25.761  26.941  1.00  0.00     0.059 A 
ATOM     95  C   UNL A   1      51.195  26.432  24.650  1.00  0.00     0.059 A 
ATOM     96  F   UNL A   1      49.180  27.507  24.125  1.00  0.00    -0.206 F 
ATOM     97  C   UNL A   1      52.032  25.855  25.604  1.00  0.00     0.060 A 
BRANCH  97  98
ATOM     98  S   UNL A   1      53.639  25.189  25.124  1.00  0.00     0.124 S 
ATOM     99  O   UNL A   1      53.418  23.754  25.267  1.00  0.00    -0.237 OA
ATOM    100  O   UNL A   1      53.783  25.675  23.755  1.00  0.00    -0.237 OA
ATOM    101  O   UNL A   1      54.556  25.783  26.093  1.00  0.00    -0.744 OA
ENDBRANCH  97  98
ENDBRANCH  65  90
ENDBRANCH  39  40
ENDBRANCH  31  34
ENDBRANCH  29  30
ENDBRANCH  28  29
ENDBRANCH  27  28
ENDBRANCH   1  27
TORSDOF 20
ENDMDL
