MODEL 1
REMARK VINA RESULT:     -11.3      0.000      0.000
REMARK SMILES O=C(Cc1ccc(F)c(F)c1)NC1(C(=O)NCCCCCCNC(=O)c2ccc(-c3c4nc(c(-c5c(F)cc(S(=O)(=O)[O-])cc5F)c5ccc([nH]5)c(-c5c(F)cc(S(=O)(=O)[O-])cc5F)c5nc(c(-c6c(F)cc(S(=O)(=O)[O-])cc6F)c6ccc3[nH]6)C=C5)C=C4)cc2)CCCC1
REMARK SMILES IDX 19 1 18 2 17 3 16 4 14 5 15 6 13 8 92 9 95 10 93 11 94 12
REMARK SMILES IDX 12 13 1 14 2 15 3 17 4 18 5 19 11 20 6 21 9 22 7 23 10 24
REMARK SMILES IDX 8 25 20 26 21 27 22 28 23 29 24 30 25 32 26 33 27 34 91 35
REMARK SMILES IDX 28 36 90 37 29 38 30 39 31 40 84 41 32 42 89 43 83 44 85 45
REMARK SMILES IDX 33 46 88 47 82 48 81 49 34 51 68 52 47 53 67 54 48 55 51 56
REMARK SMILES IDX 66 57 86 58 49 59 50 60 65 62 87 63 52 64 35 65 36 66 45 67
REMARK SMILES IDX 37 68 38 69 44 70 46 71 39 72 40 73 41 74 42 75 43 76 69 77
REMARK SMILES IDX 70 78 79 79 71 80 72 81 78 82 80 83 73 84 74 85 75 86 76 87
REMARK SMILES IDX 77 88 53 89 54 90 63 91 55 92 56 93 62 94 64 95 57 96 58 97
REMARK SMILES IDX 59 98 60 99 61 100
REMARK H PARENT 16 7 12 16 23 31 85 50 51 61
REMARK Flexibility Score: inf
ROOT
ATOM      1  C   UNL A   1      30.612  26.326  26.145  1.00  0.00     0.002 C 
ENDROOT
BRANCH   1   2
ATOM      2  C   UNL A   1      30.388  24.868  25.746  1.00  0.00     0.021 C 
BRANCH   2   3
ATOM      3  C   UNL A   1      31.465  23.921  26.248  1.00  0.00     0.116 C 
BRANCH   3   4
ATOM      4  N   UNL A   1      31.751  22.866  25.313  1.00  0.00    -0.354 N 
ATOM      5  C   UNL A   1      32.768  22.725  24.425  1.00  0.00     0.245 C 
ATOM      6  O   UNL A   1      32.843  21.612  23.883  1.00  0.00    -0.272 OA
ATOM      7  H   UNL A   1      31.102  22.126  25.316  1.00  0.00     0.163 HD
BRANCH   5   8
ATOM      8  C   UNL A   1      33.867  23.818  24.177  1.00  0.00     0.119 C 
ATOM      9  C   UNL A   1      35.043  23.260  23.351  1.00  0.00     0.038 C 
ATOM     10  C   UNL A   1      34.520  24.479  25.404  1.00  0.00     0.038 C 
ATOM     11  C   UNL A   1      36.262  23.178  24.257  1.00  0.00     0.003 C 
ATOM     12  C   UNL A   1      35.999  24.096  25.437  1.00  0.00     0.003 C 
BRANCH   8  13
ATOM     13  N   UNL A   1      33.167  24.812  23.338  1.00  0.00    -0.341 N 
ATOM     14  O   UNL A   1      33.396  23.775  21.292  1.00  0.00    -0.275 OA
ATOM     15  C   UNL A   1      32.988  24.709  21.974  1.00  0.00     0.225 C 
ATOM     16  H   UNL A   1      32.799  25.608  23.786  1.00  0.00     0.164 HD
BRANCH  15  17
ATOM     17  C   UNL A   1      32.219  25.871  21.374  1.00  0.00     0.135 C 
BRANCH  17  18
ATOM     18  C   UNL A   1      31.863  26.997  22.331  1.00  0.00    -0.036 A 
ATOM     19  C   UNL A   1      30.503  27.270  22.566  1.00  0.00     0.007 A 
ATOM     20  C   UNL A   1      32.817  27.838  22.931  1.00  0.00     0.046 A 
ATOM     21  C   UNL A   1      30.114  28.341  23.376  1.00  0.00     0.043 A 
ATOM     22  C   UNL A   1      32.422  28.908  23.729  1.00  0.00     0.159 A 
ATOM     23  C   UNL A   1      31.079  29.159  23.950  1.00  0.00     0.158 A 
ATOM     24  F   UNL A   1      33.359  29.701  24.268  1.00  0.00    -0.204 F 
ATOM     25  F   UNL A   1      30.700  30.195  24.710  1.00  0.00    -0.204 F 
ENDBRANCH  17  18
ENDBRANCH  15  17
ENDBRANCH   8  13
ENDBRANCH   5   8
ENDBRANCH   3   4
ENDBRANCH   2   3
ENDBRANCH   1   2
BRANCH   1  26
ATOM     26  C   UNL A   1      32.048  26.672  26.555  1.00  0.00     0.002 C 
BRANCH  26  27
ATOM     27  C   UNL A   1      32.207  27.971  27.349  1.00  0.00     0.021 C 
BRANCH  27  28
ATOM     28  C   UNL A   1      33.618  28.550  27.345  1.00  0.00     0.116 C 
BRANCH  28  29
ATOM     29  N   UNL A   1      33.615  29.983  27.591  1.00  0.00    -0.352 N 
ATOM     30  C   UNL A   1      34.574  30.769  28.179  1.00  0.00     0.251 C 
ATOM     31  H   UNL A   1      32.807  30.460  27.290  1.00  0.00     0.163 HD
ATOM     32  O   UNL A   1      34.312  31.919  28.508  1.00  0.00    -0.269 OA
BRANCH  30  33
ATOM     33  C   UNL A   1      35.918  30.207  28.429  1.00  0.00     0.039 A 
ATOM     34  C   UNL A   1      36.854  30.208  27.394  1.00  0.00     0.014 A 
ATOM     35  C   UNL A   1      36.252  29.696  29.687  1.00  0.00     0.014 A 
ATOM     36  C   UNL A   1      38.152  29.760  27.642  1.00  0.00     0.010 A 
ATOM     37  C   UNL A   1      37.564  29.318  29.951  1.00  0.00     0.010 A 
ATOM     38  C   UNL A   1      38.529  29.352  28.933  1.00  0.00    -0.014 A 
BRANCH  38  39
ATOM     39  C   UNL A   1      39.934  28.991  29.248  1.00  0.00     0.031 A 
ATOM     40  C   UNL A   1      40.856  30.004  29.866  1.00  0.00     0.074 A 
ATOM     41  C   UNL A   1      40.395  27.771  28.906  1.00  0.00     0.049 A 
ATOM     42  N   UNL A   1      42.133  29.902  30.132  1.00  0.00    -0.248 NA
ATOM     43  C   UNL A   1      40.274  31.312  30.209  1.00  0.00     0.031 C 
ATOM     44  C   UNL A   1      39.604  26.718  28.263  1.00  0.00     0.029 A 
ATOM     45  N   UNL A   1      41.643  27.214  29.035  1.00  0.00    -0.354 N 
ATOM     46  C   UNL A   1      42.509  31.131  30.663  1.00  0.00     0.074 A 
ATOM     47  C   UNL A   1      41.337  31.979  30.634  1.00  0.00     0.031 C 
ATOM     48  C   UNL A   1      40.379  25.640  28.072  1.00  0.00     0.029 A 
ATOM     49  C   UNL A   1      41.733  25.938  28.531  1.00  0.00     0.049 A 
ATOM     50  H   UNL A   1      42.401  27.684  29.450  1.00  0.00     0.167 HD
ATOM     51  C   UNL A   1      43.715  31.508  31.148  1.00  0.00     0.037 A 
ATOM     52  C   UNL A   1      42.789  25.107  28.430  1.00  0.00     0.037 A 
ATOM     53  C   UNL A   1      44.873  30.652  31.182  1.00  0.00     0.049 A 
ATOM     54  C   UNL A   1      44.127  25.562  28.948  1.00  0.00     0.074 A 
ATOM     55  C   UNL A   1      46.126  30.920  31.704  1.00  0.00     0.029 A 
ATOM     56  N   UNL A   1      44.925  29.364  30.664  1.00  0.00    -0.354 N 
ATOM     57  N   UNL A   1      44.449  26.702  29.510  1.00  0.00    -0.248 NA
ATOM     58  C   UNL A   1      45.245  24.618  28.817  1.00  0.00     0.031 C 
ATOM     59  C   UNL A   1      46.952  29.819  31.451  1.00  0.00     0.029 A 
ATOM     60  C   UNL A   1      46.197  28.840  30.824  1.00  0.00     0.049 A 
ATOM     61  H   UNL A   1      44.169  28.894  30.246  1.00  0.00     0.167 HD
ATOM     62  C   UNL A   1      45.800  26.605  29.821  1.00  0.00     0.074 A 
ATOM     63  C   UNL A   1      46.230  25.287  29.401  1.00  0.00     0.031 C 
ATOM     64  C   UNL A   1      46.612  27.525  30.400  1.00  0.00     0.037 A 
BRANCH  51  65
ATOM     65  C   UNL A   1      43.850  32.911  31.679  1.00  0.00     0.058 A 
ATOM     66  C   UNL A   1      43.608  33.216  33.027  1.00  0.00     0.135 A 
ATOM     67  C   UNL A   1      44.266  33.955  30.838  1.00  0.00     0.135 A 
ATOM     68  F   UNL A   1      43.194  32.260  33.874  1.00  0.00    -0.206 F 
ATOM     69  C   UNL A   1      43.747  34.510  33.517  1.00  0.00     0.059 A 
ATOM     70  C   UNL A   1      44.441  35.252  31.312  1.00  0.00     0.059 A 
ATOM     71  F   UNL A   1      44.510  33.721  29.538  1.00  0.00    -0.206 F 
ATOM     72  C   UNL A   1      44.165  35.523  32.651  1.00  0.00     0.060 A 
BRANCH  72  73
ATOM     73  S   UNL A   1      44.347  37.194  33.307  1.00  0.00     0.124 S 
ATOM     74  O   UNL A   1      45.242  37.798  32.324  1.00  0.00    -0.237 OA
ATOM     75  O   UNL A   1      42.972  37.684  33.295  1.00  0.00    -0.237 OA
ATOM     76  O   UNL A   1      44.923  36.980  34.631  1.00  0.00    -0.744 OA
ENDBRANCH  72  73
ENDBRANCH  51  65
BRANCH  52  77
ATOM     77  C   UNL A   1      42.622  23.762  27.817  1.00  0.00     0.058 A 
ATOM     78  C   UNL A   1      42.645  23.595  26.424  1.00  0.00     0.135 A 
ATOM     79  C   UNL A   1      42.448  22.615  28.609  1.00  0.00     0.135 A 
ATOM     80  F   UNL A   1      42.802  24.660  25.624  1.00  0.00    -0.206 F 
ATOM     81  C   UNL A   1      42.485  22.344  25.837  1.00  0.00     0.059 A 
ATOM     82  C   UNL A   1      42.315  21.350  28.046  1.00  0.00     0.059 A 
ATOM     83  F   UNL A   1      42.435  22.717  29.947  1.00  0.00    -0.206 F 
ATOM     84  C   UNL A   1      42.325  21.227  26.657  1.00  0.00     0.060 A 
BRANCH  84  85
ATOM     85  S   UNL A   1      42.167  19.601  25.885  1.00  0.00     0.124 S 
ATOM     86  O   UNL A   1      43.145  19.692  24.808  1.00  0.00    -0.237 OA
ATOM     87  O   UNL A   1      42.508  18.707  26.987  1.00  0.00    -0.237 OA
ATOM     88  O   UNL A   1      40.769  19.563  25.468  1.00  0.00    -0.744 OA
ENDBRANCH  84  85
ENDBRANCH  52  77
BRANCH  64  89
ATOM     89  C   UNL A   1      48.046  27.133  30.634  1.00  0.00     0.058 A 
ATOM     90  C   UNL A   1      49.044  27.380  29.678  1.00  0.00     0.135 A 
ATOM     91  C   UNL A   1      48.437  26.555  31.853  1.00  0.00     0.135 A 
ATOM     92  F   UNL A   1      48.724  27.922  28.491  1.00  0.00    -0.206 F 
ATOM     93  C   UNL A   1      50.374  27.047  29.912  1.00  0.00     0.059 A 
ATOM     94  C   UNL A   1      49.766  26.245  32.123  1.00  0.00     0.059 A 
ATOM     95  F   UNL A   1      47.525  26.307  32.807  1.00  0.00    -0.206 F 
ATOM     96  C   UNL A   1      50.726  26.485  31.141  1.00  0.00     0.060 A 
BRANCH  96  97
ATOM     97  S   UNL A   1      52.463  26.097  31.446  1.00  0.00     0.124 S 
ATOM     98  O   UNL A   1      53.039  26.257  30.116  1.00  0.00    -0.237 OA
ATOM     99  O   UNL A   1      52.839  27.112  32.427  1.00  0.00    -0.237 OA
ATOM    100  O   UNL A   1      52.422  24.729  31.954  1.00  0.00    -0.744 OA
ENDBRANCH  96  97
ENDBRANCH  64  89
ENDBRANCH  38  39
ENDBRANCH  30  33
ENDBRANCH  28  29
ENDBRANCH  27  28
ENDBRANCH  26  27
ENDBRANCH   1  26
TORSDOF 19
ENDMDL
MODEL 2
REMARK VINA RESULT:     -11.1      2.620      3.418
REMARK SMILES O=C(Cc1ccc(F)c(F)c1)NC1(C(=O)NCCCCCCNC(=O)c2ccc(-c3c4nc(c(-c5c(F)cc(S(=O)(=O)[O-])cc5F)c5ccc([nH]5)c(-c5c(F)cc(S(=O)(=O)[O-])cc5F)c5nc(c(-c6c(F)cc(S(=O)(=O)[O-])cc6F)c6ccc3[nH]6)C=C5)C=C4)cc2)CCCC1
REMARK SMILES IDX 19 1 18 2 17 3 16 4 14 5 15 6 13 8 92 9 95 10 93 11 94 12
REMARK SMILES IDX 12 13 1 14 2 15 3 17 4 18 5 19 11 20 6 21 9 22 7 23 10 24
REMARK SMILES IDX 8 25 20 26 21 27 22 28 23 29 24 30 25 32 26 33 27 34 91 35
REMARK SMILES IDX 28 36 90 37 29 38 30 39 31 40 84 41 32 42 89 43 83 44 85 45
REMARK SMILES IDX 33 46 88 47 82 48 81 49 34 51 68 52 47 53 67 54 48 55 51 56
REMARK SMILES IDX 66 57 86 58 49 59 50 60 65 62 87 63 52 64 35 65 36 66 45 67
REMARK SMILES IDX 37 68 38 69 44 70 46 71 39 72 40 73 41 74 42 75 43 76 69 77
REMARK SMILES IDX 70 78 79 79 71 80 72 81 78 82 80 83 73 84 74 85 75 86 76 87
REMARK SMILES IDX 77 88 53 89 54 90 63 91 55 92 56 93 62 94 64 95 57 96 58 97
REMARK SMILES IDX 59 98 60 99 61 100
REMARK H PARENT 16 7 12 16 23 31 85 50 51 61
REMARK Flexibility Score: inf
ROOT
ATOM      1  C   UNL A   1      31.572  28.133  27.174  1.00  0.00     0.002 C 
ENDROOT
BRANCH   1   2
ATOM      2  C   UNL A   1      30.929  26.933  26.481  1.00  0.00     0.021 C 
BRANCH   2   3
ATOM      3  C   UNL A   1      31.879  25.769  26.259  1.00  0.00     0.116 C 
BRANCH   3   4
ATOM      4  N   UNL A   1      31.209  24.496  26.290  1.00  0.00    -0.354 N 
ATOM      5  C   UNL A   1      31.500  23.329  25.662  1.00  0.00     0.245 C 
ATOM      6  O   UNL A   1      30.835  22.350  26.035  1.00  0.00    -0.272 OA
ATOM      7  H   UNL A   1      30.406  24.467  26.860  1.00  0.00     0.163 HD
BRANCH   5   8
ATOM      8  C   UNL A   1      32.675  23.161  24.635  1.00  0.00     0.119 C 
ATOM      9  C   UNL A   1      32.608  21.798  23.917  1.00  0.00     0.038 C 
ATOM     10  C   UNL A   1      34.117  23.265  25.162  1.00  0.00     0.038 C 
ATOM     11  C   UNL A   1      33.779  20.953  24.397  1.00  0.00     0.003 C 
ATOM     12  C   UNL A   1      34.798  21.907  24.995  1.00  0.00     0.003 C 
BRANCH   8  13
ATOM     13  N   UNL A   1      32.392  24.206  23.629  1.00  0.00    -0.341 N 
ATOM     14  O   UNL A   1      34.017  23.665  22.087  1.00  0.00    -0.275 OA
ATOM     15  C   UNL A   1      33.080  24.370  22.445  1.00  0.00     0.225 C 
ATOM     16  H   UNL A   1      31.656  24.832  23.818  1.00  0.00     0.164 HD
BRANCH  15  17
ATOM     17  C   UNL A   1      32.563  25.518  21.598  1.00  0.00     0.135 C 
BRANCH  17  18
ATOM     18  C   UNL A   1      32.069  26.737  22.360  1.00  0.00    -0.036 A 
ATOM     19  C   UNL A   1      30.685  26.984  22.400  1.00  0.00     0.007 A 
ATOM     20  C   UNL A   1      32.924  27.679  22.958  1.00  0.00     0.046 A 
ATOM     21  C   UNL A   1      30.176  28.128  23.021  1.00  0.00     0.043 A 
ATOM     22  C   UNL A   1      32.411  28.822  23.567  1.00  0.00     0.159 A 
ATOM     23  C   UNL A   1      31.045  29.046  23.598  1.00  0.00     0.158 A 
ATOM     24  F   UNL A   1      33.257  29.709  24.108  1.00  0.00    -0.204 F 
ATOM     25  F   UNL A   1      30.554  30.150  24.174  1.00  0.00    -0.204 F 
ENDBRANCH  17  18
ENDBRANCH  15  17
ENDBRANCH   8  13
ENDBRANCH   5   8
ENDBRANCH   3   4
ENDBRANCH   2   3
ENDBRANCH   1   2
BRANCH   1  26
ATOM     26  C   UNL A   1      33.106  28.132  27.178  1.00  0.00     0.002 C 
BRANCH  26  27
ATOM     27  C   UNL A   1      33.759  29.512  27.301  1.00  0.00     0.021 C 
BRANCH  27  28
ATOM     28  C   UNL A   1      35.163  29.498  27.899  1.00  0.00     0.116 C 
BRANCH  28  29
ATOM     29  N   UNL A   1      35.279  30.410  29.025  1.00  0.00    -0.352 N 
ATOM     30  C   UNL A   1      36.333  30.607  29.882  1.00  0.00     0.251 C 
ATOM     31  H   UNL A   1      34.486  30.967  29.198  1.00  0.00     0.163 HD
ATOM     32  O   UNL A   1      36.177  31.252  30.911  1.00  0.00    -0.269 OA
BRANCH  30  33
ATOM     33  C   UNL A   1      37.649  30.018  29.559  1.00  0.00     0.039 A 
ATOM     34  C   UNL A   1      38.052  29.953  28.224  1.00  0.00     0.014 A 
ATOM     35  C   UNL A   1      38.485  29.546  30.576  1.00  0.00     0.014 A 
ATOM     36  C   UNL A   1      39.327  29.479  27.914  1.00  0.00     0.010 A 
ATOM     37  C   UNL A   1      39.780  29.142  30.271  1.00  0.00     0.010 A 
ATOM     38  C   UNL A   1      40.217  29.110  28.938  1.00  0.00    -0.014 A 
BRANCH  38  39
ATOM     39  C   UNL A   1      41.618  28.721  28.639  1.00  0.00     0.031 A 
ATOM     40  C   UNL A   1      42.704  29.760  28.617  1.00  0.00     0.074 A 
ATOM     41  C   UNL A   1      41.894  27.442  28.314  1.00  0.00     0.049 A 
ATOM     42  N   UNL A   1      43.964  29.629  28.293  1.00  0.00    -0.248 NA
ATOM     43  C   UNL A   1      42.318  31.133  28.985  1.00  0.00     0.031 C 
ATOM     44  C   UNL A   1      40.915  26.354  28.260  1.00  0.00     0.029 A 
ATOM     45  N   UNL A   1      43.074  26.843  27.950  1.00  0.00    -0.354 N 
ATOM     46  C   UNL A   1      44.520  30.898  28.408  1.00  0.00     0.074 A 
ATOM     47  C   UNL A   1      43.448  31.795  28.782  1.00  0.00     0.031 C 
ATOM     48  C   UNL A   1      41.537  25.219  27.905  1.00  0.00     0.029 A 
ATOM     49  C   UNL A   1      42.946  25.506  27.657  1.00  0.00     0.049 A 
ATOM     50  H   UNL A   1      43.931  27.326  27.904  1.00  0.00     0.167 HD
ATOM     51  C   UNL A   1      45.809  31.274  28.237  1.00  0.00     0.037 A 
ATOM     52  C   UNL A   1      43.856  24.614  27.219  1.00  0.00     0.037 A 
ATOM     53  C   UNL A   1      46.871  30.370  27.875  1.00  0.00     0.049 A 
ATOM     54  C   UNL A   1      45.276  25.064  27.006  1.00  0.00     0.074 A 
ATOM     55  C   UNL A   1      48.220  30.642  27.733  1.00  0.00     0.029 A 
ATOM     56  N   UNL A   1      46.703  29.022  27.589  1.00  0.00    -0.354 N 
ATOM     57  N   UNL A   1      45.799  26.254  27.186  1.00  0.00    -0.248 NA
ATOM     58  C   UNL A   1      46.230  24.053  26.530  1.00  0.00     0.031 C 
ATOM     59  C   UNL A   1      48.859  29.474  27.304  1.00  0.00     0.029 A 
ATOM     60  C   UNL A   1      47.919  28.457  27.238  1.00  0.00     0.049 A 
ATOM     61  H   UNL A   1      45.847  28.538  27.631  1.00  0.00     0.167 HD
ATOM     62  C   UNL A   1      47.147  26.129  26.867  1.00  0.00     0.074 A 
ATOM     63  C   UNL A   1      47.362  24.743  26.502  1.00  0.00     0.031 C 
ATOM     64  C   UNL A   1      48.118  27.075  26.875  1.00  0.00     0.037 A 
BRANCH  51  65
ATOM     65  C   UNL A   1      46.147  32.728  28.434  1.00  0.00     0.058 A 
ATOM     66  C   UNL A   1      46.089  33.650  27.376  1.00  0.00     0.135 A 
ATOM     67  C   UNL A   1      46.495  33.215  29.704  1.00  0.00     0.135 A 
ATOM     68  F   UNL A   1      45.778  33.239  26.136  1.00  0.00    -0.206 F 
ATOM     69  C   UNL A   1      46.390  34.995  27.564  1.00  0.00     0.059 A 
ATOM     70  C   UNL A   1      46.769  34.562  29.923  1.00  0.00     0.059 A 
ATOM     71  F   UNL A   1      46.567  32.378  30.752  1.00  0.00    -0.206 F 
ATOM     72  C   UNL A   1      46.728  35.442  28.843  1.00  0.00     0.060 A 
BRANCH  72  73
ATOM     73  S   UNL A   1      47.107  37.191  29.069  1.00  0.00     0.124 S 
ATOM     74  O   UNL A   1      48.230  37.368  28.154  1.00  0.00    -0.237 OA
ATOM     75  O   UNL A   1      45.858  37.835  28.671  1.00  0.00    -0.237 OA
ATOM     76  O   UNL A   1      47.434  37.289  30.489  1.00  0.00    -0.744 OA
ENDBRANCH  72  73
ENDBRANCH  51  65
BRANCH  52  77
ATOM     77  C   UNL A   1      43.452  23.206  26.955  1.00  0.00     0.058 A 
ATOM     78  C   UNL A   1      43.314  22.728  25.643  1.00  0.00     0.135 A 
ATOM     79  C   UNL A   1      43.207  22.308  28.006  1.00  0.00     0.135 A 
ATOM     80  F   UNL A   1      43.530  23.549  24.604  1.00  0.00    -0.206 F 
ATOM     81  C   UNL A   1      42.931  21.416  25.382  1.00  0.00     0.059 A 
ATOM     82  C   UNL A   1      42.851  20.984  27.770  1.00  0.00     0.059 A 
ATOM     83  F   UNL A   1      43.340  22.710  29.280  1.00  0.00    -0.206 F 
ATOM     84  C   UNL A   1      42.706  20.551  26.453  1.00  0.00     0.060 A 
BRANCH  84  85
ATOM     85  S   UNL A   1      42.257  18.837  26.102  1.00  0.00     0.124 S 
ATOM     86  O   UNL A   1      42.506  18.199  27.389  1.00  0.00    -0.237 OA
ATOM     87  O   UNL A   1      40.857  18.963  25.710  1.00  0.00    -0.237 OA
ATOM     88  O   UNL A   1      43.170  18.465  25.025  1.00  0.00    -0.744 OA
ENDBRANCH  84  85
ENDBRANCH  52  77
BRANCH  64  89
ATOM     89  C   UNL A   1      49.509  26.644  26.496  1.00  0.00     0.058 A 
ATOM     90  C   UNL A   1      50.381  26.062  27.429  1.00  0.00     0.135 A 
ATOM     91  C   UNL A   1      49.955  26.763  25.169  1.00  0.00     0.135 A 
ATOM     92  F   UNL A   1      50.009  25.932  28.713  1.00  0.00    -0.206 F 
ATOM     93  C   UNL A   1      51.654  25.633  27.066  1.00  0.00     0.059 A 
ATOM     94  C   UNL A   1      51.211  26.312  24.777  1.00  0.00     0.059 A 
ATOM     95  F   UNL A   1      49.158  27.303  24.233  1.00  0.00    -0.206 F 
ATOM     96  C   UNL A   1      52.058  25.758  25.736  1.00  0.00     0.060 A 
BRANCH  96  97
ATOM     97  S   UNL A   1      53.697  25.159  25.271  1.00  0.00     0.124 S 
ATOM     98  O   UNL A   1      53.516  23.713  25.353  1.00  0.00    -0.237 OA
ATOM     99  O   UNL A   1      53.856  25.703  23.926  1.00  0.00    -0.237 OA
ATOM    100  O   UNL A   1      54.572  25.741  26.285  1.00  0.00    -0.744 OA
ENDBRANCH  96  97
ENDBRANCH  64  89
ENDBRANCH  38  39
ENDBRANCH  30  33
ENDBRANCH  28  29
ENDBRANCH  27  28
ENDBRANCH  26  27
ENDBRANCH   1  26
TORSDOF 19
ENDMDL
MODEL 3
REMARK VINA RESULT:     -10.9      5.031     10.588
REMARK SMILES O=C(Cc1ccc(F)c(F)c1)NC1(C(=O)NCCCCCCNC(=O)c2ccc(-c3c4nc(c(-c5c(F)cc(S(=O)(=O)[O-])cc5F)c5ccc([nH]5)c(-c5c(F)cc(S(=O)(=O)[O-])cc5F)c5nc(c(-c6c(F)cc(S(=O)(=O)[O-])cc6F)c6ccc3[nH]6)C=C5)C=C4)cc2)CCCC1
REMARK SMILES IDX 19 1 18 2 17 3 16 4 14 5 15 6 13 8 92 9 95 10 93 11 94 12
REMARK SMILES IDX 12 13 1 14 2 15 3 17 4 18 5 19 11 20 6 21 9 22 7 23 10 24
REMARK SMILES IDX 8 25 20 26 21 27 22 28 23 29 24 30 25 32 26 33 27 34 91 35
REMARK SMILES IDX 28 36 90 37 29 38 30 39 31 40 84 41 32 42 89 43 83 44 85 45
REMARK SMILES IDX 33 46 88 47 82 48 81 49 34 51 68 52 47 53 67 54 48 55 51 56
REMARK SMILES IDX 66 57 86 58 49 59 50 60 65 62 87 63 52 64 35 65 36 66 45 67
REMARK SMILES IDX 37 68 38 69 44 70 46 71 39 72 40 73 41 74 42 75 43 76 69 77
REMARK SMILES IDX 70 78 79 79 71 80 72 81 78 82 80 83 73 84 74 85 75 86 76 87
REMARK SMILES IDX 77 88 53 89 54 90 63 91 55 92 56 93 62 94 64 95 57 96 58 97
REMARK SMILES IDX 59 98 60 99 61 100
REMARK H PARENT 16 7 12 16 23 31 85 50 51 61
REMARK Flexibility Score: inf
ROOT
ATOM      1  C   UNL A   1      39.134  21.977  26.299  1.00  0.00     0.002 C 
ENDROOT
BRANCH   1   2
ATOM      2  C   UNL A   1      38.677  23.432  26.391  1.00  0.00     0.021 C 
BRANCH   2   3
ATOM      3  C   UNL A   1      37.317  23.691  25.764  1.00  0.00     0.116 C 
BRANCH   3   4
ATOM      4  N   UNL A   1      37.248  23.249  24.397  1.00  0.00    -0.354 N 
ATOM      5  C   UNL A   1      36.188  23.142  23.556  1.00  0.00     0.245 C 
ATOM      6  O   UNL A   1      36.476  22.902  22.374  1.00  0.00    -0.272 OA
ATOM      7  H   UNL A   1      38.111  22.979  24.007  1.00  0.00     0.163 HD
BRANCH   5   8
ATOM      8  C   UNL A   1      34.704  23.426  23.983  1.00  0.00     0.119 C 
ATOM      9  C   UNL A   1      34.143  24.677  23.279  1.00  0.00     0.038 C 
ATOM     10  C   UNL A   1      34.411  23.644  25.478  1.00  0.00     0.038 C 
ATOM     11  C   UNL A   1      33.962  25.767  24.324  1.00  0.00     0.003 C 
ATOM     12  C   UNL A   1      33.936  25.083  25.678  1.00  0.00     0.003 C 
BRANCH   8  13
ATOM     13  N   UNL A   1      33.974  22.254  23.456  1.00  0.00    -0.341 N 
ATOM     14  O   UNL A   1      32.028  22.471  24.673  1.00  0.00    -0.275 OA
ATOM     15  C   UNL A   1      32.704  21.876  23.841  1.00  0.00     0.225 C 
ATOM     16  H   UNL A   1      34.428  21.702  22.780  1.00  0.00     0.164 HD
BRANCH  15  17
ATOM     17  C   UNL A   1      32.198  20.639  23.123  1.00  0.00     0.135 C 
BRANCH  17  18
ATOM     18  C   UNL A   1      32.559  19.307  23.758  1.00  0.00    -0.036 A 
ATOM     19  C   UNL A   1      32.352  19.147  25.140  1.00  0.00     0.007 A 
ATOM     20  C   UNL A   1      33.168  18.251  23.058  1.00  0.00     0.046 A 
ATOM     21  C   UNL A   1      32.734  17.972  25.795  1.00  0.00     0.043 A 
ATOM     22  C   UNL A   1      33.555  17.087  23.716  1.00  0.00     0.159 A 
ATOM     23  C   UNL A   1      33.340  16.948  25.077  1.00  0.00     0.158 A 
ATOM     24  F   UNL A   1      34.152  16.110  23.020  1.00  0.00    -0.204 F 
ATOM     25  F   UNL A   1      33.722  15.832  25.712  1.00  0.00    -0.204 F 
ENDBRANCH  17  18
ENDBRANCH  15  17
ENDBRANCH   8  13
ENDBRANCH   5   8
ENDBRANCH   3   4
ENDBRANCH   2   3
ENDBRANCH   1   2
BRANCH   1  26
ATOM     26  C   UNL A   1      40.624  21.748  26.577  1.00  0.00     0.002 C 
BRANCH  26  27
ATOM     27  C   UNL A   1      41.105  22.182  27.964  1.00  0.00     0.021 C 
BRANCH  27  28
ATOM     28  C   UNL A   1      42.254  23.186  27.954  1.00  0.00     0.116 C 
BRANCH  28  29
ATOM     29  N   UNL A   1      42.419  23.804  26.649  1.00  0.00    -0.352 N 
ATOM     30  C   UNL A   1      42.126  25.083  26.246  1.00  0.00     0.251 C 
ATOM     31  H   UNL A   1      42.798  23.220  25.952  1.00  0.00     0.163 HD
ATOM     32  O   UNL A   1      42.119  25.367  25.055  1.00  0.00    -0.269 OA
BRANCH  30  33
ATOM     33  C   UNL A   1      41.800  26.105  27.262  1.00  0.00     0.039 A 
ATOM     34  C   UNL A   1      40.728  25.881  28.128  1.00  0.00     0.014 A 
ATOM     35  C   UNL A   1      42.562  27.273  27.365  1.00  0.00     0.014 A 
ATOM     36  C   UNL A   1      40.464  26.798  29.146  1.00  0.00     0.010 A 
ATOM     37  C   UNL A   1      42.343  28.148  28.423  1.00  0.00     0.010 A 
ATOM     38  C   UNL A   1      41.296  27.917  29.328  1.00  0.00    -0.014 A 
BRANCH  38  39
ATOM     39  C   UNL A   1      41.109  28.837  30.478  1.00  0.00     0.031 A 
ATOM     40  C   UNL A   1      41.949  28.683  31.715  1.00  0.00     0.074 A 
ATOM     41  C   UNL A   1      40.130  29.762  30.432  1.00  0.00     0.049 A 
ATOM     42  N   UNL A   1      41.874  29.331  32.848  1.00  0.00    -0.248 NA
ATOM     43  C   UNL A   1      42.997  27.649  31.683  1.00  0.00     0.031 C 
ATOM     44  C   UNL A   1      39.223  29.977  29.301  1.00  0.00     0.029 A 
ATOM     45  N   UNL A   1      39.720  30.683  31.363  1.00  0.00    -0.354 N 
ATOM     46  C   UNL A   1      42.853  28.780  33.667  1.00  0.00     0.074 A 
ATOM     47  C   UNL A   1      43.476  27.710  32.918  1.00  0.00     0.031 C 
ATOM     48  C   UNL A   1      38.379  30.977  29.598  1.00  0.00     0.029 A 
ATOM     49  C   UNL A   1      38.648  31.441  30.955  1.00  0.00     0.049 A 
ATOM     50  H   UNL A   1      40.154  30.790  32.241  1.00  0.00     0.167 HD
ATOM     51  C   UNL A   1      43.213  29.147  34.919  1.00  0.00     0.037 A 
ATOM     52  C   UNL A   1      37.948  32.391  31.606  1.00  0.00     0.037 A 
ATOM     53  C   UNL A   1      42.593  30.222  35.653  1.00  0.00     0.049 A 
ATOM     54  C   UNL A   1      38.347  32.759  33.010  1.00  0.00     0.074 A 
ATOM     55  C   UNL A   1      42.922  30.709  36.905  1.00  0.00     0.029 A 
ATOM     56  N   UNL A   1      41.512  30.969  35.205  1.00  0.00    -0.354 N 
ATOM     57  N   UNL A   1      39.321  32.275  33.744  1.00  0.00    -0.248 NA
ATOM     58  C   UNL A   1      37.553  33.801  33.675  1.00  0.00     0.031 C 
ATOM     59  C   UNL A   1      42.004  31.711  37.240  1.00  0.00     0.029 A 
ATOM     60  C   UNL A   1      41.140  31.890  36.171  1.00  0.00     0.049 A 
ATOM     61  H   UNL A   1      41.075  30.861  34.330  1.00  0.00     0.167 HD
ATOM     62  C   UNL A   1      39.271  32.969  34.947  1.00  0.00     0.074 A 
ATOM     63  C   UNL A   1      38.183  33.919  34.835  1.00  0.00     0.031 C 
ATOM     64  C   UNL A   1      40.053  32.830  36.046  1.00  0.00     0.037 A 
BRANCH  51  65
ATOM     65  C   UNL A   1      44.325  28.380  35.583  1.00  0.00     0.058 A 
ATOM     66  C   UNL A   1      45.669  28.763  35.450  1.00  0.00     0.135 A 
ATOM     67  C   UNL A   1      44.041  27.270  36.396  1.00  0.00     0.135 A 
ATOM     68  F   UNL A   1      46.001  29.807  34.674  1.00  0.00    -0.206 F 
ATOM     69  C   UNL A   1      46.693  28.060  36.076  1.00  0.00     0.059 A 
ATOM     70  C   UNL A   1      45.046  26.570  37.057  1.00  0.00     0.059 A 
ATOM     71  F   UNL A   1      42.773  26.858  36.558  1.00  0.00    -0.206 F 
ATOM     72  C   UNL A   1      46.371  26.963  36.879  1.00  0.00     0.060 A 
BRANCH  72  73
ATOM     73  S   UNL A   1      47.712  26.068  37.688  1.00  0.00     0.124 S 
ATOM     74  O   UNL A   1      47.273  26.082  39.081  1.00  0.00    -0.237 OA
ATOM     75  O   UNL A   1      47.665  24.769  37.023  1.00  0.00    -0.237 OA
ATOM     76  O   UNL A   1      48.889  26.879  37.394  1.00  0.00    -0.744 OA
ENDBRANCH  72  73
ENDBRANCH  51  65
BRANCH  52  77
ATOM     77  C   UNL A   1      36.800  33.060  30.936  1.00  0.00     0.058 A 
ATOM     78  C   UNL A   1      37.008  34.025  29.939  1.00  0.00     0.135 A 
ATOM     79  C   UNL A   1      35.474  32.741  31.269  1.00  0.00     0.135 A 
ATOM     80  F   UNL A   1      38.257  34.370  29.590  1.00  0.00    -0.206 F 
ATOM     81  C   UNL A   1      35.945  34.663  29.308  1.00  0.00     0.059 A 
ATOM     82  C   UNL A   1      34.394  33.344  30.632  1.00  0.00     0.059 A 
ATOM     83  F   UNL A   1      35.219  31.813  32.205  1.00  0.00    -0.206 F 
ATOM     84  C   UNL A   1      34.641  34.311  29.659  1.00  0.00     0.060 A 
BRANCH  84  85
ATOM     85  S   UNL A   1      33.268  35.110  28.799  1.00  0.00     0.124 S 
ATOM     86  O   UNL A   1      32.439  35.550  29.915  1.00  0.00    -0.237 OA
ATOM     87  O   UNL A   1      33.948  36.163  28.051  1.00  0.00    -0.237 OA
ATOM     88  O   UNL A   1      32.711  34.034  27.984  1.00  0.00    -0.744 OA
ENDBRANCH  84  85
ENDBRANCH  52  77
BRANCH  64  89
ATOM     89  C   UNL A   1      39.778  33.741  37.212  1.00  0.00     0.058 A 
ATOM     90  C   UNL A   1      38.837  33.410  38.201  1.00  0.00     0.135 A 
ATOM     91  C   UNL A   1      40.504  34.932  37.374  1.00  0.00     0.135 A 
ATOM     92  F   UNL A   1      38.108  32.287  38.092  1.00  0.00    -0.206 F 
ATOM     93  C   UNL A   1      38.610  34.238  39.295  1.00  0.00     0.059 A 
ATOM     94  C   UNL A   1      40.317  35.760  38.476  1.00  0.00     0.059 A 
ATOM     95  F   UNL A   1      41.423  35.292  36.464  1.00  0.00    -0.206 F 
ATOM     96  C   UNL A   1      39.359  35.409  39.427  1.00  0.00     0.060 A 
BRANCH  96  97
ATOM     97  S   UNL A   1      39.083  36.453  40.874  1.00  0.00     0.124 S 
ATOM     98  O   UNL A   1      38.497  37.644  40.270  1.00  0.00    -0.237 OA
ATOM     99  O   UNL A   1      38.177  35.636  41.676  1.00  0.00    -0.237 OA
ATOM    100  O   UNL A   1      40.422  36.624  41.431  1.00  0.00    -0.744 OA
ENDBRANCH  96  97
ENDBRANCH  64  89
ENDBRANCH  38  39
ENDBRANCH  30  33
ENDBRANCH  28  29
ENDBRANCH  27  28
ENDBRANCH  26  27
ENDBRANCH   1  26
TORSDOF 19
ENDMDL
