MODEL 1
REMARK VINA RESULT:     -11.7      0.000      0.000
REMARK SMILES Cc1ccc(Cl)c(Nc2ccccc2C(=O)NCC(=O)NCCCCCCNC(=O)c2ccc(-c3c4nc(c(-c5c(F)cc(S(=O)(=O)[O-])cc5F)c5ccc([nH]5)c(-c5c(F)cc(S(=O)(=O)[O-])cc5F)c5nc(c(-c6c(F)cc(S(=O)(=O)[O-])cc6F)c6ccc3[nH]6)C=C5)C=C4)cc2)c1Cl
REMARK SMILES IDX 24 1 23 2 22 3 21 4 19 5 20 6 18 8 17 9 15 10 16 11 14 13
REMARK SMILES IDX 9 14 10 15 11 16 13 17 12 18 8 19 7 21 1 22 2 23 3 24 97 25
REMARK SMILES IDX 4 26 98 27 5 28 6 29 25 30 26 31 27 32 28 33 29 34 30 36
REMARK SMILES IDX 31 37 32 38 96 39 33 40 95 41 34 42 35 43 36 44 89 45 37 46
REMARK SMILES IDX 94 47 88 48 90 49 38 50 93 51 87 52 86 53 39 55 73 56 52 57
REMARK SMILES IDX 72 58 53 59 56 60 71 61 91 62 54 63 55 64 70 66 92 67 57 68
REMARK SMILES IDX 40 69 41 70 50 71 42 72 43 73 49 74 51 75 44 76 45 77 46 78
REMARK SMILES IDX 47 79 48 80 74 81 75 82 84 83 76 84 77 85 83 86 85 87 78 88
REMARK SMILES IDX 79 89 80 90 81 91 82 92 58 93 59 94 68 95 60 96 61 97 67 98
REMARK SMILES IDX 69 99 62 100 63 101 64 102 65 103 66 104
REMARK H PARENT 21 7 17 12 8 20 28 35 90 54 56 65
REMARK Flexibility Score: inf
ROOT
ATOM      1  C   UNL A   1      32.446  26.936  24.293  1.00  0.00     0.002 C 
ENDROOT
BRANCH   1   2
ATOM      2  C   UNL A   1      31.564  25.703  24.066  1.00  0.00     0.021 C 
BRANCH   2   3
ATOM      3  C   UNL A   1      31.652  25.206  22.629  1.00  0.00     0.116 C 
BRANCH   3   4
ATOM      4  N   UNL A   1      33.016  24.841  22.341  1.00  0.00    -0.355 N 
ATOM      5  C   UNL A   1      33.544  23.588  22.394  1.00  0.00     0.239 C 
ATOM      6  O   UNL A   1      34.770  23.468  22.353  1.00  0.00    -0.273 OA
ATOM      7  H   UNL A   1      33.625  25.570  22.079  1.00  0.00     0.163 HD
BRANCH   5   8
ATOM      8  C   UNL A   1      32.627  22.384  22.197  1.00  0.00     0.216 C 
BRANCH   8   9
ATOM      9  N   UNL A   1      31.772  21.782  23.196  1.00  0.00    -0.343 N 
ATOM     10  C   UNL A   1      32.074  20.912  24.224  1.00  0.00     0.253 C 
ATOM     11  O   UNL A   1      31.410  21.077  25.253  1.00  0.00    -0.269 OA
ATOM     12  H   UNL A   1      30.822  22.033  23.133  1.00  0.00     0.164 HD
BRANCH  10  13
ATOM     13  C   UNL A   1      32.924  19.667  24.121  1.00  0.00     0.063 A 
ATOM     14  C   UNL A   1      34.190  19.338  24.663  1.00  0.00     0.051 A 
ATOM     15  C   UNL A   1      34.776  18.099  24.286  1.00  0.00     0.027 A 
ATOM     16  C   UNL A   1      34.127  17.170  23.474  1.00  0.00     0.002 A 
ATOM     17  C   UNL A   1      32.285  18.692  23.303  1.00  0.00     0.016 A 
ATOM     18  C   UNL A   1      32.864  17.460  22.996  1.00  0.00     0.001 A 
BRANCH  14  19
ATOM     19  N   UNL A   1      34.926  20.009  25.663  1.00  0.00    -0.352 N 
ATOM     20  H   UNL A   1      34.948  19.525  26.520  1.00  0.00     0.167 HD
BRANCH  19  21
ATOM     21  C   UNL A   1      35.641  21.234  25.698  1.00  0.00     0.077 A 
ATOM     22  C   UNL A   1      34.971  24.998  25.812  1.00  0.00     0.046 C 
ATOM     23  C   UNL A   1      35.668  23.677  25.628  1.00  0.00    -0.030 A 
ATOM     24  C   UNL A   1      36.920  23.642  24.996  1.00  0.00     0.006 A 
ATOM     25  C   UNL A   1      35.055  22.471  26.021  1.00  0.00     0.069 A 
ATOM     26  C   UNL A   1      37.580  22.433  24.798  1.00  0.00     0.023 A 
ATOM     27  Cl  UNL A   1      33.621  22.541  27.000  1.00  0.00    -0.082 Cl
ATOM     28  C   UNL A   1      36.952  21.243  25.158  1.00  0.00     0.066 A 
ATOM     29  Cl  UNL A   1      37.764  19.756  24.778  1.00  0.00    -0.082 Cl
ENDBRANCH  19  21
ENDBRANCH  14  19
ENDBRANCH  10  13
ENDBRANCH   8   9
ENDBRANCH   5   8
ENDBRANCH   3   4
ENDBRANCH   2   3
ENDBRANCH   1   2
BRANCH   1  30
ATOM     30  C   UNL A   1      31.907  27.886  25.368  1.00  0.00     0.002 C 
BRANCH  30  31
ATOM     31  C   UNL A   1      32.506  27.653  26.756  1.00  0.00     0.021 C 
BRANCH  31  32
ATOM     32  C   UNL A   1      33.845  28.349  26.964  1.00  0.00     0.116 C 
BRANCH  32  33
ATOM     33  N   UNL A   1      33.661  29.733  27.374  1.00  0.00    -0.352 N 
ATOM     34  C   UNL A   1      34.498  30.521  28.119  1.00  0.00     0.251 C 
ATOM     35  H   UNL A   1      32.825  30.159  27.076  1.00  0.00     0.163 HD
ATOM     36  O   UNL A   1      34.100  31.578  28.591  1.00  0.00    -0.269 OA
BRANCH  34  37
ATOM     37  C   UNL A   1      35.882  30.065  28.348  1.00  0.00     0.039 A 
ATOM     38  C   UNL A   1      36.801  30.136  27.301  1.00  0.00     0.014 A 
ATOM     39  C   UNL A   1      36.266  29.588  29.606  1.00  0.00     0.014 A 
ATOM     40  C   UNL A   1      38.126  29.765  27.531  1.00  0.00     0.010 A 
ATOM     41  C   UNL A   1      37.601  29.293  29.851  1.00  0.00     0.010 A 
ATOM     42  C   UNL A   1      38.541  29.368  28.813  1.00  0.00    -0.014 A 
BRANCH  42  43
ATOM     43  C   UNL A   1      39.955  29.017  29.085  1.00  0.00     0.031 A 
ATOM     44  C   UNL A   1      40.886  30.043  29.668  1.00  0.00     0.074 A 
ATOM     45  C   UNL A   1      40.412  27.796  28.746  1.00  0.00     0.049 A 
ATOM     46  N   UNL A   1      42.163  29.945  29.928  1.00  0.00    -0.248 NA
ATOM     47  C   UNL A   1      40.311  31.364  29.968  1.00  0.00     0.031 C 
ATOM     48  C   UNL A   1      39.614  26.739  28.120  1.00  0.00     0.029 A 
ATOM     49  N   UNL A   1      41.660  27.242  28.869  1.00  0.00    -0.354 N 
ATOM     50  C   UNL A   1      42.546  31.190  30.411  1.00  0.00     0.074 A 
ATOM     51  C   UNL A   1      41.381  32.045  30.348  1.00  0.00     0.031 C 
ATOM     52  C   UNL A   1      40.387  25.658  27.934  1.00  0.00     0.029 A 
ATOM     53  C   UNL A   1      41.741  25.956  28.390  1.00  0.00     0.049 A 
ATOM     54  H   UNL A   1      42.425  27.720  29.263  1.00  0.00     0.167 HD
ATOM     55  C   UNL A   1      43.754  31.578  30.887  1.00  0.00     0.037 A 
ATOM     56  C   UNL A   1      42.790  25.115  28.321  1.00  0.00     0.037 A 
ATOM     57  C   UNL A   1      44.903  30.714  30.956  1.00  0.00     0.049 A 
ATOM     58  C   UNL A   1      44.122  25.561  28.857  1.00  0.00     0.074 A 
ATOM     59  C   UNL A   1      46.156  30.986  31.474  1.00  0.00     0.029 A 
ATOM     60  N   UNL A   1      44.942  29.408  30.484  1.00  0.00    -0.354 N 
ATOM     61  N   UNL A   1      44.451  26.719  29.380  1.00  0.00    -0.248 NA
ATOM     62  C   UNL A   1      45.220  24.589  28.805  1.00  0.00     0.031 C 
ATOM     63  C   UNL A   1      46.967  29.864  31.270  1.00  0.00     0.029 A 
ATOM     64  C   UNL A   1      46.204  28.871  30.675  1.00  0.00     0.049 A 
ATOM     65  H   UNL A   1      44.183  28.934  30.072  1.00  0.00     0.167 HD
ATOM     66  C   UNL A   1      45.790  26.607  29.739  1.00  0.00     0.074 A 
ATOM     67  C   UNL A   1      46.203  25.264  29.384  1.00  0.00     0.031 C 
ATOM     68  C   UNL A   1      46.600  27.532  30.312  1.00  0.00     0.037 A 
BRANCH  55  69
ATOM     69  C   UNL A   1      43.886  33.001  31.361  1.00  0.00     0.058 A 
ATOM     70  C   UNL A   1      44.307  34.031  30.503  1.00  0.00     0.135 A 
ATOM     71  C   UNL A   1      43.591  33.342  32.691  1.00  0.00     0.135 A 
ATOM     72  F   UNL A   1      44.616  33.762  29.224  1.00  0.00    -0.206 F 
ATOM     73  C   UNL A   1      44.479  35.334  30.956  1.00  0.00     0.059 A 
ATOM     74  C   UNL A   1      43.724  34.647  33.159  1.00  0.00     0.059 A 
ATOM     75  F   UNL A   1      43.181  32.401  33.556  1.00  0.00    -0.206 F 
ATOM     76  C   UNL A   1      44.191  35.631  32.289  1.00  0.00     0.060 A 
BRANCH  76  77
ATOM     77  S   UNL A   1      44.445  37.321  32.870  1.00  0.00     0.124 S 
ATOM     78  O   UNL A   1      43.612  37.344  34.069  1.00  0.00    -0.237 OA
ATOM     79  O   UNL A   1      45.885  37.360  33.101  1.00  0.00    -0.237 OA
ATOM     80  O   UNL A   1      43.968  38.138  31.760  1.00  0.00    -0.744 OA
ENDBRANCH  76  77
ENDBRANCH  55  69
BRANCH  56  81
ATOM     81  C   UNL A   1      42.601  23.758  27.743  1.00  0.00     0.058 A 
ATOM     82  C   UNL A   1      42.650  23.549  26.357  1.00  0.00     0.135 A 
ATOM     83  C   UNL A   1      42.428  22.636  28.569  1.00  0.00     0.135 A 
ATOM     84  F   UNL A   1      42.808  24.591  25.527  1.00  0.00    -0.206 F 
ATOM     85  C   UNL A   1      42.534  22.276  25.808  1.00  0.00     0.059 A 
ATOM     86  C   UNL A   1      42.335  21.351  28.045  1.00  0.00     0.059 A 
ATOM     87  F   UNL A   1      42.394  22.781  29.903  1.00  0.00    -0.206 F 
ATOM     88  C   UNL A   1      42.387  21.181  26.662  1.00  0.00     0.060 A 
BRANCH  88  89
ATOM     89  S   UNL A   1      42.325  19.525  25.943  1.00  0.00     0.124 S 
ATOM     90  O   UNL A   1      40.905  19.384  25.649  1.00  0.00    -0.237 OA
ATOM     91  O   UNL A   1      43.209  19.661  24.789  1.00  0.00    -0.237 OA
ATOM     92  O   UNL A   1      42.837  18.675  27.015  1.00  0.00    -0.744 OA
ENDBRANCH  88  89
ENDBRANCH  56  81
BRANCH  68  93
ATOM     93  C   UNL A   1      48.015  27.117  30.616  1.00  0.00     0.058 A 
ATOM     94  C   UNL A   1      49.086  27.480  29.785  1.00  0.00     0.135 A 
ATOM     95  C   UNL A   1      48.307  26.396  31.785  1.00  0.00     0.135 A 
ATOM     96  F   UNL A   1      48.862  28.163  28.652  1.00  0.00    -0.206 F 
ATOM     97  C   UNL A   1      50.395  27.121  30.091  1.00  0.00     0.059 A 
ATOM     98  C   UNL A   1      49.611  26.052  32.126  1.00  0.00     0.059 A 
ATOM     99  F   UNL A   1      47.320  26.033  32.621  1.00  0.00    -0.206 F 
ATOM    100  C   UNL A   1      50.648  26.410  31.265  1.00  0.00     0.060 A 
BRANCH 100 101
ATOM    101  S   UNL A   1      52.355  25.982  31.667  1.00  0.00     0.124 S 
ATOM    102  O   UNL A   1      52.189  24.680  32.306  1.00  0.00    -0.237 OA
ATOM    103  O   UNL A   1      52.991  25.968  30.354  1.00  0.00    -0.237 OA
ATOM    104  O   UNL A   1      52.778  27.064  32.550  1.00  0.00    -0.744 OA
ENDBRANCH 100 101
ENDBRANCH  68  93
ENDBRANCH  42  43
ENDBRANCH  34  37
ENDBRANCH  32  33
ENDBRANCH  31  32
ENDBRANCH  30  31
ENDBRANCH   1  30
TORSDOF 20
ENDMDL
MODEL 2
REMARK VINA RESULT:     -10.9      4.589     10.307
REMARK SMILES Cc1ccc(Cl)c(Nc2ccccc2C(=O)NCC(=O)NCCCCCCNC(=O)c2ccc(-c3c4nc(c(-c5c(F)cc(S(=O)(=O)[O-])cc5F)c5ccc([nH]5)c(-c5c(F)cc(S(=O)(=O)[O-])cc5F)c5nc(c(-c6c(F)cc(S(=O)(=O)[O-])cc6F)c6ccc3[nH]6)C=C5)C=C4)cc2)c1Cl
REMARK SMILES IDX 24 1 23 2 22 3 21 4 19 5 20 6 18 8 17 9 15 10 16 11 14 13
REMARK SMILES IDX 9 14 10 15 11 16 13 17 12 18 8 19 7 21 1 22 2 23 3 24 97 25
REMARK SMILES IDX 4 26 98 27 5 28 6 29 25 30 26 31 27 32 28 33 29 34 30 36
REMARK SMILES IDX 31 37 32 38 96 39 33 40 95 41 34 42 35 43 36 44 89 45 37 46
REMARK SMILES IDX 94 47 88 48 90 49 38 50 93 51 87 52 86 53 39 55 73 56 52 57
REMARK SMILES IDX 72 58 53 59 56 60 71 61 91 62 54 63 55 64 70 66 92 67 57 68
REMARK SMILES IDX 40 69 41 70 50 71 42 72 43 73 49 74 51 75 44 76 45 77 46 78
REMARK SMILES IDX 47 79 48 80 74 81 75 82 84 83 76 84 77 85 83 86 85 87 78 88
REMARK SMILES IDX 79 89 80 90 81 91 82 92 58 93 59 94 68 95 60 96 61 97 67 98
REMARK SMILES IDX 69 99 62 100 63 101 64 102 65 103 66 104
REMARK H PARENT 21 7 17 12 8 20 28 35 90 54 56 65
REMARK Flexibility Score: inf
ROOT
ATOM      1  C   UNL A   1      42.882  20.893  26.625  1.00  0.00     0.002 C 
ENDROOT
BRANCH   1   2
ATOM      2  C   UNL A   1      41.802  21.365  27.606  1.00  0.00     0.021 C 
BRANCH   2   3
ATOM      3  C   UNL A   1      40.414  21.320  26.979  1.00  0.00     0.116 C 
BRANCH   3   4
ATOM      4  N   UNL A   1      39.785  22.607  27.139  1.00  0.00    -0.355 N 
ATOM      5  C   UNL A   1      38.794  23.121  26.361  1.00  0.00     0.239 C 
ATOM      6  O   UNL A   1      38.524  24.320  26.474  1.00  0.00    -0.273 OA
ATOM      7  H   UNL A   1      40.104  23.168  27.883  1.00  0.00     0.163 HD
BRANCH   5   8
ATOM      8  C   UNL A   1      37.860  22.171  25.618  1.00  0.00     0.216 C 
BRANCH   8   9
ATOM      9  N   UNL A   1      37.243  22.403  24.331  1.00  0.00    -0.343 N 
ATOM     10  C   UNL A   1      35.966  22.821  24.016  1.00  0.00     0.253 C 
ATOM     11  O   UNL A   1      35.892  23.549  23.019  1.00  0.00    -0.269 OA
ATOM     12  H   UNL A   1      37.826  22.237  23.556  1.00  0.00     0.164 HD
BRANCH  10  13
ATOM     13  C   UNL A   1      34.679  22.283  24.598  1.00  0.00     0.063 A 
ATOM     14  C   UNL A   1      33.578  22.927  25.212  1.00  0.00     0.051 A 
ATOM     15  C   UNL A   1      32.549  22.112  25.759  1.00  0.00     0.027 A 
ATOM     16  C   UNL A   1      32.544  20.723  25.647  1.00  0.00     0.002 A 
ATOM     17  C   UNL A   1      34.637  20.864  24.492  1.00  0.00     0.016 A 
ATOM     18  C   UNL A   1      33.585  20.096  24.991  1.00  0.00     0.001 A 
BRANCH  14  19
ATOM     19  N   UNL A   1      33.262  24.302  25.246  1.00  0.00    -0.352 N 
ATOM     20  H   UNL A   1      33.154  24.653  26.160  1.00  0.00     0.167 HD
BRANCH  19  21
ATOM     21  C   UNL A   1      33.068  25.288  24.245  1.00  0.00     0.077 A 
ATOM     22  C   UNL A   1      32.689  25.549  20.447  1.00  0.00     0.046 C 
ATOM     23  C   UNL A   1      32.929  25.917  21.886  1.00  0.00    -0.030 A 
ATOM     24  C   UNL A   1      33.460  27.178  22.195  1.00  0.00     0.006 A 
ATOM     25  C   UNL A   1      32.688  24.993  22.922  1.00  0.00     0.069 A 
ATOM     26  C   UNL A   1      33.707  27.539  23.516  1.00  0.00     0.023 A 
ATOM     27  Cl  UNL A   1      31.824  23.530  22.557  1.00  0.00    -0.082 Cl
ATOM     28  C   UNL A   1      33.499  26.608  24.530  1.00  0.00     0.066 A 
ATOM     29  Cl  UNL A   1      33.938  27.066  26.147  1.00  0.00    -0.082 Cl
ENDBRANCH  19  21
ENDBRANCH  14  19
ENDBRANCH  10  13
ENDBRANCH   8   9
ENDBRANCH   5   8
ENDBRANCH   3   4
ENDBRANCH   2   3
ENDBRANCH   1   2
BRANCH   1  30
ATOM     30  C   UNL A   1      43.741  22.032  26.066  1.00  0.00     0.002 C 
BRANCH  30  31
ATOM     31  C   UNL A   1      44.347  22.935  27.143  1.00  0.00     0.021 C 
BRANCH  31  32
ATOM     32  C   UNL A   1      44.408  24.403  26.740  1.00  0.00     0.116 C 
BRANCH  32  33
ATOM     33  N   UNL A   1      43.406  24.715  25.734  1.00  0.00    -0.352 N 
ATOM     34  C   UNL A   1      42.264  25.461  25.869  1.00  0.00     0.251 C 
ATOM     35  H   UNL A   1      43.570  24.342  24.838  1.00  0.00     0.163 HD
ATOM     36  O   UNL A   1      41.397  25.431  25.005  1.00  0.00    -0.269 OA
BRANCH  34  37
ATOM     37  C   UNL A   1      42.099  26.291  27.077  1.00  0.00     0.039 A 
ATOM     38  C   UNL A   1      42.771  27.511  27.158  1.00  0.00     0.014 A 
ATOM     39  C   UNL A   1      41.264  25.864  28.115  1.00  0.00     0.014 A 
ATOM     40  C   UNL A   1      42.569  28.328  28.271  1.00  0.00     0.010 A 
ATOM     41  C   UNL A   1      41.006  26.713  29.183  1.00  0.00     0.010 A 
ATOM     42  C   UNL A   1      41.665  27.947  29.277  1.00  0.00    -0.014 A 
BRANCH  42  43
ATOM     43  C   UNL A   1      41.402  28.825  30.442  1.00  0.00     0.031 A 
ATOM     44  C   UNL A   1      42.238  28.695  31.685  1.00  0.00     0.074 A 
ATOM     45  C   UNL A   1      40.372  29.691  30.400  1.00  0.00     0.049 A 
ATOM     46  N   UNL A   1      42.131  29.332  32.821  1.00  0.00    -0.248 NA
ATOM     47  C   UNL A   1      43.317  27.693  31.656  1.00  0.00     0.031 C 
ATOM     48  C   UNL A   1      39.457  29.862  29.270  1.00  0.00     0.029 A 
ATOM     49  N   UNL A   1      39.912  30.580  31.337  1.00  0.00    -0.354 N 
ATOM     50  C   UNL A   1      43.118  28.804  33.644  1.00  0.00     0.074 A 
ATOM     51  C   UNL A   1      43.771  27.750  32.899  1.00  0.00     0.031 C 
ATOM     52  C   UNL A   1      38.560  30.813  29.571  1.00  0.00     0.029 A 
ATOM     53  C   UNL A   1      38.811  31.293  30.927  1.00  0.00     0.049 A 
ATOM     54  H   UNL A   1      40.332  30.698  32.220  1.00  0.00     0.167 HD
ATOM     55  C   UNL A   1      43.464  29.179  34.899  1.00  0.00     0.037 A 
ATOM     56  C   UNL A   1      38.081  32.221  31.573  1.00  0.00     0.037 A 
ATOM     57  C   UNL A   1      42.813  30.239  35.626  1.00  0.00     0.049 A 
ATOM     58  C   UNL A   1      38.482  32.628  32.963  1.00  0.00     0.074 A 
ATOM     59  C   UNL A   1      43.122  30.740  36.878  1.00  0.00     0.029 A 
ATOM     60  N   UNL A   1      41.715  30.955  35.169  1.00  0.00    -0.354 N 
ATOM     61  N   UNL A   1      39.465  32.171  33.703  1.00  0.00    -0.248 NA
ATOM     62  C   UNL A   1      37.686  33.682  33.604  1.00  0.00     0.031 C 
ATOM     63  C   UNL A   1      42.181  31.724  37.198  1.00  0.00     0.029 A 
ATOM     64  C   UNL A   1      41.318  31.876  36.124  1.00  0.00     0.049 A 
ATOM     65  H   UNL A   1      41.282  30.826  34.294  1.00  0.00     0.167 HD
ATOM     66  C   UNL A   1      39.419  32.896  34.889  1.00  0.00     0.074 A 
ATOM     67  C   UNL A   1      38.318  33.830  34.760  1.00  0.00     0.031 C 
ATOM     68  C   UNL A   1      40.216  32.797  35.981  1.00  0.00     0.037 A 
BRANCH  55  69
ATOM     69  C   UNL A   1      44.591  28.431  35.559  1.00  0.00     0.058 A 
ATOM     70  C   UNL A   1      45.930  28.831  35.412  1.00  0.00     0.135 A 
ATOM     71  C   UNL A   1      44.333  27.296  36.346  1.00  0.00     0.135 A 
ATOM     72  F   UNL A   1      46.239  29.900  34.661  1.00  0.00    -0.206 F 
ATOM     73  C   UNL A   1      46.974  28.107  35.979  1.00  0.00     0.059 A 
ATOM     74  C   UNL A   1      45.359  26.575  36.950  1.00  0.00     0.059 A 
ATOM     75  F   UNL A   1      43.073  26.870  36.524  1.00  0.00    -0.206 F 
ATOM     76  C   UNL A   1      46.678  26.976  36.741  1.00  0.00     0.060 A 
BRANCH  76  77
ATOM     77  S   UNL A   1      48.044  26.031  37.447  1.00  0.00     0.124 S 
ATOM     78  O   UNL A   1      49.198  26.702  36.856  1.00  0.00    -0.237 OA
ATOM     79  O   UNL A   1      47.860  26.237  38.880  1.00  0.00    -0.237 OA
ATOM     80  O   UNL A   1      47.799  24.673  36.975  1.00  0.00    -0.744 OA
ENDBRANCH  76  77
ENDBRANCH  55  69
BRANCH  56  81
ATOM     81  C   UNL A   1      36.917  32.842  30.888  1.00  0.00     0.058 A 
ATOM     82  C   UNL A   1      35.604  32.486  31.227  1.00  0.00     0.135 A 
ATOM     83  C   UNL A   1      37.094  33.846  29.923  1.00  0.00     0.135 A 
ATOM     84  F   UNL A   1      35.384  31.527  32.140  1.00  0.00    -0.206 F 
ATOM     85  C   UNL A   1      34.506  33.103  30.636  1.00  0.00     0.059 A 
ATOM     86  C   UNL A   1      36.013  34.495  29.335  1.00  0.00     0.059 A 
ATOM     87  F   UNL A   1      38.331  34.236  29.577  1.00  0.00    -0.206 F 
ATOM     88  C   UNL A   1      34.721  34.114  29.698  1.00  0.00     0.060 A 
BRANCH  88  89
ATOM     89  S   UNL A   1      33.289  34.967  29.001  1.00  0.00     0.124 S 
ATOM     90  O   UNL A   1      32.462  35.168  30.184  1.00  0.00    -0.237 OA
ATOM     91  O   UNL A   1      33.897  36.166  28.432  1.00  0.00    -0.237 OA
ATOM     92  O   UNL A   1      32.774  34.012  28.023  1.00  0.00    -0.744 OA
ENDBRANCH  88  89
ENDBRANCH  56  81
BRANCH  68  93
ATOM     93  C   UNL A   1      39.946  33.742  37.121  1.00  0.00     0.058 A 
ATOM     94  C   UNL A   1      40.566  34.998  37.202  1.00  0.00     0.135 A 
ATOM     95  C   UNL A   1      39.011  33.407  38.114  1.00  0.00     0.135 A 
ATOM     96  F   UNL A   1      41.473  35.366  36.283  1.00  0.00    -0.206 F 
ATOM     97  C   UNL A   1      40.286  35.879  38.242  1.00  0.00     0.059 A 
ATOM     98  C   UNL A   1      38.694  34.284  39.147  1.00  0.00     0.059 A 
ATOM     99  F   UNL A   1      38.380  32.221  38.078  1.00  0.00    -0.206 F 
ATOM    100  C   UNL A   1      39.347  35.515  39.208  1.00  0.00     0.060 A 
BRANCH 100 101
ATOM    101  S   UNL A   1      38.967  36.683  40.530  1.00  0.00     0.124 S 
ATOM    102  O   UNL A   1      38.492  37.838  39.775  1.00  0.00    -0.237 OA
ATOM    103  O   UNL A   1      37.953  35.967  41.298  1.00  0.00    -0.237 OA
ATOM    104  O   UNL A   1      40.247  36.860  41.207  1.00  0.00    -0.744 OA
ENDBRANCH 100 101
ENDBRANCH  68  93
ENDBRANCH  42  43
ENDBRANCH  34  37
ENDBRANCH  32  33
ENDBRANCH  31  32
ENDBRANCH  30  31
ENDBRANCH   1  30
TORSDOF 20
ENDMDL
MODEL 3
REMARK VINA RESULT:     -10.8      2.575      3.244
REMARK SMILES Cc1ccc(Cl)c(Nc2ccccc2C(=O)NCC(=O)NCCCCCCNC(=O)c2ccc(-c3c4nc(c(-c5c(F)cc(S(=O)(=O)[O-])cc5F)c5ccc([nH]5)c(-c5c(F)cc(S(=O)(=O)[O-])cc5F)c5nc(c(-c6c(F)cc(S(=O)(=O)[O-])cc6F)c6ccc3[nH]6)C=C5)C=C4)cc2)c1Cl
REMARK SMILES IDX 24 1 23 2 22 3 21 4 19 5 20 6 18 8 17 9 15 10 16 11 14 13
REMARK SMILES IDX 9 14 10 15 11 16 13 17 12 18 8 19 7 21 1 22 2 23 3 24 97 25
REMARK SMILES IDX 4 26 98 27 5 28 6 29 25 30 26 31 27 32 28 33 29 34 30 36
REMARK SMILES IDX 31 37 32 38 96 39 33 40 95 41 34 42 35 43 36 44 89 45 37 46
REMARK SMILES IDX 94 47 88 48 90 49 38 50 93 51 87 52 86 53 39 55 73 56 52 57
REMARK SMILES IDX 72 58 53 59 56 60 71 61 91 62 54 63 55 64 70 66 92 67 57 68
REMARK SMILES IDX 40 69 41 70 50 71 42 72 43 73 49 74 51 75 44 76 45 77 46 78
REMARK SMILES IDX 47 79 48 80 74 81 75 82 84 83 76 84 77 85 83 86 85 87 78 88
REMARK SMILES IDX 79 89 80 90 81 91 82 92 58 93 59 94 68 95 60 96 61 97 67 98
REMARK SMILES IDX 69 99 62 100 63 101 64 102 65 103 66 104
REMARK H PARENT 21 7 17 12 8 20 28 35 90 54 56 65
REMARK Flexibility Score: inf
ROOT
ATOM      1  C   UNL A   1      32.682  26.884  24.123  1.00  0.00     0.002 C 
ENDROOT
BRANCH   1   2
ATOM      2  C   UNL A   1      31.517  25.894  24.010  1.00  0.00     0.021 C 
BRANCH   2   3
ATOM      3  C   UNL A   1      31.574  25.105  22.708  1.00  0.00     0.116 C 
BRANCH   3   4
ATOM      4  N   UNL A   1      32.950  24.805  22.401  1.00  0.00    -0.355 N 
ATOM      5  C   UNL A   1      33.534  23.576  22.434  1.00  0.00     0.239 C 
ATOM      6  O   UNL A   1      34.764  23.511  22.378  1.00  0.00    -0.273 OA
ATOM      7  H   UNL A   1      33.523  25.563  22.141  1.00  0.00     0.163 HD
BRANCH   5   8
ATOM      8  C   UNL A   1      32.669  22.335  22.233  1.00  0.00     0.216 C 
BRANCH   8   9
ATOM      9  N   UNL A   1      31.812  21.716  23.219  1.00  0.00    -0.343 N 
ATOM     10  C   UNL A   1      32.113  20.827  24.232  1.00  0.00     0.253 C 
ATOM     11  O   UNL A   1      31.445  20.974  25.263  1.00  0.00    -0.269 OA
ATOM     12  H   UNL A   1      30.863  21.967  23.158  1.00  0.00     0.164 HD
BRANCH  10  13
ATOM     13  C   UNL A   1      32.962  19.584  24.109  1.00  0.00     0.063 A 
ATOM     14  C   UNL A   1      34.235  19.253  24.634  1.00  0.00     0.051 A 
ATOM     15  C   UNL A   1      34.818  18.017  24.239  1.00  0.00     0.027 A 
ATOM     16  C   UNL A   1      34.161  17.095  23.427  1.00  0.00     0.002 A 
ATOM     17  C   UNL A   1      32.315  18.615  23.291  1.00  0.00     0.016 A 
ATOM     18  C   UNL A   1      32.892  17.387  22.967  1.00  0.00     0.001 A 
BRANCH  14  19
ATOM     19  N   UNL A   1      34.982  19.917  25.630  1.00  0.00    -0.352 N 
ATOM     20  H   UNL A   1      35.012  19.427  26.484  1.00  0.00     0.167 HD
BRANCH  19  21
ATOM     21  C   UNL A   1      35.698  21.140  25.665  1.00  0.00     0.077 A 
ATOM     22  C   UNL A   1      35.033  24.906  25.741  1.00  0.00     0.046 C 
ATOM     23  C   UNL A   1      35.731  23.583  25.577  1.00  0.00    -0.030 A 
ATOM     24  C   UNL A   1      36.991  23.541  24.963  1.00  0.00     0.006 A 
ATOM     25  C   UNL A   1      35.111  22.382  25.971  1.00  0.00     0.069 A 
ATOM     26  C   UNL A   1      37.652  22.330  24.783  1.00  0.00     0.023 A 
ATOM     27  Cl  UNL A   1      33.663  22.461  26.930  1.00  0.00    -0.082 Cl
ATOM     28  C   UNL A   1      37.017  21.144  25.144  1.00  0.00     0.066 A 
ATOM     29  Cl  UNL A   1      37.832  19.653  24.787  1.00  0.00    -0.082 Cl
ENDBRANCH  19  21
ENDBRANCH  14  19
ENDBRANCH  10  13
ENDBRANCH   8   9
ENDBRANCH   5   8
ENDBRANCH   3   4
ENDBRANCH   2   3
ENDBRANCH   1   2
BRANCH   1  30
ATOM     30  C   UNL A   1      32.461  27.972  25.180  1.00  0.00     0.002 C 
BRANCH  30  31
ATOM     31  C   UNL A   1      33.284  27.770  26.455  1.00  0.00     0.021 C 
BRANCH  31  32
ATOM     32  C   UNL A   1      34.505  28.677  26.538  1.00  0.00     0.116 C 
BRANCH  32  33
ATOM     33  N   UNL A   1      34.118  30.068  26.710  1.00  0.00    -0.352 N 
ATOM     34  C   UNL A   1      34.594  30.982  27.613  1.00  0.00     0.251 C 
ATOM     35  H   UNL A   1      33.422  30.396  26.095  1.00  0.00     0.163 HD
ATOM     36  O   UNL A   1      34.001  32.037  27.801  1.00  0.00    -0.269 OA
BRANCH  34  37
ATOM     37  C   UNL A   1      35.827  30.665  28.357  1.00  0.00     0.039 A 
ATOM     38  C   UNL A   1      35.761  29.781  29.433  1.00  0.00     0.014 A 
ATOM     39  C   UNL A   1      37.047  31.232  27.972  1.00  0.00     0.014 A 
ATOM     40  C   UNL A   1      36.934  29.429  30.101  1.00  0.00     0.010 A 
ATOM     41  C   UNL A   1      38.221  30.821  28.588  1.00  0.00     0.010 A 
ATOM     42  C   UNL A   1      38.175  29.926  29.666  1.00  0.00    -0.014 A 
BRANCH  42  43
ATOM     43  C   UNL A   1      39.436  29.525  30.334  1.00  0.00     0.031 A 
ATOM     44  C   UNL A   1      39.915  30.273  31.547  1.00  0.00     0.074 A 
ATOM     45  C   UNL A   1      40.177  28.531  29.809  1.00  0.00     0.049 A 
ATOM     46  N   UNL A   1      41.013  30.109  32.237  1.00  0.00    -0.248 NA
ATOM     47  C   UNL A   1      39.061  31.372  32.028  1.00  0.00     0.031 C 
ATOM     48  C   UNL A   1      39.841  27.773  28.601  1.00  0.00     0.029 A 
ATOM     49  N   UNL A   1      41.372  27.996  30.215  1.00  0.00    -0.354 N 
ATOM     50  C   UNL A   1      40.988  31.086  33.224  1.00  0.00     0.074 A 
ATOM     51  C   UNL A   1      39.798  31.880  33.004  1.00  0.00     0.031 C 
ATOM     52  C   UNL A   1      40.796  26.859  28.378  1.00  0.00     0.029 A 
ATOM     53  C   UNL A   1      41.830  26.988  29.400  1.00  0.00     0.049 A 
ATOM     54  H   UNL A   1      41.857  28.305  31.014  1.00  0.00     0.167 HD
ATOM     55  C   UNL A   1      41.865  31.290  34.237  1.00  0.00     0.037 A 
ATOM     56  C   UNL A   1      42.958  26.256  29.467  1.00  0.00     0.037 A 
ATOM     57  C   UNL A   1      43.040  30.485  34.452  1.00  0.00     0.049 A 
ATOM     58  C   UNL A   1      43.917  26.492  30.599  1.00  0.00     0.074 A 
ATOM     59  C   UNL A   1      43.962  30.566  35.479  1.00  0.00     0.029 A 
ATOM     60  N   UNL A   1      43.459  29.456  33.620  1.00  0.00    -0.354 N 
ATOM     61  N   UNL A   1      43.843  27.373  31.569  1.00  0.00    -0.248 NA
ATOM     62  C   UNL A   1      45.106  25.632  30.655  1.00  0.00     0.031 C 
ATOM     63  C   UNL A   1      44.965  29.620  35.241  1.00  0.00     0.029 A 
ATOM     64  C   UNL A   1      44.639  28.910  34.096  1.00  0.00     0.049 A 
ATOM     65  H   UNL A   1      42.985  29.157  32.809  1.00  0.00     0.167 HD
ATOM     66  C   UNL A   1      44.965  27.160  32.364  1.00  0.00     0.074 A 
ATOM     67  C   UNL A   1      45.692  26.058  31.765  1.00  0.00     0.031 C 
ATOM     68  C   UNL A   1      45.354  27.815  33.485  1.00  0.00     0.037 A 
BRANCH  55  69
ATOM     69  C   UNL A   1      41.583  32.430  35.177  1.00  0.00     0.058 A 
ATOM     70  C   UNL A   1      42.204  33.682  35.029  1.00  0.00     0.135 A 
ATOM     71  C   UNL A   1      40.683  32.272  36.244  1.00  0.00     0.135 A 
ATOM     72  F   UNL A   1      43.084  33.888  34.036  1.00  0.00    -0.206 F 
ATOM     73  C   UNL A   1      41.982  34.718  35.931  1.00  0.00     0.059 A 
ATOM     74  C   UNL A   1      40.420  33.306  37.140  1.00  0.00     0.059 A 
ATOM     75  F   UNL A   1      40.058  31.101  36.433  1.00  0.00    -0.206 F 
ATOM     76  C   UNL A   1      41.093  34.518  36.987  1.00  0.00     0.060 A 
BRANCH  76  77
ATOM     77  S   UNL A   1      40.836  35.861  38.164  1.00  0.00     0.124 S 
ATOM     78  O   UNL A   1      39.787  36.630  37.503  1.00  0.00    -0.237 OA
ATOM     79  O   UNL A   1      40.432  35.147  39.371  1.00  0.00    -0.237 OA
ATOM     80  O   UNL A   1      42.141  36.510  38.231  1.00  0.00    -0.744 OA
ENDBRANCH  76  77
ENDBRANCH  55  69
BRANCH  56  81
ATOM     81  C   UNL A   1      43.213  25.214  28.438  1.00  0.00     0.058 A 
ATOM     82  C   UNL A   1      42.837  23.879  28.651  1.00  0.00     0.135 A 
ATOM     83  C   UNL A   1      43.782  25.542  27.197  1.00  0.00     0.135 A 
ATOM     84  F   UNL A   1      42.294  23.515  29.823  1.00  0.00    -0.206 F 
ATOM     85  C   UNL A   1      43.016  22.907  27.672  1.00  0.00     0.059 A 
ATOM     86  C   UNL A   1      43.949  24.593  26.194  1.00  0.00     0.059 A 
ATOM     87  F   UNL A   1      44.142  26.809  26.937  1.00  0.00    -0.206 F 
ATOM     88  C   UNL A   1      43.564  23.276  26.443  1.00  0.00     0.060 A 
BRANCH  88  89
ATOM     89  S   UNL A   1      43.711  22.023  25.150  1.00  0.00     0.124 S 
ATOM     90  O   UNL A   1      45.112  21.640  25.268  1.00  0.00    -0.237 OA
ATOM     91  O   UNL A   1      42.734  21.026  25.579  1.00  0.00    -0.237 OA
ATOM     92  O   UNL A   1      43.354  22.752  23.935  1.00  0.00    -0.744 OA
ENDBRANCH  88  89
ENDBRANCH  56  81
BRANCH  68  93
ATOM     93  C   UNL A   1      46.614  27.343  34.159  1.00  0.00     0.058 A 
ATOM     94  C   UNL A   1      47.866  27.903  33.860  1.00  0.00     0.135 A 
ATOM     95  C   UNL A   1      46.558  26.358  35.158  1.00  0.00     0.135 A 
ATOM     96  F   UNL A   1      47.976  28.844  32.909  1.00  0.00    -0.206 F 
ATOM     97  C   UNL A   1      49.021  27.485  34.512  1.00  0.00     0.059 A 
ATOM     98  C   UNL A   1      47.697  25.945  35.843  1.00  0.00     0.059 A 
ATOM     99  F   UNL A   1      45.384  25.797  35.491  1.00  0.00    -0.206 F 
ATOM    100  C   UNL A   1      48.927  26.508  35.504  1.00  0.00     0.060 A 
BRANCH 100 101
ATOM    101  S   UNL A   1      50.430  26.001  36.366  1.00  0.00     0.124 S 
ATOM    102  O   UNL A   1      50.377  26.835  37.562  1.00  0.00    -0.237 OA
ATOM    103  O   UNL A   1      50.202  24.574  36.577  1.00  0.00    -0.237 OA
ATOM    104  O   UNL A   1      51.492  26.327  35.420  1.00  0.00    -0.744 OA
ENDBRANCH 100 101
ENDBRANCH  68  93
ENDBRANCH  42  43
ENDBRANCH  34  37
ENDBRANCH  32  33
ENDBRANCH  31  32
ENDBRANCH  30  31
ENDBRANCH   1  30
TORSDOF 20
ENDMDL
