MODEL 1
REMARK VINA RESULT:      -9.8      0.000      0.000
REMARK SMILES CCOCC[C@@H]1CCC[C@@]1([NH2+]C1CC1)C(=O)NCCCCCCNC(=O)c1ccc(-c2c3nc(c(-c4c(F)cc(S(=O)(=O)[O-])cc4F)c4ccc([nH]4)c(-c4c(F)cc(S(=O)(=O)[O-])cc4F)c4nc(c(-c5c(F)cc(S(=O)(=O)[O-])cc5F)c5ccc2[nH]5)C=C4)C=C3)cc1
REMARK SMILES IDX 20 1 19 2 18 3 17 4 15 5 16 6 10 8 6 9 7 10 8 11 9 12 5 13
REMARK SMILES IDX 4 14 3 15 2 16 1 17 11 18 12 21 13 22 14 23 21 24 22 25
REMARK SMILES IDX 23 26 24 27 25 28 26 30 27 31 28 32 92 33 29 34 91 35 30 36
REMARK SMILES IDX 31 37 32 38 85 39 33 40 90 41 84 42 86 43 34 44 89 45 83 46
REMARK SMILES IDX 82 47 35 49 69 50 48 51 68 52 49 53 52 54 67 55 87 56 50 57
REMARK SMILES IDX 51 58 66 60 88 61 53 62 36 63 37 64 46 65 38 66 39 67 45 68
REMARK SMILES IDX 47 69 40 70 41 71 42 72 43 73 44 74 70 75 71 76 80 77 72 78
REMARK SMILES IDX 73 79 79 80 81 81 74 82 75 83 76 84 77 85 78 86 54 87 55 88
REMARK SMILES IDX 64 89 56 90 57 91 63 92 65 93 58 94 59 95 60 96 61 97 62 98
REMARK H PARENT 17 7 11 19 11 20 24 29 86 48 52 59
REMARK Flexibility Score: inf
ROOT
ATOM      1  C   UNL A   1      31.224  27.520  24.754  1.00  0.00     0.002 C 
ENDROOT
BRANCH   1   2
ATOM      2  C   UNL A   1      30.019  26.583  24.626  1.00  0.00     0.021 C 
BRANCH   2   3
ATOM      3  C   UNL A   1      30.320  25.103  24.419  1.00  0.00     0.116 C 
BRANCH   3   4
ATOM      4  N   UNL A   1      30.985  24.493  25.549  1.00  0.00    -0.351 N 
ATOM      5  C   UNL A   1      32.247  24.009  25.721  1.00  0.00     0.281 C 
ATOM      6  O   UNL A   1      32.572  23.907  26.910  1.00  0.00    -0.268 OA
ATOM      7  H   UNL A   1      30.416  24.411  26.349  1.00  0.00     0.163 HD
BRANCH   5   8
ATOM      8  C   UNL A   1      33.198  23.644  24.522  1.00  0.00     0.178 C 
ATOM      9  C   UNL A   1      32.499  22.730  23.455  1.00  0.00     0.063 C 
ATOM     10  C   UNL A   1      33.058  23.256  22.116  1.00  0.00     0.011 C 
ATOM     11  C   UNL A   1      33.221  24.749  22.288  1.00  0.00     0.008 C 
ATOM     12  C   UNL A   1      33.575  24.948  23.755  1.00  0.00     0.079 C 
BRANCH   9  13
ATOM     13  C   UNL A   1      32.643  21.185  23.439  1.00  0.00     0.039 C 
BRANCH  13  14
ATOM     14  C   UNL A   1      32.461  20.338  24.693  1.00  0.00     0.160 C 
BRANCH  14  15
ATOM     15  O   UNL A   1      32.083  18.994  24.438  1.00  0.00    -0.382 OA
BRANCH  15  16
ATOM     16  C   UNL A   1      32.753  17.993  25.195  1.00  0.00     0.156 C 
ATOM     17  C   UNL A   1      34.080  17.539  24.606  1.00  0.00     0.035 C 
ENDBRANCH  15  16
ENDBRANCH  14  15
ENDBRANCH  13  14
ENDBRANCH   9  13
BRANCH   8  18
ATOM     18  N   UNL A   1      34.461  22.986  24.972  1.00  0.00    -0.331 N 
ATOM     19  H   UNL A   1      34.442  22.020  24.646  1.00  0.00     0.347 HD
ATOM     20  H   UNL A   1      34.476  23.081  25.987  1.00  0.00     0.347 HD
BRANCH  18  21
ATOM     21  C   UNL A   1      35.712  23.602  24.493  1.00  0.00     0.183 C 
ATOM     22  C   UNL A   1      37.022  23.018  24.952  1.00  0.00     0.071 C 
ATOM     23  C   UNL A   1      36.584  22.841  23.532  1.00  0.00     0.071 C 
ENDBRANCH  18  21
ENDBRANCH   8  18
ENDBRANCH   5   8
ENDBRANCH   3   4
ENDBRANCH   2   3
ENDBRANCH   1   2
BRANCH   1  24
ATOM     24  C   UNL A   1      31.670  27.899  26.169  1.00  0.00     0.002 C 
BRANCH  24  25
ATOM     25  C   UNL A   1      33.124  27.604  26.530  1.00  0.00     0.021 C 
BRANCH  25  26
ATOM     26  C   UNL A   1      34.137  28.646  26.079  1.00  0.00     0.116 C 
BRANCH  26  27
ATOM     27  N   UNL A   1      33.792  29.987  26.510  1.00  0.00    -0.352 N 
ATOM     28  C   UNL A   1      34.402  30.771  27.455  1.00  0.00     0.251 C 
ATOM     29  H   UNL A   1      33.012  30.389  26.063  1.00  0.00     0.163 HD
ATOM     30  O   UNL A   1      33.879  31.832  27.796  1.00  0.00    -0.269 OA
BRANCH  28  31
ATOM     31  C   UNL A   1      35.664  30.327  28.086  1.00  0.00     0.039 A 
ATOM     32  C   UNL A   1      36.871  30.669  27.475  1.00  0.00     0.014 A 
ATOM     33  C   UNL A   1      35.665  29.584  29.271  1.00  0.00     0.014 A 
ATOM     34  C   UNL A   1      38.076  30.305  28.076  1.00  0.00     0.010 A 
ATOM     35  C   UNL A   1      36.868  29.296  29.914  1.00  0.00     0.010 A 
ATOM     36  C   UNL A   1      38.087  29.642  29.316  1.00  0.00    -0.014 A 
BRANCH  36  37
ATOM     37  C   UNL A   1      39.378  29.324  29.979  1.00  0.00     0.031 A 
ATOM     38  C   UNL A   1      39.802  30.050  31.227  1.00  0.00     0.074 A 
ATOM     39  C   UNL A   1      40.172  28.373  29.445  1.00  0.00     0.049 A 
ATOM     40  N   UNL A   1      40.850  29.846  31.982  1.00  0.00    -0.248 NA
ATOM     41  C   UNL A   1      38.954  31.167  31.673  1.00  0.00     0.031 C 
ATOM     42  C   UNL A   1      39.905  27.654  28.196  1.00  0.00     0.029 A 
ATOM     43  N   UNL A   1      41.354  27.838  29.888  1.00  0.00    -0.354 N 
ATOM     44  C   UNL A   1      40.786  30.801  32.990  1.00  0.00     0.074 A 
ATOM     45  C   UNL A   1      39.634  31.629  32.712  1.00  0.00     0.031 C 
ATOM     46  C   UNL A   1      40.865  26.738  28.002  1.00  0.00     0.029 A 
ATOM     47  C   UNL A   1      41.831  26.822  29.093  1.00  0.00     0.049 A 
ATOM     48  H   UNL A   1      41.816  28.149  30.699  1.00  0.00     0.167 HD
ATOM     49  C   UNL A   1      41.598  30.955  34.065  1.00  0.00     0.037 A 
ATOM     50  C   UNL A   1      42.916  26.037  29.233  1.00  0.00     0.037 A 
ATOM     51  C   UNL A   1      42.736  30.116  34.340  1.00  0.00     0.049 A 
ATOM     52  C   UNL A   1      43.786  26.210  30.449  1.00  0.00     0.074 A 
ATOM     53  C   UNL A   1      43.588  30.150  35.430  1.00  0.00     0.029 A 
ATOM     54  N   UNL A   1      43.185  29.093  33.516  1.00  0.00    -0.354 N 
ATOM     55  N   UNL A   1      43.661  27.064  31.438  1.00  0.00    -0.248 NA
ATOM     56  C   UNL A   1      44.933  25.303  30.575  1.00  0.00     0.031 C 
ATOM     57  C   UNL A   1      44.581  29.181  35.240  1.00  0.00     0.029 A 
ATOM     58  C   UNL A   1      44.315  28.506  34.060  1.00  0.00     0.049 A 
ATOM     59  H   UNL A   1      42.762  28.825  32.668  1.00  0.00     0.167 HD
ATOM     60  C   UNL A   1      44.705  26.785  32.313  1.00  0.00     0.074 A 
ATOM     61  C   UNL A   1      45.430  25.664  31.749  1.00  0.00     0.031 C 
ATOM     62  C   UNL A   1      45.036  27.401  33.476  1.00  0.00     0.037 A 
BRANCH  49  63
ATOM     63  C   UNL A   1      41.277  32.068  35.028  1.00  0.00     0.058 A 
ATOM     64  C   UNL A   1      41.902  33.324  34.940  1.00  0.00     0.135 A 
ATOM     65  C   UNL A   1      40.306  31.893  36.027  1.00  0.00     0.135 A 
ATOM     66  F   UNL A   1      42.848  33.544  34.013  1.00  0.00    -0.206 F 
ATOM     67  C   UNL A   1      41.600  34.353  35.826  1.00  0.00     0.059 A 
ATOM     68  C   UNL A   1      39.966  32.919  36.906  1.00  0.00     0.059 A 
ATOM     69  F   UNL A   1      39.678  30.715  36.160  1.00  0.00    -0.206 F 
ATOM     70  C   UNL A   1      40.629  34.141  36.806  1.00  0.00     0.060 A 
BRANCH  70  71
ATOM     71  S   UNL A   1      40.242  35.491  37.940  1.00  0.00     0.124 S 
ATOM     72  O   UNL A   1      41.525  35.684  38.610  1.00  0.00    -0.237 OA
ATOM     73  O   UNL A   1      39.836  36.556  37.031  1.00  0.00    -0.237 OA
ATOM     74  O   UNL A   1      39.178  34.941  38.774  1.00  0.00    -0.744 OA
ENDBRANCH  70  71
ENDBRANCH  49  63
BRANCH  50  75
ATOM     75  C   UNL A   1      43.215  24.992  28.218  1.00  0.00     0.058 A 
ATOM     76  C   UNL A   1      42.829  23.657  28.413  1.00  0.00     0.135 A 
ATOM     77  C   UNL A   1      43.879  25.311  27.023  1.00  0.00     0.135 A 
ATOM     78  F   UNL A   1      42.195  23.300  29.541  1.00  0.00    -0.206 F 
ATOM     79  C   UNL A   1      43.107  22.671  27.472  1.00  0.00     0.059 A 
ATOM     80  C   UNL A   1      44.143  24.348  26.054  1.00  0.00     0.059 A 
ATOM     81  F   UNL A   1      44.252  26.576  26.778  1.00  0.00    -0.206 F 
ATOM     82  C   UNL A   1      43.764  23.028  26.293  1.00  0.00     0.060 A 
BRANCH  82  83
ATOM     83  S   UNL A   1      44.079  21.752  25.054  1.00  0.00     0.124 S 
ATOM     84  O   UNL A   1      43.873  22.489  23.814  1.00  0.00    -0.237 OA
ATOM     85  O   UNL A   1      45.455  21.369  25.351  1.00  0.00    -0.237 OA
ATOM     86  O   UNL A   1      43.075  20.736  25.359  1.00  0.00    -0.744 OA
ENDBRANCH  82  83
ENDBRANCH  50  75
BRANCH  62  87
ATOM     87  C   UNL A   1      46.228  26.859  34.218  1.00  0.00     0.058 A 
ATOM     88  C   UNL A   1      46.101  25.835  35.172  1.00  0.00     0.135 A 
ATOM     89  C   UNL A   1      47.514  27.367  33.971  1.00  0.00     0.135 A 
ATOM     90  F   UNL A   1      44.894  25.314  35.447  1.00  0.00    -0.206 F 
ATOM     91  C   UNL A   1      47.196  25.374  35.894  1.00  0.00     0.059 A 
ATOM     92  C   UNL A   1      48.629  26.897  34.658  1.00  0.00     0.059 A 
ATOM     93  F   UNL A   1      47.697  28.333  33.058  1.00  0.00    -0.206 F 
ATOM     94  C   UNL A   1      48.456  25.917  35.634  1.00  0.00     0.060 A 
BRANCH  94  95
ATOM     95  S   UNL A   1      49.868  25.324  36.590  1.00  0.00     0.124 S 
ATOM     96  O   UNL A   1      49.837  23.895  36.300  1.00  0.00    -0.237 OA
ATOM     97  O   UNL A   1      50.978  26.068  36.003  1.00  0.00    -0.237 OA
ATOM     98  O   UNL A   1      49.528  25.695  37.961  1.00  0.00    -0.744 OA
ENDBRANCH  94  95
ENDBRANCH  62  87
ENDBRANCH  36  37
ENDBRANCH  28  31
ENDBRANCH  26  27
ENDBRANCH  25  26
ENDBRANCH  24  25
ENDBRANCH   1  24
TORSDOF 22
ENDMDL
MODEL 2
REMARK VINA RESULT:      -9.7      0.890      2.237
REMARK SMILES CCOCC[C@@H]1CCC[C@@]1([NH2+]C1CC1)C(=O)NCCCCCCNC(=O)c1ccc(-c2c3nc(c(-c4c(F)cc(S(=O)(=O)[O-])cc4F)c4ccc([nH]4)c(-c4c(F)cc(S(=O)(=O)[O-])cc4F)c4nc(c(-c5c(F)cc(S(=O)(=O)[O-])cc5F)c5ccc2[nH]5)C=C4)C=C3)cc1
REMARK SMILES IDX 20 1 19 2 18 3 17 4 15 5 16 6 10 8 6 9 7 10 8 11 9 12 5 13
REMARK SMILES IDX 4 14 3 15 2 16 1 17 11 18 12 21 13 22 14 23 21 24 22 25
REMARK SMILES IDX 23 26 24 27 25 28 26 30 27 31 28 32 92 33 29 34 91 35 30 36
REMARK SMILES IDX 31 37 32 38 85 39 33 40 90 41 84 42 86 43 34 44 89 45 83 46
REMARK SMILES IDX 82 47 35 49 69 50 48 51 68 52 49 53 52 54 67 55 87 56 50 57
REMARK SMILES IDX 51 58 66 60 88 61 53 62 36 63 37 64 46 65 38 66 39 67 45 68
REMARK SMILES IDX 47 69 40 70 41 71 42 72 43 73 44 74 70 75 71 76 80 77 72 78
REMARK SMILES IDX 73 79 79 80 81 81 74 82 75 83 76 84 77 85 78 86 54 87 55 88
REMARK SMILES IDX 64 89 56 90 57 91 63 92 65 93 58 94 59 95 60 96 61 97 62 98
REMARK H PARENT 17 7 11 19 11 20 24 29 86 48 52 59
REMARK Flexibility Score: inf
ROOT
ATOM      1  C   UNL A   1      30.977  27.310  25.994  1.00  0.00     0.002 C 
ENDROOT
BRANCH   1   2
ATOM      2  C   UNL A   1      31.322  26.830  24.581  1.00  0.00     0.021 C 
BRANCH   2   3
ATOM      3  C   UNL A   1      30.966  25.386  24.241  1.00  0.00     0.116 C 
BRANCH   3   4
ATOM      4  N   UNL A   1      30.406  24.659  25.358  1.00  0.00    -0.351 N 
ATOM      5  C   UNL A   1      30.952  23.789  26.255  1.00  0.00     0.281 C 
ATOM      6  O   UNL A   1      30.273  23.657  27.281  1.00  0.00    -0.268 OA
ATOM      7  H   UNL A   1      29.445  24.823  25.499  1.00  0.00     0.163 HD
BRANCH   5   8
ATOM      8  C   UNL A   1      32.319  23.052  26.012  1.00  0.00     0.178 C 
ATOM      9  C   UNL A   1      33.543  24.034  26.015  1.00  0.00     0.063 C 
ATOM     10  C   UNL A   1      34.650  23.220  26.717  1.00  0.00     0.011 C 
ATOM     11  C   UNL A   1      33.954  22.390  27.772  1.00  0.00     0.008 C 
ATOM     12  C   UNL A   1      32.586  22.068  27.191  1.00  0.00     0.079 C 
BRANCH   9  13
ATOM     13  C   UNL A   1      34.158  24.627  24.719  1.00  0.00     0.039 C 
BRANCH  13  14
ATOM     14  C   UNL A   1      34.134  23.877  23.392  1.00  0.00     0.160 C 
BRANCH  14  15
ATOM     15  O   UNL A   1      34.947  22.713  23.368  1.00  0.00    -0.382 OA
BRANCH  15  16
ATOM     16  C   UNL A   1      36.354  22.923  23.341  1.00  0.00     0.156 C 
ATOM     17  C   UNL A   1      37.127  22.153  24.399  1.00  0.00     0.035 C 
ENDBRANCH  15  16
ENDBRANCH  14  15
ENDBRANCH  13  14
ENDBRANCH   9  13
BRANCH   8  18
ATOM     18  N   UNL A   1      32.330  22.269  24.739  1.00  0.00    -0.331 N 
ATOM     19  H   UNL A   1      33.185  22.504  24.236  1.00  0.00     0.347 HD
ATOM     20  H   UNL A   1      31.474  22.527  24.249  1.00  0.00     0.347 HD
BRANCH  18  21
ATOM     21  C   UNL A   1      32.280  20.803  24.887  1.00  0.00     0.183 C 
ATOM     22  C   UNL A   1      32.518  19.949  23.670  1.00  0.00     0.071 C 
ATOM     23  C   UNL A   1      33.549  20.008  24.753  1.00  0.00     0.071 C 
ENDBRANCH  18  21
ENDBRANCH   8  18
ENDBRANCH   5   8
ENDBRANCH   3   4
ENDBRANCH   2   3
ENDBRANCH   1   2
BRANCH   1  24
ATOM     24  C   UNL A   1      32.116  27.896  26.832  1.00  0.00     0.002 C 
BRANCH  24  25
ATOM     25  C   UNL A   1      33.537  27.633  26.337  1.00  0.00     0.021 C 
BRANCH  25  26
ATOM     26  C   UNL A   1      34.288  28.852  25.823  1.00  0.00     0.116 C 
BRANCH  26  27
ATOM     27  N   UNL A   1      33.821  30.090  26.416  1.00  0.00    -0.352 N 
ATOM     28  C   UNL A   1      34.337  30.782  27.481  1.00  0.00     0.251 C 
ATOM     29  H   UNL A   1      33.025  30.488  25.995  1.00  0.00     0.163 HD
ATOM     30  O   UNL A   1      33.719  31.743  27.940  1.00  0.00    -0.269 OA
BRANCH  28  31
ATOM     31  C   UNL A   1      35.612  30.356  28.096  1.00  0.00     0.039 A 
ATOM     32  C   UNL A   1      36.804  30.869  27.583  1.00  0.00     0.014 A 
ATOM     33  C   UNL A   1      35.640  29.462  29.172  1.00  0.00     0.014 A 
ATOM     34  C   UNL A   1      38.017  30.521  28.178  1.00  0.00     0.010 A 
ATOM     35  C   UNL A   1      36.844  29.183  29.818  1.00  0.00     0.010 A 
ATOM     36  C   UNL A   1      38.047  29.699  29.319  1.00  0.00    -0.014 A 
BRANCH  36  37
ATOM     37  C   UNL A   1      39.340  29.395  29.983  1.00  0.00     0.031 A 
ATOM     38  C   UNL A   1      39.752  30.121  31.236  1.00  0.00     0.074 A 
ATOM     39  C   UNL A   1      40.148  28.457  29.448  1.00  0.00     0.049 A 
ATOM     40  N   UNL A   1      40.801  29.927  31.993  1.00  0.00    -0.248 NA
ATOM     41  C   UNL A   1      38.889  31.225  31.685  1.00  0.00     0.031 C 
ATOM     42  C   UNL A   1      39.894  27.740  28.195  1.00  0.00     0.029 A 
ATOM     43  N   UNL A   1      41.335  27.935  29.892  1.00  0.00    -0.354 N 
ATOM     44  C   UNL A   1      40.722  30.877  33.005  1.00  0.00     0.074 A 
ATOM     45  C   UNL A   1      39.560  31.691  32.728  1.00  0.00     0.031 C 
ATOM     46  C   UNL A   1      40.866  26.838  27.999  1.00  0.00     0.029 A 
ATOM     47  C   UNL A   1      41.828  26.929  29.093  1.00  0.00     0.049 A 
ATOM     48  H   UNL A   1      41.792  28.249  30.705  1.00  0.00     0.167 HD
ATOM     49  C   UNL A   1      41.528  31.036  34.083  1.00  0.00     0.037 A 
ATOM     50  C   UNL A   1      42.923  26.157  29.233  1.00  0.00     0.037 A 
ATOM     51  C   UNL A   1      42.677  30.210  34.357  1.00  0.00     0.049 A 
ATOM     52  C   UNL A   1      43.787  26.336  30.451  1.00  0.00     0.074 A 
ATOM     53  C   UNL A   1      43.525  30.251  35.449  1.00  0.00     0.029 A 
ATOM     54  N   UNL A   1      43.141  29.198  33.529  1.00  0.00    -0.354 N 
ATOM     55  N   UNL A   1      43.649  27.184  31.444  1.00  0.00    -0.248 NA
ATOM     56  C   UNL A   1      44.945  25.443  30.577  1.00  0.00     0.031 C 
ATOM     57  C   UNL A   1      44.531  29.296  35.257  1.00  0.00     0.029 A 
ATOM     58  C   UNL A   1      44.278  28.623  34.074  1.00  0.00     0.049 A 
ATOM     59  H   UNL A   1      42.724  28.928  32.679  1.00  0.00     0.167 HD
ATOM     60  C   UNL A   1      44.694  26.915  32.321  1.00  0.00     0.074 A 
ATOM     61  C   UNL A   1      45.435  25.806  31.754  1.00  0.00     0.031 C 
ATOM     62  C   UNL A   1      45.014  27.530  33.487  1.00  0.00     0.037 A 
BRANCH  49  63
ATOM     63  C   UNL A   1      41.190  32.141  35.050  1.00  0.00     0.058 A 
ATOM     64  C   UNL A   1      40.277  31.950  36.100  1.00  0.00     0.135 A 
ATOM     65  C   UNL A   1      41.814  33.395  34.949  1.00  0.00     0.135 A 
ATOM     66  F   UNL A   1      39.639  30.776  36.236  1.00  0.00    -0.206 F 
ATOM     67  C   UNL A   1      39.971  32.969  36.996  1.00  0.00     0.059 A 
ATOM     68  C   UNL A   1      41.546  34.421  35.853  1.00  0.00     0.059 A 
ATOM     69  F   UNL A   1      42.694  33.637  33.965  1.00  0.00    -0.206 F 
ATOM     70  C   UNL A   1      40.611  34.202  36.864  1.00  0.00     0.060 A 
BRANCH  70  71
ATOM     71  S   UNL A   1      40.210  35.511  38.041  1.00  0.00     0.124 S 
ATOM     72  O   UNL A   1      41.474  35.655  38.756  1.00  0.00    -0.237 OA
ATOM     73  O   UNL A   1      39.848  36.619  37.164  1.00  0.00    -0.237 OA
ATOM     74  O   UNL A   1      39.112  34.946  38.818  1.00  0.00    -0.744 OA
ENDBRANCH  70  71
ENDBRANCH  49  63
BRANCH  50  75
ATOM     75  C   UNL A   1      43.238  25.121  28.214  1.00  0.00     0.058 A 
ATOM     76  C   UNL A   1      42.646  23.849  28.263  1.00  0.00     0.135 A 
ATOM     77  C   UNL A   1      44.126  25.387  27.159  1.00  0.00     0.135 A 
ATOM     78  F   UNL A   1      41.794  23.544  29.253  1.00  0.00    -0.206 F 
ATOM     79  C   UNL A   1      42.937  22.872  27.317  1.00  0.00     0.059 A 
ATOM     80  C   UNL A   1      44.410  24.436  26.185  1.00  0.00     0.059 A 
ATOM     81  F   UNL A   1      44.703  26.594  27.055  1.00  0.00    -0.206 F 
ATOM     82  C   UNL A   1      43.820  23.176  26.279  1.00  0.00     0.060 A 
BRANCH  82  83
ATOM     83  S   UNL A   1      44.156  21.917  25.028  1.00  0.00     0.124 S 
ATOM     84  O   UNL A   1      43.789  22.616  23.803  1.00  0.00    -0.237 OA
ATOM     85  O   UNL A   1      45.580  21.665  25.220  1.00  0.00    -0.237 OA
ATOM     86  O   UNL A   1      43.275  20.819  25.415  1.00  0.00    -0.744 OA
ENDBRANCH  82  83
ENDBRANCH  50  75
BRANCH  62  87
ATOM     87  C   UNL A   1      46.211  26.999  34.230  1.00  0.00     0.058 A 
ATOM     88  C   UNL A   1      47.501  27.510  34.010  1.00  0.00     0.135 A 
ATOM     89  C   UNL A   1      46.067  25.969  35.173  1.00  0.00     0.135 A 
ATOM     90  F   UNL A   1      47.695  28.495  33.118  1.00  0.00    -0.206 F 
ATOM     91  C   UNL A   1      48.612  26.981  34.658  1.00  0.00     0.059 A 
ATOM     92  C   UNL A   1      47.161  25.448  35.858  1.00  0.00     0.059 A 
ATOM     93  F   UNL A   1      44.855  25.455  35.436  1.00  0.00    -0.206 F 
ATOM     94  C   UNL A   1      48.432  25.944  35.575  1.00  0.00     0.060 A 
BRANCH  94  95
ATOM     95  S   UNL A   1      49.883  25.254  36.396  1.00  0.00     0.124 S 
ATOM     96  O   UNL A   1      50.891  25.362  35.347  1.00  0.00    -0.237 OA
ATOM     97  O   UNL A   1      50.055  26.149  37.536  1.00  0.00    -0.237 OA
ATOM     98  O   UNL A   1      49.468  23.894  36.732  1.00  0.00    -0.744 OA
ENDBRANCH  94  95
ENDBRANCH  62  87
ENDBRANCH  36  37
ENDBRANCH  28  31
ENDBRANCH  26  27
ENDBRANCH  25  26
ENDBRANCH  24  25
ENDBRANCH   1  24
TORSDOF 22
ENDMDL
MODEL 3
REMARK VINA RESULT:      -9.7      5.348      9.710
REMARK SMILES CCOCC[C@@H]1CCC[C@@]1([NH2+]C1CC1)C(=O)NCCCCCCNC(=O)c1ccc(-c2c3nc(c(-c4c(F)cc(S(=O)(=O)[O-])cc4F)c4ccc([nH]4)c(-c4c(F)cc(S(=O)(=O)[O-])cc4F)c4nc(c(-c5c(F)cc(S(=O)(=O)[O-])cc5F)c5ccc2[nH]5)C=C4)C=C3)cc1
REMARK SMILES IDX 20 1 19 2 18 3 17 4 15 5 16 6 10 8 6 9 7 10 8 11 9 12 5 13
REMARK SMILES IDX 4 14 3 15 2 16 1 17 11 18 12 21 13 22 14 23 21 24 22 25
REMARK SMILES IDX 23 26 24 27 25 28 26 30 27 31 28 32 92 33 29 34 91 35 30 36
REMARK SMILES IDX 31 37 32 38 85 39 33 40 90 41 84 42 86 43 34 44 89 45 83 46
REMARK SMILES IDX 82 47 35 49 69 50 48 51 68 52 49 53 52 54 67 55 87 56 50 57
REMARK SMILES IDX 51 58 66 60 88 61 53 62 36 63 37 64 46 65 38 66 39 67 45 68
REMARK SMILES IDX 47 69 40 70 41 71 42 72 43 73 44 74 70 75 71 76 80 77 72 78
REMARK SMILES IDX 73 79 79 80 81 81 74 82 75 83 76 84 77 85 78 86 54 87 55 88
REMARK SMILES IDX 64 89 56 90 57 91 63 92 65 93 58 94 59 95 60 96 61 97 62 98
REMARK H PARENT 17 7 11 19 11 20 24 29 86 48 52 59
REMARK Flexibility Score: inf
ROOT
ATOM      1  C   UNL A   1      32.212  29.437  25.139  1.00  0.00     0.002 C 
ENDROOT
BRANCH   1   2
ATOM      2  C   UNL A   1      32.902  28.992  23.845  1.00  0.00     0.021 C 
BRANCH   2   3
ATOM      3  C   UNL A   1      32.039  28.255  22.826  1.00  0.00     0.116 C 
BRANCH   3   4
ATOM      4  N   UNL A   1      32.786  27.318  22.017  1.00  0.00    -0.351 N 
ATOM      5  C   UNL A   1      32.923  25.963  22.072  1.00  0.00     0.281 C 
ATOM      6  O   UNL A   1      33.331  25.471  21.012  1.00  0.00    -0.268 OA
ATOM      7  H   UNL A   1      33.294  27.739  21.286  1.00  0.00     0.163 HD
BRANCH   5   8
ATOM      8  C   UNL A   1      32.571  25.115  23.349  1.00  0.00     0.178 C 
ATOM      9  C   UNL A   1      33.070  25.787  24.675  1.00  0.00     0.063 C 
ATOM     10  C   UNL A   1      31.940  25.474  25.679  1.00  0.00     0.011 C 
ATOM     11  C   UNL A   1      30.653  25.519  24.887  1.00  0.00     0.008 C 
ATOM     12  C   UNL A   1      31.021  25.030  23.494  1.00  0.00     0.079 C 
BRANCH   9  13
ATOM     13  C   UNL A   1      34.412  25.414  25.361  1.00  0.00     0.039 C 
BRANCH  13  14
ATOM     14  C   UNL A   1      34.967  23.995  25.342  1.00  0.00     0.160 C 
BRANCH  14  15
ATOM     15  O   UNL A   1      36.382  23.923  25.436  1.00  0.00    -0.382 OA
BRANCH  15  16
ATOM     16  C   UNL A   1      37.016  22.900  24.678  1.00  0.00     0.156 C 
ATOM     17  C   UNL A   1      36.633  22.874  23.207  1.00  0.00     0.035 C 
ENDBRANCH  15  16
ENDBRANCH  14  15
ENDBRANCH  13  14
ENDBRANCH   9  13
BRANCH   8  18
ATOM     18  N   UNL A   1      33.109  23.722  23.278  1.00  0.00    -0.331 N 
ATOM     19  H   UNL A   1      33.782  23.610  24.035  1.00  0.00     0.347 HD
ATOM     20  H   UNL A   1      33.512  23.629  22.346  1.00  0.00     0.347 HD
BRANCH  18  21
ATOM     21  C   UNL A   1      32.112  22.642  23.394  1.00  0.00     0.183 C 
ATOM     22  C   UNL A   1      32.189  21.487  22.432  1.00  0.00     0.071 C 
ATOM     23  C   UNL A   1      32.552  21.285  23.869  1.00  0.00     0.071 C 
ENDBRANCH  18  21
ENDBRANCH   8  18
ENDBRANCH   5   8
ENDBRANCH   3   4
ENDBRANCH   2   3
ENDBRANCH   1   2
BRANCH   1  24
ATOM     24  C   UNL A   1      33.110  29.904  26.286  1.00  0.00     0.002 C 
BRANCH  24  25
ATOM     25  C   UNL A   1      33.943  28.831  26.985  1.00  0.00     0.021 C 
BRANCH  25  26
ATOM     26  C   UNL A   1      35.325  29.270  27.446  1.00  0.00     0.116 C 
BRANCH  26  27
ATOM     27  N   UNL A   1      35.288  30.043  28.673  1.00  0.00    -0.352 N 
ATOM     28  C   UNL A   1      36.292  30.268  29.579  1.00  0.00     0.251 C 
ATOM     29  H   UNL A   1      34.423  30.464  28.883  1.00  0.00     0.163 HD
ATOM     30  O   UNL A   1      36.036  30.830  30.644  1.00  0.00    -0.269 OA
BRANCH  28  31
ATOM     31  C   UNL A   1      37.667  29.806  29.293  1.00  0.00     0.039 A 
ATOM     32  C   UNL A   1      38.145  29.903  27.986  1.00  0.00     0.014 A 
ATOM     33  C   UNL A   1      38.486  29.284  30.301  1.00  0.00     0.014 A 
ATOM     34  C   UNL A   1      39.455  29.520  27.700  1.00  0.00     0.010 A 
ATOM     35  C   UNL A   1      39.820  28.983  30.031  1.00  0.00     0.010 A 
ATOM     36  C   UNL A   1      40.315  29.085  28.724  1.00  0.00    -0.014 A 
BRANCH  36  37
ATOM     37  C   UNL A   1      41.729  28.748  28.417  1.00  0.00     0.031 A 
ATOM     38  C   UNL A   1      42.119  27.347  28.028  1.00  0.00     0.074 A 
ATOM     39  C   UNL A   1      42.665  29.716  28.493  1.00  0.00     0.049 A 
ATOM     40  N   UNL A   1      43.285  26.894  27.647  1.00  0.00    -0.248 NA
ATOM     41  C   UNL A   1      41.073  26.316  28.100  1.00  0.00     0.031 C 
ATOM     42  C   UNL A   1      42.422  31.093  28.932  1.00  0.00     0.029 A 
ATOM     43  N   UNL A   1      44.003  29.697  28.191  1.00  0.00    -0.354 N 
ATOM     44  C   UNL A   1      43.113  25.531  27.431  1.00  0.00     0.074 A 
ATOM     45  C   UNL A   1      41.747  25.218  27.789  1.00  0.00     0.031 C 
ATOM     46  C   UNL A   1      43.558  31.797  28.822  1.00  0.00     0.029 A 
ATOM     47  C   UNL A   1      44.617  30.919  28.333  1.00  0.00     0.049 A 
ATOM     48  H   UNL A   1      44.478  28.886  27.899  1.00  0.00     0.167 HD
ATOM     49  C   UNL A   1      44.003  24.629  26.950  1.00  0.00     0.037 A 
ATOM     50  C   UNL A   1      45.885  31.296  28.083  1.00  0.00     0.037 A 
ATOM     51  C   UNL A   1      45.358  24.954  26.583  1.00  0.00     0.049 A 
ATOM     52  C   UNL A   1      46.848  30.282  27.525  1.00  0.00     0.074 A 
ATOM     53  C   UNL A   1      46.322  24.128  26.033  1.00  0.00     0.029 A 
ATOM     54  N   UNL A   1      45.943  26.203  26.735  1.00  0.00    -0.354 N 
ATOM     55  N   UNL A   1      46.643  29.016  27.246  1.00  0.00    -0.248 NA
ATOM     56  C   UNL A   1      48.207  30.752  27.233  1.00  0.00     0.031 C 
ATOM     57  C   UNL A   1      47.504  24.866  25.898  1.00  0.00     0.029 A 
ATOM     58  C   UNL A   1      47.261  26.166  26.311  1.00  0.00     0.049 A 
ATOM     59  H   UNL A   1      45.487  27.000  27.092  1.00  0.00     0.167 HD
ATOM     60  C   UNL A   1      47.843  28.543  26.729  1.00  0.00     0.074 A 
ATOM     61  C   UNL A   1      48.757  29.667  26.707  1.00  0.00     0.031 C 
ATOM     62  C   UNL A   1      48.163  27.291  26.312  1.00  0.00     0.037 A 
BRANCH  49  63
ATOM     63  C   UNL A   1      43.535  23.206  26.786  1.00  0.00     0.058 A 
ATOM     64  C   UNL A   1      43.291  22.377  27.893  1.00  0.00     0.135 A 
ATOM     65  C   UNL A   1      43.292  22.676  25.509  1.00  0.00     0.135 A 
ATOM     66  F   UNL A   1      43.520  22.826  29.138  1.00  0.00    -0.206 F 
ATOM     67  C   UNL A   1      42.853  21.065  27.740  1.00  0.00     0.059 A 
ATOM     68  C   UNL A   1      42.825  21.376  25.332  1.00  0.00     0.059 A 
ATOM     69  F   UNL A   1      43.510  23.421  24.414  1.00  0.00    -0.206 F 
ATOM     70  C   UNL A   1      42.622  20.574  26.455  1.00  0.00     0.060 A 
BRANCH  70  71
ATOM     71  S   UNL A   1      42.045  18.873  26.274  1.00  0.00     0.124 S 
ATOM     72  O   UNL A   1      40.670  19.079  25.830  1.00  0.00    -0.237 OA
ATOM     73  O   UNL A   1      42.960  18.337  25.273  1.00  0.00    -0.237 OA
ATOM     74  O   UNL A   1      42.192  18.318  27.616  1.00  0.00    -0.744 OA
ENDBRANCH  70  71
ENDBRANCH  49  63
BRANCH  50  75
ATOM     75  C   UNL A   1      46.305  32.703  28.321  1.00  0.00     0.058 A 
ATOM     76  C   UNL A   1      46.812  33.110  29.565  1.00  0.00     0.135 A 
ATOM     77  C   UNL A   1      46.225  33.665  27.303  1.00  0.00     0.135 A 
ATOM     78  F   UNL A   1      46.905  32.227  30.572  1.00  0.00    -0.206 F 
ATOM     79  C   UNL A   1      47.204  34.424  29.799  1.00  0.00     0.059 A 
ATOM     80  C   UNL A   1      46.637  34.979  27.504  1.00  0.00     0.059 A 
ATOM     81  F   UNL A   1      45.767  33.324  26.089  1.00  0.00    -0.206 F 
ATOM     82  C   UNL A   1      47.114  35.351  28.760  1.00  0.00     0.060 A 
BRANCH  82  83
ATOM     83  S   UNL A   1      47.671  37.044  29.058  1.00  0.00     0.124 S 
ATOM     84  O   UNL A   1      48.702  36.841  30.068  1.00  0.00    -0.237 OA
ATOM     85  O   UNL A   1      48.140  37.449  27.737  1.00  0.00    -0.237 OA
ATOM     86  O   UNL A   1      46.460  37.717  29.518  1.00  0.00    -0.744 OA
ENDBRANCH  82  83
ENDBRANCH  50  75
BRANCH  62  87
ATOM     87  C   UNL A   1      49.557  27.086  25.785  1.00  0.00     0.058 A 
ATOM     88  C   UNL A   1      49.861  27.242  24.422  1.00  0.00     0.135 A 
ATOM     89  C   UNL A   1      50.603  26.729  26.651  1.00  0.00     0.135 A 
ATOM     90  F   UNL A   1      48.898  27.581  23.550  1.00  0.00    -0.206 F 
ATOM     91  C   UNL A   1      51.139  26.998  23.930  1.00  0.00     0.059 A 
ATOM     92  C   UNL A   1      51.897  26.513  26.186  1.00  0.00     0.059 A 
ATOM     93  F   UNL A   1      50.373  26.583  27.966  1.00  0.00    -0.206 F 
ATOM     94  C   UNL A   1      52.149  26.627  24.819  1.00  0.00     0.060 A 
BRANCH  94  95
ATOM     95  S   UNL A   1      53.798  26.296  24.167  1.00  0.00     0.124 S 
ATOM     96  O   UNL A   1      54.147  25.064  24.867  1.00  0.00    -0.237 OA
ATOM     97  O   UNL A   1      53.548  26.163  22.735  1.00  0.00    -0.237 OA
ATOM     98  O   UNL A   1      54.561  27.478  24.557  1.00  0.00    -0.744 OA
ENDBRANCH  94  95
ENDBRANCH  62  87
ENDBRANCH  36  37
ENDBRANCH  28  31
ENDBRANCH  26  27
ENDBRANCH  25  26
ENDBRANCH  24  25
ENDBRANCH   1  24
TORSDOF 22
ENDMDL
