MODEL 1
REMARK VINA RESULT:      -9.2      0.000      0.000
REMARK SMILES Cc1cc(C(=O)NCCCCCCNC(=O)c2ccc(-c3c4nc(c(-c5c(F)cc(S(=O)(=O)[O-])cc5F)c5ccc([nH]5)c(-c5c(F)cc(S(=O)(=O)[O-])cc5F)c5nc(c(-c6c(F)cc(S(=O)(=O)[O-])cc6F)c6ccc3[nH]6)C=C5)C=C4)cc2)cc(C)c1OC[C@H]1C[N@@H+](C)CCO1
REMARK SMILES IDX 10 1 9 2 8 3 7 4 5 5 6 6 4 8 1 9 2 10 3 11 86 12 84 13 83 14
REMARK SMILES IDX 85 15 87 16 88 17 89 18 90 19 95 20 91 21 94 22 92 23 93 24
REMARK SMILES IDX 11 26 12 27 13 28 14 29 15 30 16 32 17 33 18 34 82 35 19 36
REMARK SMILES IDX 81 37 20 38 21 39 22 40 75 41 23 42 80 43 74 44 76 45 24 46
REMARK SMILES IDX 79 47 73 48 72 49 25 51 59 52 38 53 58 54 39 55 42 56 57 57
REMARK SMILES IDX 77 58 40 59 41 60 56 62 78 63 43 64 26 65 27 66 36 67 28 68
REMARK SMILES IDX 29 69 35 70 37 71 30 72 31 73 32 74 33 75 34 76 60 77 61 78
REMARK SMILES IDX 70 79 62 80 63 81 69 82 71 83 64 84 65 85 66 86 67 87 68 88
REMARK SMILES IDX 44 89 45 90 54 91 46 92 47 93 53 94 55 95 48 96 49 97 50 98
REMARK SMILES IDX 51 99 52 100
REMARK H PARENT 7 7 91 25 14 31 76 50 42 61
REMARK Flexibility Score: inf
ROOT
ATOM      1  C   UNL A   1      37.103  33.252  29.192  1.00  0.00     0.002 C 
ENDROOT
BRANCH   1   2
ATOM      2  C   UNL A   1      38.409  34.025  29.379  1.00  0.00     0.021 C 
BRANCH   2   3
ATOM      3  C   UNL A   1      38.646  34.614  30.764  1.00  0.00     0.116 C 
BRANCH   3   4
ATOM      4  N   UNL A   1      37.451  34.658  31.583  1.00  0.00    -0.352 N 
ATOM      5  C   UNL A   1      37.046  33.824  32.593  1.00  0.00     0.251 C 
ATOM      6  O   UNL A   1      35.952  34.015  33.120  1.00  0.00    -0.269 OA
ATOM      7  H   UNL A   1      36.837  35.401  31.384  1.00  0.00     0.163 HD
BRANCH   5   8
ATOM      8  C   UNL A   1      37.861  32.655  33.005  1.00  0.00     0.040 A 
ATOM      9  C   UNL A   1      40.783  32.348  35.326  1.00  0.00     0.048 C 
ATOM     10  C   UNL A   1      39.748  31.864  34.360  1.00  0.00    -0.008 A 
ATOM     11  C   UNL A   1      38.958  32.905  33.823  1.00  0.00     0.021 A 
ATOM     12  C   UNL A   1      39.471  30.534  34.003  1.00  0.00     0.125 A 
ATOM     13  C   UNL A   1      38.325  30.277  33.206  1.00  0.00    -0.008 A 
ATOM     14  C   UNL A   1      37.569  31.338  32.670  1.00  0.00     0.021 A 
ATOM     15  C   UNL A   1      37.769  28.886  33.017  1.00  0.00     0.048 C 
BRANCH  12  16
ATOM     16  O   UNL A   1      40.136  29.403  34.380  1.00  0.00    -0.490 OA
BRANCH  16  17
ATOM     17  C   UNL A   1      41.249  28.834  33.671  1.00  0.00     0.267 C 
BRANCH  17  18
ATOM     18  C   UNL A   1      41.899  27.581  34.289  1.00  0.00     0.210 C 
ATOM     19  C   UNL A   1      42.844  27.966  35.444  1.00  0.00     0.298 C 
ATOM     20  O   UNL A   1      40.893  26.713  34.879  1.00  0.00    -0.363 OA
ATOM     21  N   UNL A   1      43.624  26.764  35.768  1.00  0.00    -0.333 N 
ATOM     22  C   UNL A   1      41.504  25.518  35.416  1.00  0.00     0.222 C 
ATOM     23  C   UNL A   1      44.791  27.058  36.577  1.00  0.00     0.332 C 
ATOM     24  C   UNL A   1      42.696  25.795  36.370  1.00  0.00     0.290 C 
ATOM     25  H   UNL A   1      44.028  26.353  34.926  1.00  0.00     0.348 HD
ENDBRANCH  17  18
ENDBRANCH  16  17
ENDBRANCH  12  16
ENDBRANCH   5   8
ENDBRANCH   3   4
ENDBRANCH   2   3
ENDBRANCH   1   2
BRANCH   1  26
ATOM     26  C   UNL A   1      36.244  33.663  27.994  1.00  0.00     0.002 C 
BRANCH  26  27
ATOM     27  C   UNL A   1      34.746  33.377  28.114  1.00  0.00     0.021 C 
BRANCH  27  28
ATOM     28  C   UNL A   1      34.372  32.246  29.063  1.00  0.00     0.116 C 
BRANCH  28  29
ATOM     29  N   UNL A   1      33.830  31.093  28.364  1.00  0.00    -0.352 N 
ATOM     30  C   UNL A   1      34.488  29.990  27.884  1.00  0.00     0.251 C 
ATOM     31  H   UNL A   1      32.857  31.106  28.216  1.00  0.00     0.163 HD
ATOM     32  O   UNL A   1      33.899  29.191  27.158  1.00  0.00    -0.269 OA
BRANCH  30  33
ATOM     33  C   UNL A   1      35.911  29.781  28.222  1.00  0.00     0.039 A 
ATOM     34  C   UNL A   1      36.242  29.309  29.494  1.00  0.00     0.014 A 
ATOM     35  C   UNL A   1      36.915  30.038  27.284  1.00  0.00     0.014 A 
ATOM     36  C   UNL A   1      37.577  29.041  29.805  1.00  0.00     0.010 A 
ATOM     37  C   UNL A   1      38.234  29.696  27.569  1.00  0.00     0.010 A 
ATOM     38  C   UNL A   1      38.581  29.201  28.835  1.00  0.00    -0.014 A 
BRANCH  38  39
ATOM     39  C   UNL A   1      39.996  28.856  29.127  1.00  0.00     0.031 A 
ATOM     40  C   UNL A   1      40.907  29.878  29.753  1.00  0.00     0.074 A 
ATOM     41  C   UNL A   1      40.473  27.645  28.777  1.00  0.00     0.049 A 
ATOM     42  N   UNL A   1      42.183  29.786  30.030  1.00  0.00    -0.248 NA
ATOM     43  C   UNL A   1      40.314  31.183  30.088  1.00  0.00     0.031 C 
ATOM     44  C   UNL A   1      39.700  26.589  28.122  1.00  0.00     0.029 A 
ATOM     45  N   UNL A   1      41.726  27.101  28.913  1.00  0.00    -0.354 N 
ATOM     46  C   UNL A   1      42.545  31.020  30.558  1.00  0.00     0.074 A 
ATOM     47  C   UNL A   1      41.371  31.861  30.510  1.00  0.00     0.031 C 
ATOM     48  C   UNL A   1      40.486  25.517  27.936  1.00  0.00     0.029 A 
ATOM     49  C   UNL A   1      41.830  25.821  28.418  1.00  0.00     0.049 A 
ATOM     50  H   UNL A   1      42.480  27.581  29.326  1.00  0.00     0.167 HD
ATOM     51  C   UNL A   1      43.743  31.407  31.060  1.00  0.00     0.037 A 
ATOM     52  C   UNL A   1      42.889  24.993  28.349  1.00  0.00     0.037 A 
ATOM     53  C   UNL A   1      44.902  30.554  31.122  1.00  0.00     0.049 A 
ATOM     54  C   UNL A   1      44.212  25.449  28.902  1.00  0.00     0.074 A 
ATOM     55  C   UNL A   1      46.145  30.833  31.661  1.00  0.00     0.029 A 
ATOM     56  N   UNL A   1      44.962  29.261  30.623  1.00  0.00    -0.354 N 
ATOM     57  N   UNL A   1      44.521  26.596  29.458  1.00  0.00    -0.248 NA
ATOM     58  C   UNL A   1      45.329  24.498  28.827  1.00  0.00     0.031 C 
ATOM     59  C   UNL A   1      46.974  29.728  31.440  1.00  0.00     0.029 A 
ATOM     60  C   UNL A   1      46.230  28.737  30.820  1.00  0.00     0.049 A 
ATOM     61  H   UNL A   1      44.215  28.785  30.193  1.00  0.00     0.167 HD
ATOM     62  C   UNL A   1      45.858  26.493  29.829  1.00  0.00     0.074 A 
ATOM     63  C   UNL A   1      46.295  25.167  29.441  1.00  0.00     0.031 C 
ATOM     64  C   UNL A   1      46.649  27.410  30.439  1.00  0.00     0.037 A 
BRANCH  51  65
ATOM     65  C   UNL A   1      43.860  32.814  31.584  1.00  0.00     0.058 A 
ATOM     66  C   UNL A   1      44.096  33.904  30.732  1.00  0.00     0.135 A 
ATOM     67  C   UNL A   1      43.697  33.082  32.954  1.00  0.00     0.135 A 
ATOM     68  F   UNL A   1      44.275  33.707  29.415  1.00  0.00    -0.206 F 
ATOM     69  C   UNL A   1      44.199  35.203  31.219  1.00  0.00     0.059 A 
ATOM     70  C   UNL A   1      43.762  34.377  33.459  1.00  0.00     0.059 A 
ATOM     71  F   UNL A   1      43.468  32.078  33.816  1.00  0.00    -0.206 F 
ATOM     72  C   UNL A   1      44.029  35.429  32.586  1.00  0.00     0.060 A 
BRANCH  72  73
ATOM     73  S   UNL A   1      44.160  37.122  33.200  1.00  0.00     0.124 S 
ATOM     74  O   UNL A   1      45.479  37.104  33.822  1.00  0.00    -0.237 OA
ATOM     75  O   UNL A   1      44.047  37.907  31.976  1.00  0.00    -0.237 OA
ATOM     76  O   UNL A   1      43.034  37.237  34.123  1.00  0.00    -0.744 OA
ENDBRANCH  72  73
ENDBRANCH  51  65
BRANCH  52  77
ATOM     77  C   UNL A   1      42.735  23.638  27.750  1.00  0.00     0.058 A 
ATOM     78  C   UNL A   1      42.452  22.522  28.550  1.00  0.00     0.135 A 
ATOM     79  C   UNL A   1      42.854  23.435  26.365  1.00  0.00     0.135 A 
ATOM     80  F   UNL A   1      42.334  22.661  29.879  1.00  0.00    -0.206 F 
ATOM     81  C   UNL A   1      42.308  21.249  28.003  1.00  0.00     0.059 A 
ATOM     82  C   UNL A   1      42.686  22.178  25.793  1.00  0.00     0.059 A 
ATOM     83  F   UNL A   1      43.107  24.474  25.553  1.00  0.00    -0.206 F 
ATOM     84  C   UNL A   1      42.424  21.090  26.622  1.00  0.00     0.060 A 
BRANCH  84  85
ATOM     85  S   UNL A   1      42.189  19.443  25.920  1.00  0.00     0.124 S 
ATOM     86  O   UNL A   1      42.992  19.523  24.706  1.00  0.00    -0.237 OA
ATOM     87  O   UNL A   1      42.711  18.583  26.976  1.00  0.00    -0.237 OA
ATOM     88  O   UNL A   1      40.745  19.368  25.717  1.00  0.00    -0.744 OA
ENDBRANCH  84  85
ENDBRANCH  52  77
BRANCH  64  89
ATOM     89  C   UNL A   1      48.059  27.004  30.768  1.00  0.00     0.058 A 
ATOM     90  C   UNL A   1      49.118  27.198  29.868  1.00  0.00     0.135 A 
ATOM     91  C   UNL A   1      48.364  26.471  32.032  1.00  0.00     0.135 A 
ATOM     92  F   UNL A   1      48.882  27.698  28.645  1.00  0.00    -0.206 F 
ATOM     93  C   UNL A   1      50.425  26.857  30.200  1.00  0.00     0.059 A 
ATOM     94  C   UNL A   1      49.668  26.153  32.397  1.00  0.00     0.059 A 
ATOM     95  F   UNL A   1      47.390  26.274  32.936  1.00  0.00    -0.206 F 
ATOM     96  C   UNL A   1      50.691  26.340  31.470  1.00  0.00     0.060 A 
BRANCH  96  97
ATOM     97  S   UNL A   1      52.398  25.944  31.903  1.00  0.00     0.124 S 
ATOM     98  O   UNL A   1      52.259  24.597  32.446  1.00  0.00    -0.237 OA
ATOM     99  O   UNL A   1      53.077  26.041  30.615  1.00  0.00    -0.237 OA
ATOM    100  O   UNL A   1      52.753  26.977  32.871  1.00  0.00    -0.744 OA
ENDBRANCH  96  97
ENDBRANCH  64  89
ENDBRANCH  38  39
ENDBRANCH  30  33
ENDBRANCH  28  29
ENDBRANCH  27  28
ENDBRANCH  26  27
ENDBRANCH   1  26
TORSDOF 19
ENDMDL
MODEL 2
REMARK VINA RESULT:      -8.7      5.015     12.270
REMARK SMILES Cc1cc(C(=O)NCCCCCCNC(=O)c2ccc(-c3c4nc(c(-c5c(F)cc(S(=O)(=O)[O-])cc5F)c5ccc([nH]5)c(-c5c(F)cc(S(=O)(=O)[O-])cc5F)c5nc(c(-c6c(F)cc(S(=O)(=O)[O-])cc6F)c6ccc3[nH]6)C=C5)C=C4)cc2)cc(C)c1OC[C@H]1C[N@@H+](C)CCO1
REMARK SMILES IDX 10 1 9 2 8 3 7 4 5 5 6 6 4 8 1 9 2 10 3 11 86 12 84 13 83 14
REMARK SMILES IDX 85 15 87 16 88 17 89 18 90 19 95 20 91 21 94 22 92 23 93 24
REMARK SMILES IDX 11 26 12 27 13 28 14 29 15 30 16 32 17 33 18 34 82 35 19 36
REMARK SMILES IDX 81 37 20 38 21 39 22 40 75 41 23 42 80 43 74 44 76 45 24 46
REMARK SMILES IDX 79 47 73 48 72 49 25 51 59 52 38 53 58 54 39 55 42 56 57 57
REMARK SMILES IDX 77 58 40 59 41 60 56 62 78 63 43 64 26 65 27 66 36 67 28 68
REMARK SMILES IDX 29 69 35 70 37 71 30 72 31 73 32 74 33 75 34 76 60 77 61 78
REMARK SMILES IDX 70 79 62 80 63 81 69 82 71 83 64 84 65 85 66 86 67 87 68 88
REMARK SMILES IDX 44 89 45 90 54 91 46 92 47 93 53 94 55 95 48 96 49 97 50 98
REMARK SMILES IDX 51 99 52 100
REMARK H PARENT 7 7 91 25 14 31 76 50 42 61
REMARK Flexibility Score: inf
ROOT
ATOM      1  C   UNL A   1      36.755  23.336  25.396  1.00  0.00     0.002 C 
ENDROOT
BRANCH   1   2
ATOM      2  C   UNL A   1      36.681  21.813  25.282  1.00  0.00     0.021 C 
BRANCH   2   3
ATOM      3  C   UNL A   1      35.507  21.145  25.987  1.00  0.00     0.116 C 
BRANCH   3   4
ATOM      4  N   UNL A   1      34.764  20.239  25.134  1.00  0.00    -0.352 N 
ATOM      5  C   UNL A   1      33.533  20.391  24.552  1.00  0.00     0.251 C 
ATOM      6  O   UNL A   1      33.059  19.457  23.907  1.00  0.00    -0.269 OA
ATOM      7  H   UNL A   1      35.213  19.385  24.944  1.00  0.00     0.163 HD
BRANCH   5   8
ATOM      8  C   UNL A   1      32.728  21.622  24.750  1.00  0.00     0.040 A 
ATOM      9  C   UNL A   1      32.261  24.662  22.615  1.00  0.00     0.048 C 
ATOM     10  C   UNL A   1      32.067  23.793  23.818  1.00  0.00    -0.008 A 
ATOM     11  C   UNL A   1      32.854  22.620  23.790  1.00  0.00     0.021 A 
ATOM     12  C   UNL A   1      31.178  24.001  24.885  1.00  0.00     0.125 A 
ATOM     13  C   UNL A   1      31.017  22.962  25.838  1.00  0.00    -0.008 A 
ATOM     14  C   UNL A   1      31.832  21.813  25.794  1.00  0.00     0.021 A 
ATOM     15  C   UNL A   1      29.888  22.953  26.841  1.00  0.00     0.048 C 
BRANCH  12  16
ATOM     16  O   UNL A   1      30.368  25.077  25.112  1.00  0.00    -0.490 OA
BRANCH  16  17
ATOM     17  C   UNL A   1      30.602  26.081  26.113  1.00  0.00     0.267 C 
BRANCH  17  18
ATOM     18  C   UNL A   1      31.856  26.959  25.935  1.00  0.00     0.210 C 
ATOM     19  C   UNL A   1      31.743  27.825  24.666  1.00  0.00     0.298 C 
ATOM     20  O   UNL A   1      31.991  27.898  27.038  1.00  0.00    -0.363 OA
ATOM     21  N   UNL A   1      33.076  28.395  24.425  1.00  0.00    -0.333 N 
ATOM     22  C   UNL A   1      33.192  28.687  26.889  1.00  0.00     0.222 C 
ATOM     23  C   UNL A   1      33.219  28.933  23.086  1.00  0.00     0.332 C 
ATOM     24  C   UNL A   1      33.333  29.365  25.500  1.00  0.00     0.290 C 
ATOM     25  H   UNL A   1      33.794  27.670  24.458  1.00  0.00     0.348 HD
ENDBRANCH  17  18
ENDBRANCH  16  17
ENDBRANCH  12  16
ENDBRANCH   5   8
ENDBRANCH   3   4
ENDBRANCH   2   3
ENDBRANCH   1   2
BRANCH   1  26
ATOM     26  C   UNL A   1      37.957  23.896  26.160  1.00  0.00     0.002 C 
BRANCH  26  27
ATOM     27  C   UNL A   1      39.051  22.889  26.518  1.00  0.00     0.021 C 
BRANCH  27  28
ATOM     28  C   UNL A   1      40.314  23.486  27.125  1.00  0.00     0.116 C 
BRANCH  28  29
ATOM     29  N   UNL A   1      41.181  24.083  26.123  1.00  0.00    -0.352 N 
ATOM     30  C   UNL A   1      41.593  25.385  26.008  1.00  0.00     0.251 C 
ATOM     31  H   UNL A   1      41.519  23.467  25.434  1.00  0.00     0.163 HD
ATOM     32  O   UNL A   1      42.183  25.757  24.995  1.00  0.00    -0.269 OA
BRANCH  30  33
ATOM     33  C   UNL A   1      41.302  26.345  27.094  1.00  0.00     0.039 A 
ATOM     34  C   UNL A   1      40.345  26.010  28.054  1.00  0.00     0.014 A 
ATOM     35  C   UNL A   1      41.979  27.566  27.170  1.00  0.00     0.014 A 
ATOM     36  C   UNL A   1      40.109  26.877  29.124  1.00  0.00     0.010 A 
ATOM     37  C   UNL A   1      41.799  28.390  28.278  1.00  0.00     0.010 A 
ATOM     38  C   UNL A   1      40.857  28.058  29.263  1.00  0.00    -0.014 A 
BRANCH  38  39
ATOM     39  C   UNL A   1      40.667  28.957  30.430  1.00  0.00     0.031 A 
ATOM     40  C   UNL A   1      41.506  28.776  31.667  1.00  0.00     0.074 A 
ATOM     41  C   UNL A   1      39.701  29.896  30.397  1.00  0.00     0.049 A 
ATOM     42  N   UNL A   1      41.448  29.419  32.805  1.00  0.00    -0.248 NA
ATOM     43  C   UNL A   1      42.526  27.715  31.630  1.00  0.00     0.031 C 
ATOM     44  C   UNL A   1      38.793  30.137  29.274  1.00  0.00     0.029 A 
ATOM     45  N   UNL A   1      39.314  30.819  31.337  1.00  0.00    -0.354 N 
ATOM     46  C   UNL A   1      42.412  28.836  33.619  1.00  0.00     0.074 A 
ATOM     47  C   UNL A   1      42.999  27.750  32.867  1.00  0.00     0.031 C 
ATOM     48  C   UNL A   1      37.973  31.154  29.579  1.00  0.00     0.029 A 
ATOM     49  C   UNL A   1      38.265  31.612  30.934  1.00  0.00     0.049 A 
ATOM     50  H   UNL A   1      39.746  30.904  32.218  1.00  0.00     0.167 HD
ATOM     51  C   UNL A   1      42.789  29.190  34.872  1.00  0.00     0.037 A 
ATOM     52  C   UNL A   1      37.606  32.590  31.586  1.00  0.00     0.037 A 
ATOM     53  C   UNL A   1      42.212  30.287  35.605  1.00  0.00     0.049 A 
ATOM     54  C   UNL A   1      38.035  32.958  32.981  1.00  0.00     0.074 A 
ATOM     55  C   UNL A   1      42.560  30.760  36.857  1.00  0.00     0.029 A 
ATOM     56  N   UNL A   1      41.162  31.075  35.157  1.00  0.00    -0.354 N 
ATOM     57  N   UNL A   1      38.992  32.438  33.712  1.00  0.00    -0.248 NA
ATOM     58  C   UNL A   1      37.301  34.048  33.637  1.00  0.00     0.031 C 
ATOM     59  C   UNL A   1      41.686  31.801  37.189  1.00  0.00     0.029 A 
ATOM     60  C   UNL A   1      40.834  32.018  36.118  1.00  0.00     0.049 A 
ATOM     61  H   UNL A   1      40.716  30.980  34.284  1.00  0.00     0.167 HD
ATOM     62  C   UNL A   1      38.998  33.160  34.901  1.00  0.00     0.074 A 
ATOM     63  C   UNL A   1      37.954  34.158  34.787  1.00  0.00     0.031 C 
ATOM     64  C   UNL A   1      39.798  33.013  35.986  1.00  0.00     0.037 A 
BRANCH  51  65
ATOM     65  C   UNL A   1      43.879  28.384  35.528  1.00  0.00     0.058 A 
ATOM     66  C   UNL A   1      43.593  27.276  36.341  1.00  0.00     0.135 A 
ATOM     67  C   UNL A   1      45.231  28.702  35.311  1.00  0.00     0.135 A 
ATOM     68  F   UNL A   1      42.320  26.934  36.596  1.00  0.00    -0.206 F 
ATOM     69  C   UNL A   1      44.603  26.531  36.942  1.00  0.00     0.059 A 
ATOM     70  C   UNL A   1      46.258  27.951  35.875  1.00  0.00     0.059 A 
ATOM     71  F   UNL A   1      45.564  29.751  34.542  1.00  0.00    -0.206 F 
ATOM     72  C   UNL A   1      45.934  26.877  36.701  1.00  0.00     0.060 A 
BRANCH  72  73
ATOM     73  S   UNL A   1      47.232  25.896  37.484  1.00  0.00     0.124 S 
ATOM     74  O   UNL A   1      47.472  26.655  38.707  1.00  0.00    -0.237 OA
ATOM     75  O   UNL A   1      46.582  24.602  37.657  1.00  0.00    -0.237 OA
ATOM     76  O   UNL A   1      48.316  25.925  36.507  1.00  0.00    -0.744 OA
ENDBRANCH  72  73
ENDBRANCH  51  65
BRANCH  52  77
ATOM     77  C   UNL A   1      36.484  33.303  30.916  1.00  0.00     0.058 A 
ATOM     78  C   UNL A   1      35.154  33.093  31.311  1.00  0.00     0.135 A 
ATOM     79  C   UNL A   1      36.718  34.219  29.878  1.00  0.00     0.135 A 
ATOM     80  F   UNL A   1      34.876  32.224  32.295  1.00  0.00    -0.206 F 
ATOM     81  C   UNL A   1      34.096  33.751  30.691  1.00  0.00     0.059 A 
ATOM     82  C   UNL A   1      35.679  34.910  29.262  1.00  0.00     0.059 A 
ATOM     83  F   UNL A   1      37.974  34.470  29.473  1.00  0.00    -0.206 F 
ATOM     84  C   UNL A   1      34.370  34.662  29.670  1.00  0.00     0.060 A 
BRANCH  84  85
ATOM     85  S   UNL A   1      32.993  35.544  28.906  1.00  0.00     0.124 S 
ATOM     86  O   UNL A   1      32.462  34.532  27.999  1.00  0.00    -0.237 OA
ATOM     87  O   UNL A   1      32.161  35.869  30.059  1.00  0.00    -0.237 OA
ATOM     88  O   UNL A   1      33.640  36.686  28.266  1.00  0.00    -0.744 OA
ENDBRANCH  84  85
ENDBRANCH  52  77
BRANCH  64  89
ATOM     89  C   UNL A   1      39.611  33.978  37.125  1.00  0.00     0.058 A 
ATOM     90  C   UNL A   1      38.897  33.632  38.282  1.00  0.00     0.135 A 
ATOM     91  C   UNL A   1      40.212  35.248  37.081  1.00  0.00     0.135 A 
ATOM     92  F   UNL A   1      38.298  32.435  38.375  1.00  0.00    -0.206 F 
ATOM     93  C   UNL A   1      38.767  34.518  39.347  1.00  0.00     0.059 A 
ATOM     94  C   UNL A   1      40.122  36.137  38.146  1.00  0.00     0.059 A 
ATOM     95  F   UNL A   1      40.915  35.626  36.001  1.00  0.00    -0.206 F 
ATOM     96  C   UNL A   1      39.388  35.767  39.272  1.00  0.00     0.060 A 
BRANCH  96  97
ATOM     97  S   UNL A   1      39.248  36.889  40.679  1.00  0.00     0.124 S 
ATOM     98  O   UNL A   1      38.500  36.074  41.631  1.00  0.00    -0.237 OA
ATOM     99  O   UNL A   1      40.645  37.138  41.019  1.00  0.00    -0.237 OA
ATOM    100  O   UNL A   1      38.528  38.034  40.132  1.00  0.00    -0.744 OA
ENDBRANCH  96  97
ENDBRANCH  64  89
ENDBRANCH  38  39
ENDBRANCH  30  33
ENDBRANCH  28  29
ENDBRANCH  27  28
ENDBRANCH  26  27
ENDBRANCH   1  26
TORSDOF 19
ENDMDL
MODEL 3
REMARK VINA RESULT:      -8.7      3.407      9.738
REMARK SMILES Cc1cc(C(=O)NCCCCCCNC(=O)c2ccc(-c3c4nc(c(-c5c(F)cc(S(=O)(=O)[O-])cc5F)c5ccc([nH]5)c(-c5c(F)cc(S(=O)(=O)[O-])cc5F)c5nc(c(-c6c(F)cc(S(=O)(=O)[O-])cc6F)c6ccc3[nH]6)C=C5)C=C4)cc2)cc(C)c1OC[C@H]1C[N@@H+](C)CCO1
REMARK SMILES IDX 10 1 9 2 8 3 7 4 5 5 6 6 4 8 1 9 2 10 3 11 86 12 84 13 83 14
REMARK SMILES IDX 85 15 87 16 88 17 89 18 90 19 95 20 91 21 94 22 92 23 93 24
REMARK SMILES IDX 11 26 12 27 13 28 14 29 15 30 16 32 17 33 18 34 82 35 19 36
REMARK SMILES IDX 81 37 20 38 21 39 22 40 75 41 23 42 80 43 74 44 76 45 24 46
REMARK SMILES IDX 79 47 73 48 72 49 25 51 59 52 38 53 58 54 39 55 42 56 57 57
REMARK SMILES IDX 77 58 40 59 41 60 56 62 78 63 43 64 26 65 27 66 36 67 28 68
REMARK SMILES IDX 29 69 35 70 37 71 30 72 31 73 32 74 33 75 34 76 60 77 61 78
REMARK SMILES IDX 70 79 62 80 63 81 69 82 71 83 64 84 65 85 66 86 67 87 68 88
REMARK SMILES IDX 44 89 45 90 54 91 46 92 47 93 53 94 55 95 48 96 49 97 50 98
REMARK SMILES IDX 51 99 52 100
REMARK H PARENT 7 7 91 25 14 31 76 50 42 61
REMARK Flexibility Score: inf
ROOT
ATOM      1  C   UNL A   1      43.474  23.033  24.942  1.00  0.00     0.002 C 
ENDROOT
BRANCH   1   2
ATOM      2  C   UNL A   1      44.808  22.293  24.833  1.00  0.00     0.021 C 
BRANCH   2   3
ATOM      3  C   UNL A   1      45.914  22.765  25.767  1.00  0.00     0.116 C 
BRANCH   3   4
ATOM      4  N   UNL A   1      45.515  22.803  27.160  1.00  0.00    -0.352 N 
ATOM      5  C   UNL A   1      45.221  23.875  27.962  1.00  0.00     0.251 C 
ATOM      6  O   UNL A   1      44.960  23.679  29.147  1.00  0.00    -0.269 OA
ATOM      7  H   UNL A   1      45.443  21.924  27.596  1.00  0.00     0.163 HD
BRANCH   5   8
ATOM      8  C   UNL A   1      45.291  25.267  27.451  1.00  0.00     0.040 A 
ATOM      9  C   UNL A   1      48.145  27.673  27.161  1.00  0.00     0.048 C 
ATOM     10  C   UNL A   1      46.726  27.214  27.040  1.00  0.00    -0.008 A 
ATOM     11  C   UNL A   1      46.510  25.925  27.577  1.00  0.00     0.021 A 
ATOM     12  C   UNL A   1      45.662  27.891  26.423  1.00  0.00     0.125 A 
ATOM     13  C   UNL A   1      44.433  27.201  26.255  1.00  0.00    -0.008 A 
ATOM     14  C   UNL A   1      44.243  25.924  26.820  1.00  0.00     0.021 A 
ATOM     15  C   UNL A   1      43.335  27.713  25.353  1.00  0.00     0.048 C 
BRANCH  12  16
ATOM     16  O   UNL A   1      45.658  29.146  25.884  1.00  0.00    -0.490 OA
BRANCH  16  17
ATOM     17  C   UNL A   1      46.004  30.344  26.597  1.00  0.00     0.267 C 
BRANCH  17  18
ATOM     18  C   UNL A   1      44.947  31.465  26.627  1.00  0.00     0.210 C 
ATOM     19  C   UNL A   1      45.104  32.332  27.892  1.00  0.00     0.298 C 
ATOM     20  O   UNL A   1      45.124  32.374  25.506  1.00  0.00    -0.363 OA
ATOM     21  N   UNL A   1      43.899  33.169  27.980  1.00  0.00    -0.333 N 
ATOM     22  C   UNL A   1      44.102  33.396  25.515  1.00  0.00     0.222 C 
ATOM     23  C   UNL A   1      43.732  33.769  29.289  1.00  0.00     0.332 C 
ATOM     24  C   UNL A   1      43.961  34.134  26.872  1.00  0.00     0.290 C 
ATOM     25  H   UNL A   1      43.055  32.604  27.878  1.00  0.00     0.348 HD
ENDBRANCH  17  18
ENDBRANCH  16  17
ENDBRANCH  12  16
ENDBRANCH   5   8
ENDBRANCH   3   4
ENDBRANCH   2   3
ENDBRANCH   1   2
BRANCH   1  26
ATOM     26  C   UNL A   1      42.296  22.219  25.482  1.00  0.00     0.002 C 
BRANCH  26  27
ATOM     27  C   UNL A   1      41.926  22.465  26.946  1.00  0.00     0.021 C 
BRANCH  27  28
ATOM     28  C   UNL A   1      40.556  21.954  27.367  1.00  0.00     0.116 C 
BRANCH  28  29
ATOM     29  N   UNL A   1      39.525  22.261  26.390  1.00  0.00    -0.352 N 
ATOM     30  C   UNL A   1      38.814  23.422  26.226  1.00  0.00     0.251 C 
ATOM     31  H   UNL A   1      39.308  21.537  25.760  1.00  0.00     0.163 HD
ATOM     32  O   UNL A   1      37.850  23.450  25.462  1.00  0.00    -0.269 OA
BRANCH  30  33
ATOM     33  C   UNL A   1      39.195  24.629  26.989  1.00  0.00     0.039 A 
ATOM     34  C   UNL A   1      38.711  24.789  28.289  1.00  0.00     0.014 A 
ATOM     35  C   UNL A   1      40.037  25.594  26.428  1.00  0.00     0.014 A 
ATOM     36  C   UNL A   1      39.117  25.889  29.046  1.00  0.00     0.010 A 
ATOM     37  C   UNL A   1      40.502  26.647  27.211  1.00  0.00     0.010 A 
ATOM     38  C   UNL A   1      40.042  26.811  28.526  1.00  0.00    -0.014 A 
BRANCH  38  39
ATOM     39  C   UNL A   1      40.536  27.949  29.342  1.00  0.00     0.031 A 
ATOM     40  C   UNL A   1      39.675  29.169  29.534  1.00  0.00     0.074 A 
ATOM     41  C   UNL A   1      41.779  27.907  29.860  1.00  0.00     0.049 A 
ATOM     42  N   UNL A   1      39.953  30.284  30.160  1.00  0.00    -0.248 NA
ATOM     43  C   UNL A   1      38.338  29.144  28.920  1.00  0.00     0.031 C 
ATOM     44  C   UNL A   1      42.724  26.800  29.703  1.00  0.00     0.029 A 
ATOM     45  N   UNL A   1      42.468  28.823  30.617  1.00  0.00    -0.354 N 
ATOM     46  C   UNL A   1      38.834  31.094  30.006  1.00  0.00     0.074 A 
ATOM     47  C   UNL A   1      37.897  30.366  29.179  1.00  0.00     0.031 C 
ATOM     48  C   UNL A   1      43.857  27.089  30.361  1.00  0.00     0.029 A 
ATOM     49  C   UNL A   1      43.739  28.419  30.953  1.00  0.00     0.049 A 
ATOM     50  H   UNL A   1      42.087  29.688  30.892  1.00  0.00     0.167 HD
ATOM     51  C   UNL A   1      38.598  32.323  30.527  1.00  0.00     0.037 A 
ATOM     52  C   UNL A   1      44.704  29.052  31.648  1.00  0.00     0.037 A 
ATOM     53  C   UNL A   1      39.530  33.030  31.367  1.00  0.00     0.049 A 
ATOM     54  C   UNL A   1      44.424  30.421  32.207  1.00  0.00     0.074 A 
ATOM     55  C   UNL A   1      39.366  34.255  31.988  1.00  0.00     0.029 A 
ATOM     56  N   UNL A   1      40.801  32.581  31.696  1.00  0.00    -0.354 N 
ATOM     57  N   UNL A   1      43.335  31.145  32.106  1.00  0.00    -0.248 NA
ATOM     58  C   UNL A   1      45.499  31.056  32.980  1.00  0.00     0.031 C 
ATOM     59  C   UNL A   1      40.557  34.572  32.650  1.00  0.00     0.029 A 
ATOM     60  C   UNL A   1      41.442  33.516  32.493  1.00  0.00     0.049 A 
ATOM     61  H   UNL A   1      41.191  31.725  31.406  1.00  0.00     0.167 HD
ATOM     62  C   UNL A   1      43.582  32.307  32.831  1.00  0.00     0.074 A 
ATOM     63  C   UNL A   1      44.920  32.184  33.371  1.00  0.00     0.031 C 
ATOM     64  C   UNL A   1      42.772  33.376  33.033  1.00  0.00     0.037 A 
BRANCH  51  65
ATOM     65  C   UNL A   1      37.282  32.979  30.206  1.00  0.00     0.058 A 
ATOM     66  C   UNL A   1      37.122  33.808  29.084  1.00  0.00     0.135 A 
ATOM     67  C   UNL A   1      36.153  32.746  31.009  1.00  0.00     0.135 A 
ATOM     68  F   UNL A   1      38.170  34.078  28.288  1.00  0.00    -0.206 F 
ATOM     69  C   UNL A   1      35.903  34.408  28.787  1.00  0.00     0.059 A 
ATOM     70  C   UNL A   1      34.915  33.310  30.713  1.00  0.00     0.059 A 
ATOM     71  F   UNL A   1      36.246  31.961  32.095  1.00  0.00    -0.206 F 
ATOM     72  C   UNL A   1      34.804  34.152  29.609  1.00  0.00     0.060 A 
BRANCH  72  73
ATOM     73  S   UNL A   1      33.228  34.935  29.207  1.00  0.00     0.124 S 
ATOM     74  O   UNL A   1      32.694  34.016  28.207  1.00  0.00    -0.237 OA
ATOM     75  O   UNL A   1      32.544  34.937  30.496  1.00  0.00    -0.237 OA
ATOM     76  O   UNL A   1      33.619  36.249  28.705  1.00  0.00    -0.744 OA
ENDBRANCH  72  73
ENDBRANCH  51  65
BRANCH  52  77
ATOM     77  C   UNL A   1      46.017  28.386  31.871  1.00  0.00     0.058 A 
ATOM     78  C   UNL A   1      47.047  28.484  30.925  1.00  0.00     0.135 A 
ATOM     79  C   UNL A   1      46.272  27.651  33.041  1.00  0.00     0.135 A 
ATOM     80  F   UNL A   1      46.852  29.170  29.789  1.00  0.00    -0.206 F 
ATOM     81  C   UNL A   1      48.279  27.864  31.121  1.00  0.00     0.059 A 
ATOM     82  C   UNL A   1      47.503  27.047  33.271  1.00  0.00     0.059 A 
ATOM     83  F   UNL A   1      45.325  27.541  33.986  1.00  0.00    -0.206 F 
ATOM     84  C   UNL A   1      48.497  27.150  32.300  1.00  0.00     0.060 A 
BRANCH  84  85
ATOM     85  S   UNL A   1      50.114  26.390  32.563  1.00  0.00     0.124 S 
ATOM     86  O   UNL A   1      50.167  26.308  34.018  1.00  0.00    -0.237 OA
ATOM     87  O   UNL A   1      49.974  25.122  31.855  1.00  0.00    -0.237 OA
ATOM     88  O   UNL A   1      51.035  27.344  31.951  1.00  0.00    -0.744 OA
ENDBRANCH  84  85
ENDBRANCH  52  77
BRANCH  64  89
ATOM     89  C   UNL A   1      43.287  34.483  33.911  1.00  0.00     0.058 A 
ATOM     90  C   UNL A   1      43.904  35.626  33.380  1.00  0.00     0.135 A 
ATOM     91  C   UNL A   1      43.102  34.426  35.303  1.00  0.00     0.135 A 
ATOM     92  F   UNL A   1      44.112  35.729  32.058  1.00  0.00    -0.206 F 
ATOM     93  C   UNL A   1      44.339  36.664  34.199  1.00  0.00     0.059 A 
ATOM     94  C   UNL A   1      43.499  35.465  36.138  1.00  0.00     0.059 A 
ATOM     95  F   UNL A   1      42.508  33.360  35.863  1.00  0.00    -0.206 F 
ATOM     96  C   UNL A   1      44.127  36.576  35.576  1.00  0.00     0.060 A 
BRANCH  96  97
ATOM     97  S   UNL A   1      44.656  37.950  36.621  1.00  0.00     0.124 S 
ATOM     98  O   UNL A   1      46.065  37.633  36.832  1.00  0.00    -0.237 OA
ATOM     99  O   UNL A   1      44.386  39.107  35.775  1.00  0.00    -0.237 OA
ATOM    100  O   UNL A   1      43.803  37.830  37.800  1.00  0.00    -0.744 OA
ENDBRANCH  96  97
ENDBRANCH  64  89
ENDBRANCH  38  39
ENDBRANCH  30  33
ENDBRANCH  28  29
ENDBRANCH  27  28
ENDBRANCH  26  27
ENDBRANCH   1  26
TORSDOF 19
ENDMDL
