MODEL 1
REMARK VINA RESULT:     -11.7      0.000      0.000
REMARK SMILES O=C(NCCCCCCNC(=O)c1ccc(-c2c3nc(c(-c4c(F)cc(S(=O)(=O)[O-])cc4F)c4ccc([nH]4)c(-c4c(F)cc(S(=O)(=O)[O-])cc4F)c4nc(c(-c5c(F)cc(S(=O)(=O)[O-])cc5F)c5ccc2[nH]5)C=C4)C=C3)cc1)C1=NN(c2ccc([N+](=O)[O-])cc2)[C@H](c2ccccc2)C1
REMARK SMILES IDX 7 1 6 2 5 3 4 4 3 5 1 6 2 7 79 9 80 10 98 11 81 12 91 13
REMARK SMILES IDX 82 14 83 15 90 16 84 17 89 18 85 19 86 20 87 21 88 22 92 23
REMARK SMILES IDX 93 24 97 25 94 26 96 27 95 28 8 29 9 30 10 31 11 32 12 34
REMARK SMILES IDX 13 35 14 36 78 37 15 38 77 39 16 40 17 41 18 42 71 43 19 44
REMARK SMILES IDX 76 45 70 46 72 47 20 48 75 49 69 50 68 51 21 53 55 54 34 55
REMARK SMILES IDX 54 56 35 57 38 58 53 59 73 60 36 61 37 62 52 64 74 65 39 66
REMARK SMILES IDX 22 67 23 68 32 69 24 70 25 71 31 72 33 73 26 74 27 75 28 76
REMARK SMILES IDX 29 77 30 78 56 79 57 80 66 81 58 82 59 83 65 84 67 85 60 86
REMARK SMILES IDX 61 87 62 88 63 89 64 90 40 91 41 92 50 93 42 94 43 95 49 96
REMARK SMILES IDX 51 97 44 98 45 99 46 100 47 101 48 102
REMARK H PARENT 3 8 10 33 72 52 38 63
REMARK Flexibility Score: inf
ROOT
ATOM      1  C   UNL A   1      32.001  27.693  25.557  1.00  0.00     0.002 C 
ENDROOT
BRANCH   1   2
ATOM      2  C   UNL A   1      31.941  28.860  24.567  1.00  0.00     0.002 C 
BRANCH   2   3
ATOM      3  C   UNL A   1      31.416  28.517  23.172  1.00  0.00     0.021 C 
BRANCH   3   4
ATOM      4  C   UNL A   1      31.283  27.025  22.875  1.00  0.00     0.116 C 
BRANCH   4   5
ATOM      5  N   UNL A   1      31.824  26.667  21.570  1.00  0.00    -0.351 N 
ATOM      6  O   UNL A   1      33.032  25.369  20.130  1.00  0.00    -0.268 OA
ATOM      7  C   UNL A   1      32.617  25.587  21.263  1.00  0.00     0.267 C 
ATOM      8  H   UNL A   1      31.596  27.268  20.824  1.00  0.00     0.163 HD
BRANCH   7   9
ATOM      9  C   UNL A   1      33.036  24.670  22.374  1.00  0.00     0.128 C 
ATOM     10  N   UNL A   1      34.273  24.521  22.725  1.00  0.00    -0.171 NA
ATOM     11  C   UNL A   1      32.020  23.901  23.144  1.00  0.00     0.096 C 
ATOM     12  N   UNL A   1      34.293  23.475  23.588  1.00  0.00    -0.257 N 
ATOM     13  C   UNL A   1      32.952  22.993  23.967  1.00  0.00     0.144 C 
BRANCH  12  14
ATOM     14  C   UNL A   1      35.456  23.249  24.311  1.00  0.00     0.061 A 
ATOM     15  C   UNL A   1      35.799  24.068  25.397  1.00  0.00     0.035 A 
ATOM     16  C   UNL A   1      36.358  22.250  23.923  1.00  0.00     0.035 A 
ATOM     17  C   UNL A   1      36.986  23.867  26.110  1.00  0.00     0.088 A 
ATOM     18  C   UNL A   1      37.549  22.033  24.622  1.00  0.00     0.088 A 
ATOM     19  C   UNL A   1      37.852  22.840  25.723  1.00  0.00     0.269 A 
BRANCH  19  20
ATOM     20  N   UNL A   1      39.084  22.600  26.482  1.00  0.00     0.062 N 
ATOM     21  O   UNL A   1      39.414  21.423  26.686  1.00  0.00    -0.258 OA
ATOM     22  O   UNL A   1      39.740  23.587  26.844  1.00  0.00    -0.258 OA
ENDBRANCH  19  20
ENDBRANCH  12  14
BRANCH  13  23
ATOM     23  C   UNL A   1      32.778  21.493  23.770  1.00  0.00    -0.023 A 
ATOM     24  C   UNL A   1      33.082  20.531  24.748  1.00  0.00     0.006 A 
ATOM     25  C   UNL A   1      32.263  21.033  22.542  1.00  0.00     0.006 A 
ATOM     26  C   UNL A   1      32.892  19.167  24.499  1.00  0.00     0.000 A 
ATOM     27  C   UNL A   1      32.036  19.674  22.310  1.00  0.00     0.000 A 
ATOM     28  C   UNL A   1      32.359  18.740  23.287  1.00  0.00     0.000 A 
ENDBRANCH  13  23
ENDBRANCH   7   9
ENDBRANCH   4   5
ENDBRANCH   3   4
ENDBRANCH   2   3
ENDBRANCH   1   2
BRANCH   1  29
ATOM     29  C   UNL A   1      33.383  27.391  26.146  1.00  0.00     0.021 C 
BRANCH  29  30
ATOM     30  C   UNL A   1      34.414  28.507  26.010  1.00  0.00     0.116 C 
BRANCH  30  31
ATOM     31  N   UNL A   1      33.888  29.807  26.393  1.00  0.00    -0.352 N 
ATOM     32  C   UNL A   1      34.316  30.669  27.373  1.00  0.00     0.251 C 
ATOM     33  H   UNL A   1      33.109  30.115  25.874  1.00  0.00     0.163 HD
ATOM     34  O   UNL A   1      33.645  31.660  27.647  1.00  0.00    -0.269 OA
BRANCH  32  35
ATOM     35  C   UNL A   1      35.568  30.395  28.115  1.00  0.00     0.039 A 
ATOM     36  C   UNL A   1      35.500  29.649  29.295  1.00  0.00     0.014 A 
ATOM     37  C   UNL A   1      36.799  30.876  27.663  1.00  0.00     0.014 A 
ATOM     38  C   UNL A   1      36.674  29.332  29.986  1.00  0.00     0.010 A 
ATOM     39  C   UNL A   1      37.974  30.507  28.317  1.00  0.00     0.010 A 
ATOM     40  C   UNL A   1      37.923  29.729  29.484  1.00  0.00    -0.014 A 
BRANCH  40  41
ATOM     41  C   UNL A   1      39.187  29.334  30.161  1.00  0.00     0.031 A 
ATOM     42  C   UNL A   1      39.663  30.083  31.377  1.00  0.00     0.074 A 
ATOM     43  C   UNL A   1      39.939  28.343  29.643  1.00  0.00     0.049 A 
ATOM     44  N   UNL A   1      40.774  29.940  32.052  1.00  0.00    -0.248 NA
ATOM     45  C   UNL A   1      38.784  31.148  31.885  1.00  0.00     0.031 C 
ATOM     46  C   UNL A   1      39.612  27.573  28.440  1.00  0.00     0.029 A 
ATOM     47  N   UNL A   1      41.144  27.824  30.049  1.00  0.00    -0.354 N 
ATOM     48  C   UNL A   1      40.735  30.900  33.056  1.00  0.00     0.074 A 
ATOM     49  C   UNL A   1      39.512  31.653  32.871  1.00  0.00     0.031 C 
ATOM     50  C   UNL A   1      40.584  26.674  28.215  1.00  0.00     0.029 A 
ATOM     51  C   UNL A   1      41.619  26.825  29.233  1.00  0.00     0.049 A 
ATOM     52  H   UNL A   1      41.621  28.138  30.851  1.00  0.00     0.167 HD
ATOM     53  C   UNL A   1      41.623  31.120  34.056  1.00  0.00     0.037 A 
ATOM     54  C   UNL A   1      42.764  26.117  29.291  1.00  0.00     0.037 A 
ATOM     55  C   UNL A   1      42.828  30.356  34.250  1.00  0.00     0.049 A 
ATOM     56  C   UNL A   1      43.734  26.376  30.410  1.00  0.00     0.074 A 
ATOM     57  C   UNL A   1      43.770  30.473  35.257  1.00  0.00     0.029 A 
ATOM     58  N   UNL A   1      43.257  29.329  33.421  1.00  0.00    -0.354 N 
ATOM     59  N   UNL A   1      43.654  27.254  31.383  1.00  0.00    -0.248 NA
ATOM     60  C   UNL A   1      44.945  25.545  30.449  1.00  0.00     0.031 C 
ATOM     61  C   UNL A   1      44.786  29.540  35.018  1.00  0.00     0.029 A 
ATOM     62  C   UNL A   1      44.456  28.813  33.887  1.00  0.00     0.049 A 
ATOM     63  H   UNL A   1      42.781  29.013  32.619  1.00  0.00     0.167 HD
ATOM     64  C   UNL A   1      44.791  27.064  32.160  1.00  0.00     0.074 A 
ATOM     65  C   UNL A   1      45.536  25.980  31.554  1.00  0.00     0.031 C 
ATOM     66  C   UNL A   1      45.182  27.727  33.277  1.00  0.00     0.037 A 
BRANCH  53  67
ATOM     67  C   UNL A   1      41.318  32.229  35.025  1.00  0.00     0.058 A 
ATOM     68  C   UNL A   1      40.477  32.026  36.131  1.00  0.00     0.135 A 
ATOM     69  C   UNL A   1      41.894  33.500  34.867  1.00  0.00     0.135 A 
ATOM     70  F   UNL A   1      39.889  30.834  36.323  1.00  0.00    -0.206 F 
ATOM     71  C   UNL A   1      40.191  33.049  37.027  1.00  0.00     0.059 A 
ATOM     72  C   UNL A   1      41.644  34.532  35.766  1.00  0.00     0.059 A 
ATOM     73  F   UNL A   1      42.706  33.749  33.828  1.00  0.00    -0.206 F 
ATOM     74  C   UNL A   1      40.778  34.302  36.835  1.00  0.00     0.060 A 
BRANCH  74  75
ATOM     75  S   UNL A   1      40.396  35.622  38.005  1.00  0.00     0.124 S 
ATOM     76  O   UNL A   1      39.307  35.024  38.771  1.00  0.00    -0.237 OA
ATOM     77  O   UNL A   1      41.658  35.784  38.720  1.00  0.00    -0.237 OA
ATOM     78  O   UNL A   1      40.018  36.740  37.146  1.00  0.00    -0.744 OA
ENDBRANCH  74  75
ENDBRANCH  53  67
BRANCH  54  79
ATOM     79  C   UNL A   1      43.048  25.083  28.260  1.00  0.00     0.058 A 
ATOM     80  C   UNL A   1      43.581  25.436  27.012  1.00  0.00     0.135 A 
ATOM     81  C   UNL A   1      42.805  23.724  28.507  1.00  0.00     0.135 A 
ATOM     82  F   UNL A   1      43.825  26.724  26.727  1.00  0.00    -0.206 F 
ATOM     83  C   UNL A   1      43.848  24.481  26.037  1.00  0.00     0.059 A 
ATOM     84  C   UNL A   1      43.086  22.746  27.557  1.00  0.00     0.059 A 
ATOM     85  F   UNL A   1      42.312  23.332  29.693  1.00  0.00    -0.206 F 
ATOM     86  C   UNL A   1      43.597  23.137  26.319  1.00  0.00     0.060 A 
BRANCH  86  87
ATOM     87  S   UNL A   1      43.991  21.899  25.065  1.00  0.00     0.124 S 
ATOM     88  O   UNL A   1      42.989  20.875  25.338  1.00  0.00    -0.237 OA
ATOM     89  O   UNL A   1      43.815  22.650  23.825  1.00  0.00    -0.237 OA
ATOM     90  O   UNL A   1      45.370  21.535  25.377  1.00  0.00    -0.744 OA
ENDBRANCH  86  87
ENDBRANCH  54  79
BRANCH  66  91
ATOM     91  C   UNL A   1      46.457  27.280  33.935  1.00  0.00     0.058 A 
ATOM     92  C   UNL A   1      47.692  27.869  33.626  1.00  0.00     0.135 A 
ATOM     93  C   UNL A   1      46.433  26.286  34.926  1.00  0.00     0.135 A 
ATOM     94  F   UNL A   1      47.771  28.820  32.681  1.00  0.00    -0.206 F 
ATOM     95  C   UNL A   1      48.865  27.472  34.261  1.00  0.00     0.059 A 
ATOM     96  C   UNL A   1      47.590  25.890  35.592  1.00  0.00     0.059 A 
ATOM     97  F   UNL A   1      45.275  25.697  35.266  1.00  0.00    -0.206 F 
ATOM     98  C   UNL A   1      48.803  26.482  35.244  1.00  0.00     0.060 A 
BRANCH  98  99
ATOM     99  S   UNL A   1      50.325  26.001  36.088  1.00  0.00     0.124 S 
ATOM    100  O   UNL A   1      50.949  27.298  36.331  1.00  0.00    -0.237 OA
ATOM    101  O   UNL A   1      49.823  25.308  37.271  1.00  0.00    -0.237 OA
ATOM    102  O   UNL A   1      51.000  25.152  35.112  1.00  0.00    -0.744 OA
ENDBRANCH  98  99
ENDBRANCH  66  91
ENDBRANCH  40  41
ENDBRANCH  32  35
ENDBRANCH  30  31
ENDBRANCH  29  30
ENDBRANCH   1  29
TORSDOF 19
ENDMDL
MODEL 2
REMARK VINA RESULT:     -11.6      0.489      8.052
REMARK SMILES O=C(NCCCCCCNC(=O)c1ccc(-c2c3nc(c(-c4c(F)cc(S(=O)(=O)[O-])cc4F)c4ccc([nH]4)c(-c4c(F)cc(S(=O)(=O)[O-])cc4F)c4nc(c(-c5c(F)cc(S(=O)(=O)[O-])cc5F)c5ccc2[nH]5)C=C4)C=C3)cc1)C1=NN(c2ccc([N+](=O)[O-])cc2)[C@H](c2ccccc2)C1
REMARK SMILES IDX 7 1 6 2 5 3 4 4 3 5 1 6 2 7 79 9 80 10 98 11 81 12 91 13
REMARK SMILES IDX 82 14 83 15 90 16 84 17 89 18 85 19 86 20 87 21 88 22 92 23
REMARK SMILES IDX 93 24 97 25 94 26 96 27 95 28 8 29 9 30 10 31 11 32 12 34
REMARK SMILES IDX 13 35 14 36 78 37 15 38 77 39 16 40 17 41 18 42 71 43 19 44
REMARK SMILES IDX 76 45 70 46 72 47 20 48 75 49 69 50 68 51 21 53 55 54 34 55
REMARK SMILES IDX 54 56 35 57 38 58 53 59 73 60 36 61 37 62 52 64 74 65 39 66
REMARK SMILES IDX 22 67 23 68 32 69 24 70 25 71 31 72 33 73 26 74 27 75 28 76
REMARK SMILES IDX 29 77 30 78 56 79 57 80 66 81 58 82 59 83 65 84 67 85 60 86
REMARK SMILES IDX 61 87 62 88 63 89 64 90 40 91 41 92 50 93 42 94 43 95 49 96
REMARK SMILES IDX 51 97 44 98 45 99 46 100 47 101 48 102
REMARK H PARENT 3 8 10 33 72 52 38 63
REMARK Flexibility Score: inf
ROOT
ATOM      1  C   UNL A   1      31.878  27.726  25.392  1.00  0.00     0.002 C 
ENDROOT
BRANCH   1   2
ATOM      2  C   UNL A   1      31.999  28.853  24.364  1.00  0.00     0.002 C 
BRANCH   2   3
ATOM      3  C   UNL A   1      31.509  28.519  22.955  1.00  0.00     0.021 C 
BRANCH   3   4
ATOM      4  C   UNL A   1      31.269  27.035  22.684  1.00  0.00     0.116 C 
BRANCH   4   5
ATOM      5  N   UNL A   1      31.782  26.616  21.386  1.00  0.00    -0.351 N 
ATOM      6  O   UNL A   1      32.955  25.249  19.982  1.00  0.00    -0.268 OA
ATOM      7  C   UNL A   1      32.564  25.520  21.111  1.00  0.00     0.267 C 
ATOM      8  H   UNL A   1      31.540  27.184  20.618  1.00  0.00     0.163 HD
BRANCH   7   9
ATOM      9  C   UNL A   1      33.003  24.653  22.255  1.00  0.00     0.128 C 
ATOM     10  N   UNL A   1      34.246  24.519  22.590  1.00  0.00    -0.171 NA
ATOM     11  C   UNL A   1      32.001  23.918  23.075  1.00  0.00     0.096 C 
ATOM     12  N   UNL A   1      34.281  23.511  23.498  1.00  0.00    -0.257 N 
ATOM     13  C   UNL A   1      32.948  23.046  23.920  1.00  0.00     0.144 C 
BRANCH  12  14
ATOM     14  C   UNL A   1      35.457  23.318  24.210  1.00  0.00     0.061 A 
ATOM     15  C   UNL A   1      36.407  22.377  23.788  1.00  0.00     0.035 A 
ATOM     16  C   UNL A   1      35.686  23.999  25.412  1.00  0.00     0.035 A 
ATOM     17  C   UNL A   1      37.580  22.154  24.518  1.00  0.00     0.088 A 
ATOM     18  C   UNL A   1      36.851  23.791  26.157  1.00  0.00     0.088 A 
ATOM     19  C   UNL A   1      37.801  22.873  25.698  1.00  0.00     0.269 A 
BRANCH  19  20
ATOM     20  N   UNL A   1      39.041  22.670  26.455  1.00  0.00     0.062 N 
ATOM     21  O   UNL A   1      39.487  21.517  26.531  1.00  0.00    -0.258 OA
ATOM     22  O   UNL A   1      39.587  23.669  26.943  1.00  0.00    -0.258 OA
ENDBRANCH  19  20
ENDBRANCH  12  14
BRANCH  13  23
ATOM     23  C   UNL A   1      32.772  21.539  23.792  1.00  0.00    -0.023 A 
ATOM     24  C   UNL A   1      33.016  20.628  24.832  1.00  0.00     0.006 A 
ATOM     25  C   UNL A   1      32.320  21.019  22.562  1.00  0.00     0.006 A 
ATOM     26  C   UNL A   1      32.828  19.254  24.645  1.00  0.00     0.000 A 
ATOM     27  C   UNL A   1      32.094  19.651  22.389  1.00  0.00     0.000 A 
ATOM     28  C   UNL A   1      32.357  18.768  23.429  1.00  0.00     0.000 A 
ENDBRANCH  13  23
ENDBRANCH   7   9
ENDBRANCH   4   5
ENDBRANCH   3   4
ENDBRANCH   2   3
ENDBRANCH   1   2
BRANCH   1  29
ATOM     29  C   UNL A   1      33.177  27.326  26.098  1.00  0.00     0.021 C 
BRANCH  29  30
ATOM     30  C   UNL A   1      34.291  28.368  26.065  1.00  0.00     0.116 C 
BRANCH  30  31
ATOM     31  N   UNL A   1      33.855  29.670  26.543  1.00  0.00    -0.352 N 
ATOM     32  C   UNL A   1      34.406  30.475  27.510  1.00  0.00     0.251 C 
ATOM     33  H   UNL A   1      33.045  30.027  26.111  1.00  0.00     0.163 HD
ATOM     34  O   UNL A   1      33.803  31.479  27.882  1.00  0.00    -0.269 OA
BRANCH  32  35
ATOM     35  C   UNL A   1      35.708  30.125  28.122  1.00  0.00     0.039 A 
ATOM     36  C   UNL A   1      36.881  30.414  27.420  1.00  0.00     0.014 A 
ATOM     37  C   UNL A   1      35.777  29.506  29.373  1.00  0.00     0.014 A 
ATOM     38  C   UNL A   1      38.124  30.142  28.000  1.00  0.00     0.010 A 
ATOM     39  C   UNL A   1      37.016  29.291  29.976  1.00  0.00     0.010 A 
ATOM     40  C   UNL A   1      38.202  29.609  29.297  1.00  0.00    -0.014 A 
BRANCH  40  41
ATOM     41  C   UNL A   1      39.513  29.387  29.960  1.00  0.00     0.031 A 
ATOM     42  C   UNL A   1      40.429  28.290  29.485  1.00  0.00     0.074 A 
ATOM     43  C   UNL A   1      39.852  30.129  31.034  1.00  0.00     0.049 A 
ATOM     44  N   UNL A   1      41.569  27.891  29.986  1.00  0.00    -0.248 NA
ATOM     45  C   UNL A   1      39.991  27.528  28.306  1.00  0.00     0.031 C 
ATOM     46  C   UNL A   1      39.030  31.189  31.622  1.00  0.00     0.029 A 
ATOM     47  N   UNL A   1      40.968  30.094  31.833  1.00  0.00    -0.354 N 
ATOM     48  C   UNL A   1      41.981  26.828  29.192  1.00  0.00     0.074 A 
ATOM     49  C   UNL A   1      40.943  26.610  28.207  1.00  0.00     0.031 C 
ATOM     50  C   UNL A   1      39.675  31.711  32.678  1.00  0.00     0.029 A 
ATOM     51  C   UNL A   1      40.937  31.002  32.865  1.00  0.00     0.049 A 
ATOM     52  H   UNL A   1      41.720  29.478  31.679  1.00  0.00     0.167 HD
ATOM     53  C   UNL A   1      43.130  26.112  29.262  1.00  0.00     0.037 A 
ATOM     54  C   UNL A   1      41.820  31.231  33.857  1.00  0.00     0.037 A 
ATOM     55  C   UNL A   1      44.170  26.344  30.230  1.00  0.00     0.049 A 
ATOM     56  C   UNL A   1      43.089  30.426  33.913  1.00  0.00     0.074 A 
ATOM     57  C   UNL A   1      45.389  25.701  30.356  1.00  0.00     0.029 A 
ATOM     58  N   UNL A   1      44.116  27.295  31.239  1.00  0.00    -0.354 N 
ATOM     59  N   UNL A   1      43.486  29.458  33.121  1.00  0.00    -0.248 NA
ATOM     60  C   UNL A   1      44.036  30.748  34.990  1.00  0.00     0.031 C 
ATOM     61  C   UNL A   1      46.058  26.240  31.461  1.00  0.00     0.029 A 
ATOM     62  C   UNL A   1      45.275  27.247  31.998  1.00  0.00     0.049 A 
ATOM     63  H   UNL A   1      43.365  27.913  31.393  1.00  0.00     0.167 HD
ATOM     64  C   UNL A   1      44.737  29.073  33.590  1.00  0.00     0.074 A 
ATOM     65  C   UNL A   1      45.038  29.920  34.725  1.00  0.00     0.031 C 
ATOM     66  C   UNL A   1      45.563  28.104  33.121  1.00  0.00     0.037 A 
BRANCH  53  67
ATOM     67  C   UNL A   1      43.326  25.013  28.254  1.00  0.00     0.058 A 
ATOM     68  C   UNL A   1      43.980  25.245  27.033  1.00  0.00     0.135 A 
ATOM     69  C   UNL A   1      42.884  23.706  28.520  1.00  0.00     0.135 A 
ATOM     70  F   UNL A   1      44.411  26.478  26.721  1.00  0.00    -0.206 F 
ATOM     71  C   UNL A   1      44.161  24.232  26.098  1.00  0.00     0.059 A 
ATOM     72  C   UNL A   1      43.077  22.670  27.611  1.00  0.00     0.059 A 
ATOM     73  F   UNL A   1      42.254  23.428  29.671  1.00  0.00    -0.206 F 
ATOM     74  C   UNL A   1      43.703  22.947  26.395  1.00  0.00     0.060 A 
BRANCH  74  75
ATOM     75  S   UNL A   1      43.942  21.642  25.171  1.00  0.00     0.124 S 
ATOM     76  O   UNL A   1      43.728  22.371  23.925  1.00  0.00    -0.237 OA
ATOM     77  O   UNL A   1      45.314  21.218  25.428  1.00  0.00    -0.237 OA
ATOM     78  O   UNL A   1      42.913  20.664  25.510  1.00  0.00    -0.744 OA
ENDBRANCH  74  75
ENDBRANCH  53  67
BRANCH  54  79
ATOM     79  C   UNL A   1      41.538  32.281  34.871  1.00  0.00     0.058 A 
ATOM     80  C   UNL A   1      41.985  33.598  34.688  1.00  0.00     0.135 A 
ATOM     81  C   UNL A   1      40.808  31.993  36.034  1.00  0.00     0.135 A 
ATOM     82  F   UNL A   1      42.692  33.920  33.595  1.00  0.00    -0.206 F 
ATOM     83  C   UNL A   1      41.733  34.590  35.630  1.00  0.00     0.059 A 
ATOM     84  C   UNL A   1      40.523  32.974  36.980  1.00  0.00     0.059 A 
ATOM     85  F   UNL A   1      40.343  30.752  36.247  1.00  0.00    -0.206 F 
ATOM     86  C   UNL A   1      41.000  34.268  36.774  1.00  0.00     0.060 A 
BRANCH  86  87
ATOM     87  S   UNL A   1      40.638  35.573  37.968  1.00  0.00     0.124 S 
ATOM     88  O   UNL A   1      41.970  35.890  38.471  1.00  0.00    -0.237 OA
ATOM     89  O   UNL A   1      40.012  36.592  37.130  1.00  0.00    -0.237 OA
ATOM     90  O   UNL A   1      39.742  34.918  38.917  1.00  0.00    -0.744 OA
ENDBRANCH  86  87
ENDBRANCH  54  79
BRANCH  66  91
ATOM     91  C   UNL A   1      46.885  27.928  33.815  1.00  0.00     0.058 A 
ATOM     92  C   UNL A   1      47.046  27.027  34.877  1.00  0.00     0.135 A 
ATOM     93  C   UNL A   1      48.016  28.634  33.374  1.00  0.00     0.135 A 
ATOM     94  F   UNL A   1      45.995  26.333  35.341  1.00  0.00    -0.206 F 
ATOM     95  C   UNL A   1      48.280  26.846  35.495  1.00  0.00     0.059 A 
ATOM     96  C   UNL A   1      49.265  28.451  33.961  1.00  0.00     0.059 A 
ATOM     97  F   UNL A   1      47.918  29.501  32.354  1.00  0.00    -0.206 F 
ATOM     98  C   UNL A   1      49.385  27.562  35.028  1.00  0.00     0.060 A 
BRANCH  98  99
ATOM     99  S   UNL A   1      50.988  27.292  35.813  1.00  0.00     0.124 S 
ATOM    100  O   UNL A   1      50.603  26.594  37.035  1.00  0.00    -0.237 OA
ATOM    101  O   UNL A   1      51.693  26.487  34.819  1.00  0.00    -0.237 OA
ATOM    102  O   UNL A   1      51.507  28.643  35.997  1.00  0.00    -0.744 OA
ENDBRANCH  98  99
ENDBRANCH  66  91
ENDBRANCH  40  41
ENDBRANCH  32  35
ENDBRANCH  30  31
ENDBRANCH  29  30
ENDBRANCH   1  29
TORSDOF 19
ENDMDL
MODEL 3
REMARK VINA RESULT:     -11.4      2.238      2.737
REMARK SMILES O=C(NCCCCCCNC(=O)c1ccc(-c2c3nc(c(-c4c(F)cc(S(=O)(=O)[O-])cc4F)c4ccc([nH]4)c(-c4c(F)cc(S(=O)(=O)[O-])cc4F)c4nc(c(-c5c(F)cc(S(=O)(=O)[O-])cc5F)c5ccc2[nH]5)C=C4)C=C3)cc1)C1=NN(c2ccc([N+](=O)[O-])cc2)[C@H](c2ccccc2)C1
REMARK SMILES IDX 7 1 6 2 5 3 4 4 3 5 1 6 2 7 79 9 80 10 98 11 81 12 91 13
REMARK SMILES IDX 82 14 83 15 90 16 84 17 89 18 85 19 86 20 87 21 88 22 92 23
REMARK SMILES IDX 93 24 97 25 94 26 96 27 95 28 8 29 9 30 10 31 11 32 12 34
REMARK SMILES IDX 13 35 14 36 78 37 15 38 77 39 16 40 17 41 18 42 71 43 19 44
REMARK SMILES IDX 76 45 70 46 72 47 20 48 75 49 69 50 68 51 21 53 55 54 34 55
REMARK SMILES IDX 54 56 35 57 38 58 53 59 73 60 36 61 37 62 52 64 74 65 39 66
REMARK SMILES IDX 22 67 23 68 32 69 24 70 25 71 31 72 33 73 26 74 27 75 28 76
REMARK SMILES IDX 29 77 30 78 56 79 57 80 66 81 58 82 59 83 65 84 67 85 60 86
REMARK SMILES IDX 61 87 62 88 63 89 64 90 40 91 41 92 50 93 42 94 43 95 49 96
REMARK SMILES IDX 51 97 44 98 45 99 46 100 47 101 48 102
REMARK H PARENT 3 8 10 33 72 52 38 63
REMARK Flexibility Score: inf
ROOT
ATOM      1  C   UNL A   1      31.944  27.691  25.360  1.00  0.00     0.002 C 
ENDROOT
BRANCH   1   2
ATOM      2  C   UNL A   1      32.270  28.878  24.449  1.00  0.00     0.002 C 
BRANCH   2   3
ATOM      3  C   UNL A   1      31.940  28.685  22.968  1.00  0.00     0.021 C 
BRANCH   3   4
ATOM      4  C   UNL A   1      31.402  27.306  22.595  1.00  0.00     0.116 C 
BRANCH   4   5
ATOM      5  N   UNL A   1      31.860  26.864  21.285  1.00  0.00    -0.351 N 
ATOM      6  O   UNL A   1      32.914  25.434  19.849  1.00  0.00    -0.268 OA
ATOM      7  C   UNL A   1      32.564  25.721  20.987  1.00  0.00     0.267 C 
ATOM      8  H   UNL A   1      31.641  27.452  20.525  1.00  0.00     0.163 HD
BRANCH   7   9
ATOM      9  C   UNL A   1      32.967  24.818  22.116  1.00  0.00     0.128 C 
ATOM     10  N   UNL A   1      34.202  24.652  22.468  1.00  0.00    -0.171 NA
ATOM     11  C   UNL A   1      31.937  24.083  22.902  1.00  0.00     0.096 C 
ATOM     12  N   UNL A   1      34.203  23.622  23.351  1.00  0.00    -0.257 N 
ATOM     13  C   UNL A   1      32.853  23.173  23.741  1.00  0.00     0.144 C 
BRANCH  12  14
ATOM     14  C   UNL A   1      35.362  23.388  24.076  1.00  0.00     0.061 A 
ATOM     15  C   UNL A   1      36.297  22.433  23.652  1.00  0.00     0.035 A 
ATOM     16  C   UNL A   1      35.590  24.043  25.294  1.00  0.00     0.035 A 
ATOM     17  C   UNL A   1      37.453  22.169  24.395  1.00  0.00     0.088 A 
ATOM     18  C   UNL A   1      36.738  23.794  26.052  1.00  0.00     0.088 A 
ATOM     19  C   UNL A   1      37.672  22.861  25.590  1.00  0.00     0.269 A 
BRANCH  19  20
ATOM     20  N   UNL A   1      38.896  22.616  26.362  1.00  0.00     0.062 N 
ATOM     21  O   UNL A   1      39.119  21.455  26.734  1.00  0.00    -0.258 OA
ATOM     22  O   UNL A   1      39.651  23.577  26.565  1.00  0.00    -0.258 OA
ENDBRANCH  19  20
ENDBRANCH  12  14
BRANCH  13  23
ATOM     23  C   UNL A   1      32.651  21.673  23.573  1.00  0.00    -0.023 A 
ATOM     24  C   UNL A   1      32.851  20.734  24.597  1.00  0.00     0.006 A 
ATOM     25  C   UNL A   1      32.217  21.191  22.321  1.00  0.00     0.006 A 
ATOM     26  C   UNL A   1      32.640  19.368  24.373  1.00  0.00     0.000 A 
ATOM     27  C   UNL A   1      31.968  19.833  22.111  1.00  0.00     0.000 A 
ATOM     28  C   UNL A   1      32.189  18.920  23.135  1.00  0.00     0.000 A 
ENDBRANCH  13  23
ENDBRANCH   7   9
ENDBRANCH   4   5
ENDBRANCH   3   4
ENDBRANCH   2   3
ENDBRANCH   1   2
BRANCH   1  29
ATOM     29  C   UNL A   1      33.148  26.990  25.997  1.00  0.00     0.021 C 
BRANCH  29  30
ATOM     30  C   UNL A   1      34.281  27.908  26.446  1.00  0.00     0.116 C 
BRANCH  30  31
ATOM     31  N   UNL A   1      33.803  29.194  26.928  1.00  0.00    -0.352 N 
ATOM     32  C   UNL A   1      34.427  30.109  27.741  1.00  0.00     0.251 C 
ATOM     33  H   UNL A   1      32.899  29.445  26.630  1.00  0.00     0.163 HD
ATOM     34  O   UNL A   1      33.799  31.075  28.164  1.00  0.00    -0.269 OA
BRANCH  32  35
ATOM     35  C   UNL A   1      35.844  29.921  28.129  1.00  0.00     0.039 A 
ATOM     36  C   UNL A   1      36.135  29.490  29.426  1.00  0.00     0.014 A 
ATOM     37  C   UNL A   1      36.881  30.177  27.229  1.00  0.00     0.014 A 
ATOM     38  C   UNL A   1      37.461  29.255  29.801  1.00  0.00     0.010 A 
ATOM     39  C   UNL A   1      38.198  29.882  27.583  1.00  0.00     0.010 A 
ATOM     40  C   UNL A   1      38.501  29.416  28.871  1.00  0.00    -0.014 A 
BRANCH  40  41
ATOM     41  C   UNL A   1      39.909  29.095  29.226  1.00  0.00     0.031 A 
ATOM     42  C   UNL A   1      40.776  30.125  29.900  1.00  0.00     0.074 A 
ATOM     43  C   UNL A   1      40.426  27.899  28.884  1.00  0.00     0.049 A 
ATOM     44  N   UNL A   1      42.045  30.060  30.211  1.00  0.00    -0.248 NA
ATOM     45  C   UNL A   1      40.138  31.404  30.245  1.00  0.00     0.031 C 
ATOM     46  C   UNL A   1      39.703  26.833  28.185  1.00  0.00     0.029 A 
ATOM     47  N   UNL A   1      41.686  27.382  29.060  1.00  0.00    -0.354 N 
ATOM     48  C   UNL A   1      42.360  31.288  30.779  1.00  0.00     0.074 A 
ATOM     49  C   UNL A   1      41.161  32.098  30.723  1.00  0.00     0.031 C 
ATOM     50  C   UNL A   1      40.527  25.788  28.004  1.00  0.00     0.029 A 
ATOM     51  C   UNL A   1      41.844  26.119  28.540  1.00  0.00     0.049 A 
ATOM     52  H   UNL A   1      42.409  27.870  29.517  1.00  0.00     0.167 HD
ATOM     53  C   UNL A   1      43.534  31.697  31.319  1.00  0.00     0.037 A 
ATOM     54  C   UNL A   1      42.928  25.321  28.490  1.00  0.00     0.037 A 
ATOM     55  C   UNL A   1      44.718  30.883  31.392  1.00  0.00     0.049 A 
ATOM     56  C   UNL A   1      44.219  25.794  29.099  1.00  0.00     0.074 A 
ATOM     57  C   UNL A   1      45.943  31.191  31.959  1.00  0.00     0.029 A 
ATOM     58  N   UNL A   1      44.827  29.596  30.885  1.00  0.00    -0.354 N 
ATOM     59  N   UNL A   1      44.484  26.941  29.680  1.00  0.00    -0.248 NA
ATOM     60  C   UNL A   1      45.357  24.866  29.056  1.00  0.00     0.031 C 
ATOM     61  C   UNL A   1      46.803  30.104  31.764  1.00  0.00     0.029 A 
ATOM     62  C   UNL A   1      46.102  29.102  31.114  1.00  0.00     0.049 A 
ATOM     63  H   UNL A   1      44.106  29.105  30.428  1.00  0.00     0.167 HD
ATOM     64  C   UNL A   1      45.810  26.861  30.091  1.00  0.00     0.074 A 
ATOM     65  C   UNL A   1      46.289  25.550  29.705  1.00  0.00     0.031 C 
ATOM     66  C   UNL A   1      46.562  27.791  30.731  1.00  0.00     0.037 A 
BRANCH  53  67
ATOM     67  C   UNL A   1      43.590  33.090  31.885  1.00  0.00     0.058 A 
ATOM     68  C   UNL A   1      43.309  33.344  33.237  1.00  0.00     0.135 A 
ATOM     69  C   UNL A   1      43.957  34.179  31.078  1.00  0.00     0.135 A 
ATOM     70  F   UNL A   1      42.939  32.342  34.051  1.00  0.00    -0.206 F 
ATOM     71  C   UNL A   1      43.358  34.631  33.762  1.00  0.00     0.059 A 
ATOM     72  C   UNL A   1      44.039  35.472  31.588  1.00  0.00     0.059 A 
ATOM     73  F   UNL A   1      44.237  33.993  29.779  1.00  0.00    -0.206 F 
ATOM     74  C   UNL A   1      43.722  35.690  32.928  1.00  0.00     0.060 A 
BRANCH  74  75
ATOM     75  S   UNL A   1      43.778  37.355  33.623  1.00  0.00     0.124 S 
ATOM     76  O   UNL A   1      44.859  37.226  34.596  1.00  0.00    -0.237 OA
ATOM     77  O   UNL A   1      44.075  38.174  32.453  1.00  0.00    -0.237 OA
ATOM     78  O   UNL A   1      42.444  37.534  34.187  1.00  0.00    -0.744 OA
ENDBRANCH  74  75
ENDBRANCH  53  67
BRANCH  54  79
ATOM     79  C   UNL A   1      42.833  23.981  27.851  1.00  0.00     0.058 A 
ATOM     80  C   UNL A   1      43.042  23.824  26.473  1.00  0.00     0.135 A 
ATOM     81  C   UNL A   1      42.546  22.834  28.604  1.00  0.00     0.135 A 
ATOM     82  F   UNL A   1      43.313  24.894  25.709  1.00  0.00    -0.206 F 
ATOM     83  C   UNL A   1      42.952  22.579  25.860  1.00  0.00     0.059 A 
ATOM     84  C   UNL A   1      42.475  21.573  28.018  1.00  0.00     0.059 A 
ATOM     85  F   UNL A   1      42.356  22.928  29.930  1.00  0.00    -0.206 F 
ATOM     86  C   UNL A   1      42.668  21.458  26.642  1.00  0.00     0.060 A 
BRANCH  86  87
ATOM     87  S   UNL A   1      42.601  19.839  25.846  1.00  0.00     0.124 S 
ATOM     88  O   UNL A   1      41.228  19.808  25.357  1.00  0.00    -0.237 OA
ATOM     89  O   UNL A   1      43.639  19.954  24.825  1.00  0.00    -0.237 OA
ATOM     90  O   UNL A   1      42.907  18.917  26.936  1.00  0.00    -0.744 OA
ENDBRANCH  86  87
ENDBRANCH  54  79
BRANCH  66  91
ATOM     91  C   UNL A   1      47.973  27.413  31.084  1.00  0.00     0.058 A 
ATOM     92  C   UNL A   1      49.052  27.723  30.243  1.00  0.00     0.135 A 
ATOM     93  C   UNL A   1      48.254  26.779  32.305  1.00  0.00     0.135 A 
ATOM     94  F   UNL A   1      48.837  28.323  29.061  1.00  0.00    -0.206 F 
ATOM     95  C   UNL A   1      50.360  27.398  30.589  1.00  0.00     0.059 A 
ATOM     96  C   UNL A   1      49.557  26.467  32.684  1.00  0.00     0.059 A 
ATOM     97  F   UNL A   1      47.258  26.469  33.151  1.00  0.00    -0.206 F 
ATOM     98  C   UNL A   1      50.602  26.771  31.814  1.00  0.00     0.060 A 
BRANCH  98  99
ATOM     99  S   UNL A   1      52.306  26.388  32.269  1.00  0.00     0.124 S 
ATOM    100  O   UNL A   1      52.122  25.690  33.538  1.00  0.00    -0.237 OA
ATOM    101  O   UNL A   1      52.753  25.563  31.151  1.00  0.00    -0.237 OA
ATOM    102  O   UNL A   1      52.937  27.701  32.360  1.00  0.00    -0.744 OA
ENDBRANCH  98  99
ENDBRANCH  66  91
ENDBRANCH  40  41
ENDBRANCH  32  35
ENDBRANCH  30  31
ENDBRANCH  29  30
ENDBRANCH   1  29
TORSDOF 19
ENDMDL
