MODEL 1
REMARK VINA RESULT:     -11.6      0.000      0.000
REMARK SMILES CC(=O)Nc1nc(C[N@@H+]2CCO[C@@H](CC(=O)NCCCCCCNC(=O)c3ccc(-c4c5nc(c(-c6c(F)cc(S(=O)(=O)[O-])cc6F)c6ccc([nH]6)c(-c6c(F)cc(S(=O)(=O)[O-])cc6F)c6nc(c(-c7c(F)cc(S(=O)(=O)[O-])cc7F)c7ccc4[nH]7)C=C6)C=C5)cc3)C2)cs1
REMARK SMILES IDX 20 1 19 2 18 3 17 4 15 5 16 6 14 8 13 9 9 10 10 11 93 12
REMARK SMILES IDX 11 14 12 15 8 16 7 17 5 18 6 19 95 20 94 21 4 22 1 23 2 24
REMARK SMILES IDX 3 25 21 27 22 28 23 29 24 30 25 31 26 33 27 34 28 35 92 36
REMARK SMILES IDX 29 37 91 38 30 39 31 40 32 41 85 42 33 43 90 44 84 45 86 46
REMARK SMILES IDX 34 47 89 48 83 49 82 50 35 52 69 53 48 54 68 55 49 56 52 57
REMARK SMILES IDX 67 58 87 59 50 60 51 61 66 63 88 64 53 65 36 66 37 67 46 68
REMARK SMILES IDX 38 69 39 70 45 71 47 72 40 73 41 74 42 75 43 76 44 77 70 78
REMARK SMILES IDX 71 79 80 80 72 81 73 82 79 83 81 84 74 85 75 86 76 87 77 88
REMARK SMILES IDX 78 89 54 90 55 91 64 92 56 93 57 94 63 95 65 96 58 97 59 98
REMARK SMILES IDX 60 99 61 100 62 101
REMARK H PARENT 17 7 9 13 4 26 24 32 86 51 52 62
REMARK Flexibility Score: inf
ROOT
ATOM      1  C   UNL A   1      31.879  29.812  26.842  1.00  0.00     0.002 C 
ENDROOT
BRANCH   1   2
ATOM      2  C   UNL A   1      32.274  28.604  25.994  1.00  0.00     0.021 C 
BRANCH   2   3
ATOM      3  C   UNL A   1      32.422  27.300  26.785  1.00  0.00     0.116 C 
BRANCH   3   4
ATOM      4  N   UNL A   1      31.129  26.663  26.989  1.00  0.00    -0.356 N 
ATOM      5  C   UNL A   1      30.402  25.871  26.150  1.00  0.00     0.222 C 
ATOM      6  O   UNL A   1      29.278  25.509  26.502  1.00  0.00    -0.275 OA
ATOM      7  H   UNL A   1      30.716  26.831  27.866  1.00  0.00     0.163 HD
BRANCH   5   8
ATOM      8  C   UNL A   1      30.969  25.457  24.813  1.00  0.00     0.138 C 
BRANCH   8   9
ATOM      9  C   UNL A   1      32.070  24.401  24.925  1.00  0.00     0.182 C 
ATOM     10  N   UNL A   1      32.809  22.114  24.053  1.00  0.00    -0.326 N 
ATOM     11  C   UNL A   1      34.076  22.755  23.702  1.00  0.00     0.291 C 
ATOM     12  C   UNL A   1      31.721  23.088  24.192  1.00  0.00     0.295 C 
ATOM     13  H   UNL A   1      32.585  21.550  23.233  1.00  0.00     0.348 HD
ATOM     14  C   UNL A   1      34.362  24.086  24.417  1.00  0.00     0.222 C 
ATOM     15  O   UNL A   1      33.254  24.987  24.346  1.00  0.00    -0.366 OA
BRANCH  10  16
ATOM     16  C   UNL A   1      32.839  21.037  25.043  1.00  0.00     0.320 C 
BRANCH  16  17
ATOM     17  C   UNL A   1      32.579  19.676  24.471  1.00  0.00     0.108 A 
ATOM     18  C   UNL A   1      32.439  17.481  24.626  1.00  0.00     0.189 A 
ATOM     19  N   UNL A   1      32.518  18.581  25.329  1.00  0.00    -0.219 NA
ATOM     20  S   UNL A   1      32.390  17.662  22.932  1.00  0.00    -0.105 S 
ATOM     21  C   UNL A   1      32.373  19.364  23.139  1.00  0.00     0.098 A 
BRANCH  18  22
ATOM     22  N   UNL A   1      32.390  16.190  25.053  1.00  0.00    -0.302 N 
ATOM     23  C   UNL A   1      34.852  15.958  25.269  1.00  0.00     0.114 C 
ATOM     24  C   UNL A   1      33.463  15.376  25.254  1.00  0.00     0.223 C 
ATOM     25  O   UNL A   1      33.274  14.185  25.510  1.00  0.00    -0.275 OA
ATOM     26  H   UNL A   1      31.500  15.810  25.234  1.00  0.00     0.172 HD
ENDBRANCH  18  22
ENDBRANCH  16  17
ENDBRANCH  10  16
ENDBRANCH   8   9
ENDBRANCH   5   8
ENDBRANCH   3   4
ENDBRANCH   2   3
ENDBRANCH   1   2
BRANCH   1  27
ATOM     27  C   UNL A   1      31.566  31.081  26.045  1.00  0.00     0.002 C 
BRANCH  27  28
ATOM     28  C   UNL A   1      31.467  32.373  26.864  1.00  0.00     0.021 C 
BRANCH  28  29
ATOM     29  C   UNL A   1      32.784  32.882  27.448  1.00  0.00     0.116 C 
BRANCH  29  30
ATOM     30  N   UNL A   1      32.723  34.295  27.778  1.00  0.00    -0.352 N 
ATOM     31  C   UNL A   1      33.396  35.007  28.738  1.00  0.00     0.251 C 
ATOM     32  H   UNL A   1      32.102  34.825  27.227  1.00  0.00     0.163 HD
ATOM     33  O   UNL A   1      33.037  36.151  29.005  1.00  0.00    -0.269 OA
BRANCH  31  34
ATOM     34  C   UNL A   1      34.542  34.408  29.458  1.00  0.00     0.039 A 
ATOM     35  C   UNL A   1      34.312  33.810  30.700  1.00  0.00     0.014 A 
ATOM     36  C   UNL A   1      35.841  34.478  28.946  1.00  0.00     0.014 A 
ATOM     37  C   UNL A   1      35.377  33.246  31.407  1.00  0.00     0.010 A 
ATOM     38  C   UNL A   1      36.893  33.860  29.624  1.00  0.00     0.010 A 
ATOM     39  C   UNL A   1      36.673  33.246  30.866  1.00  0.00    -0.014 A 
BRANCH  39  40
ATOM     40  C   UNL A   1      37.796  32.603  31.597  1.00  0.00     0.031 A 
ATOM     41  C   UNL A   1      38.232  33.119  32.943  1.00  0.00     0.074 A 
ATOM     42  C   UNL A   1      38.447  31.570  31.027  1.00  0.00     0.049 A 
ATOM     43  N   UNL A   1      39.179  32.675  33.728  1.00  0.00    -0.248 NA
ATOM     44  C   UNL A   1      37.529  34.302  33.463  1.00  0.00     0.031 C 
ATOM     45  C   UNL A   1      38.164  31.024  29.698  1.00  0.00     0.029 A 
ATOM     46  N   UNL A   1      39.482  30.797  31.490  1.00  0.00    -0.354 N 
ATOM     47  C   UNL A   1      39.197  33.527  34.826  1.00  0.00     0.074 A 
ATOM     48  C   UNL A   1      38.195  34.544  34.584  1.00  0.00     0.031 C 
ATOM     49  C   UNL A   1      38.989  29.990  29.463  1.00  0.00     0.029 A 
ATOM     50  C   UNL A   1      39.871  29.814  30.611  1.00  0.00     0.049 A 
ATOM     51  H   UNL A   1      39.907  30.934  32.367  1.00  0.00     0.167 HD
ATOM     52  C   UNL A   1      39.962  33.458  35.942  1.00  0.00     0.037 A 
ATOM     53  C   UNL A   1      40.827  28.871  30.722  1.00  0.00     0.037 A 
ATOM     54  C   UNL A   1      40.933  32.423  36.192  1.00  0.00     0.049 A 
ATOM     55  C   UNL A   1      41.629  28.784  31.990  1.00  0.00     0.074 A 
ATOM     56  C   UNL A   1      41.700  32.219  37.326  1.00  0.00     0.029 A 
ATOM     57  N   UNL A   1      41.274  31.422  35.295  1.00  0.00    -0.354 N 
ATOM     58  N   UNL A   1      41.571  29.547  33.055  1.00  0.00    -0.248 NA
ATOM     59  C   UNL A   1      42.616  27.699  32.080  1.00  0.00     0.031 C 
ATOM     60  C   UNL A   1      42.531  31.115  37.101  1.00  0.00     0.029 A 
ATOM     61  C   UNL A   1      42.253  30.608  35.842  1.00  0.00     0.049 A 
ATOM     62  H   UNL A   1      40.878  31.306  34.402  1.00  0.00     0.167 HD
ATOM     63  C   UNL A   1      42.499  29.025  33.948  1.00  0.00     0.074 A 
ATOM     64  C   UNL A   1      43.090  27.868  33.306  1.00  0.00     0.031 C 
ATOM     65  C   UNL A   1      42.835  29.463  35.188  1.00  0.00     0.037 A 
BRANCH  52  66
ATOM     66  C   UNL A   1      39.773  34.523  36.987  1.00  0.00     0.058 A 
ATOM     67  C   UNL A   1      38.915  34.338  38.083  1.00  0.00     0.135 A 
ATOM     68  C   UNL A   1      40.491  35.728  36.915  1.00  0.00     0.135 A 
ATOM     69  F   UNL A   1      38.194  33.210  38.193  1.00  0.00    -0.206 F 
ATOM     70  C   UNL A   1      38.754  35.318  39.056  1.00  0.00     0.059 A 
ATOM     71  C   UNL A   1      40.365  36.714  37.892  1.00  0.00     0.059 A 
ATOM     72  F   UNL A   1      41.326  35.958  35.890  1.00  0.00    -0.206 F 
ATOM     73  C   UNL A   1      39.483  36.504  38.951  1.00  0.00     0.060 A 
BRANCH  73  74
ATOM     74  S   UNL A   1      39.272  37.764  40.226  1.00  0.00     0.124 S 
ATOM     75  O   UNL A   1      38.210  38.584  39.651  1.00  0.00    -0.237 OA
ATOM     76  O   UNL A   1      38.897  36.971  41.393  1.00  0.00    -0.237 OA
ATOM     77  O   UNL A   1      40.584  38.398  40.299  1.00  0.00    -0.744 OA
ENDBRANCH  73  74
ENDBRANCH  52  66
BRANCH  53  78
ATOM     78  C   UNL A   1      41.053  27.912  29.608  1.00  0.00     0.058 A 
ATOM     79  C   UNL A   1      42.179  28.019  28.779  1.00  0.00     0.135 A 
ATOM     80  C   UNL A   1      40.155  26.861  29.362  1.00  0.00     0.135 A 
ATOM     81  F   UNL A   1      43.063  29.010  28.974  1.00  0.00    -0.206 F 
ATOM     82  C   UNL A   1      42.400  27.131  27.732  1.00  0.00     0.059 A 
ATOM     83  C   UNL A   1      40.367  25.946  28.335  1.00  0.00     0.059 A 
ATOM     84  F   UNL A   1      39.074  26.705  30.140  1.00  0.00    -0.206 F 
ATOM     85  C   UNL A   1      41.487  26.097  27.518  1.00  0.00     0.060 A 
BRANCH  85  86
ATOM     86  S   UNL A   1      41.807  24.918  26.188  1.00  0.00     0.124 S 
ATOM     87  O   UNL A   1      43.179  24.519  26.473  1.00  0.00    -0.237 OA
ATOM     88  O   UNL A   1      40.784  23.902  26.421  1.00  0.00    -0.237 OA
ATOM     89  O   UNL A   1      41.617  25.718  24.981  1.00  0.00    -0.744 OA
ENDBRANCH  85  86
ENDBRANCH  53  78
BRANCH  65  90
ATOM     90  C   UNL A   1      43.876  28.676  35.932  1.00  0.00     0.058 A 
ATOM     91  C   UNL A   1      45.225  29.066  35.940  1.00  0.00     0.135 A 
ATOM     92  C   UNL A   1      43.519  27.531  36.661  1.00  0.00     0.135 A 
ATOM     93  F   UNL A   1      45.619  30.150  35.254  1.00  0.00    -0.206 F 
ATOM     94  C   UNL A   1      46.190  28.325  36.615  1.00  0.00     0.059 A 
ATOM     95  C   UNL A   1      44.463  26.791  37.364  1.00  0.00     0.059 A 
ATOM     96  F   UNL A   1      42.239  27.123  36.696  1.00  0.00    -0.206 F 
ATOM     97  C   UNL A   1      45.800  27.185  37.320  1.00  0.00     0.060 A 
BRANCH  97  98
ATOM     98  S   UNL A   1      47.058  26.234  38.197  1.00  0.00     0.124 S 
ATOM     99  O   UNL A   1      48.016  25.963  37.131  1.00  0.00    -0.237 OA
ATOM    100  O   UNL A   1      47.502  27.169  39.225  1.00  0.00    -0.237 OA
ATOM    101  O   UNL A   1      46.322  25.074  38.691  1.00  0.00    -0.744 OA
ENDBRANCH  97  98
ENDBRANCH  65  90
ENDBRANCH  39  40
ENDBRANCH  31  34
ENDBRANCH  29  30
ENDBRANCH  28  29
ENDBRANCH  27  28
ENDBRANCH   1  27
TORSDOF 20
ENDMDL
MODEL 2
REMARK VINA RESULT:     -11.3      6.211      8.461
REMARK SMILES CC(=O)Nc1nc(C[N@@H+]2CCO[C@@H](CC(=O)NCCCCCCNC(=O)c3ccc(-c4c5nc(c(-c6c(F)cc(S(=O)(=O)[O-])cc6F)c6ccc([nH]6)c(-c6c(F)cc(S(=O)(=O)[O-])cc6F)c6nc(c(-c7c(F)cc(S(=O)(=O)[O-])cc7F)c7ccc4[nH]7)C=C6)C=C5)cc3)C2)cs1
REMARK SMILES IDX 20 1 19 2 18 3 17 4 15 5 16 6 14 8 13 9 9 10 10 11 93 12
REMARK SMILES IDX 11 14 12 15 8 16 7 17 5 18 6 19 95 20 94 21 4 22 1 23 2 24
REMARK SMILES IDX 3 25 21 27 22 28 23 29 24 30 25 31 26 33 27 34 28 35 92 36
REMARK SMILES IDX 29 37 91 38 30 39 31 40 32 41 85 42 33 43 90 44 84 45 86 46
REMARK SMILES IDX 34 47 89 48 83 49 82 50 35 52 69 53 48 54 68 55 49 56 52 57
REMARK SMILES IDX 67 58 87 59 50 60 51 61 66 63 88 64 53 65 36 66 37 67 46 68
REMARK SMILES IDX 38 69 39 70 45 71 47 72 40 73 41 74 42 75 43 76 44 77 70 78
REMARK SMILES IDX 71 79 80 80 72 81 73 82 79 83 81 84 74 85 75 86 76 87 77 88
REMARK SMILES IDX 78 89 54 90 55 91 64 92 56 93 57 94 63 95 65 96 58 97 59 98
REMARK SMILES IDX 60 99 61 100 62 101
REMARK H PARENT 17 7 9 13 4 26 24 32 86 51 52 62
REMARK Flexibility Score: inf
ROOT
ATOM      1  C   UNL A   1      32.864  30.577  27.179  1.00  0.00     0.002 C 
ENDROOT
BRANCH   1   2
ATOM      2  C   UNL A   1      31.827  30.688  26.063  1.00  0.00     0.021 C 
BRANCH   2   3
ATOM      3  C   UNL A   1      31.548  29.374  25.328  1.00  0.00     0.116 C 
BRANCH   3   4
ATOM      4  N   UNL A   1      30.814  29.611  24.094  1.00  0.00    -0.356 N 
ATOM      5  C   UNL A   1      31.109  29.241  22.815  1.00  0.00     0.222 C 
ATOM      6  O   UNL A   1      30.381  29.630  21.901  1.00  0.00    -0.275 OA
ATOM      7  H   UNL A   1      29.977  30.117  24.199  1.00  0.00     0.163 HD
BRANCH   5   8
ATOM      8  C   UNL A   1      32.314  28.376  22.532  1.00  0.00     0.138 C 
BRANCH   8   9
ATOM      9  C   UNL A   1      32.080  26.895  22.839  1.00  0.00     0.182 C 
ATOM     10  N   UNL A   1      32.657  25.031  24.490  1.00  0.00    -0.326 N 
ATOM     11  C   UNL A   1      31.215  24.828  24.631  1.00  0.00     0.291 C 
ATOM     12  C   UNL A   1      32.976  26.368  23.980  1.00  0.00     0.295 C 
ATOM     13  H   UNL A   1      33.002  25.001  25.449  1.00  0.00     0.348 HD
ATOM     14  C   UNL A   1      30.354  25.413  23.498  1.00  0.00     0.222 C 
ATOM     15  O   UNL A   1      30.691  26.772  23.208  1.00  0.00    -0.366 OA
BRANCH  10  16
ATOM     16  C   UNL A   1      33.452  23.928  23.949  1.00  0.00     0.320 C 
BRANCH  16  17
ATOM     17  C   UNL A   1      33.723  22.831  24.934  1.00  0.00     0.108 A 
ATOM     18  C   UNL A   1      33.269  20.891  25.879  1.00  0.00     0.189 A 
ATOM     19  N   UNL A   1      32.995  21.647  24.848  1.00  0.00    -0.219 NA
ATOM     20  S   UNL A   1      34.418  21.495  26.983  1.00  0.00    -0.105 S 
ATOM     21  C   UNL A   1      34.656  22.848  25.956  1.00  0.00     0.098 A 
BRANCH  18  22
ATOM     22  N   UNL A   1      32.763  19.671  26.208  1.00  0.00    -0.302 N 
ATOM     23  C   UNL A   1      34.000  18.455  24.432  1.00  0.00     0.114 C 
ATOM     24  C   UNL A   1      32.954  18.515  25.514  1.00  0.00     0.223 C 
ATOM     25  O   UNL A   1      32.327  17.506  25.844  1.00  0.00    -0.275 OA
ATOM     26  H   UNL A   1      32.210  19.620  27.021  1.00  0.00     0.172 HD
ENDBRANCH  18  22
ENDBRANCH  16  17
ENDBRANCH  10  16
ENDBRANCH   8   9
ENDBRANCH   5   8
ENDBRANCH   3   4
ENDBRANCH   2   3
ENDBRANCH   1   2
BRANCH   1  27
ATOM     27  C   UNL A   1      33.745  29.327  27.116  1.00  0.00     0.002 C 
BRANCH  27  28
ATOM     28  C   UNL A   1      35.108  29.437  27.811  1.00  0.00     0.021 C 
BRANCH  28  29
ATOM     29  C   UNL A   1      35.441  30.814  28.385  1.00  0.00     0.116 C 
BRANCH  29  30
ATOM     30  N   UNL A   1      35.480  30.802  29.837  1.00  0.00    -0.352 N 
ATOM     31  C   UNL A   1      36.456  30.354  30.690  1.00  0.00     0.251 C 
ATOM     32  H   UNL A   1      34.682  31.175  30.277  1.00  0.00     0.163 HD
ATOM     33  O   UNL A   1      36.202  30.226  31.884  1.00  0.00    -0.269 OA
BRANCH  31  34
ATOM     34  C   UNL A   1      37.805  30.015  30.183  1.00  0.00     0.039 A 
ATOM     35  C   UNL A   1      38.745  29.497  31.077  1.00  0.00     0.014 A 
ATOM     36  C   UNL A   1      38.164  30.255  28.852  1.00  0.00     0.014 A 
ATOM     37  C   UNL A   1      40.029  29.179  30.628  1.00  0.00     0.010 A 
ATOM     38  C   UNL A   1      39.427  29.880  28.392  1.00  0.00     0.010 A 
ATOM     39  C   UNL A   1      40.375  29.347  29.278  1.00  0.00    -0.014 A 
BRANCH  39  40
ATOM     40  C   UNL A   1      41.726  28.963  28.792  1.00  0.00     0.031 A 
ATOM     41  C   UNL A   1      42.832  29.982  28.713  1.00  0.00     0.074 A 
ATOM     42  C   UNL A   1      41.946  27.697  28.386  1.00  0.00     0.049 A 
ATOM     43  N   UNL A   1      44.072  29.824  28.329  1.00  0.00    -0.248 NA
ATOM     44  C   UNL A   1      42.495  31.363  29.093  1.00  0.00     0.031 C 
ATOM     45  C   UNL A   1      40.936  26.636  28.349  1.00  0.00     0.029 A 
ATOM     46  N   UNL A   1      43.085  27.087  27.927  1.00  0.00    -0.354 N 
ATOM     47  C   UNL A   1      44.660  31.081  28.407  1.00  0.00     0.074 A 
ATOM     48  C   UNL A   1      43.627  32.002  28.831  1.00  0.00     0.031 C 
ATOM     49  C   UNL A   1      41.508  25.501  27.913  1.00  0.00     0.029 A 
ATOM     50  C   UNL A   1      42.914  25.757  27.621  1.00  0.00     0.049 A 
ATOM     51  H   UNL A   1      43.944  27.557  27.824  1.00  0.00     0.167 HD
ATOM     52  C   UNL A   1      45.947  31.433  28.166  1.00  0.00     0.037 A 
ATOM     53  C   UNL A   1      43.794  24.845  27.163  1.00  0.00     0.037 A 
ATOM     54  C   UNL A   1      46.978  30.505  27.777  1.00  0.00     0.049 A 
ATOM     55  C   UNL A   1      45.226  25.249  26.952  1.00  0.00     0.074 A 
ATOM     56  C   UNL A   1      48.328  30.748  27.589  1.00  0.00     0.029 A 
ATOM     57  N   UNL A   1      46.776  29.159  27.513  1.00  0.00    -0.354 N 
ATOM     58  N   UNL A   1      45.783  26.425  27.114  1.00  0.00    -0.248 NA
ATOM     59  C   UNL A   1      46.154  24.199  26.510  1.00  0.00     0.031 C 
ATOM     60  C   UNL A   1      48.935  29.557  27.176  1.00  0.00     0.029 A 
ATOM     61  C   UNL A   1      47.971  28.562  27.146  1.00  0.00     0.049 A 
ATOM     62  H   UNL A   1      45.910  28.696  27.578  1.00  0.00     0.167 HD
ATOM     63  C   UNL A   1      47.129  26.253  26.812  1.00  0.00     0.074 A 
ATOM     64  C   UNL A   1      47.305  24.854  26.477  1.00  0.00     0.031 C 
ATOM     65  C   UNL A   1      48.129  27.169  26.810  1.00  0.00     0.037 A 
BRANCH  52  66
ATOM     66  C   UNL A   1      46.318  32.881  28.329  1.00  0.00     0.058 A 
ATOM     67  C   UNL A   1      46.184  33.800  27.275  1.00  0.00     0.135 A 
ATOM     68  C   UNL A   1      46.775  33.367  29.565  1.00  0.00     0.135 A 
ATOM     69  F   UNL A   1      45.765  33.387  26.068  1.00  0.00    -0.206 F 
ATOM     70  C   UNL A   1      46.512  35.142  27.433  1.00  0.00     0.059 A 
ATOM     71  C   UNL A   1      47.085  34.712  29.752  1.00  0.00     0.059 A 
ATOM     72  F   UNL A   1      46.921  32.534  30.606  1.00  0.00    -0.206 F 
ATOM     73  C   UNL A   1      46.964  35.589  28.675  1.00  0.00     0.060 A 
BRANCH  73  74
ATOM     74  S   UNL A   1      47.378  37.335  28.868  1.00  0.00     0.124 S 
ATOM     75  O   UNL A   1      48.199  37.571  27.684  1.00  0.00    -0.237 OA
ATOM     76  O   UNL A   1      46.065  37.972  28.864  1.00  0.00    -0.237 OA
ATOM     77  O   UNL A   1      48.088  37.378  30.142  1.00  0.00    -0.744 OA
ENDBRANCH  73  74
ENDBRANCH  52  66
BRANCH  53  78
ATOM     78  C   UNL A   1      43.347  23.450  26.907  1.00  0.00     0.058 A 
ATOM     79  C   UNL A   1      43.142  22.986  25.599  1.00  0.00     0.135 A 
ATOM     80  C   UNL A   1      43.131  22.551  27.963  1.00  0.00     0.135 A 
ATOM     81  F   UNL A   1      43.331  23.810  24.558  1.00  0.00    -0.206 F 
ATOM     82  C   UNL A   1      42.721  21.685  25.346  1.00  0.00     0.059 A 
ATOM     83  C   UNL A   1      42.733  21.238  27.733  1.00  0.00     0.059 A 
ATOM     84  F   UNL A   1      43.333  22.942  29.230  1.00  0.00    -0.206 F 
ATOM     85  C   UNL A   1      42.519  20.818  26.422  1.00  0.00     0.060 A 
BRANCH  85  86
ATOM     86  S   UNL A   1      42.020  19.116  26.082  1.00  0.00     0.124 S 
ATOM     87  O   UNL A   1      42.857  18.788  24.936  1.00  0.00    -0.237 OA
ATOM     88  O   UNL A   1      42.354  18.440  27.332  1.00  0.00    -0.237 OA
ATOM     89  O   UNL A   1      40.590  19.236  25.809  1.00  0.00    -0.744 OA
ENDBRANCH  85  86
ENDBRANCH  53  78
BRANCH  65  90
ATOM     90  C   UNL A   1      49.503  26.681  26.450  1.00  0.00     0.058 A 
ATOM     91  C   UNL A   1      50.332  26.055  27.395  1.00  0.00     0.135 A 
ATOM     92  C   UNL A   1      49.990  26.821  25.141  1.00  0.00     0.135 A 
ATOM     93  F   UNL A   1      49.916  25.900  28.661  1.00  0.00    -0.206 F 
ATOM     94  C   UNL A   1      51.612  25.620  27.063  1.00  0.00     0.059 A 
ATOM     95  C   UNL A   1      51.256  26.370  24.781  1.00  0.00     0.059 A 
ATOM     96  F   UNL A   1      49.232  27.402  24.196  1.00  0.00    -0.206 F 
ATOM     97  C   UNL A   1      52.066  25.787  25.754  1.00  0.00     0.060 A 
BRANCH  97  98
ATOM     98  S   UNL A   1      53.725  25.215  25.332  1.00  0.00     0.124 S 
ATOM     99  O   UNL A   1      54.524  25.829  26.386  1.00  0.00    -0.237 OA
ATOM    100  O   UNL A   1      53.587  23.764  25.406  1.00  0.00    -0.237 OA
ATOM    101  O   UNL A   1      53.935  25.750  23.990  1.00  0.00    -0.744 OA
ENDBRANCH  97  98
ENDBRANCH  65  90
ENDBRANCH  39  40
ENDBRANCH  31  34
ENDBRANCH  29  30
ENDBRANCH  28  29
ENDBRANCH  27  28
ENDBRANCH   1  27
TORSDOF 20
ENDMDL
MODEL 3
REMARK VINA RESULT:     -11.3      6.108     10.936
REMARK SMILES CC(=O)Nc1nc(C[N@@H+]2CCO[C@@H](CC(=O)NCCCCCCNC(=O)c3ccc(-c4c5nc(c(-c6c(F)cc(S(=O)(=O)[O-])cc6F)c6ccc([nH]6)c(-c6c(F)cc(S(=O)(=O)[O-])cc6F)c6nc(c(-c7c(F)cc(S(=O)(=O)[O-])cc7F)c7ccc4[nH]7)C=C6)C=C5)cc3)C2)cs1
REMARK SMILES IDX 20 1 19 2 18 3 17 4 15 5 16 6 14 8 13 9 9 10 10 11 93 12
REMARK SMILES IDX 11 14 12 15 8 16 7 17 5 18 6 19 95 20 94 21 4 22 1 23 2 24
REMARK SMILES IDX 3 25 21 27 22 28 23 29 24 30 25 31 26 33 27 34 28 35 92 36
REMARK SMILES IDX 29 37 91 38 30 39 31 40 32 41 85 42 33 43 90 44 84 45 86 46
REMARK SMILES IDX 34 47 89 48 83 49 82 50 35 52 69 53 48 54 68 55 49 56 52 57
REMARK SMILES IDX 67 58 87 59 50 60 51 61 66 63 88 64 53 65 36 66 37 67 46 68
REMARK SMILES IDX 38 69 39 70 45 71 47 72 40 73 41 74 42 75 43 76 44 77 70 78
REMARK SMILES IDX 71 79 80 80 72 81 73 82 79 83 81 84 74 85 75 86 76 87 77 88
REMARK SMILES IDX 78 89 54 90 55 91 64 92 56 93 57 94 63 95 65 96 58 97 59 98
REMARK SMILES IDX 60 99 61 100 62 101
REMARK H PARENT 17 7 9 13 4 26 24 32 86 51 52 62
REMARK Flexibility Score: inf
ROOT
ATOM      1  C   UNL A   1      33.849  28.624  26.307  1.00  0.00     0.002 C 
ENDROOT
BRANCH   1   2
ATOM      2  C   UNL A   1      33.111  29.537  25.329  1.00  0.00     0.021 C 
BRANCH   2   3
ATOM      3  C   UNL A   1      33.074  29.019  23.888  1.00  0.00     0.116 C 
BRANCH   3   4
ATOM      4  N   UNL A   1      31.773  29.258  23.281  1.00  0.00    -0.356 N 
ATOM      5  C   UNL A   1      31.017  28.450  22.483  1.00  0.00     0.222 C 
ATOM      6  O   UNL A   1      29.974  28.898  22.005  1.00  0.00    -0.275 OA
ATOM      7  H   UNL A   1      31.379  30.139  23.475  1.00  0.00     0.163 HD
BRANCH   5   8
ATOM      8  C   UNL A   1      31.463  27.038  22.191  1.00  0.00     0.138 C 
BRANCH   8   9
ATOM      9  C   UNL A   1      31.028  26.034  23.260  1.00  0.00     0.182 C 
ATOM     10  N   UNL A   1      31.881  24.160  24.775  1.00  0.00    -0.326 N 
ATOM     11  C   UNL A   1      31.305  24.915  25.887  1.00  0.00     0.291 C 
ATOM     12  C   UNL A   1      32.129  25.008  23.605  1.00  0.00     0.295 C 
ATOM     13  H   UNL A   1      32.798  23.876  25.122  1.00  0.00     0.348 HD
ATOM     14  C   UNL A   1      30.248  25.962  25.495  1.00  0.00     0.222 C 
ATOM     15  O   UNL A   1      30.692  26.806  24.430  1.00  0.00    -0.366 OA
BRANCH  10  16
ATOM     16  C   UNL A   1      31.341  22.827  24.502  1.00  0.00     0.320 C 
BRANCH  16  17
ATOM     17  C   UNL A   1      32.325  21.716  24.713  1.00  0.00     0.108 A 
ATOM     18  C   UNL A   1      32.903  19.731  25.480  1.00  0.00     0.189 A 
ATOM     19  N   UNL A   1      31.878  20.504  25.231  1.00  0.00    -0.219 NA
ATOM     20  S   UNL A   1      34.440  20.355  25.087  1.00  0.00    -0.105 S 
ATOM     21  C   UNL A   1      33.680  21.746  24.432  1.00  0.00     0.098 A 
BRANCH  18  22
ATOM     22  N   UNL A   1      32.927  18.481  26.017  1.00  0.00    -0.302 N 
ATOM     23  C   UNL A   1      33.447  17.350  23.869  1.00  0.00     0.114 C 
ATOM     24  C   UNL A   1      33.048  17.317  25.321  1.00  0.00     0.223 C 
ATOM     25  O   UNL A   1      32.917  16.245  25.916  1.00  0.00    -0.275 OA
ATOM     26  H   UNL A   1      32.849  18.412  26.996  1.00  0.00     0.172 HD
ENDBRANCH  18  22
ENDBRANCH  16  17
ENDBRANCH  10  16
ENDBRANCH   8   9
ENDBRANCH   5   8
ENDBRANCH   3   4
ENDBRANCH   2   3
ENDBRANCH   1   2
BRANCH   1  27
ATOM     27  C   UNL A   1      34.963  29.304  27.106  1.00  0.00     0.002 C 
BRANCH  27  28
ATOM     28  C   UNL A   1      34.644  30.709  27.630  1.00  0.00     0.021 C 
BRANCH  28  29
ATOM     29  C   UNL A   1      35.747  31.367  28.458  1.00  0.00     0.116 C 
BRANCH  29  30
ATOM     30  N   UNL A   1      35.672  30.993  29.859  1.00  0.00    -0.352 N 
ATOM     31  C   UNL A   1      36.552  30.275  30.629  1.00  0.00     0.251 C 
ATOM     32  H   UNL A   1      34.865  31.304  30.330  1.00  0.00     0.163 HD
ATOM     33  O   UNL A   1      36.199  29.875  31.735  1.00  0.00    -0.269 OA
BRANCH  31  34
ATOM     34  C   UNL A   1      37.914  29.973  30.136  1.00  0.00     0.039 A 
ATOM     35  C   UNL A   1      38.913  29.680  31.069  1.00  0.00     0.014 A 
ATOM     36  C   UNL A   1      38.225  30.029  28.774  1.00  0.00     0.014 A 
ATOM     37  C   UNL A   1      40.210  29.403  30.632  1.00  0.00     0.010 A 
ATOM     38  C   UNL A   1      39.507  29.692  28.336  1.00  0.00     0.010 A 
ATOM     39  C   UNL A   1      40.514  29.384  29.261  1.00  0.00    -0.014 A 
BRANCH  39  40
ATOM     40  C   UNL A   1      41.884  29.041  28.797  1.00  0.00     0.031 A 
ATOM     41  C   UNL A   1      42.204  27.651  28.313  1.00  0.00     0.074 A 
ATOM     42  C   UNL A   1      42.851  29.978  28.844  1.00  0.00     0.049 A 
ATOM     43  N   UNL A   1      43.335  27.178  27.859  1.00  0.00    -0.248 NA
ATOM     44  C   UNL A   1      41.119  26.659  28.369  1.00  0.00     0.031 C 
ATOM     45  C   UNL A   1      42.681  31.340  29.358  1.00  0.00     0.029 A 
ATOM     46  N   UNL A   1      44.166  29.930  28.459  1.00  0.00    -0.354 N 
ATOM     47  C   UNL A   1      43.106  25.834  27.588  1.00  0.00     0.074 A 
ATOM     48  C   UNL A   1      41.739  25.556  27.972  1.00  0.00     0.031 C 
ATOM     49  C   UNL A   1      43.843  32.003  29.234  1.00  0.00     0.029 A 
ATOM     50  C   UNL A   1      44.842  31.112  28.654  1.00  0.00     0.049 A 
ATOM     51  H   UNL A   1      44.588  29.125  28.081  1.00  0.00     0.167 HD
ATOM     52  C   UNL A   1      43.950  24.920  27.049  1.00  0.00     0.037 A 
ATOM     53  C   UNL A   1      46.121  31.442  28.389  1.00  0.00     0.037 A 
ATOM     54  C   UNL A   1      45.299  25.212  26.637  1.00  0.00     0.049 A 
ATOM     55  C   UNL A   1      47.023  30.426  27.746  1.00  0.00     0.074 A 
ATOM     56  C   UNL A   1      46.206  24.377  26.007  1.00  0.00     0.029 A 
ATOM     57  N   UNL A   1      45.937  26.430  26.816  1.00  0.00    -0.354 N 
ATOM     58  N   UNL A   1      46.761  29.183  27.417  1.00  0.00    -0.248 NA
ATOM     59  C   UNL A   1      48.389  30.859  27.424  1.00  0.00     0.031 C 
ATOM     60  C   UNL A   1      47.405  25.080  25.837  1.00  0.00     0.029 A 
ATOM     61  C   UNL A   1      47.231  26.365  26.325  1.00  0.00     0.049 A 
ATOM     62  H   UNL A   1      45.530  27.225  27.229  1.00  0.00     0.167 HD
ATOM     63  C   UNL A   1      47.923  28.692  26.833  1.00  0.00     0.074 A 
ATOM     64  C   UNL A   1      48.882  29.779  26.836  1.00  0.00     0.031 C 
ATOM     65  C   UNL A   1      48.175  27.454  26.340  1.00  0.00     0.037 A 
BRANCH  52  66
ATOM     66  C   UNL A   1      43.437  23.519  26.862  1.00  0.00     0.058 A 
ATOM     67  C   UNL A   1      43.149  23.002  25.588  1.00  0.00     0.135 A 
ATOM     68  C   UNL A   1      43.269  22.667  27.965  1.00  0.00     0.135 A 
ATOM     69  F   UNL A   1      43.279  23.779  24.499  1.00  0.00    -0.206 F 
ATOM     70  C   UNL A   1      42.691  21.701  25.416  1.00  0.00     0.059 A 
ATOM     71  C   UNL A   1      42.834  21.352  27.814  1.00  0.00     0.059 A 
ATOM     72  F   UNL A   1      43.529  23.107  29.206  1.00  0.00    -0.206 F 
ATOM     73  C   UNL A   1      42.535  20.883  26.536  1.00  0.00     0.060 A 
BRANCH  73  74
ATOM     74  S   UNL A   1      41.947  19.193  26.297  1.00  0.00     0.124 S 
ATOM     75  O   UNL A   1      40.500  19.384  26.318  1.00  0.00    -0.237 OA
ATOM     76  O   UNL A   1      42.519  18.841  25.002  1.00  0.00    -0.237 OA
ATOM     77  O   UNL A   1      42.501  18.475  27.441  1.00  0.00    -0.744 OA
ENDBRANCH  73  74
ENDBRANCH  52  66
BRANCH  53  78
ATOM     78  C   UNL A   1      46.612  32.810  28.702  1.00  0.00     0.058 A 
ATOM     79  C   UNL A   1      47.202  33.100  29.941  1.00  0.00     0.135 A 
ATOM     80  C   UNL A   1      46.514  33.849  27.763  1.00  0.00     0.135 A 
ATOM     81  F   UNL A   1      47.314  32.140  30.871  1.00  0.00    -0.206 F 
ATOM     82  C   UNL A   1      47.663  34.376  30.248  1.00  0.00     0.059 A 
ATOM     83  C   UNL A   1      46.988  35.128  28.038  1.00  0.00     0.059 A 
ATOM     84  F   UNL A   1      45.975  33.616  26.557  1.00  0.00    -0.206 F 
ATOM     85  C   UNL A   1      47.551  35.384  29.288  1.00  0.00     0.060 A 
BRANCH  85  86
ATOM     86  S   UNL A   1      48.196  37.026  29.675  1.00  0.00     0.124 S 
ATOM     87  O   UNL A   1      49.337  36.701  30.521  1.00  0.00    -0.237 OA
ATOM     88  O   UNL A   1      48.510  37.555  28.352  1.00  0.00    -0.237 OA
ATOM     89  O   UNL A   1      47.073  37.674  30.348  1.00  0.00    -0.744 OA
ENDBRANCH  85  86
ENDBRANCH  53  78
BRANCH  65  90
ATOM     90  C   UNL A   1      49.536  27.218  25.749  1.00  0.00     0.058 A 
ATOM     91  C   UNL A   1      50.645  26.916  26.556  1.00  0.00     0.135 A 
ATOM     92  C   UNL A   1      49.731  27.275  24.360  1.00  0.00     0.135 A 
ATOM     93  F   UNL A   1      50.513  26.854  27.890  1.00  0.00    -0.206 F 
ATOM     94  C   UNL A   1      51.909  26.716  26.008  1.00  0.00     0.059 A 
ATOM     95  C   UNL A   1      50.980  27.053  23.790  1.00  0.00     0.059 A 
ATOM     96  F   UNL A   1      48.700  27.548  23.544  1.00  0.00    -0.206 F 
ATOM     97  C   UNL A   1      52.067  26.792  24.623  1.00  0.00     0.060 A 
BRANCH  97  98
ATOM     98  S   UNL A   1      53.708  26.526  23.921  1.00  0.00     0.124 S 
ATOM     99  O   UNL A   1      54.191  25.406  24.722  1.00  0.00    -0.237 OA
ATOM    100  O   UNL A   1      53.409  26.223  22.525  1.00  0.00    -0.237 OA
ATOM    101  O   UNL A   1      54.383  27.800  24.148  1.00  0.00    -0.744 OA
ENDBRANCH  97  98
ENDBRANCH  65  90
ENDBRANCH  39  40
ENDBRANCH  31  34
ENDBRANCH  29  30
ENDBRANCH  28  29
ENDBRANCH  27  28
ENDBRANCH   1  27
TORSDOF 20
ENDMDL
