MODEL 1
REMARK VINA RESULT:     -11.3      0.000      0.000
REMARK SMILES CC[C@@](C)([NH2+][C@H]1CC[C@H](C)[C@H](C)C1)C(=O)NCCCCCCNC(=O)c1ccc(-c2c3nc(c(-c4c(F)cc(S(=O)(=O)[O-])cc4F)c4ccc([nH]4)c(-c4c(F)cc(S(=O)(=O)[O-])cc4F)c4nc(c(-c5c(F)cc(S(=O)(=O)[O-])cc5F)c5ccc2[nH]5)C=C4)C=C3)cc1
REMARK SMILES IDX 20 1 19 2 18 3 17 4 16 5 14 6 15 7 3 9 4 10 2 11 1 12 5 13
REMARK SMILES IDX 6 16 7 17 13 18 8 19 11 20 9 21 12 22 10 23 21 24 22 25
REMARK SMILES IDX 23 26 24 27 25 29 26 30 27 31 91 32 28 33 90 34 29 35 30 36
REMARK SMILES IDX 31 37 84 38 32 39 89 40 83 41 85 42 33 43 88 44 82 45 81 46
REMARK SMILES IDX 34 48 68 49 47 50 67 51 48 52 51 53 66 54 86 55 49 56 50 57
REMARK SMILES IDX 65 59 87 60 52 61 35 62 36 63 45 64 37 65 38 66 44 67 46 68
REMARK SMILES IDX 39 69 40 70 41 71 42 72 43 73 69 74 70 75 79 76 71 77 72 78
REMARK SMILES IDX 78 79 80 80 73 81 74 82 75 83 76 84 77 85 53 86 54 87 63 88
REMARK SMILES IDX 55 89 56 90 62 91 64 92 57 93 58 94 59 95 60 96 61 97
REMARK H PARENT 16 8 5 14 5 15 23 28 85 47 51 58
REMARK Flexibility Score: inf
ROOT
ATOM      1  C   UNL A   1      39.318  21.701  26.138  1.00  0.00     0.002 C 
ENDROOT
BRANCH   1   2
ATOM      2  C   UNL A   1      38.045  22.255  25.491  1.00  0.00     0.002 C 
BRANCH   2   3
ATOM      3  C   UNL A   1      37.679  23.696  25.848  1.00  0.00     0.021 C 
BRANCH   3   4
ATOM      4  C   UNL A   1      36.199  24.075  25.746  1.00  0.00     0.116 C 
BRANCH   4   5
ATOM      5  N   UNL A   1      35.788  24.067  24.357  1.00  0.00    -0.351 N 
ATOM      6  C   UNL A   1      34.648  23.628  23.758  1.00  0.00     0.281 C 
ATOM      7  O   UNL A   1      34.825  23.182  22.614  1.00  0.00    -0.268 OA
ATOM      8  H   UNL A   1      36.450  24.448  23.738  1.00  0.00     0.163 HD
BRANCH   6   9
ATOM      9  C   UNL A   1      33.205  23.709  24.391  1.00  0.00     0.172 C 
ATOM     10  C   UNL A   1      32.933  25.009  25.162  1.00  0.00     0.090 C 
BRANCH   9  11
ATOM     11  C   UNL A   1      32.223  23.703  23.152  1.00  0.00     0.075 C 
ATOM     12  C   UNL A   1      30.733  23.794  23.498  1.00  0.00     0.011 C 
ENDBRANCH   9  11
BRANCH   9  13
ATOM     13  N   UNL A   1      32.892  22.444  25.127  1.00  0.00    -0.331 N 
ATOM     14  H   UNL A   1      31.877  22.387  25.200  1.00  0.00     0.347 HD
ATOM     15  H   UNL A   1      33.416  22.539  25.998  1.00  0.00     0.347 HD
BRANCH  13  16
ATOM     16  C   UNL A   1      33.353  21.163  24.589  1.00  0.00     0.183 C 
ATOM     17  C   UNL A   1      34.556  20.587  25.344  1.00  0.00     0.065 C 
ATOM     18  C   UNL A   1      32.208  20.133  24.695  1.00  0.00     0.068 C 
ATOM     19  C   UNL A   1      35.037  19.328  24.632  1.00  0.00     0.010 C 
ATOM     20  C   UNL A   1      32.566  18.724  24.158  1.00  0.00    -0.006 C 
ATOM     21  C   UNL A   1      33.966  18.226  24.615  1.00  0.00    -0.011 C 
ATOM     22  C   UNL A   1      32.376  18.641  22.647  1.00  0.00     0.008 C 
ATOM     23  C   UNL A   1      34.488  17.037  23.795  1.00  0.00     0.008 C 
ENDBRANCH  13  16
ENDBRANCH   9  13
ENDBRANCH   6   9
ENDBRANCH   4   5
ENDBRANCH   3   4
ENDBRANCH   2   3
ENDBRANCH   1   2
BRANCH   1  24
ATOM     24  C   UNL A   1      39.930  22.527  27.276  1.00  0.00     0.021 C 
BRANCH  24  25
ATOM     25  C   UNL A   1      41.392  22.946  27.102  1.00  0.00     0.116 C 
BRANCH  25  26
ATOM     26  N   UNL A   1      41.597  23.901  26.030  1.00  0.00    -0.352 N 
ATOM     27  C   UNL A   1      41.568  25.273  26.016  1.00  0.00     0.251 C 
ATOM     28  H   UNL A   1      41.791  23.491  25.156  1.00  0.00     0.163 HD
ATOM     29  O   UNL A   1      41.704  25.852  24.939  1.00  0.00    -0.269 OA
BRANCH  27  30
ATOM     30  C   UNL A   1      41.343  26.073  27.246  1.00  0.00     0.039 A 
ATOM     31  C   UNL A   1      42.319  27.013  27.594  1.00  0.00     0.014 A 
ATOM     32  C   UNL A   1      40.243  25.884  28.087  1.00  0.00     0.014 A 
ATOM     33  C   UNL A   1      42.165  27.799  28.740  1.00  0.00     0.010 A 
ATOM     34  C   UNL A   1      40.059  26.711  29.204  1.00  0.00     0.010 A 
ATOM     35  C   UNL A   1      41.016  27.682  29.540  1.00  0.00    -0.014 A 
BRANCH  35  36
ATOM     36  C   UNL A   1      40.810  28.606  30.690  1.00  0.00     0.031 A 
ATOM     37  C   UNL A   1      41.661  28.519  31.928  1.00  0.00     0.074 A 
ATOM     38  C   UNL A   1      39.833  29.534  30.621  1.00  0.00     0.049 A 
ATOM     39  N   UNL A   1      41.645  29.277  32.996  1.00  0.00    -0.248 NA
ATOM     40  C   UNL A   1      42.647  27.431  31.981  1.00  0.00     0.031 C 
ATOM     41  C   UNL A   1      38.909  29.699  29.496  1.00  0.00     0.029 A 
ATOM     42  N   UNL A   1      39.457  30.515  31.504  1.00  0.00    -0.354 N 
ATOM     43  C   UNL A   1      42.613  28.761  33.849  1.00  0.00     0.074 A 
ATOM     44  C   UNL A   1      43.164  27.594  33.193  1.00  0.00     0.031 C 
ATOM     45  C   UNL A   1      38.099  30.741  29.742  1.00  0.00     0.029 A 
ATOM     46  C   UNL A   1      38.420  31.298  31.054  1.00  0.00     0.049 A 
ATOM     47  H   UNL A   1      39.889  30.647  32.380  1.00  0.00     0.167 HD
ATOM     48  C   UNL A   1      43.018  29.225  35.057  1.00  0.00     0.037 A 
ATOM     49  C   UNL A   1      37.796  32.348  31.624  1.00  0.00     0.037 A 
ATOM     50  C   UNL A   1      42.471  30.392  35.706  1.00  0.00     0.049 A 
ATOM     51  C   UNL A   1      38.254  32.837  32.969  1.00  0.00     0.074 A 
ATOM     52  C   UNL A   1      42.862  30.976  36.900  1.00  0.00     0.029 A 
ATOM     53  N   UNL A   1      41.410  31.146  35.226  1.00  0.00    -0.354 N 
ATOM     54  N   UNL A   1      39.225  32.383  33.725  1.00  0.00    -0.248 NA
ATOM     55  C   UNL A   1      37.535  33.986  33.537  1.00  0.00     0.031 C 
ATOM     56  C   UNL A   1      42.002  32.047  37.168  1.00  0.00     0.029 A 
ATOM     57  C   UNL A   1      41.110  32.167  36.115  1.00  0.00     0.049 A 
ATOM     58  H   UNL A   1      40.938  30.980  34.378  1.00  0.00     0.167 HD
ATOM     59  C   UNL A   1      39.247  33.202  34.850  1.00  0.00     0.074 A 
ATOM     60  C   UNL A   1      38.203  34.190  34.665  1.00  0.00     0.031 C 
ATOM     61  C   UNL A   1      40.060  33.141  35.933  1.00  0.00     0.037 A 
BRANCH  48  62
ATOM     62  C   UNL A   1      44.105  28.460  35.767  1.00  0.00     0.058 A 
ATOM     63  C   UNL A   1      43.811  27.429  36.675  1.00  0.00     0.135 A 
ATOM     64  C   UNL A   1      45.458  28.743  35.518  1.00  0.00     0.135 A 
ATOM     65  F   UNL A   1      42.536  27.120  36.958  1.00  0.00    -0.206 F 
ATOM     66  C   UNL A   1      44.817  26.737  37.343  1.00  0.00     0.059 A 
ATOM     67  C   UNL A   1      46.481  28.043  36.153  1.00  0.00     0.059 A 
ATOM     68  F   UNL A   1      45.799  29.711  34.653  1.00  0.00    -0.206 F 
ATOM     69  C   UNL A   1      46.150  27.055  37.079  1.00  0.00     0.060 A 
BRANCH  69  70
ATOM     70  S   UNL A   1      47.443  26.165  37.972  1.00  0.00     0.124 S 
ATOM     71  O   UNL A   1      48.523  26.162  36.990  1.00  0.00    -0.237 OA
ATOM     72  O   UNL A   1      47.653  27.008  39.143  1.00  0.00    -0.237 OA
ATOM     73  O   UNL A   1      46.836  24.864  38.240  1.00  0.00    -0.744 OA
ENDBRANCH  69  70
ENDBRANCH  48  62
BRANCH  49  74
ATOM     74  C   UNL A   1      36.687  33.026  30.900  1.00  0.00     0.058 A 
ATOM     75  C   UNL A   1      35.356  32.870  31.311  1.00  0.00     0.135 A 
ATOM     76  C   UNL A   1      36.940  33.868  29.806  1.00  0.00     0.135 A 
ATOM     77  F   UNL A   1      35.062  32.067  32.346  1.00  0.00    -0.206 F 
ATOM     78  C   UNL A   1      34.312  33.522  30.663  1.00  0.00     0.059 A 
ATOM     79  C   UNL A   1      35.917  34.551  29.158  1.00  0.00     0.059 A 
ATOM     80  F   UNL A   1      38.199  34.061  29.382  1.00  0.00    -0.206 F 
ATOM     81  C   UNL A   1      34.604  34.368  29.591  1.00  0.00     0.060 A 
BRANCH  81  82
ATOM     82  S   UNL A   1      33.251  35.269  28.805  1.00  0.00     0.124 S 
ATOM     83  O   UNL A   1      33.975  36.257  28.015  1.00  0.00    -0.237 OA
ATOM     84  O   UNL A   1      32.579  34.216  28.052  1.00  0.00    -0.237 OA
ATOM     85  O   UNL A   1      32.497  35.796  29.938  1.00  0.00    -0.744 OA
ENDBRANCH  81  82
ENDBRANCH  49  74
BRANCH  61  86
ATOM     86  C   UNL A   1      39.863  34.180  37.004  1.00  0.00     0.058 A 
ATOM     87  C   UNL A   1      39.095  33.923  38.150  1.00  0.00     0.135 A 
ATOM     88  C   UNL A   1      40.473  35.441  36.897  1.00  0.00     0.135 A 
ATOM     89  F   UNL A   1      38.483  32.738  38.301  1.00  0.00    -0.206 F 
ATOM     90  C   UNL A   1      38.913  34.887  39.137  1.00  0.00     0.059 A 
ATOM     91  C   UNL A   1      40.328  36.410  37.885  1.00  0.00     0.059 A 
ATOM     92  F   UNL A   1      41.226  35.739  35.826  1.00  0.00    -0.206 F 
ATOM     93  C   UNL A   1      39.534  36.129  38.995  1.00  0.00     0.060 A 
BRANCH  93  94
ATOM     94  S   UNL A   1      39.305  37.366  40.291  1.00  0.00     0.124 S 
ATOM     95  O   UNL A   1      38.511  38.375  39.598  1.00  0.00    -0.237 OA
ATOM     96  O   UNL A   1      38.606  36.609  41.325  1.00  0.00    -0.237 OA
ATOM     97  O   UNL A   1      40.669  37.762  40.627  1.00  0.00    -0.744 OA
ENDBRANCH  93  94
ENDBRANCH  61  86
ENDBRANCH  35  36
ENDBRANCH  27  30
ENDBRANCH  25  26
ENDBRANCH  24  25
ENDBRANCH   1  24
TORSDOF 19
ENDMDL
MODEL 2
REMARK VINA RESULT:     -10.9      4.994      9.841
REMARK SMILES CC[C@@](C)([NH2+][C@H]1CC[C@H](C)[C@H](C)C1)C(=O)NCCCCCCNC(=O)c1ccc(-c2c3nc(c(-c4c(F)cc(S(=O)(=O)[O-])cc4F)c4ccc([nH]4)c(-c4c(F)cc(S(=O)(=O)[O-])cc4F)c4nc(c(-c5c(F)cc(S(=O)(=O)[O-])cc5F)c5ccc2[nH]5)C=C4)C=C3)cc1
REMARK SMILES IDX 20 1 19 2 18 3 17 4 16 5 14 6 15 7 3 9 4 10 2 11 1 12 5 13
REMARK SMILES IDX 6 16 7 17 13 18 8 19 11 20 9 21 12 22 10 23 21 24 22 25
REMARK SMILES IDX 23 26 24 27 25 29 26 30 27 31 91 32 28 33 90 34 29 35 30 36
REMARK SMILES IDX 31 37 84 38 32 39 89 40 83 41 85 42 33 43 88 44 82 45 81 46
REMARK SMILES IDX 34 48 68 49 47 50 67 51 48 52 51 53 66 54 86 55 49 56 50 57
REMARK SMILES IDX 65 59 87 60 52 61 35 62 36 63 45 64 37 65 38 66 44 67 46 68
REMARK SMILES IDX 39 69 40 70 41 71 42 72 43 73 69 74 70 75 79 76 71 77 72 78
REMARK SMILES IDX 78 79 80 80 73 81 74 82 75 83 76 84 77 85 53 86 54 87 63 88
REMARK SMILES IDX 55 89 56 90 62 91 64 92 57 93 58 94 59 95 60 96 61 97
REMARK H PARENT 16 8 5 14 5 15 23 28 85 47 51 58
REMARK Flexibility Score: inf
ROOT
ATOM      1  C   UNL A   1      32.649  28.668  24.443  1.00  0.00     0.002 C 
ENDROOT
BRANCH   1   2
ATOM      2  C   UNL A   1      32.473  28.188  23.000  1.00  0.00     0.002 C 
BRANCH   2   3
ATOM      3  C   UNL A   1      33.550  27.244  22.466  1.00  0.00     0.021 C 
BRANCH   3   4
ATOM      4  C   UNL A   1      33.108  25.818  22.127  1.00  0.00     0.116 C 
BRANCH   4   5
ATOM      5  N   UNL A   1      31.782  25.579  22.656  1.00  0.00    -0.351 N 
ATOM      6  C   UNL A   1      31.284  24.566  23.416  1.00  0.00     0.281 C 
ATOM      7  O   UNL A   1      30.093  24.305  23.185  1.00  0.00    -0.268 OA
ATOM      8  H   UNL A   1      31.124  26.273  22.426  1.00  0.00     0.163 HD
BRANCH   6   9
ATOM      9  C   UNL A   1      32.086  23.801  24.540  1.00  0.00     0.172 C 
ATOM     10  C   UNL A   1      32.624  24.711  25.654  1.00  0.00     0.090 C 
BRANCH   9  11
ATOM     11  C   UNL A   1      31.021  22.844  25.211  1.00  0.00     0.075 C 
ATOM     12  C   UNL A   1      30.814  23.049  26.715  1.00  0.00     0.011 C 
ENDBRANCH   9  11
BRANCH   9  13
ATOM     13  N   UNL A   1      33.087  22.877  23.921  1.00  0.00    -0.331 N 
ATOM     14  H   UNL A   1      33.305  23.250  22.998  1.00  0.00     0.347 HD
ATOM     15  H   UNL A   1      32.625  21.967  23.957  1.00  0.00     0.347 HD
BRANCH  13  16
ATOM     16  C   UNL A   1      34.364  22.639  24.596  1.00  0.00     0.183 C 
ATOM     17  C   UNL A   1      34.826  21.179  24.518  1.00  0.00     0.065 C 
ATOM     18  C   UNL A   1      35.454  23.503  23.927  1.00  0.00     0.068 C 
ATOM     19  C   UNL A   1      36.090  21.010  25.355  1.00  0.00     0.010 C 
ATOM     20  C   UNL A   1      36.865  23.343  24.549  1.00  0.00    -0.006 C 
ATOM     21  C   UNL A   1      37.254  21.865  24.828  1.00  0.00    -0.011 C 
ATOM     22  C   UNL A   1      37.036  24.239  25.773  1.00  0.00     0.008 C 
ATOM     23  C   UNL A   1      38.449  21.718  25.781  1.00  0.00     0.008 C 
ENDBRANCH  13  16
ENDBRANCH   9  13
ENDBRANCH   6   9
ENDBRANCH   4   5
ENDBRANCH   3   4
ENDBRANCH   2   3
ENDBRANCH   1   2
BRANCH   1  24
ATOM     24  C   UNL A   1      33.893  28.170  25.189  1.00  0.00     0.021 C 
BRANCH  24  25
ATOM     25  C   UNL A   1      33.821  28.186  26.718  1.00  0.00     0.116 C 
BRANCH  25  26
ATOM     26  N   UNL A   1      33.652  29.513  27.277  1.00  0.00    -0.352 N 
ATOM     27  C   UNL A   1      34.508  30.317  27.989  1.00  0.00     0.251 C 
ATOM     28  H   UNL A   1      32.764  29.908  27.119  1.00  0.00     0.163 HD
ATOM     29  O   UNL A   1      34.085  31.388  28.420  1.00  0.00    -0.269 OA
BRANCH  27  30
ATOM     30  C   UNL A   1      35.907  29.919  28.283  1.00  0.00     0.039 A 
ATOM     31  C   UNL A   1      36.849  30.055  27.258  1.00  0.00     0.014 A 
ATOM     32  C   UNL A   1      36.300  29.365  29.505  1.00  0.00     0.014 A 
ATOM     33  C   UNL A   1      38.184  29.698  27.473  1.00  0.00     0.010 A 
ATOM     34  C   UNL A   1      37.648  29.061  29.740  1.00  0.00     0.010 A 
ATOM     35  C   UNL A   1      38.606  29.230  28.728  1.00  0.00    -0.014 A 
BRANCH  35  36
ATOM     36  C   UNL A   1      40.051  28.966  28.979  1.00  0.00     0.031 A 
ATOM     37  C   UNL A   1      40.680  27.646  28.623  1.00  0.00     0.074 A 
ATOM     38  C   UNL A   1      40.808  29.930  29.544  1.00  0.00     0.049 A 
ATOM     39  N   UNL A   1      41.930  27.272  28.729  1.00  0.00    -0.248 NA
ATOM     40  C   UNL A   1      39.786  26.605  28.095  1.00  0.00     0.031 C 
ATOM     41  C   UNL A   1      40.315  31.240  29.975  1.00  0.00     0.029 A 
ATOM     42  N   UNL A   1      42.146  29.964  29.846  1.00  0.00    -0.354 N 
ATOM     43  C   UNL A   1      41.977  25.956  28.284  1.00  0.00     0.074 A 
ATOM     44  C   UNL A   1      40.618  25.581  27.953  1.00  0.00     0.031 C 
ATOM     45  C   UNL A   1      41.341  31.961  30.452  1.00  0.00     0.029 A 
ATOM     46  C   UNL A   1      42.559  31.156  30.393  1.00  0.00     0.049 A 
ATOM     47  H   UNL A   1      42.754  29.206  29.687  1.00  0.00     0.167 HD
ATOM     48  C   UNL A   1      43.053  25.142  28.147  1.00  0.00     0.037 A 
ATOM     49  C   UNL A   1      43.778  31.564  30.800  1.00  0.00     0.037 A 
ATOM     50  C   UNL A   1      44.407  25.519  28.472  1.00  0.00     0.049 A 
ATOM     51  C   UNL A   1      44.953  30.639  30.650  1.00  0.00     0.074 A 
ATOM     52  C   UNL A   1      45.569  24.784  28.306  1.00  0.00     0.029 A 
ATOM     53  N   UNL A   1      44.781  26.728  29.041  1.00  0.00    -0.354 N 
ATOM     54  N   UNL A   1      44.990  29.426  30.153  1.00  0.00    -0.248 NA
ATOM     55  C   UNL A   1      46.255  31.142  31.111  1.00  0.00     0.031 C 
ATOM     56  C   UNL A   1      46.637  25.526  28.826  1.00  0.00     0.029 A 
ATOM     57  C   UNL A   1      46.150  26.747  29.264  1.00  0.00     0.049 A 
ATOM     58  H   UNL A   1      44.165  27.466  29.255  1.00  0.00     0.167 HD
ATOM     59  C   UNL A   1      46.321  29.026  30.223  1.00  0.00     0.074 A 
ATOM     60  C   UNL A   1      47.059  30.135  30.794  1.00  0.00     0.031 C 
ATOM     61  C   UNL A   1      46.878  27.849  29.847  1.00  0.00     0.037 A 
BRANCH  48  62
ATOM     62  C   UNL A   1      42.808  23.747  27.629  1.00  0.00     0.058 A 
ATOM     63  C   UNL A   1      42.725  23.473  26.254  1.00  0.00     0.135 A 
ATOM     64  C   UNL A   1      42.680  22.667  28.518  1.00  0.00     0.135 A 
ATOM     65  F   UNL A   1      42.832  24.467  25.358  1.00  0.00    -0.206 F 
ATOM     66  C   UNL A   1      42.480  22.187  25.781  1.00  0.00     0.059 A 
ATOM     67  C   UNL A   1      42.464  21.368  28.066  1.00  0.00     0.059 A 
ATOM     68  F   UNL A   1      42.760  22.869  29.843  1.00  0.00    -0.206 F 
ATOM     69  C   UNL A   1      42.345  21.142  26.695  1.00  0.00     0.060 A 
BRANCH  69  70
ATOM     70  S   UNL A   1      42.005  19.483  26.067  1.00  0.00     0.124 S 
ATOM     71  O   UNL A   1      40.564  19.547  25.848  1.00  0.00    -0.237 OA
ATOM     72  O   UNL A   1      42.828  19.429  24.864  1.00  0.00    -0.237 OA
ATOM     73  O   UNL A   1      42.436  18.612  27.157  1.00  0.00    -0.744 OA
ENDBRANCH  69  70
ENDBRANCH  48  62
BRANCH  49  74
ATOM     74  C   UNL A   1      43.947  32.931  31.360  1.00  0.00     0.058 A 
ATOM     75  C   UNL A   1      44.107  34.041  30.518  1.00  0.00     0.135 A 
ATOM     76  C   UNL A   1      43.917  33.159  32.745  1.00  0.00     0.135 A 
ATOM     77  F   UNL A   1      44.152  33.872  29.187  1.00  0.00    -0.206 F 
ATOM     78  C   UNL A   1      44.236  35.329  31.027  1.00  0.00     0.059 A 
ATOM     79  C   UNL A   1      44.017  34.440  33.277  1.00  0.00     0.059 A 
ATOM     80  F   UNL A   1      43.752  32.132  33.593  1.00  0.00    -0.206 F 
ATOM     81  C   UNL A   1      44.181  35.520  32.409  1.00  0.00     0.060 A 
BRANCH  81  82
ATOM     82  S   UNL A   1      44.272  37.203  33.056  1.00  0.00     0.124 S 
ATOM     83  O   UNL A   1      42.993  37.324  33.745  1.00  0.00    -0.237 OA
ATOM     84  O   UNL A   1      45.454  37.140  33.908  1.00  0.00    -0.237 OA
ATOM     85  O   UNL A   1      44.420  38.016  31.852  1.00  0.00    -0.744 OA
ENDBRANCH  81  82
ENDBRANCH  49  74
BRANCH  61  86
ATOM     86  C   UNL A   1      48.365  27.699  30.028  1.00  0.00     0.058 A 
ATOM     87  C   UNL A   1      48.916  27.154  31.199  1.00  0.00     0.135 A 
ATOM     88  C   UNL A   1      49.251  28.080  29.006  1.00  0.00     0.135 A 
ATOM     89  F   UNL A   1      48.116  26.780  32.210  1.00  0.00    -0.206 F 
ATOM     90  C   UNL A   1      50.291  27.019  31.364  1.00  0.00     0.059 A 
ATOM     91  C   UNL A   1      50.629  27.928  29.138  1.00  0.00     0.059 A 
ATOM     92  F   UNL A   1      48.781  28.599  27.861  1.00  0.00    -0.206 F 
ATOM     93  C   UNL A   1      51.140  27.410  30.327  1.00  0.00     0.060 A 
BRANCH  93  94
ATOM     94  S   UNL A   1      52.921  27.214  30.546  1.00  0.00     0.124 S 
ATOM     95  O   UNL A   1      52.987  26.550  31.843  1.00  0.00    -0.237 OA
ATOM     96  O   UNL A   1      53.289  26.395  29.395  1.00  0.00    -0.237 OA
ATOM     97  O   UNL A   1      53.421  28.585  30.516  1.00  0.00    -0.744 OA
ENDBRANCH  93  94
ENDBRANCH  61  86
ENDBRANCH  35  36
ENDBRANCH  27  30
ENDBRANCH  25  26
ENDBRANCH  24  25
ENDBRANCH   1  24
TORSDOF 19
ENDMDL
MODEL 3
REMARK VINA RESULT:     -10.8      6.269      8.942
REMARK SMILES CC[C@@](C)([NH2+][C@H]1CC[C@H](C)[C@H](C)C1)C(=O)NCCCCCCNC(=O)c1ccc(-c2c3nc(c(-c4c(F)cc(S(=O)(=O)[O-])cc4F)c4ccc([nH]4)c(-c4c(F)cc(S(=O)(=O)[O-])cc4F)c4nc(c(-c5c(F)cc(S(=O)(=O)[O-])cc5F)c5ccc2[nH]5)C=C4)C=C3)cc1
REMARK SMILES IDX 20 1 19 2 18 3 17 4 16 5 14 6 15 7 3 9 4 10 2 11 1 12 5 13
REMARK SMILES IDX 6 16 7 17 13 18 8 19 11 20 9 21 12 22 10 23 21 24 22 25
REMARK SMILES IDX 23 26 24 27 25 29 26 30 27 31 91 32 28 33 90 34 29 35 30 36
REMARK SMILES IDX 31 37 84 38 32 39 89 40 83 41 85 42 33 43 88 44 82 45 81 46
REMARK SMILES IDX 34 48 68 49 47 50 67 51 48 52 51 53 66 54 86 55 49 56 50 57
REMARK SMILES IDX 65 59 87 60 52 61 35 62 36 63 45 64 37 65 38 66 44 67 46 68
REMARK SMILES IDX 39 69 40 70 41 71 42 72 43 73 69 74 70 75 79 76 71 77 72 78
REMARK SMILES IDX 78 79 80 80 73 81 74 82 75 83 76 84 77 85 53 86 54 87 63 88
REMARK SMILES IDX 55 89 56 90 62 91 64 92 57 93 58 94 59 95 60 96 61 97
REMARK H PARENT 16 8 5 14 5 15 23 28 85 47 51 58
REMARK Flexibility Score: inf
ROOT
ATOM      1  C   UNL A   1      36.851  20.916  24.877  1.00  0.00     0.002 C 
ENDROOT
BRANCH   1   2
ATOM      2  C   UNL A   1      35.443  20.324  24.991  1.00  0.00     0.002 C 
BRANCH   2   3
ATOM      3  C   UNL A   1      34.444  21.115  25.836  1.00  0.00     0.021 C 
BRANCH   3   4
ATOM      4  C   UNL A   1      32.967  20.983  25.457  1.00  0.00     0.116 C 
BRANCH   4   5
ATOM      5  N   UNL A   1      32.159  21.770  26.366  1.00  0.00    -0.351 N 
ATOM      6  C   UNL A   1      31.997  23.114  26.495  1.00  0.00     0.281 C 
ATOM      7  O   UNL A   1      31.787  23.484  27.660  1.00  0.00    -0.268 OA
ATOM      8  H   UNL A   1      31.631  21.236  27.002  1.00  0.00     0.163 HD
BRANCH   6   9
ATOM      9  C   UNL A   1      32.010  24.145  25.299  1.00  0.00     0.172 C 
ATOM     10  C   UNL A   1      33.416  24.487  24.784  1.00  0.00     0.090 C 
BRANCH   9  11
ATOM     11  C   UNL A   1      31.264  23.400  24.121  1.00  0.00     0.075 C 
ATOM     12  C   UNL A   1      32.047  23.304  22.808  1.00  0.00     0.011 C 
ENDBRANCH   9  11
BRANCH   9  13
ATOM     13  N   UNL A   1      31.136  25.316  25.618  1.00  0.00    -0.331 N 
ATOM     14  H   UNL A   1      31.547  25.781  26.427  1.00  0.00     0.347 HD
ATOM     15  H   UNL A   1      30.213  24.899  25.742  1.00  0.00     0.347 HD
BRANCH  13  16
ATOM     16  C   UNL A   1      30.911  26.348  24.604  1.00  0.00     0.183 C 
ATOM     17  C   UNL A   1      29.427  26.591  24.307  1.00  0.00     0.065 C 
ATOM     18  C   UNL A   1      31.505  27.682  25.103  1.00  0.00     0.068 C 
ATOM     19  C   UNL A   1      29.304  27.581  23.153  1.00  0.00     0.010 C 
ATOM     20  C   UNL A   1      31.333  28.865  24.117  1.00  0.00    -0.006 C 
ATOM     21  C   UNL A   1      29.910  28.951  23.497  1.00  0.00    -0.011 C 
ATOM     22  C   UNL A   1      32.436  28.875  23.064  1.00  0.00     0.008 C 
ATOM     23  C   UNL A   1      29.839  29.852  22.255  1.00  0.00     0.008 C 
ENDBRANCH  13  16
ENDBRANCH   9  13
ENDBRANCH   6   9
ENDBRANCH   4   5
ENDBRANCH   3   4
ENDBRANCH   2   3
ENDBRANCH   1   2
BRANCH   1  24
ATOM     24  C   UNL A   1      38.024  19.934  24.982  1.00  0.00     0.021 C 
BRANCH  24  25
ATOM     25  C   UNL A   1      39.214  20.383  25.833  1.00  0.00     0.116 C 
BRANCH  25  26
ATOM     26  N   UNL A   1      40.290  19.413  25.882  1.00  0.00    -0.352 N 
ATOM     27  C   UNL A   1      41.632  19.555  26.136  1.00  0.00     0.251 C 
ATOM     28  H   UNL A   1      40.009  18.487  25.699  1.00  0.00     0.163 HD
ATOM     29  O   UNL A   1      42.355  18.565  26.041  1.00  0.00    -0.269 OA
BRANCH  27  30
ATOM     30  C   UNL A   1      42.238  20.865  26.484  1.00  0.00     0.039 A 
ATOM     31  C   UNL A   1      42.645  21.691  25.430  1.00  0.00     0.014 A 
ATOM     32  C   UNL A   1      42.471  21.270  27.801  1.00  0.00     0.014 A 
ATOM     33  C   UNL A   1      43.222  22.937  25.692  1.00  0.00     0.010 A 
ATOM     34  C   UNL A   1      42.996  22.543  28.064  1.00  0.00     0.010 A 
ATOM     35  C   UNL A   1      43.372  23.393  27.012  1.00  0.00    -0.014 A 
BRANCH  35  36
ATOM     36  C   UNL A   1      43.879  24.770  27.272  1.00  0.00     0.031 A 
ATOM     37  C   UNL A   1      45.321  25.131  27.040  1.00  0.00     0.074 A 
ATOM     38  C   UNL A   1      43.026  25.708  27.733  1.00  0.00     0.049 A 
ATOM     39  N   UNL A   1      45.912  26.292  27.171  1.00  0.00    -0.248 NA
ATOM     40  C   UNL A   1      46.220  24.045  26.626  1.00  0.00     0.031 C 
ATOM     41  C   UNL A   1      41.612  25.481  28.040  1.00  0.00     0.029 A 
ATOM     42  N   UNL A   1      43.216  27.038  28.018  1.00  0.00    -0.354 N 
ATOM     43  C   UNL A   1      47.249  26.080  26.856  1.00  0.00     0.074 A 
ATOM     44  C   UNL A   1      47.391  24.667  26.576  1.00  0.00     0.031 C 
ATOM     45  C   UNL A   1      41.056  26.637  28.433  1.00  0.00     0.029 A 
ATOM     46  C   UNL A   1      42.077  27.681  28.442  1.00  0.00     0.049 A 
ATOM     47  H   UNL A   1      44.087  27.489  27.927  1.00  0.00     0.167 HD
ATOM     48  C   UNL A   1      48.261  26.981  26.788  1.00  0.00     0.037 A 
ATOM     49  C   UNL A   1      41.870  28.965  28.795  1.00  0.00     0.037 A 
ATOM     50  C   UNL A   1      48.116  28.390  27.062  1.00  0.00     0.049 A 
ATOM     51  C   UNL A   1      43.009  29.943  28.724  1.00  0.00     0.074 A 
ATOM     52  C   UNL A   1      49.069  29.390  26.957  1.00  0.00     0.029 A 
ATOM     53  N   UNL A   1      46.952  28.999  27.506  1.00  0.00    -0.354 N 
ATOM     54  N   UNL A   1      44.249  29.739  28.348  1.00  0.00    -0.248 NA
ATOM     55  C   UNL A   1      42.720  31.328  29.121  1.00  0.00     0.031 C 
ATOM     56  C   UNL A   1      48.497  30.591  27.391  1.00  0.00     0.029 A 
ATOM     57  C   UNL A   1      47.170  30.353  27.713  1.00  0.00     0.049 A 
ATOM     58  H   UNL A   1      46.094  28.538  27.654  1.00  0.00     0.167 HD
ATOM     59  C   UNL A   1      44.884  30.974  28.443  1.00  0.00     0.074 A 
ATOM     60  C   UNL A   1      43.886  31.921  28.896  1.00  0.00     0.031 C 
ATOM     61  C   UNL A   1      46.175  31.290  28.178  1.00  0.00     0.037 A 
BRANCH  48  62
ATOM     62  C   UNL A   1      49.627  26.466  26.412  1.00  0.00     0.058 A 
ATOM     63  C   UNL A   1      50.104  26.530  25.092  1.00  0.00     0.135 A 
ATOM     64  C   UNL A   1      50.480  25.925  27.387  1.00  0.00     0.135 A 
ATOM     65  F   UNL A   1      49.328  27.031  24.116  1.00  0.00    -0.206 F 
ATOM     66  C   UNL A   1      51.357  26.037  24.745  1.00  0.00     0.059 A 
ATOM     67  C   UNL A   1      51.751  25.452  27.067  1.00  0.00     0.059 A 
ATOM     68  F   UNL A   1      50.081  25.846  28.666  1.00  0.00    -0.206 F 
ATOM     69  C   UNL A   1      52.172  25.494  25.739  1.00  0.00     0.060 A 
BRANCH  69  70
ATOM     70  S   UNL A   1      53.787  24.836  25.269  1.00  0.00     0.124 S 
ATOM     71  O   UNL A   1      54.075  25.609  24.065  1.00  0.00    -0.237 OA
ATOM     72  O   UNL A   1      54.604  25.150  26.436  1.00  0.00    -0.237 OA
ATOM     73  O   UNL A   1      53.526  23.415  25.055  1.00  0.00    -0.744 OA
ENDBRANCH  69  70
ENDBRANCH  48  62
BRANCH  49  74
ATOM     74  C   UNL A   1      40.512  29.402  29.217  1.00  0.00     0.058 A 
ATOM     75  C   UNL A   1      40.216  29.631  30.569  1.00  0.00     0.135 A 
ATOM     76  C   UNL A   1      39.496  29.630  28.277  1.00  0.00     0.135 A 
ATOM     77  F   UNL A   1      41.152  29.416  31.507  1.00  0.00    -0.206 F 
ATOM     78  C   UNL A   1      38.960  30.068  30.975  1.00  0.00     0.059 A 
ATOM     79  C   UNL A   1      38.240  30.093  28.655  1.00  0.00     0.059 A 
ATOM     80  F   UNL A   1      39.734  29.439  26.969  1.00  0.00    -0.206 F 
ATOM     81  C   UNL A   1      37.980  30.305  30.009  1.00  0.00     0.060 A 
BRANCH  81  82
ATOM     82  S   UNL A   1      36.377  30.946  30.539  1.00  0.00     0.124 S 
ATOM     83  O   UNL A   1      36.743  32.254  31.070  1.00  0.00    -0.237 OA
ATOM     84  O   UNL A   1      35.622  30.951  29.291  1.00  0.00    -0.237 OA
ATOM     85  O   UNL A   1      35.935  29.965  31.526  1.00  0.00    -0.744 OA
ENDBRANCH  81  82
ENDBRANCH  49  74
BRANCH  61  86
ATOM     86  C   UNL A   1      46.584  32.728  28.358  1.00  0.00     0.058 A 
ATOM     87  C   UNL A   1      46.451  33.668  27.324  1.00  0.00     0.135 A 
ATOM     88  C   UNL A   1      47.090  33.179  29.589  1.00  0.00     0.135 A 
ATOM     89  F   UNL A   1      45.980  33.291  26.125  1.00  0.00    -0.206 F 
ATOM     90  C   UNL A   1      46.832  34.996  27.493  1.00  0.00     0.059 A 
ATOM     91  C   UNL A   1      47.450  34.508  29.789  1.00  0.00     0.059 A 
ATOM     92  F   UNL A   1      47.230  32.326  30.615  1.00  0.00    -0.206 F 
ATOM     93  C   UNL A   1      47.332  35.407  28.730  1.00  0.00     0.060 A 
BRANCH  93  94
ATOM     94  S   UNL A   1      47.806  37.136  28.942  1.00  0.00     0.124 S 
ATOM     95  O   UNL A   1      46.613  37.828  28.467  1.00  0.00    -0.237 OA
ATOM     96  O   UNL A   1      48.057  37.217  30.378  1.00  0.00    -0.237 OA
ATOM     97  O   UNL A   1      48.989  37.271  28.097  1.00  0.00    -0.744 OA
ENDBRANCH  93  94
ENDBRANCH  61  86
ENDBRANCH  35  36
ENDBRANCH  27  30
ENDBRANCH  25  26
ENDBRANCH  24  25
ENDBRANCH   1  24
TORSDOF 19
ENDMDL
