MODEL 1
REMARK VINA RESULT:     -12.2      0.000      0.000
REMARK SMILES COc1ccccc1-c1nnc(S[C@@H](C)C(=O)NCCCCCCNC(=O)c2ccc(-c3c4nc(c(-c5c(F)cc(S(=O)(=O)[O-])cc5F)c5ccc([nH]5)c(-c5c(F)cc(S(=O)(=O)[O-])cc5F)c5nc(c(-c6c(F)cc(S(=O)(=O)[O-])cc6F)c6ccc3[nH]6)C=C5)C=C4)cc2)n1-c1ccccc1
REMARK SMILES IDX 21 1 20 2 19 3 18 4 16 5 17 6 14 8 15 9 13 10 12 11 9 12
REMARK SMILES IDX 10 13 94 14 11 15 8 16 3 17 4 18 5 19 7 20 6 21 2 22 1 23
REMARK SMILES IDX 95 24 96 25 100 26 97 27 99 28 98 29 22 30 23 31 24 32 25 33
REMARK SMILES IDX 26 34 27 36 28 37 29 38 93 39 30 40 92 41 31 42 32 43 33 44
REMARK SMILES IDX 86 45 34 46 91 47 85 48 87 49 35 50 90 51 84 52 83 53 36 55
REMARK SMILES IDX 70 56 49 57 69 58 50 59 53 60 68 61 88 62 51 63 52 64 67 66
REMARK SMILES IDX 89 67 54 68 37 69 38 70 47 71 39 72 40 73 46 74 48 75 41 76
REMARK SMILES IDX 42 77 43 78 44 79 45 80 71 81 72 82 81 83 73 84 74 85 80 86
REMARK SMILES IDX 82 87 75 88 76 89 77 90 78 91 79 92 55 93 56 94 65 95 57 96
REMARK SMILES IDX 58 97 64 98 66 99 59 100 60 101 61 102 62 103 63 104
REMARK H PARENT 18 7 25 35 87 54 53 65
REMARK Flexibility Score: inf
ROOT
ATOM      1  C   UNL A   1      38.825  22.249  26.122  1.00  0.00     0.002 C 
ENDROOT
BRANCH   1   2
ATOM      2  C   UNL A   1      38.171  21.142  25.273  1.00  0.00     0.021 C 
BRANCH   2   3
ATOM      3  C   UNL A   1      36.650  21.130  25.156  1.00  0.00     0.116 C 
BRANCH   3   4
ATOM      4  N   UNL A   1      35.879  21.399  26.346  1.00  0.00    -0.355 N 
ATOM      5  C   UNL A   1      34.523  21.541  26.476  1.00  0.00     0.233 C 
ATOM      6  O   UNL A   1      34.111  21.444  27.644  1.00  0.00    -0.274 OA
ATOM      7  H   UNL A   1      36.398  21.495  27.177  1.00  0.00     0.163 HD
BRANCH   5   8
ATOM      8  C   UNL A   1      33.562  22.008  25.364  1.00  0.00     0.141 C 
ATOM      9  C   UNL A   1      33.235  20.923  24.318  1.00  0.00     0.030 C 
BRANCH   8  10
ATOM     10  S   UNL A   1      33.714  23.536  24.441  1.00  0.00    -0.073 SA
BRANCH  10  11
ATOM     11  C   UNL A   1      32.215  24.264  24.024  1.00  0.00     0.196 A 
ATOM     12  C   UNL A   1      30.428  25.507  23.752  1.00  0.00     0.173 A 
ATOM     13  N   UNL A   1      30.269  24.390  23.066  1.00  0.00    -0.129 NA
ATOM     14  N   UNL A   1      31.639  25.454  24.424  1.00  0.00    -0.270 N 
ATOM     15  N   UNL A   1      31.381  23.622  23.233  1.00  0.00    -0.122 NA
BRANCH  12  16
ATOM     16  C   UNL A   1      29.559  26.669  23.606  1.00  0.00     0.062 A 
ATOM     17  C   UNL A   1      29.963  27.773  22.847  1.00  0.00     0.129 A 
ATOM     18  C   UNL A   1      29.041  28.778  22.540  1.00  0.00     0.047 A 
ATOM     19  C   UNL A   1      27.711  28.679  22.956  1.00  0.00     0.004 A 
ATOM     20  C   UNL A   1      28.246  26.647  24.109  1.00  0.00     0.016 A 
ATOM     21  C   UNL A   1      27.314  27.620  23.758  1.00  0.00     0.001 A 
BRANCH  17  22
ATOM     22  O   UNL A   1      31.268  28.018  22.498  1.00  0.00    -0.496 OA
ATOM     23  C   UNL A   1      31.786  29.258  22.982  1.00  0.00     0.278 C 
ENDBRANCH  17  22
ENDBRANCH  12  16
BRANCH  14  24
ATOM     24  C   UNL A   1      32.085  26.399  25.354  1.00  0.00     0.050 A 
ATOM     25  C   UNL A   1      31.264  26.765  26.415  1.00  0.00     0.027 A 
ATOM     26  C   UNL A   1      33.354  26.967  25.186  1.00  0.00     0.027 A 
ATOM     27  C   UNL A   1      31.694  27.763  27.284  1.00  0.00     0.002 A 
ATOM     28  C   UNL A   1      33.766  27.977  26.046  1.00  0.00     0.002 A 
ATOM     29  C   UNL A   1      32.932  28.382  27.087  1.00  0.00     0.000 A 
ENDBRANCH  14  24
ENDBRANCH  10  11
ENDBRANCH   8  10
ENDBRANCH   5   8
ENDBRANCH   3   4
ENDBRANCH   2   3
ENDBRANCH   1   2
BRANCH   1  30
ATOM     30  C   UNL A   1      40.137  21.934  26.861  1.00  0.00     0.002 C 
BRANCH  30  31
ATOM     31  C   UNL A   1      40.831  20.635  26.454  1.00  0.00     0.021 C 
BRANCH  31  32
ATOM     32  C   UNL A   1      42.193  20.399  27.055  1.00  0.00     0.116 C 
BRANCH  32  33
ATOM     33  N   UNL A   1      43.210  19.672  26.271  1.00  0.00    -0.352 N 
ATOM     34  C   UNL A   1      44.116  20.206  25.323  1.00  0.00     0.251 C 
ATOM     35  H   UNL A   1      43.265  18.701  26.425  1.00  0.00     0.163 HD
ATOM     36  O   UNL A   1      44.770  19.488  24.602  1.00  0.00    -0.269 OA
BRANCH  34  37
ATOM     37  C   UNL A   1      44.235  21.695  25.239  1.00  0.00     0.039 A 
ATOM     38  C   UNL A   1      43.360  22.556  24.570  1.00  0.00     0.014 A 
ATOM     39  C   UNL A   1      45.153  22.238  26.090  1.00  0.00     0.014 A 
ATOM     40  C   UNL A   1      43.334  23.906  24.971  1.00  0.00     0.010 A 
ATOM     41  C   UNL A   1      44.642  23.248  26.831  1.00  0.00     0.010 A 
ATOM     42  C   UNL A   1      43.960  24.238  26.179  1.00  0.00    -0.014 A 
BRANCH  42  43
ATOM     43  C   UNL A   1      43.812  25.471  26.953  1.00  0.00     0.031 A 
ATOM     44  C   UNL A   1      44.821  26.488  26.587  1.00  0.00     0.074 A 
ATOM     45  C   UNL A   1      42.691  25.792  27.661  1.00  0.00     0.049 A 
ATOM     46  N   UNL A   1      45.945  26.726  27.177  1.00  0.00    -0.248 NA
ATOM     47  C   UNL A   1      44.692  27.152  25.275  1.00  0.00     0.031 C 
ATOM     48  C   UNL A   1      41.417  25.044  27.741  1.00  0.00     0.029 A 
ATOM     49  N   UNL A   1      42.393  26.913  28.385  1.00  0.00    -0.354 N 
ATOM     50  C   UNL A   1      46.457  27.832  26.508  1.00  0.00     0.074 A 
ATOM     51  C   UNL A   1      45.851  27.817  25.206  1.00  0.00     0.031 C 
ATOM     52  C   UNL A   1      40.440  25.826  28.248  1.00  0.00     0.029 A 
ATOM     53  C   UNL A   1      41.046  27.045  28.737  1.00  0.00     0.049 A 
ATOM     54  H   UNL A   1      43.075  27.577  28.639  1.00  0.00     0.167 HD
ATOM     55  C   UNL A   1      46.967  28.878  27.219  1.00  0.00     0.037 A 
ATOM     56  C   UNL A   1      40.464  28.061  29.427  1.00  0.00     0.037 A 
ATOM     57  C   UNL A   1      47.066  28.519  28.614  1.00  0.00     0.049 A 
ATOM     58  C   UNL A   1      41.549  28.729  30.184  1.00  0.00     0.074 A 
ATOM     59  C   UNL A   1      47.859  27.698  29.386  1.00  0.00     0.029 A 
ATOM     60  N   UNL A   1      45.911  28.752  29.317  1.00  0.00    -0.354 N 
ATOM     61  N   UNL A   1      42.239  28.135  31.121  1.00  0.00    -0.248 NA
ATOM     62  C   UNL A   1      42.146  29.942  29.637  1.00  0.00     0.031 C 
ATOM     63  C   UNL A   1      47.079  27.344  30.527  1.00  0.00     0.029 A 
ATOM     64  C   UNL A   1      45.855  28.006  30.463  1.00  0.00     0.049 A 
ATOM     65  H   UNL A   1      45.208  29.379  29.031  1.00  0.00     0.167 HD
ATOM     66  C   UNL A   1      43.516  28.639  30.972  1.00  0.00     0.074 A 
ATOM     67  C   UNL A   1      43.366  29.850  30.173  1.00  0.00     0.031 C 
ATOM     68  C   UNL A   1      44.610  27.856  31.189  1.00  0.00     0.037 A 
BRANCH  55  69
ATOM     69  C   UNL A   1      46.901  30.341  26.822  1.00  0.00     0.058 A 
ATOM     70  C   UNL A   1      48.084  31.112  26.881  1.00  0.00     0.135 A 
ATOM     71  C   UNL A   1      45.711  31.083  26.651  1.00  0.00     0.135 A 
ATOM     72  F   UNL A   1      49.276  30.518  27.058  1.00  0.00    -0.206 F 
ATOM     73  C   UNL A   1      48.078  32.507  26.822  1.00  0.00     0.059 A 
ATOM     74  C   UNL A   1      45.688  32.469  26.537  1.00  0.00     0.059 A 
ATOM     75  F   UNL A   1      44.499  30.519  26.678  1.00  0.00    -0.206 F 
ATOM     76  C   UNL A   1      46.871  33.176  26.654  1.00  0.00     0.060 A 
BRANCH  76  77
ATOM     77  S   UNL A   1      46.848  34.977  26.618  1.00  0.00     0.124 S 
ATOM     78  O   UNL A   1      46.078  35.284  27.818  1.00  0.00    -0.237 OA
ATOM     79  O   UNL A   1      48.271  35.296  26.671  1.00  0.00    -0.237 OA
ATOM     80  O   UNL A   1      46.192  35.280  25.350  1.00  0.00    -0.744 OA
ENDBRANCH  76  77
ENDBRANCH  55  69
BRANCH  56  81
ATOM     81  C   UNL A   1      39.107  28.658  29.279  1.00  0.00     0.058 A 
ATOM     82  C   UNL A   1      38.272  28.865  30.394  1.00  0.00     0.135 A 
ATOM     83  C   UNL A   1      38.733  29.324  28.096  1.00  0.00     0.135 A 
ATOM     84  F   UNL A   1      38.551  28.269  31.564  1.00  0.00    -0.206 F 
ATOM     85  C   UNL A   1      37.179  29.739  30.361  1.00  0.00     0.059 A 
ATOM     86  C   UNL A   1      37.645  30.199  28.037  1.00  0.00     0.059 A 
ATOM     87  F   UNL A   1      39.473  29.212  26.982  1.00  0.00    -0.206 F 
ATOM     88  C   UNL A   1      36.891  30.427  29.182  1.00  0.00     0.060 A 
BRANCH  88  89
ATOM     89  S   UNL A   1      35.607  31.705  29.189  1.00  0.00     0.124 S 
ATOM     90  O   UNL A   1      35.199  31.717  30.589  1.00  0.00    -0.237 OA
ATOM     91  O   UNL A   1      36.337  32.880  28.728  1.00  0.00    -0.237 OA
ATOM     92  O   UNL A   1      34.610  31.188  28.255  1.00  0.00    -0.744 OA
ENDBRANCH  88  89
ENDBRANCH  56  81
BRANCH  68  93
ATOM     93  C   UNL A   1      44.491  26.715  32.154  1.00  0.00     0.058 A 
ATOM     94  C   UNL A   1      44.322  25.362  31.814  1.00  0.00     0.135 A 
ATOM     95  C   UNL A   1      44.673  27.019  33.512  1.00  0.00     0.135 A 
ATOM     96  F   UNL A   1      44.201  24.984  30.533  1.00  0.00    -0.206 F 
ATOM     97  C   UNL A   1      44.327  24.360  32.788  1.00  0.00     0.059 A 
ATOM     98  C   UNL A   1      44.709  26.038  34.493  1.00  0.00     0.059 A 
ATOM     99  F   UNL A   1      44.874  28.292  33.891  1.00  0.00    -0.206 F 
ATOM    100  C   UNL A   1      44.528  24.708  34.126  1.00  0.00     0.060 A 
BRANCH 100 101
ATOM    101  S   UNL A   1      44.618  23.413  35.382  1.00  0.00     0.124 S 
ATOM    102  O   UNL A   1      43.443  23.697  36.199  1.00  0.00    -0.237 OA
ATOM    103  O   UNL A   1      44.556  22.193  34.583  1.00  0.00    -0.237 OA
ATOM    104  O   UNL A   1      45.904  23.657  36.033  1.00  0.00    -0.744 OA
ENDBRANCH 100 101
ENDBRANCH  68  93
ENDBRANCH  42  43
ENDBRANCH  34  37
ENDBRANCH  32  33
ENDBRANCH  31  32
ENDBRANCH  30  31
ENDBRANCH   1  30
TORSDOF 21
ENDMDL
MODEL 2
REMARK VINA RESULT:     -11.8      2.569      3.386
REMARK SMILES COc1ccccc1-c1nnc(S[C@@H](C)C(=O)NCCCCCCNC(=O)c2ccc(-c3c4nc(c(-c5c(F)cc(S(=O)(=O)[O-])cc5F)c5ccc([nH]5)c(-c5c(F)cc(S(=O)(=O)[O-])cc5F)c5nc(c(-c6c(F)cc(S(=O)(=O)[O-])cc6F)c6ccc3[nH]6)C=C5)C=C4)cc2)n1-c1ccccc1
REMARK SMILES IDX 21 1 20 2 19 3 18 4 16 5 17 6 14 8 15 9 13 10 12 11 9 12
REMARK SMILES IDX 10 13 94 14 11 15 8 16 3 17 4 18 5 19 7 20 6 21 2 22 1 23
REMARK SMILES IDX 95 24 96 25 100 26 97 27 99 28 98 29 22 30 23 31 24 32 25 33
REMARK SMILES IDX 26 34 27 36 28 37 29 38 93 39 30 40 92 41 31 42 32 43 33 44
REMARK SMILES IDX 86 45 34 46 91 47 85 48 87 49 35 50 90 51 84 52 83 53 36 55
REMARK SMILES IDX 70 56 49 57 69 58 50 59 53 60 68 61 88 62 51 63 52 64 67 66
REMARK SMILES IDX 89 67 54 68 37 69 38 70 47 71 39 72 40 73 46 74 48 75 41 76
REMARK SMILES IDX 42 77 43 78 44 79 45 80 71 81 72 82 81 83 73 84 74 85 80 86
REMARK SMILES IDX 82 87 75 88 76 89 77 90 78 91 79 92 55 93 56 94 65 95 57 96
REMARK SMILES IDX 58 97 64 98 66 99 59 100 60 101 61 102 62 103 63 104
REMARK H PARENT 18 7 25 35 87 54 53 65
REMARK Flexibility Score: inf
ROOT
ATOM      1  C   UNL A   1      37.909  20.036  24.958  1.00  0.00     0.002 C 
ENDROOT
BRANCH   1   2
ATOM      2  C   UNL A   1      36.754  19.021  24.861  1.00  0.00     0.021 C 
BRANCH   2   3
ATOM      3  C   UNL A   1      35.325  19.553  24.905  1.00  0.00     0.116 C 
BRANCH   3   4
ATOM      4  N   UNL A   1      34.253  18.639  24.591  1.00  0.00    -0.355 N 
ATOM      5  C   UNL A   1      33.016  18.912  24.072  1.00  0.00     0.233 C 
ATOM      6  O   UNL A   1      32.429  17.922  23.607  1.00  0.00    -0.274 OA
ATOM      7  H   UNL A   1      34.436  17.690  24.777  1.00  0.00     0.163 HD
BRANCH   5   8
ATOM      8  C   UNL A   1      32.258  20.247  24.223  1.00  0.00     0.141 C 
ATOM      9  C   UNL A   1      32.291  21.135  22.962  1.00  0.00     0.030 C 
BRANCH   8  10
ATOM     10  S   UNL A   1      32.412  21.372  25.608  1.00  0.00    -0.073 SA
BRANCH  10  11
ATOM     11  C   UNL A   1      32.357  23.035  25.178  1.00  0.00     0.196 A 
ATOM     12  C   UNL A   1      32.708  25.116  24.578  1.00  0.00     0.173 A 
ATOM     13  N   UNL A   1      31.427  24.974  24.867  1.00  0.00    -0.129 NA
ATOM     14  N   UNL A   1      33.357  23.914  24.808  1.00  0.00    -0.270 N 
ATOM     15  N   UNL A   1      31.211  23.681  25.235  1.00  0.00    -0.122 NA
BRANCH  12  16
ATOM     16  C   UNL A   1      33.254  26.290  23.906  1.00  0.00     0.062 A 
ATOM     17  C   UNL A   1      33.260  26.377  22.510  1.00  0.00     0.129 A 
ATOM     18  C   UNL A   1      33.585  27.588  21.892  1.00  0.00     0.047 A 
ATOM     19  C   UNL A   1      33.873  28.723  22.653  1.00  0.00     0.004 A 
ATOM     20  C   UNL A   1      33.657  27.413  24.649  1.00  0.00     0.016 A 
ATOM     21  C   UNL A   1      33.928  28.634  24.036  1.00  0.00     0.001 A 
BRANCH  17  22
ATOM     22  O   UNL A   1      33.110  25.292  21.681  1.00  0.00    -0.496 OA
ATOM     23  C   UNL A   1      32.655  25.612  20.366  1.00  0.00     0.278 C 
ENDBRANCH  17  22
ENDBRANCH  12  16
BRANCH  14  24
ATOM     24  C   UNL A   1      34.741  23.720  24.739  1.00  0.00     0.050 A 
ATOM     25  C   UNL A   1      35.316  23.265  23.558  1.00  0.00     0.027 A 
ATOM     26  C   UNL A   1      35.518  23.979  25.875  1.00  0.00     0.027 A 
ATOM     27  C   UNL A   1      36.683  23.004  23.534  1.00  0.00     0.002 A 
ATOM     28  C   UNL A   1      36.878  23.696  25.848  1.00  0.00     0.002 A 
ATOM     29  C   UNL A   1      37.457  23.198  24.681  1.00  0.00     0.000 A 
ENDBRANCH  14  24
ENDBRANCH  10  11
ENDBRANCH   8  10
ENDBRANCH   5   8
ENDBRANCH   3   4
ENDBRANCH   2   3
ENDBRANCH   1   2
BRANCH   1  30
ATOM     30  C   UNL A   1      39.258  19.566  25.530  1.00  0.00     0.002 C 
BRANCH  30  31
ATOM     31  C   UNL A   1      40.059  20.622  26.291  1.00  0.00     0.021 C 
BRANCH  31  32
ATOM     32  C   UNL A   1      41.551  20.414  26.331  1.00  0.00     0.116 C 
BRANCH  32  33
ATOM     33  N   UNL A   1      42.407  21.159  25.387  1.00  0.00    -0.352 N 
ATOM     34  C   UNL A   1      42.736  22.536  25.420  1.00  0.00     0.251 C 
ATOM     35  H   UNL A   1      42.795  20.638  24.647  1.00  0.00     0.163 HD
ATOM     36  O   UNL A   1      43.287  23.075  24.488  1.00  0.00    -0.269 OA
BRANCH  34  37
ATOM     37  C   UNL A   1      42.375  23.307  26.650  1.00  0.00     0.039 A 
ATOM     38  C   UNL A   1      43.142  23.410  27.815  1.00  0.00     0.014 A 
ATOM     39  C   UNL A   1      41.316  24.153  26.496  1.00  0.00     0.014 A 
ATOM     40  C   UNL A   1      42.909  24.512  28.659  1.00  0.00     0.010 A 
ATOM     41  C   UNL A   1      41.590  25.411  26.910  1.00  0.00     0.010 A 
ATOM     42  C   UNL A   1      42.144  25.570  28.151  1.00  0.00    -0.014 A 
BRANCH  42  43
ATOM     43  C   UNL A   1      42.021  26.925  28.691  1.00  0.00     0.031 A 
ATOM     44  C   UNL A   1      43.130  27.803  28.262  1.00  0.00     0.074 A 
ATOM     45  C   UNL A   1      40.871  27.426  29.225  1.00  0.00     0.049 A 
ATOM     46  N   UNL A   1      44.213  28.074  28.910  1.00  0.00    -0.248 NA
ATOM     47  C   UNL A   1      43.163  28.239  26.852  1.00  0.00     0.031 C 
ATOM     48  C   UNL A   1      39.544  26.778  29.304  1.00  0.00     0.029 A 
ATOM     49  N   UNL A   1      40.595  28.670  29.721  1.00  0.00    -0.354 N 
ATOM     50  C   UNL A   1      44.860  29.017  28.120  1.00  0.00     0.074 A 
ATOM     51  C   UNL A   1      44.369  28.813  26.785  1.00  0.00     0.031 C 
ATOM     52  C   UNL A   1      38.586  27.690  29.578  1.00  0.00     0.029 A 
ATOM     53  C   UNL A   1      39.236  28.939  29.914  1.00  0.00     0.049 A 
ATOM     54  H   UNL A   1      41.300  29.327  29.927  1.00  0.00     0.167 HD
ATOM     55  C   UNL A   1      45.384  30.138  28.694  1.00  0.00     0.037 A 
ATOM     56  C   UNL A   1      38.673  30.089  30.367  1.00  0.00     0.037 A 
ATOM     57  C   UNL A   1      45.337  30.019  30.132  1.00  0.00     0.049 A 
ATOM     58  C   UNL A   1      39.735  30.814  31.105  1.00  0.00     0.074 A 
ATOM     59  C   UNL A   1      45.998  29.298  31.102  1.00  0.00     0.029 A 
ATOM     60  N   UNL A   1      44.146  30.435  30.671  1.00  0.00    -0.354 N 
ATOM     61  N   UNL A   1      40.298  30.351  32.189  1.00  0.00    -0.248 NA
ATOM     62  C   UNL A   1      40.465  31.878  30.425  1.00  0.00     0.031 C 
ATOM     63  C   UNL A   1      45.099  29.191  32.205  1.00  0.00     0.029 A 
ATOM     64  C   UNL A   1      43.937  29.902  31.914  1.00  0.00     0.049 A 
ATOM     65  H   UNL A   1      43.518  31.043  30.219  1.00  0.00     0.167 HD
ATOM     66  C   UNL A   1      41.617  30.747  32.083  1.00  0.00     0.074 A 
ATOM     67  C   UNL A   1      41.624  31.809  31.084  1.00  0.00     0.031 C 
ATOM     68  C   UNL A   1      42.627  29.951  32.532  1.00  0.00     0.037 A 
BRANCH  55  69
ATOM     69  C   UNL A   1      45.459  31.513  28.055  1.00  0.00     0.058 A 
ATOM     70  C   UNL A   1      46.702  32.184  28.042  1.00  0.00     0.135 A 
ATOM     71  C   UNL A   1      44.345  32.308  27.706  1.00  0.00     0.135 A 
ATOM     72  F   UNL A   1      47.831  31.536  28.372  1.00  0.00    -0.206 F 
ATOM     73  C   UNL A   1      46.820  33.545  27.750  1.00  0.00     0.059 A 
ATOM     74  C   UNL A   1      44.447  33.652  27.362  1.00  0.00     0.059 A 
ATOM     75  F   UNL A   1      43.088  31.857  27.769  1.00  0.00    -0.206 F 
ATOM     76  C   UNL A   1      45.683  34.271  27.415  1.00  0.00     0.060 A 
BRANCH  76  77
ATOM     77  S   UNL A   1      45.819  36.035  27.079  1.00  0.00     0.124 S 
ATOM     78  O   UNL A   1      46.554  36.501  28.249  1.00  0.00    -0.237 OA
ATOM     79  O   UNL A   1      46.551  36.045  25.816  1.00  0.00    -0.237 OA
ATOM     80  O   UNL A   1      44.428  36.469  26.990  1.00  0.00    -0.744 OA
ENDBRANCH  76  77
ENDBRANCH  55  69
BRANCH  56  81
ATOM     81  C   UNL A   1      37.381  30.729  29.992  1.00  0.00     0.058 A 
ATOM     82  C   UNL A   1      36.518  31.264  30.968  1.00  0.00     0.135 A 
ATOM     83  C   UNL A   1      37.120  31.111  28.662  1.00  0.00     0.135 A 
ATOM     84  F   UNL A   1      36.691  30.955  32.263  1.00  0.00    -0.206 F 
ATOM     85  C   UNL A   1      35.507  32.181  30.654  1.00  0.00     0.059 A 
ATOM     86  C   UNL A   1      36.116  32.022  28.323  1.00  0.00     0.059 A 
ATOM     87  F   UNL A   1      37.898  30.676  27.658  1.00  0.00    -0.206 F 
ATOM     88  C   UNL A   1      35.334  32.578  29.329  1.00  0.00     0.060 A 
BRANCH  88  89
ATOM     89  S   UNL A   1      34.166  33.909  28.944  1.00  0.00     0.124 S 
ATOM     90  O   UNL A   1      33.576  34.180  30.250  1.00  0.00    -0.237 OA
ATOM     91  O   UNL A   1      35.044  34.947  28.415  1.00  0.00    -0.237 OA
ATOM     92  O   UNL A   1      33.267  33.299  27.968  1.00  0.00    -0.744 OA
ENDBRANCH  88  89
ENDBRANCH  56  81
BRANCH  68  93
ATOM     93  C   UNL A   1      42.343  29.001  33.656  1.00  0.00     0.058 A 
ATOM     94  C   UNL A   1      41.661  27.777  33.548  1.00  0.00     0.135 A 
ATOM     95  C   UNL A   1      42.904  29.318  34.903  1.00  0.00     0.135 A 
ATOM     96  F   UNL A   1      41.148  27.375  32.377  1.00  0.00    -0.206 F 
ATOM     97  C   UNL A   1      41.539  26.913  34.640  1.00  0.00     0.059 A 
ATOM     98  C   UNL A   1      42.820  28.463  35.993  1.00  0.00     0.059 A 
ATOM     99  F   UNL A   1      43.597  30.459  35.054  1.00  0.00    -0.206 F 
ATOM    100  C   UNL A   1      42.128  27.263  35.857  1.00  0.00     0.060 A 
BRANCH 100 101
ATOM    101  S   UNL A   1      42.046  26.116  37.251  1.00  0.00     0.124 S 
ATOM    102  O   UNL A   1      40.645  26.210  37.643  1.00  0.00    -0.237 OA
ATOM    103  O   UNL A   1      42.453  24.852  36.645  1.00  0.00    -0.237 OA
ATOM    104  O   UNL A   1      43.000  26.672  38.209  1.00  0.00    -0.744 OA
ENDBRANCH 100 101
ENDBRANCH  68  93
ENDBRANCH  42  43
ENDBRANCH  34  37
ENDBRANCH  32  33
ENDBRANCH  31  32
ENDBRANCH  30  31
ENDBRANCH   1  30
TORSDOF 21
ENDMDL
MODEL 3
REMARK VINA RESULT:     -11.8      0.923      2.001
REMARK SMILES COc1ccccc1-c1nnc(S[C@@H](C)C(=O)NCCCCCCNC(=O)c2ccc(-c3c4nc(c(-c5c(F)cc(S(=O)(=O)[O-])cc5F)c5ccc([nH]5)c(-c5c(F)cc(S(=O)(=O)[O-])cc5F)c5nc(c(-c6c(F)cc(S(=O)(=O)[O-])cc6F)c6ccc3[nH]6)C=C5)C=C4)cc2)n1-c1ccccc1
REMARK SMILES IDX 21 1 20 2 19 3 18 4 16 5 17 6 14 8 15 9 13 10 12 11 9 12
REMARK SMILES IDX 10 13 94 14 11 15 8 16 3 17 4 18 5 19 7 20 6 21 2 22 1 23
REMARK SMILES IDX 95 24 96 25 100 26 97 27 99 28 98 29 22 30 23 31 24 32 25 33
REMARK SMILES IDX 26 34 27 36 28 37 29 38 93 39 30 40 92 41 31 42 32 43 33 44
REMARK SMILES IDX 86 45 34 46 91 47 85 48 87 49 35 50 90 51 84 52 83 53 36 55
REMARK SMILES IDX 70 56 49 57 69 58 50 59 53 60 68 61 88 62 51 63 52 64 67 66
REMARK SMILES IDX 89 67 54 68 37 69 38 70 47 71 39 72 40 73 46 74 48 75 41 76
REMARK SMILES IDX 42 77 43 78 44 79 45 80 71 81 72 82 81 83 73 84 74 85 80 86
REMARK SMILES IDX 82 87 75 88 76 89 77 90 78 91 79 92 55 93 56 94 65 95 57 96
REMARK SMILES IDX 58 97 64 98 66 99 59 100 60 101 61 102 62 103 63 104
REMARK H PARENT 18 7 25 35 87 54 53 65
REMARK Flexibility Score: inf
ROOT
ATOM      1  C   UNL A   1      39.047  22.096  26.030  1.00  0.00     0.002 C 
ENDROOT
BRANCH   1   2
ATOM      2  C   UNL A   1      38.056  21.145  25.332  1.00  0.00     0.021 C 
BRANCH   2   3
ATOM      3  C   UNL A   1      36.611  21.605  25.172  1.00  0.00     0.116 C 
BRANCH   3   4
ATOM      4  N   UNL A   1      35.834  21.823  26.370  1.00  0.00    -0.355 N 
ATOM      5  C   UNL A   1      34.526  21.499  26.615  1.00  0.00     0.233 C 
ATOM      6  O   UNL A   1      34.218  21.505  27.818  1.00  0.00    -0.274 OA
ATOM      7  H   UNL A   1      36.309  22.265  27.110  1.00  0.00     0.163 HD
BRANCH   5   8
ATOM      8  C   UNL A   1      33.424  21.358  25.546  1.00  0.00     0.141 C 
ATOM      9  C   UNL A   1      33.496  20.045  24.739  1.00  0.00     0.030 C 
BRANCH   8  10
ATOM     10  S   UNL A   1      32.960  22.623  24.366  1.00  0.00    -0.073 SA
BRANCH  10  11
ATOM     11  C   UNL A   1      33.388  24.220  24.836  1.00  0.00     0.196 A 
ATOM     12  C   UNL A   1      33.518  26.341  25.379  1.00  0.00     0.173 A 
ATOM     13  N   UNL A   1      34.732  25.825  25.416  1.00  0.00    -0.129 NA
ATOM     14  N   UNL A   1      32.626  25.365  24.965  1.00  0.00    -0.270 N 
ATOM     15  N   UNL A   1      34.648  24.507  25.083  1.00  0.00    -0.122 NA
BRANCH  12  16
ATOM     16  C   UNL A   1      33.187  27.655  25.921  1.00  0.00     0.062 A 
ATOM     17  C   UNL A   1      33.372  28.811  25.156  1.00  0.00     0.129 A 
ATOM     18  C   UNL A   1      32.853  30.030  25.604  1.00  0.00     0.047 A 
ATOM     19  C   UNL A   1      32.123  30.101  26.792  1.00  0.00     0.004 A 
ATOM     20  C   UNL A   1      32.548  27.772  27.167  1.00  0.00     0.016 A 
ATOM     21  C   UNL A   1      31.984  28.973  27.587  1.00  0.00     0.001 A 
BRANCH  17  22
ATOM     22  O   UNL A   1      34.174  28.865  24.042  1.00  0.00    -0.496 OA
ATOM     23  C   UNL A   1      33.483  28.673  22.807  1.00  0.00     0.278 C 
ENDBRANCH  17  22
ENDBRANCH  12  16
BRANCH  14  24
ATOM     24  C   UNL A   1      31.273  25.580  24.680  1.00  0.00     0.050 A 
ATOM     25  C   UNL A   1      30.901  26.089  23.441  1.00  0.00     0.027 A 
ATOM     26  C   UNL A   1      30.320  25.284  25.662  1.00  0.00     0.027 A 
ATOM     27  C   UNL A   1      29.558  26.369  23.206  1.00  0.00     0.002 A 
ATOM     28  C   UNL A   1      28.984  25.586  25.426  1.00  0.00     0.002 A 
ATOM     29  C   UNL A   1      28.606  26.138  24.202  1.00  0.00     0.000 A 
ENDBRANCH  14  24
ENDBRANCH  10  11
ENDBRANCH   8  10
ENDBRANCH   5   8
ENDBRANCH   3   4
ENDBRANCH   2   3
ENDBRANCH   1   2
BRANCH   1  30
ATOM     30  C   UNL A   1      40.173  21.489  26.886  1.00  0.00     0.002 C 
BRANCH  30  31
ATOM     31  C   UNL A   1      41.027  20.425  26.198  1.00  0.00     0.021 C 
BRANCH  31  32
ATOM     32  C   UNL A   1      42.348  20.114  26.856  1.00  0.00     0.116 C 
BRANCH  32  33
ATOM     33  N   UNL A   1      43.377  19.383  26.092  1.00  0.00    -0.352 N 
ATOM     34  C   UNL A   1      44.314  19.915  25.174  1.00  0.00     0.251 C 
ATOM     35  H   UNL A   1      43.418  18.410  26.240  1.00  0.00     0.163 HD
ATOM     36  O   UNL A   1      44.979  19.197  24.464  1.00  0.00    -0.269 OA
BRANCH  34  37
ATOM     37  C   UNL A   1      44.450  21.403  25.105  1.00  0.00     0.039 A 
ATOM     38  C   UNL A   1      43.583  22.283  24.449  1.00  0.00     0.014 A 
ATOM     39  C   UNL A   1      45.376  21.926  25.960  1.00  0.00     0.014 A 
ATOM     40  C   UNL A   1      43.574  23.628  24.865  1.00  0.00     0.010 A 
ATOM     41  C   UNL A   1      44.879  22.934  26.714  1.00  0.00     0.010 A 
ATOM     42  C   UNL A   1      44.207  23.939  26.075  1.00  0.00    -0.014 A 
BRANCH  42  43
ATOM     43  C   UNL A   1      44.075  25.166  26.863  1.00  0.00     0.031 A 
ATOM     44  C   UNL A   1      45.108  26.167  26.519  1.00  0.00     0.074 A 
ATOM     45  C   UNL A   1      42.955  25.500  27.564  1.00  0.00     0.049 A 
ATOM     46  N   UNL A   1      46.230  26.375  27.123  1.00  0.00    -0.248 NA
ATOM     47  C   UNL A   1      45.005  26.850  25.215  1.00  0.00     0.031 C 
ATOM     48  C   UNL A   1      41.666  24.776  27.622  1.00  0.00     0.029 A 
ATOM     49  N   UNL A   1      42.672  26.617  28.299  1.00  0.00    -0.354 N 
ATOM     50  C   UNL A   1      46.770  27.480  26.473  1.00  0.00     0.074 A 
ATOM     51  C   UNL A   1      46.177  27.492  25.165  1.00  0.00     0.031 C 
ATOM     52  C   UNL A   1      40.699  25.570  28.130  1.00  0.00     0.029 A 
ATOM     53  C   UNL A   1      41.323  26.771  28.640  1.00  0.00     0.049 A 
ATOM     54  H   UNL A   1      43.364  27.264  28.568  1.00  0.00     0.167 HD
ATOM     55  C   UNL A   1      47.294  28.506  27.202  1.00  0.00     0.037 A 
ATOM     56  C   UNL A   1      40.755  27.789  29.337  1.00  0.00     0.037 A 
ATOM     57  C   UNL A   1      47.373  28.128  28.593  1.00  0.00     0.049 A 
ATOM     58  C   UNL A   1      41.845  28.427  30.113  1.00  0.00     0.074 A 
ATOM     59  C   UNL A   1      48.142  27.282  29.362  1.00  0.00     0.029 A 
ATOM     60  N   UNL A   1      46.216  28.375  29.287  1.00  0.00    -0.354 N 
ATOM     61  N   UNL A   1      42.515  27.808  31.049  1.00  0.00    -0.248 NA
ATOM     62  C   UNL A   1      42.471  29.634  29.587  1.00  0.00     0.031 C 
ATOM     63  C   UNL A   1      47.343  26.929  30.491  1.00  0.00     0.029 A 
ATOM     64  C   UNL A   1      46.134  27.616  30.424  1.00  0.00     0.049 A 
ATOM     65  H   UNL A   1      45.527  29.019  29.003  1.00  0.00     0.167 HD
ATOM     66  C   UNL A   1      43.803  28.289  30.918  1.00  0.00     0.074 A 
ATOM     67  C   UNL A   1      43.684  29.512  30.133  1.00  0.00     0.031 C 
ATOM     68  C   UNL A   1      44.879  27.481  31.136  1.00  0.00     0.037 A 
BRANCH  55  69
ATOM     69  C   UNL A   1      47.261  29.975  26.822  1.00  0.00     0.058 A 
ATOM     70  C   UNL A   1      48.437  30.740  26.979  1.00  0.00     0.135 A 
ATOM     71  C   UNL A   1      46.088  30.723  26.576  1.00  0.00     0.135 A 
ATOM     72  F   UNL A   1      49.613  30.141  27.232  1.00  0.00    -0.206 F 
ATOM     73  C   UNL A   1      48.439  32.136  26.940  1.00  0.00     0.059 A 
ATOM     74  C   UNL A   1      46.076  32.111  26.482  1.00  0.00     0.059 A 
ATOM     75  F   UNL A   1      44.876  30.164  26.508  1.00  0.00    -0.206 F 
ATOM     76  C   UNL A   1      47.249  32.813  26.694  1.00  0.00     0.060 A 
BRANCH  76  77
ATOM     77  S   UNL A   1      47.233  34.613  26.684  1.00  0.00     0.124 S 
ATOM     78  O   UNL A   1      46.524  34.893  25.441  1.00  0.00    -0.237 OA
ATOM     79  O   UNL A   1      46.511  34.915  27.916  1.00  0.00    -0.237 OA
ATOM     80  O   UNL A   1      48.650  34.962  26.697  1.00  0.00    -0.744 OA
ENDBRANCH  76  77
ENDBRANCH  55  69
BRANCH  56  81
ATOM     81  C   UNL A   1      39.412  28.415  29.184  1.00  0.00     0.058 A 
ATOM     82  C   UNL A   1      38.537  28.550  30.280  1.00  0.00     0.135 A 
ATOM     83  C   UNL A   1      39.090  29.173  28.041  1.00  0.00     0.135 A 
ATOM     84  F   UNL A   1      38.763  27.864  31.411  1.00  0.00    -0.206 F 
ATOM     85  C   UNL A   1      37.455  29.439  30.271  1.00  0.00     0.059 A 
ATOM     86  C   UNL A   1      38.016  30.065  28.008  1.00  0.00     0.059 A 
ATOM     87  F   UNL A   1      39.872  29.135  26.951  1.00  0.00    -0.206 F 
ATOM     88  C   UNL A   1      37.220  30.217  29.138  1.00  0.00     0.060 A 
BRANCH  88  89
ATOM     89  S   UNL A   1      35.951  31.509  29.193  1.00  0.00     0.124 S 
ATOM     90  O   UNL A   1      34.837  30.867  28.505  1.00  0.00    -0.237 OA
ATOM     91  O   UNL A   1      35.782  31.715  30.627  1.00  0.00    -0.237 OA
ATOM     92  O   UNL A   1      36.569  32.621  28.475  1.00  0.00    -0.744 OA
ENDBRANCH  88  89
ENDBRANCH  56  81
BRANCH  68  93
ATOM     93  C   UNL A   1      44.728  26.331  32.085  1.00  0.00     0.058 A 
ATOM     94  C   UNL A   1      44.485  24.994  31.728  1.00  0.00     0.135 A 
ATOM     95  C   UNL A   1      44.959  26.603  33.443  1.00  0.00     0.135 A 
ATOM     96  F   UNL A   1      44.314  24.644  30.445  1.00  0.00    -0.206 F 
ATOM     97  C   UNL A   1      44.465  23.976  32.686  1.00  0.00     0.059 A 
ATOM     98  C   UNL A   1      44.971  25.604  34.407  1.00  0.00     0.059 A 
ATOM     99  F   UNL A   1      45.232  27.858  33.837  1.00  0.00    -0.206 F 
ATOM    100  C   UNL A   1      44.716  24.291  34.023  1.00  0.00     0.060 A 
BRANCH 100 101
ATOM    101  S   UNL A   1      44.773  22.972  35.256  1.00  0.00     0.124 S 
ATOM    102  O   UNL A   1      43.930  23.508  36.318  1.00  0.00    -0.237 OA
ATOM    103  O   UNL A   1      44.227  21.832  34.525  1.00  0.00    -0.237 OA
ATOM    104  O   UNL A   1      46.195  22.869  35.581  1.00  0.00    -0.744 OA
ENDBRANCH 100 101
ENDBRANCH  68  93
ENDBRANCH  42  43
ENDBRANCH  34  37
ENDBRANCH  32  33
ENDBRANCH  31  32
ENDBRANCH  30  31
ENDBRANCH   1  30
TORSDOF 21
ENDMDL
