MODEL 1
REMARK VINA RESULT:     -10.9      0.000      0.000
REMARK SMILES CCn1nc(C(C)C)cc1C(=O)N[C@@H](CC(N)=O)C(=O)NCCCCCCNC(=O)c1ccc(-c2c3nc(c(-c4c(F)cc(S(=O)(=O)[O-])cc4F)c4ccc([nH]4)c(-c4c(F)cc(S(=O)(=O)[O-])cc4F)c4nc(c(-c5c(F)cc(S(=O)(=O)[O-])cc5F)c5ccc2[nH]5)C=C4)C=C3)cc1
REMARK SMILES IDX 24 1 23 2 22 3 21 4 19 5 20 6 14 8 13 9 11 10 12 11 10 13
REMARK SMILES IDX 3 14 4 15 5 16 9 17 2 18 1 19 6 20 7 21 8 22 15 23 16 24
REMARK SMILES IDX 17 25 18 26 25 29 26 30 27 31 28 32 29 33 30 35 31 36 32 37
REMARK SMILES IDX 96 38 33 39 95 40 34 41 35 42 36 43 89 44 37 45 94 46 88 47
REMARK SMILES IDX 90 48 38 49 93 50 87 51 86 52 39 54 73 55 52 56 72 57 53 58
REMARK SMILES IDX 56 59 71 60 91 61 54 62 55 63 70 65 92 66 57 67 40 68 41 69
REMARK SMILES IDX 50 70 42 71 43 72 49 73 51 74 44 75 45 76 46 77 47 78 48 79
REMARK SMILES IDX 74 80 75 81 84 82 76 83 77 84 83 85 85 86 78 87 79 88 80 89
REMARK SMILES IDX 81 90 82 91 58 92 59 93 68 94 60 95 61 96 67 97 69 98 62 99
REMARK SMILES IDX 63 100 64 101 65 102 66 103
REMARK H PARENT 21 7 13 12 17 27 17 28 28 34 90 53 56 64
REMARK Flexibility Score: inf
ROOT
ATOM      1  C   UNL A   1      36.409  22.701  25.671  1.00  0.00     0.002 C 
ENDROOT
BRANCH   1   2
ATOM      2  C   UNL A   1      35.346  22.112  24.741  1.00  0.00     0.021 C 
BRANCH   2   3
ATOM      3  C   UNL A   1      34.383  23.122  24.140  1.00  0.00     0.116 C 
BRANCH   3   4
ATOM      4  N   UNL A   1      33.276  22.528  23.419  1.00  0.00    -0.354 N 
ATOM      5  C   UNL A   1      31.936  22.713  23.579  1.00  0.00     0.243 C 
ATOM      6  O   UNL A   1      31.204  22.355  22.648  1.00  0.00    -0.273 OA
ATOM      7  H   UNL A   1      33.530  21.897  22.708  1.00  0.00     0.163 HD
BRANCH   5   8
ATOM      8  C   UNL A   1      31.327  23.443  24.794  1.00  0.00     0.181 C 
BRANCH   8   9
ATOM      9  N   UNL A   1      30.283  24.397  24.437  1.00  0.00    -0.338 N 
ATOM     10  C   UNL A   1      30.286  25.758  24.241  1.00  0.00     0.270 C 
ATOM     11  O   UNL A   1      29.226  26.207  23.808  1.00  0.00    -0.268 OA
ATOM     12  H   UNL A   1      29.399  23.984  24.310  1.00  0.00     0.164 HD
BRANCH  10  13
ATOM     13  C   UNL A   1      31.408  26.600  24.611  1.00  0.00     0.126 A 
ATOM     14  N   UNL A   1      32.525  26.820  23.814  1.00  0.00    -0.260 N 
ATOM     15  N   UNL A   1      33.245  27.905  24.206  1.00  0.00    -0.177 NA
ATOM     16  C   UNL A   1      32.738  28.217  25.397  1.00  0.00     0.066 A 
ATOM     17  C   UNL A   1      31.691  27.343  25.744  1.00  0.00     0.059 A 
BRANCH  14  18
ATOM     18  C   UNL A   1      32.958  26.094  22.627  1.00  0.00     0.142 C 
ATOM     19  C   UNL A   1      32.005  26.240  21.445  1.00  0.00     0.029 C 
ENDBRANCH  14  18
BRANCH  16  20
ATOM     20  C   UNL A   1      33.241  29.364  26.221  1.00  0.00     0.034 C 
ATOM     21  C   UNL A   1      32.099  30.102  26.913  1.00  0.00     0.014 C 
ATOM     22  C   UNL A   1      34.327  28.953  27.217  1.00  0.00     0.014 C 
ENDBRANCH  16  20
ENDBRANCH  10  13
ENDBRANCH   8   9
BRANCH   8  23
ATOM     23  C   UNL A   1      31.032  22.552  25.997  1.00  0.00     0.134 C 
BRANCH  23  24
ATOM     24  C   UNL A   1      32.150  22.381  26.982  1.00  0.00     0.220 C 
ATOM     25  N   UNL A   1      32.864  21.225  26.868  1.00  0.00    -0.370 N 
ATOM     26  O   UNL A   1      32.421  23.202  27.849  1.00  0.00    -0.275 OA
ATOM     27  H   UNL A   1      32.636  20.573  26.166  1.00  0.00     0.159 HD
ATOM     28  H   UNL A   1      33.607  21.042  27.487  1.00  0.00     0.159 HD
ENDBRANCH  23  24
ENDBRANCH   8  23
ENDBRANCH   5   8
ENDBRANCH   3   4
ENDBRANCH   2   3
ENDBRANCH   1   2
BRANCH   1  29
ATOM     29  C   UNL A   1      37.869  22.632  25.195  1.00  0.00     0.002 C 
BRANCH  29  30
ATOM     30  C   UNL A   1      38.871  21.853  26.061  1.00  0.00     0.021 C 
BRANCH  30  31
ATOM     31  C   UNL A   1      39.950  22.704  26.706  1.00  0.00     0.116 C 
BRANCH  31  32
ATOM     32  N   UNL A   1      41.279  22.459  26.147  1.00  0.00    -0.352 N 
ATOM     33  C   UNL A   1      42.217  23.392  25.734  1.00  0.00     0.251 C 
ATOM     34  H   UNL A   1      41.539  21.515  26.052  1.00  0.00     0.163 HD
ATOM     35  O   UNL A   1      43.099  23.089  24.950  1.00  0.00    -0.269 OA
BRANCH  33  36
ATOM     36  C   UNL A   1      42.125  24.759  26.282  1.00  0.00     0.039 A 
ATOM     37  C   UNL A   1      41.373  25.763  25.665  1.00  0.00     0.014 A 
ATOM     38  C   UNL A   1      42.793  25.005  27.476  1.00  0.00     0.014 A 
ATOM     39  C   UNL A   1      41.254  26.993  26.310  1.00  0.00     0.010 A 
ATOM     40  C   UNL A   1      42.490  26.117  28.205  1.00  0.00     0.010 A 
ATOM     41  C   UNL A   1      41.807  27.154  27.590  1.00  0.00    -0.014 A 
BRANCH  41  42
ATOM     42  C   UNL A   1      41.622  28.370  28.366  1.00  0.00     0.031 A 
ATOM     43  C   UNL A   1      42.684  29.386  28.158  1.00  0.00     0.074 A 
ATOM     44  C   UNL A   1      40.473  28.645  29.023  1.00  0.00     0.049 A 
ATOM     45  N   UNL A   1      43.626  29.715  28.978  1.00  0.00    -0.248 NA
ATOM     46  C   UNL A   1      42.835  29.976  26.817  1.00  0.00     0.031 C 
ATOM     47  C   UNL A   1      39.216  27.883  29.042  1.00  0.00     0.029 A 
ATOM     48  N   UNL A   1      40.152  29.745  29.750  1.00  0.00    -0.354 N 
ATOM     49  C   UNL A   1      44.322  30.747  28.357  1.00  0.00     0.074 A 
ATOM     50  C   UNL A   1      43.949  30.695  26.969  1.00  0.00     0.031 C 
ATOM     51  C   UNL A   1      38.221  28.654  29.534  1.00  0.00     0.029 A 
ATOM     52  C   UNL A   1      38.796  29.888  30.030  1.00  0.00     0.049 A 
ATOM     53  H   UNL A   1      40.828  30.392  30.056  1.00  0.00     0.167 HD
ATOM     54  C   UNL A   1      44.929  31.721  29.092  1.00  0.00     0.037 A 
ATOM     55  C   UNL A   1      38.199  30.962  30.610  1.00  0.00     0.037 A 
ATOM     56  C   UNL A   1      45.032  31.328  30.479  1.00  0.00     0.049 A 
ATOM     57  C   UNL A   1      39.272  31.697  31.338  1.00  0.00     0.074 A 
ATOM     58  C   UNL A   1      45.605  30.258  31.141  1.00  0.00     0.029 A 
ATOM     59  N   UNL A   1      44.130  31.870  31.365  1.00  0.00    -0.354 N 
ATOM     60  N   UNL A   1      39.919  31.201  32.361  1.00  0.00    -0.248 NA
ATOM     61  C   UNL A   1      39.967  32.751  30.614  1.00  0.00     0.031 C 
ATOM     62  C   UNL A   1      44.667  29.912  32.158  1.00  0.00     0.029 A 
ATOM     63  C   UNL A   1      43.625  30.841  32.120  1.00  0.00     0.049 A 
ATOM     64  H   UNL A   1      43.890  32.822  31.444  1.00  0.00     0.167 HD
ATOM     65  C   UNL A   1      41.244  31.562  32.156  1.00  0.00     0.074 A 
ATOM     66  C   UNL A   1      41.200  32.571  31.097  1.00  0.00     0.031 C 
ATOM     67  C   UNL A   1      42.275  30.807  32.643  1.00  0.00     0.037 A 
BRANCH  54  68
ATOM     68  C   UNL A   1      45.074  33.162  28.656  1.00  0.00     0.058 A 
ATOM     69  C   UNL A   1      46.357  33.748  28.656  1.00  0.00     0.135 A 
ATOM     70  C   UNL A   1      43.996  34.065  28.510  1.00  0.00     0.135 A 
ATOM     71  F   UNL A   1      47.457  32.989  28.788  1.00  0.00    -0.206 F 
ATOM     72  C   UNL A   1      46.549  35.129  28.600  1.00  0.00     0.059 A 
ATOM     73  C   UNL A   1      44.169  35.439  28.397  1.00  0.00     0.059 A 
ATOM     74  F   UNL A   1      42.718  33.676  28.566  1.00  0.00    -0.206 F 
ATOM     75  C   UNL A   1      45.445  35.967  28.487  1.00  0.00     0.060 A 
BRANCH  75  76
ATOM     76  S   UNL A   1      45.682  37.751  28.514  1.00  0.00     0.124 S 
ATOM     77  O   UNL A   1      44.322  38.227  28.292  1.00  0.00    -0.237 OA
ATOM     78  O   UNL A   1      46.225  37.960  29.852  1.00  0.00    -0.237 OA
ATOM     79  O   UNL A   1      46.620  37.981  27.420  1.00  0.00    -0.744 OA
ENDBRANCH  75  76
ENDBRANCH  54  68
BRANCH  55  80
ATOM     80  C   UNL A   1      36.892  31.581  30.247  1.00  0.00     0.058 A 
ATOM     81  C   UNL A   1      36.090  32.220  31.211  1.00  0.00     0.135 A 
ATOM     82  C   UNL A   1      36.534  31.806  28.901  1.00  0.00     0.135 A 
ATOM     83  F   UNL A   1      36.365  32.079  32.516  1.00  0.00    -0.206 F 
ATOM     84  C   UNL A   1      35.030  33.069  30.861  1.00  0.00     0.059 A 
ATOM     85  C   UNL A   1      35.479  32.642  28.529  1.00  0.00     0.059 A 
ATOM     86  F   UNL A   1      37.258  31.290  27.897  1.00  0.00    -0.206 F 
ATOM     87  C   UNL A   1      34.745  33.291  29.513  1.00  0.00     0.060 A 
BRANCH  87  88
ATOM     88  S   UNL A   1      33.492  34.514  29.052  1.00  0.00     0.124 S 
ATOM     89  O   UNL A   1      34.307  35.582  28.484  1.00  0.00    -0.237 OA
ATOM     90  O   UNL A   1      32.668  33.770  28.105  1.00  0.00    -0.237 OA
ATOM     91  O   UNL A   1      32.844  34.833  30.320  1.00  0.00    -0.744 OA
ENDBRANCH  87  88
ENDBRANCH  55  80
BRANCH  67  92
ATOM     92  C   UNL A   1      41.969  29.715  33.641  1.00  0.00     0.058 A 
ATOM     93  C   UNL A   1      41.667  28.382  33.307  1.00  0.00     0.135 A 
ATOM     94  C   UNL A   1      42.168  29.997  35.001  1.00  0.00     0.135 A 
ATOM     95  F   UNL A   1      41.560  27.998  32.028  1.00  0.00    -0.206 F 
ATOM     96  C   UNL A   1      41.536  27.386  34.281  1.00  0.00     0.059 A 
ATOM     97  C   UNL A   1      42.072  29.016  35.986  1.00  0.00     0.059 A 
ATOM     98  F   UNL A   1      42.518  31.235  35.385  1.00  0.00    -0.206 F 
ATOM     99  C   UNL A   1      41.745  27.714  35.620  1.00  0.00     0.060 A 
BRANCH  99 100
ATOM    100  S   UNL A   1      41.649  26.417  36.874  1.00  0.00     0.124 S 
ATOM    101  O   UNL A   1      40.399  26.738  37.554  1.00  0.00    -0.237 OA
ATOM    102  O   UNL A   1      41.639  25.198  36.071  1.00  0.00    -0.237 OA
ATOM    103  O   UNL A   1      42.859  26.619  37.668  1.00  0.00    -0.744 OA
ENDBRANCH  99 100
ENDBRANCH  67  92
ENDBRANCH  41  42
ENDBRANCH  33  36
ENDBRANCH  31  32
ENDBRANCH  30  31
ENDBRANCH  29  30
ENDBRANCH   1  29
TORSDOF 22
ENDMDL
MODEL 2
REMARK VINA RESULT:     -10.9      1.203      3.021
REMARK SMILES CCn1nc(C(C)C)cc1C(=O)N[C@@H](CC(N)=O)C(=O)NCCCCCCNC(=O)c1ccc(-c2c3nc(c(-c4c(F)cc(S(=O)(=O)[O-])cc4F)c4ccc([nH]4)c(-c4c(F)cc(S(=O)(=O)[O-])cc4F)c4nc(c(-c5c(F)cc(S(=O)(=O)[O-])cc5F)c5ccc2[nH]5)C=C4)C=C3)cc1
REMARK SMILES IDX 24 1 23 2 22 3 21 4 19 5 20 6 14 8 13 9 11 10 12 11 10 13
REMARK SMILES IDX 3 14 4 15 5 16 9 17 2 18 1 19 6 20 7 21 8 22 15 23 16 24
REMARK SMILES IDX 17 25 18 26 25 29 26 30 27 31 28 32 29 33 30 35 31 36 32 37
REMARK SMILES IDX 96 38 33 39 95 40 34 41 35 42 36 43 89 44 37 45 94 46 88 47
REMARK SMILES IDX 90 48 38 49 93 50 87 51 86 52 39 54 73 55 52 56 72 57 53 58
REMARK SMILES IDX 56 59 71 60 91 61 54 62 55 63 70 65 92 66 57 67 40 68 41 69
REMARK SMILES IDX 50 70 42 71 43 72 49 73 51 74 44 75 45 76 46 77 47 78 48 79
REMARK SMILES IDX 74 80 75 81 84 82 76 83 77 84 83 85 85 86 78 87 79 88 80 89
REMARK SMILES IDX 81 90 82 91 58 92 59 93 68 94 60 95 61 96 67 97 69 98 62 99
REMARK SMILES IDX 63 100 64 101 65 102 66 103
REMARK H PARENT 21 7 13 12 17 27 17 28 28 34 90 53 56 64
REMARK Flexibility Score: inf
ROOT
ATOM      1  C   UNL A   1      36.154  23.589  24.646  1.00  0.00     0.002 C 
ENDROOT
BRANCH   1   2
ATOM      2  C   UNL A   1      34.801  23.539  23.935  1.00  0.00     0.021 C 
BRANCH   2   3
ATOM      3  C   UNL A   1      33.897  24.736  24.180  1.00  0.00     0.116 C 
BRANCH   3   4
ATOM      4  N   UNL A   1      32.579  24.612  23.593  1.00  0.00    -0.354 N 
ATOM      5  C   UNL A   1      31.380  25.075  24.045  1.00  0.00     0.243 C 
ATOM      6  O   UNL A   1      30.455  25.131  23.225  1.00  0.00    -0.273 OA
ATOM      7  H   UNL A   1      32.545  24.121  22.741  1.00  0.00     0.163 HD
BRANCH   5   8
ATOM      8  C   UNL A   1      31.175  25.629  25.471  1.00  0.00     0.181 C 
BRANCH   8   9
ATOM      9  N   UNL A   1      30.329  24.786  26.307  1.00  0.00    -0.338 N 
ATOM     10  C   UNL A   1      30.416  23.472  26.702  1.00  0.00     0.270 C 
ATOM     11  O   UNL A   1      29.573  23.139  27.534  1.00  0.00    -0.268 OA
ATOM     12  H   UNL A   1      29.537  25.250  26.660  1.00  0.00     0.164 HD
BRANCH  10  13
ATOM     13  C   UNL A   1      31.354  22.537  26.111  1.00  0.00     0.126 A 
ATOM     14  N   UNL A   1      32.639  22.303  26.586  1.00  0.00    -0.260 N 
ATOM     15  N   UNL A   1      33.176  21.150  26.104  1.00  0.00    -0.177 NA
ATOM     16  C   UNL A   1      32.345  20.788  25.129  1.00  0.00     0.066 A 
ATOM     17  C   UNL A   1      31.279  21.700  25.010  1.00  0.00     0.059 A 
BRANCH  14  18
ATOM     18  C   UNL A   1      33.416  23.082  27.542  1.00  0.00     0.142 C 
ATOM     19  C   UNL A   1      34.785  22.482  27.844  1.00  0.00     0.029 C 
ENDBRANCH  14  18
BRANCH  16  20
ATOM     20  C   UNL A   1      32.550  19.556  24.299  1.00  0.00     0.034 C 
ATOM     21  C   UNL A   1      32.260  19.818  22.824  1.00  0.00     0.014 C 
ATOM     22  C   UNL A   1      33.930  18.927  24.496  1.00  0.00     0.014 C 
ENDBRANCH  16  20
ENDBRANCH  10  13
ENDBRANCH   8   9
BRANCH   8  23
ATOM     23  C   UNL A   1      32.435  26.176  26.133  1.00  0.00     0.134 C 
BRANCH  23  24
ATOM     24  C   UNL A   1      32.257  27.397  26.986  1.00  0.00     0.220 C 
ATOM     25  N   UNL A   1      33.332  28.232  27.051  1.00  0.00    -0.370 N 
ATOM     26  O   UNL A   1      31.230  27.647  27.604  1.00  0.00    -0.275 OA
ATOM     27  H   UNL A   1      34.152  28.020  26.549  1.00  0.00     0.159 HD
ATOM     28  H   UNL A   1      33.289  29.048  27.599  1.00  0.00     0.159 HD
ENDBRANCH  23  24
ENDBRANCH   8  23
ENDBRANCH   5   8
ENDBRANCH   3   4
ENDBRANCH   2   3
ENDBRANCH   1   2
BRANCH   1  29
ATOM     29  C   UNL A   1      37.116  22.414  24.402  1.00  0.00     0.002 C 
BRANCH  29  30
ATOM     30  C   UNL A   1      37.878  21.848  25.609  1.00  0.00     0.021 C 
BRANCH  30  31
ATOM     31  C   UNL A   1      38.949  22.766  26.172  1.00  0.00     0.116 C 
BRANCH  31  32
ATOM     32  N   UNL A   1      40.293  22.195  26.082  1.00  0.00    -0.352 N 
ATOM     33  C   UNL A   1      41.503  22.867  26.017  1.00  0.00     0.251 C 
ATOM     34  H   UNL A   1      40.343  21.212  26.064  1.00  0.00     0.163 HD
ATOM     35  O   UNL A   1      42.497  22.325  25.566  1.00  0.00    -0.269 OA
BRANCH  33  36
ATOM     36  C   UNL A   1      41.557  24.251  26.524  1.00  0.00     0.039 A 
ATOM     37  C   UNL A   1      41.039  25.332  25.805  1.00  0.00     0.014 A 
ATOM     38  C   UNL A   1      42.115  24.439  27.783  1.00  0.00     0.014 A 
ATOM     39  C   UNL A   1      41.035  26.589  26.407  1.00  0.00     0.010 A 
ATOM     40  C   UNL A   1      41.903  25.610  28.450  1.00  0.00     0.010 A 
ATOM     41  C   UNL A   1      41.458  26.713  27.740  1.00  0.00    -0.014 A 
BRANCH  41  42
ATOM     42  C   UNL A   1      41.372  27.971  28.466  1.00  0.00     0.031 A 
ATOM     43  C   UNL A   1      42.474  28.919  28.163  1.00  0.00     0.074 A 
ATOM     44  C   UNL A   1      40.270  28.335  29.160  1.00  0.00     0.049 A 
ATOM     45  N   UNL A   1      43.468  29.233  28.923  1.00  0.00    -0.248 NA
ATOM     46  C   UNL A   1      42.590  29.439  26.790  1.00  0.00     0.031 C 
ATOM     47  C   UNL A   1      38.978  27.643  29.271  1.00  0.00     0.029 A 
ATOM     48  N   UNL A   1      40.041  29.482  29.848  1.00  0.00    -0.354 N 
ATOM     49  C   UNL A   1      44.186  30.198  28.224  1.00  0.00     0.074 A 
ATOM     50  C   UNL A   1      43.746  30.104  26.858  1.00  0.00     0.031 C 
ATOM     51  C   UNL A   1      38.049  28.486  29.770  1.00  0.00     0.029 A 
ATOM     52  C   UNL A   1      38.709  29.709  30.181  1.00  0.00     0.049 A 
ATOM     53  H   UNL A   1      40.763  30.106  30.092  1.00  0.00     0.167 HD
ATOM     54  C   UNL A   1      44.876  31.170  28.885  1.00  0.00     0.037 A 
ATOM     55  C   UNL A   1      38.196  30.838  30.736  1.00  0.00     0.037 A 
ATOM     56  C   UNL A   1      45.024  30.835  30.283  1.00  0.00     0.049 A 
ATOM     57  C   UNL A   1      39.337  31.547  31.380  1.00  0.00     0.074 A 
ATOM     58  C   UNL A   1      45.573  29.766  30.967  1.00  0.00     0.029 A 
ATOM     59  N   UNL A   1      44.194  31.463  31.181  1.00  0.00    -0.354 N 
ATOM     60  N   UNL A   1      40.006  31.063  32.395  1.00  0.00    -0.248 NA
ATOM     61  C   UNL A   1      40.051  32.529  30.577  1.00  0.00     0.031 C 
ATOM     62  C   UNL A   1      44.667  29.516  32.041  1.00  0.00     0.029 A 
ATOM     63  C   UNL A   1      43.673  30.496  32.006  1.00  0.00     0.049 A 
ATOM     64  H   UNL A   1      44.007  32.428  31.226  1.00  0.00     0.167 HD
ATOM     65  C   UNL A   1      41.336  31.344  32.114  1.00  0.00     0.074 A 
ATOM     66  C   UNL A   1      41.294  32.306  31.012  1.00  0.00     0.031 C 
ATOM     67  C   UNL A   1      42.349  30.558  32.590  1.00  0.00     0.037 A 
BRANCH  54  68
ATOM     68  C   UNL A   1      45.073  32.580  28.375  1.00  0.00     0.058 A 
ATOM     69  C   UNL A   1      46.386  33.045  28.147  1.00  0.00     0.135 A 
ATOM     70  C   UNL A   1      44.069  33.575  28.368  1.00  0.00     0.135 A 
ATOM     71  F   UNL A   1      47.422  32.191  28.131  1.00  0.00    -0.206 F 
ATOM     72  C   UNL A   1      46.687  34.400  28.008  1.00  0.00     0.059 A 
ATOM     73  C   UNL A   1      44.341  34.925  28.175  1.00  0.00     0.059 A 
ATOM     74  F   UNL A   1      42.789  33.308  28.642  1.00  0.00    -0.206 F 
ATOM     75  C   UNL A   1      45.656  35.334  28.040  1.00  0.00     0.060 A 
BRANCH  75  76
ATOM     76  S   UNL A   1      46.049  37.088  27.959  1.00  0.00     0.124 S 
ATOM     77  O   UNL A   1      47.196  37.170  28.855  1.00  0.00    -0.237 OA
ATOM     78  O   UNL A   1      46.331  37.267  26.538  1.00  0.00    -0.237 OA
ATOM     79  O   UNL A   1      44.826  37.728  28.434  1.00  0.00    -0.744 OA
ENDBRANCH  75  76
ENDBRANCH  54  68
BRANCH  55  80
ATOM     80  C   UNL A   1      36.906  31.509  30.403  1.00  0.00     0.058 A 
ATOM     81  C   UNL A   1      36.096  32.080  31.403  1.00  0.00     0.135 A 
ATOM     82  C   UNL A   1      36.577  31.852  29.075  1.00  0.00     0.135 A 
ATOM     83  F   UNL A   1      36.345  31.826  32.696  1.00  0.00    -0.206 F 
ATOM     84  C   UNL A   1      35.058  32.975  31.107  1.00  0.00     0.059 A 
ATOM     85  C   UNL A   1      35.543  32.735  28.756  1.00  0.00     0.059 A 
ATOM     86  F   UNL A   1      37.311  31.408  28.044  1.00  0.00    -0.206 F 
ATOM     87  C   UNL A   1      34.802  33.313  29.778  1.00  0.00     0.060 A 
BRANCH  87  88
ATOM     88  S   UNL A   1      33.579  34.592  29.398  1.00  0.00     0.124 S 
ATOM     89  O   UNL A   1      32.974  34.829  30.705  1.00  0.00    -0.237 OA
ATOM     90  O   UNL A   1      34.411  35.672  28.877  1.00  0.00    -0.237 OA
ATOM     91  O   UNL A   1      32.708  33.951  28.417  1.00  0.00    -0.744 OA
ENDBRANCH  87  88
ENDBRANCH  55  80
BRANCH  67  92
ATOM     92  C   UNL A   1      42.036  29.529  33.651  1.00  0.00     0.058 A 
ATOM     93  C   UNL A   1      41.620  28.210  33.394  1.00  0.00     0.135 A 
ATOM     94  C   UNL A   1      42.343  29.847  34.983  1.00  0.00     0.135 A 
ATOM     95  F   UNL A   1      41.402  27.786  32.142  1.00  0.00    -0.206 F 
ATOM     96  C   UNL A   1      41.485  27.264  34.415  1.00  0.00     0.059 A 
ATOM     97  C   UNL A   1      42.245  28.914  36.012  1.00  0.00     0.059 A 
ATOM     98  F   UNL A   1      42.803  31.071  35.290  1.00  0.00    -0.206 F 
ATOM     99  C   UNL A   1      41.805  27.626  35.723  1.00  0.00     0.060 A 
BRANCH  99 100
ATOM    100  S   UNL A   1      41.704  26.388  37.035  1.00  0.00     0.124 S 
ATOM    101  O   UNL A   1      42.881  26.695  37.839  1.00  0.00    -0.237 OA
ATOM    102  O   UNL A   1      40.416  26.687  37.656  1.00  0.00    -0.237 OA
ATOM    103  O   UNL A   1      41.757  25.119  36.312  1.00  0.00    -0.744 OA
ENDBRANCH  99 100
ENDBRANCH  67  92
ENDBRANCH  41  42
ENDBRANCH  33  36
ENDBRANCH  31  32
ENDBRANCH  30  31
ENDBRANCH  29  30
ENDBRANCH   1  29
TORSDOF 22
ENDMDL
MODEL 3
REMARK VINA RESULT:     -10.8      1.604      3.499
REMARK SMILES CCn1nc(C(C)C)cc1C(=O)N[C@@H](CC(N)=O)C(=O)NCCCCCCNC(=O)c1ccc(-c2c3nc(c(-c4c(F)cc(S(=O)(=O)[O-])cc4F)c4ccc([nH]4)c(-c4c(F)cc(S(=O)(=O)[O-])cc4F)c4nc(c(-c5c(F)cc(S(=O)(=O)[O-])cc5F)c5ccc2[nH]5)C=C4)C=C3)cc1
REMARK SMILES IDX 24 1 23 2 22 3 21 4 19 5 20 6 14 8 13 9 11 10 12 11 10 13
REMARK SMILES IDX 3 14 4 15 5 16 9 17 2 18 1 19 6 20 7 21 8 22 15 23 16 24
REMARK SMILES IDX 17 25 18 26 25 29 26 30 27 31 28 32 29 33 30 35 31 36 32 37
REMARK SMILES IDX 96 38 33 39 95 40 34 41 35 42 36 43 89 44 37 45 94 46 88 47
REMARK SMILES IDX 90 48 38 49 93 50 87 51 86 52 39 54 73 55 52 56 72 57 53 58
REMARK SMILES IDX 56 59 71 60 91 61 54 62 55 63 70 65 92 66 57 67 40 68 41 69
REMARK SMILES IDX 50 70 42 71 43 72 49 73 51 74 44 75 45 76 46 77 47 78 48 79
REMARK SMILES IDX 74 80 75 81 84 82 76 83 77 84 83 85 85 86 78 87 79 88 80 89
REMARK SMILES IDX 81 90 82 91 58 92 59 93 68 94 60 95 61 96 67 97 69 98 62 99
REMARK SMILES IDX 63 100 64 101 65 102 66 103
REMARK H PARENT 21 7 13 12 17 27 17 28 28 34 90 53 56 64
REMARK Flexibility Score: inf
ROOT
ATOM      1  C   UNL A   1      39.402  22.403  25.990  1.00  0.00     0.002 C 
ENDROOT
BRANCH   1   2
ATOM      2  C   UNL A   1      38.436  23.555  26.274  1.00  0.00     0.021 C 
BRANCH   2   3
ATOM      3  C   UNL A   1      37.066  23.423  25.630  1.00  0.00     0.116 C 
BRANCH   3   4
ATOM      4  N   UNL A   1      35.997  23.141  26.565  1.00  0.00    -0.354 N 
ATOM      5  C   UNL A   1      34.702  23.563  26.558  1.00  0.00     0.243 C 
ATOM      6  O   UNL A   1      33.903  22.939  27.268  1.00  0.00    -0.273 OA
ATOM      7  H   UNL A   1      36.243  22.558  27.319  1.00  0.00     0.163 HD
BRANCH   5   8
ATOM      8  C   UNL A   1      34.187  24.683  25.629  1.00  0.00     0.181 C 
BRANCH   8   9
ATOM      9  N   UNL A   1      34.293  24.357  24.211  1.00  0.00    -0.338 N 
ATOM     10  C   UNL A   1      33.940  23.251  23.476  1.00  0.00     0.270 C 
ATOM     11  O   UNL A   1      34.061  23.395  22.260  1.00  0.00    -0.268 OA
ATOM     12  H   UNL A   1      34.700  25.073  23.673  1.00  0.00     0.164 HD
BRANCH  10  13
ATOM     13  C   UNL A   1      33.557  21.993  24.088  1.00  0.00     0.126 A 
ATOM     14  N   UNL A   1      32.279  21.696  24.545  1.00  0.00    -0.260 N 
ATOM     15  N   UNL A   1      32.085  20.363  24.734  1.00  0.00    -0.177 NA
ATOM     16  C   UNL A   1      33.307  19.842  24.650  1.00  0.00     0.066 A 
ATOM     17  C   UNL A   1      34.264  20.841  24.391  1.00  0.00     0.059 A 
BRANCH  14  18
ATOM     18  C   UNL A   1      31.157  22.598  24.775  1.00  0.00     0.142 C 
ATOM     19  C   UNL A   1      30.544  22.463  26.165  1.00  0.00     0.029 C 
ENDBRANCH  14  18
BRANCH  16  20
ATOM     20  C   UNL A   1      33.581  18.377  24.806  1.00  0.00     0.034 C 
ATOM     21  C   UNL A   1      32.582  17.716  25.752  1.00  0.00     0.014 C 
ATOM     22  C   UNL A   1      33.659  17.638  23.468  1.00  0.00     0.014 C 
ENDBRANCH  16  20
ENDBRANCH  10  13
ENDBRANCH   8   9
BRANCH   8  23
ATOM     23  C   UNL A   1      32.877  25.329  26.069  1.00  0.00     0.134 C 
BRANCH  23  24
ATOM     24  C   UNL A   1      32.447  26.542  25.297  1.00  0.00     0.220 C 
ATOM     25  N   UNL A   1      31.167  26.956  25.518  1.00  0.00    -0.370 N 
ATOM     26  O   UNL A   1      33.171  27.133  24.507  1.00  0.00    -0.275 OA
ATOM     27  H   UNL A   1      30.596  26.471  26.156  1.00  0.00     0.159 HD
ATOM     28  H   UNL A   1      30.815  27.740  25.039  1.00  0.00     0.159 HD
ENDBRANCH  23  24
ENDBRANCH   8  23
ENDBRANCH   5   8
ENDBRANCH   3   4
ENDBRANCH   2   3
ENDBRANCH   1   2
BRANCH   1  29
ATOM     29  C   UNL A   1      40.111  21.771  27.199  1.00  0.00     0.002 C 
BRANCH  29  30
ATOM     30  C   UNL A   1      41.090  20.617  26.935  1.00  0.00     0.021 C 
BRANCH  30  31
ATOM     31  C   UNL A   1      42.550  20.952  27.184  1.00  0.00     0.116 C 
BRANCH  31  32
ATOM     32  N   UNL A   1      43.236  21.432  25.984  1.00  0.00    -0.352 N 
ATOM     33  C   UNL A   1      43.257  22.718  25.469  1.00  0.00     0.251 C 
ATOM     34  H   UNL A   1      43.746  20.757  25.481  1.00  0.00     0.163 HD
ATOM     35  O   UNL A   1      43.524  22.919  24.297  1.00  0.00    -0.269 OA
BRANCH  33  36
ATOM     36  C   UNL A   1      42.959  23.837  26.382  1.00  0.00     0.039 A 
ATOM     37  C   UNL A   1      43.633  24.012  27.595  1.00  0.00     0.014 A 
ATOM     38  C   UNL A   1      41.995  24.749  25.969  1.00  0.00     0.014 A 
ATOM     39  C   UNL A   1      43.364  25.157  28.344  1.00  0.00     0.010 A 
ATOM     40  C   UNL A   1      41.903  25.963  26.582  1.00  0.00     0.010 A 
ATOM     41  C   UNL A   1      42.504  26.135  27.818  1.00  0.00    -0.014 A 
BRANCH  41  42
ATOM     42  C   UNL A   1      42.269  27.402  28.493  1.00  0.00     0.031 A 
ATOM     43  C   UNL A   1      43.327  28.416  28.258  1.00  0.00     0.074 A 
ATOM     44  C   UNL A   1      41.088  27.706  29.077  1.00  0.00     0.049 A 
ATOM     45  N   UNL A   1      44.226  28.818  29.091  1.00  0.00    -0.248 NA
ATOM     46  C   UNL A   1      43.530  28.908  26.885  1.00  0.00     0.031 C 
ATOM     47  C   UNL A   1      39.840  26.929  29.096  1.00  0.00     0.029 A 
ATOM     48  N   UNL A   1      40.721  28.851  29.706  1.00  0.00    -0.354 N 
ATOM     49  C   UNL A   1      44.937  29.813  28.428  1.00  0.00     0.074 A 
ATOM     50  C   UNL A   1      44.628  29.654  27.032  1.00  0.00     0.031 C 
ATOM     51  C   UNL A   1      38.815  27.717  29.486  1.00  0.00     0.029 A 
ATOM     52  C   UNL A   1      39.352  28.993  29.915  1.00  0.00     0.049 A 
ATOM     53  H   UNL A   1      41.375  29.530  29.993  1.00  0.00     0.167 HD
ATOM     54  C   UNL A   1      45.499  30.848  29.115  1.00  0.00     0.037 A 
ATOM     55  C   UNL A   1      38.717  30.097  30.387  1.00  0.00     0.037 A 
ATOM     56  C   UNL A   1      45.544  30.559  30.531  1.00  0.00     0.049 A 
ATOM     57  C   UNL A   1      39.747  30.901  31.105  1.00  0.00     0.074 A 
ATOM     58  C   UNL A   1      46.100  29.549  31.294  1.00  0.00     0.029 A 
ATOM     59  N   UNL A   1      44.596  31.150  31.333  1.00  0.00    -0.354 N 
ATOM     60  N   UNL A   1      40.353  30.491  32.189  1.00  0.00    -0.248 NA
ATOM     61  C   UNL A   1      40.461  31.909  30.337  1.00  0.00     0.031 C 
ATOM     62  C   UNL A   1      45.121  29.263  32.292  1.00  0.00     0.029 A 
ATOM     63  C   UNL A   1      44.070  30.171  32.139  1.00  0.00     0.049 A 
ATOM     64  H   UNL A   1      44.341  32.101  31.331  1.00  0.00     0.167 HD
ATOM     65  C   UNL A   1      41.682  30.856  32.017  1.00  0.00     0.074 A 
ATOM     66  C   UNL A   1      41.673  31.784  30.886  1.00  0.00     0.031 C 
ATOM     67  C   UNL A   1      42.699  30.155  32.603  1.00  0.00     0.037 A 
BRANCH  54  68
ATOM     68  C   UNL A   1      45.645  32.255  28.581  1.00  0.00     0.058 A 
ATOM     69  C   UNL A   1      46.915  32.870  28.620  1.00  0.00     0.135 A 
ATOM     70  C   UNL A   1      44.563  33.118  28.296  1.00  0.00     0.135 A 
ATOM     71  F   UNL A   1      48.017  32.149  28.881  1.00  0.00    -0.206 F 
ATOM     72  C   UNL A   1      47.085  34.246  28.471  1.00  0.00     0.059 A 
ATOM     73  C   UNL A   1      44.718  34.484  28.090  1.00  0.00     0.059 A 
ATOM     74  F   UNL A   1      43.292  32.704  28.298  1.00  0.00    -0.206 F 
ATOM     75  C   UNL A   1      45.975  35.047  28.223  1.00  0.00     0.060 A 
BRANCH  75  76
ATOM     76  S   UNL A   1      46.176  36.833  28.129  1.00  0.00     0.124 S 
ATOM     77  O   UNL A   1      47.627  36.959  28.092  1.00  0.00    -0.237 OA
ATOM     78  O   UNL A   1      45.473  37.149  26.890  1.00  0.00    -0.237 OA
ATOM     79  O   UNL A   1      45.529  37.308  29.348  1.00  0.00    -0.744 OA
ENDBRANCH  75  76
ENDBRANCH  54  68
BRANCH  55  80
ATOM     80  C   UNL A   1      37.420  30.668  29.922  1.00  0.00     0.058 A 
ATOM     81  C   UNL A   1      36.547  31.325  30.809  1.00  0.00     0.135 A 
ATOM     82  C   UNL A   1      37.138  30.830  28.549  1.00  0.00     0.135 A 
ATOM     83  F   UNL A   1      36.747  31.244  32.133  1.00  0.00    -0.206 F 
ATOM     84  C   UNL A   1      35.491  32.132  30.362  1.00  0.00     0.059 A 
ATOM     85  C   UNL A   1      36.088  31.623  28.081  1.00  0.00     0.059 A 
ATOM     86  F   UNL A   1      37.933  30.292  27.611  1.00  0.00    -0.206 F 
ATOM     87  C   UNL A   1      35.282  32.292  28.992  1.00  0.00     0.060 A 
BRANCH  87  88
ATOM     88  S   UNL A   1      34.032  33.463  28.407  1.00  0.00     0.124 S 
ATOM     89  O   UNL A   1      33.080  32.581  27.741  1.00  0.00    -0.237 OA
ATOM     90  O   UNL A   1      33.572  34.072  29.651  1.00  0.00    -0.237 OA
ATOM     91  O   UNL A   1      34.782  34.350  27.523  1.00  0.00    -0.744 OA
ENDBRANCH  87  88
ENDBRANCH  55  80
BRANCH  67  92
ATOM     92  C   UNL A   1      42.361  29.134  33.665  1.00  0.00     0.058 A 
ATOM     93  C   UNL A   1      42.082  27.777  33.416  1.00  0.00     0.135 A 
ATOM     94  C   UNL A   1      42.504  29.515  35.008  1.00  0.00     0.135 A 
ATOM     95  F   UNL A   1      42.028  27.302  32.165  1.00  0.00    -0.206 F 
ATOM     96  C   UNL A   1      41.920  26.853  34.453  1.00  0.00     0.059 A 
ATOM     97  C   UNL A   1      42.376  28.606  36.056  1.00  0.00     0.059 A 
ATOM     98  F   UNL A   1      42.829  30.781  35.315  1.00  0.00    -0.206 F 
ATOM     99  C   UNL A   1      42.073  27.278  35.772  1.00  0.00     0.060 A 
BRANCH  99 100
ATOM    100  S   UNL A   1      41.937  26.073  37.112  1.00  0.00     0.124 S 
ATOM    101  O   UNL A   1      42.930  26.559  38.064  1.00  0.00    -0.237 OA
ATOM    102  O   UNL A   1      40.543  26.212  37.525  1.00  0.00    -0.237 OA
ATOM    103  O   UNL A   1      42.263  24.804  36.466  1.00  0.00    -0.744 OA
ENDBRANCH  99 100
ENDBRANCH  67  92
ENDBRANCH  41  42
ENDBRANCH  33  36
ENDBRANCH  31  32
ENDBRANCH  30  31
ENDBRANCH  29  30
ENDBRANCH   1  29
TORSDOF 22
ENDMDL
