MODEL 1
REMARK VINA RESULT:     -10.5      0.000      0.000
REMARK SMILES CC(C)N(CCCC(=O)NCCCCCCNC(=O)c1ccc(-c2c3nc(c(-c4c(F)cc(S(=O)(=O)[O-])cc4F)c4ccc([nH]4)c(-c4c(F)cc(S(=O)(=O)[O-])cc4F)c4nc(c(-c5c(F)cc(S(=O)(=O)[O-])cc5F)c5ccc2[nH]5)C=C4)C=C3)cc1)C(=O)N[C@@H]1CCCC1(C)C
REMARK SMILES IDX 12 1 11 2 10 3 8 4 9 5 7 7 6 8 5 9 4 10 2 11 1 12 3 13 86 14
REMARK SMILES IDX 87 15 88 16 89 18 90 19 93 20 91 21 92 22 94 23 95 24 13 25
REMARK SMILES IDX 14 26 15 27 16 28 17 29 18 30 19 32 20 33 21 34 85 35 22 36
REMARK SMILES IDX 84 37 23 38 24 39 25 40 78 41 26 42 83 43 77 44 79 45 27 46
REMARK SMILES IDX 82 47 76 48 75 49 28 51 62 52 41 53 61 54 42 55 45 56 60 57
REMARK SMILES IDX 80 58 43 59 44 60 59 62 81 63 46 64 29 65 30 66 39 67 31 68
REMARK SMILES IDX 32 69 38 70 40 71 33 72 34 73 35 74 36 75 37 76 63 77 64 78
REMARK SMILES IDX 73 79 65 80 66 81 72 82 74 83 67 84 68 85 69 86 70 87 71 88
REMARK SMILES IDX 47 89 48 90 57 91 49 92 50 93 56 94 58 95 51 96 52 97 53 98
REMARK SMILES IDX 54 99 55 100
REMARK H PARENT 10 6 88 17 17 31 79 50 45 61
REMARK Flexibility Score: inf
ROOT
ATOM      1  C   UNL A   1      31.613  28.619  23.229  1.00  0.00     0.021 C 
ENDROOT
BRANCH   1   2
ATOM      2  C   UNL A   1      31.253  27.377  22.439  1.00  0.00     0.116 C 
BRANCH   2   3
ATOM      3  N   UNL A   1      31.906  26.137  22.789  1.00  0.00    -0.356 N 
ATOM      4  C   UNL A   1      33.071  25.650  22.260  1.00  0.00     0.220 C 
ATOM      5  O   UNL A   1      33.508  25.951  21.155  1.00  0.00    -0.275 OA
ATOM      6  H   UNL A   1      31.469  25.586  23.477  1.00  0.00     0.163 HD
BRANCH   4   7
ATOM      7  C   UNL A   1      33.812  24.698  23.191  1.00  0.00     0.102 C 
BRANCH   7   8
ATOM      8  C   UNL A   1      33.302  23.253  23.206  1.00  0.00     0.031 C 
BRANCH   8   9
ATOM      9  C   UNL A   1      32.301  22.823  24.268  1.00  0.00     0.122 C 
BRANCH   9  10
ATOM     10  N   UNL A   1      32.559  21.938  25.440  1.00  0.00    -0.322 N 
BRANCH  10  11
ATOM     11  C   UNL A   1      32.173  22.696  26.692  1.00  0.00     0.080 C 
ATOM     12  C   UNL A   1      32.914  22.279  27.965  1.00  0.00     0.031 C 
ATOM     13  C   UNL A   1      32.197  24.228  26.531  1.00  0.00     0.031 C 
ENDBRANCH  10  11
BRANCH  10  14
ATOM     14  C   UNL A   1      33.464  20.927  25.647  1.00  0.00     0.317 C 
ATOM     15  O   UNL A   1      33.132  19.743  25.492  1.00  0.00    -0.249 OA
ATOM     16  N   UNL A   1      34.786  21.019  25.852  1.00  0.00    -0.335 N 
ATOM     17  H   UNL A   1      35.127  20.097  25.818  1.00  0.00     0.165 HD
BRANCH  16  18
ATOM     18  C   UNL A   1      35.961  21.868  26.104  1.00  0.00     0.089 C 
ATOM     19  C   UNL A   1      35.766  23.389  26.181  1.00  0.00     0.025 C 
ATOM     20  C   UNL A   1      37.057  21.794  24.988  1.00  0.00    -0.015 C 
ATOM     21  C   UNL A   1      37.191  23.960  26.104  1.00  0.00     0.003 C 
ATOM     22  C   UNL A   1      38.057  22.858  25.488  1.00  0.00     0.008 C 
ATOM     23  C   UNL A   1      37.703  20.412  24.906  1.00  0.00     0.013 C 
ATOM     24  C   UNL A   1      36.576  22.205  23.575  1.00  0.00     0.013 C 
ENDBRANCH  16  18
ENDBRANCH  10  14
ENDBRANCH   9  10
ENDBRANCH   8   9
ENDBRANCH   7   8
ENDBRANCH   4   7
ENDBRANCH   2   3
ENDBRANCH   1   2
BRANCH   1  25
ATOM     25  C   UNL A   1      33.098  28.979  23.370  1.00  0.00     0.002 C 
BRANCH  25  26
ATOM     26  C   UNL A   1      33.891  28.579  24.624  1.00  0.00     0.002 C 
BRANCH  26  27
ATOM     27  C   UNL A   1      33.200  27.823  25.758  1.00  0.00     0.021 C 
BRANCH  27  28
ATOM     28  C   UNL A   1      33.594  28.177  27.180  1.00  0.00     0.116 C 
BRANCH  28  29
ATOM     29  N   UNL A   1      33.426  29.580  27.496  1.00  0.00    -0.352 N 
ATOM     30  C   UNL A   1      34.351  30.451  28.022  1.00  0.00     0.251 C 
ATOM     31  H   UNL A   1      32.536  29.959  27.312  1.00  0.00     0.163 HD
ATOM     32  O   UNL A   1      34.020  31.596  28.315  1.00  0.00    -0.269 OA
BRANCH  30  33
ATOM     33  C   UNL A   1      35.738  29.990  28.273  1.00  0.00     0.039 A 
ATOM     34  C   UNL A   1      36.663  30.058  27.229  1.00  0.00     0.014 A 
ATOM     35  C   UNL A   1      36.130  29.507  29.525  1.00  0.00     0.014 A 
ATOM     36  C   UNL A   1      37.993  29.694  27.455  1.00  0.00     0.010 A 
ATOM     37  C   UNL A   1      37.470  29.212  29.769  1.00  0.00     0.010 A 
ATOM     38  C   UNL A   1      38.414  29.296  28.735  1.00  0.00    -0.014 A 
BRANCH  38  39
ATOM     39  C   UNL A   1      39.835  28.953  29.002  1.00  0.00     0.031 A 
ATOM     40  C   UNL A   1      40.765  29.982  29.584  1.00  0.00     0.074 A 
ATOM     41  C   UNL A   1      40.301  27.733  28.669  1.00  0.00     0.049 A 
ATOM     42  N   UNL A   1      42.042  29.885  29.850  1.00  0.00    -0.248 NA
ATOM     43  C   UNL A   1      40.188  31.303  29.881  1.00  0.00     0.031 C 
ATOM     44  C   UNL A   1      39.512  26.668  28.047  1.00  0.00     0.029 A 
ATOM     45  N   UNL A   1      41.553  27.185  28.797  1.00  0.00    -0.354 N 
ATOM     46  C   UNL A   1      42.424  31.132  30.332  1.00  0.00     0.074 A 
ATOM     47  C   UNL A   1      41.256  31.984  30.268  1.00  0.00     0.031 C 
ATOM     48  C   UNL A   1      40.293  25.591  27.866  1.00  0.00     0.029 A 
ATOM     49  C   UNL A   1      41.643  25.897  28.329  1.00  0.00     0.049 A 
ATOM     50  H   UNL A   1      42.316  27.671  29.189  1.00  0.00     0.167 HD
ATOM     51  C   UNL A   1      43.631  31.525  30.809  1.00  0.00     0.037 A 
ATOM     52  C   UNL A   1      42.694  25.055  28.275  1.00  0.00     0.037 A 
ATOM     53  C   UNL A   1      44.784  30.666  30.886  1.00  0.00     0.049 A 
ATOM     54  C   UNL A   1      44.022  25.504  28.820  1.00  0.00     0.074 A 
ATOM     55  C   UNL A   1      46.035  30.948  31.406  1.00  0.00     0.029 A 
ATOM     56  N   UNL A   1      44.828  29.357  30.427  1.00  0.00    -0.354 N 
ATOM     57  N   UNL A   1      44.349  26.665  29.338  1.00  0.00    -0.248 NA
ATOM     58  C   UNL A   1      45.120  24.531  28.785  1.00  0.00     0.031 C 
ATOM     59  C   UNL A   1      46.847  29.823  31.222  1.00  0.00     0.029 A 
ATOM     60  C   UNL A   1      46.090  28.825  30.631  1.00  0.00     0.049 A 
ATOM     61  H   UNL A   1      44.072  28.878  30.015  1.00  0.00     0.167 HD
ATOM     62  C   UNL A   1      45.684  26.555  29.709  1.00  0.00     0.074 A 
ATOM     63  C   UNL A   1      46.100  25.209  29.366  1.00  0.00     0.031 C 
ATOM     64  C   UNL A   1      46.490  27.483  30.282  1.00  0.00     0.037 A 
BRANCH  51  65
ATOM     65  C   UNL A   1      43.756  32.950  31.277  1.00  0.00     0.058 A 
ATOM     66  C   UNL A   1      44.149  33.980  30.406  1.00  0.00     0.135 A 
ATOM     67  C   UNL A   1      43.483  33.292  32.611  1.00  0.00     0.135 A 
ATOM     68  F   UNL A   1      44.435  33.708  29.123  1.00  0.00    -0.206 F 
ATOM     69  C   UNL A   1      44.315  35.288  30.852  1.00  0.00     0.059 A 
ATOM     70  C   UNL A   1      43.613  34.599  33.072  1.00  0.00     0.059 A 
ATOM     71  F   UNL A   1      43.099  32.350  33.486  1.00  0.00    -0.206 F 
ATOM     72  C   UNL A   1      44.053  35.586  32.189  1.00  0.00     0.060 A 
BRANCH  72  73
ATOM     73  S   UNL A   1      44.302  37.279  32.762  1.00  0.00     0.124 S 
ATOM     74  O   UNL A   1      43.105  37.490  33.571  1.00  0.00    -0.237 OA
ATOM     75  O   UNL A   1      45.556  37.179  33.502  1.00  0.00    -0.237 OA
ATOM     76  O   UNL A   1      44.368  38.051  31.525  1.00  0.00    -0.744 OA
ENDBRANCH  72  73
ENDBRANCH  51  65
BRANCH  52  77
ATOM     77  C   UNL A   1      42.513  23.692  27.709  1.00  0.00     0.058 A 
ATOM     78  C   UNL A   1      42.577  23.471  26.326  1.00  0.00     0.135 A 
ATOM     79  C   UNL A   1      42.328  22.578  28.543  1.00  0.00     0.135 A 
ATOM     80  F   UNL A   1      42.747  24.505  25.489  1.00  0.00    -0.206 F 
ATOM     81  C   UNL A   1      42.463  22.194  25.786  1.00  0.00     0.059 A 
ATOM     82  C   UNL A   1      42.233  21.289  28.029  1.00  0.00     0.059 A 
ATOM     83  F   UNL A   1      42.275  22.736  29.874  1.00  0.00    -0.206 F 
ATOM     84  C   UNL A   1      42.300  21.106  26.647  1.00  0.00     0.060 A 
BRANCH  84  85
ATOM     85  S   UNL A   1      42.238  19.445  25.942  1.00  0.00     0.124 S 
ATOM     86  O   UNL A   1      43.116  19.584  24.786  1.00  0.00    -0.237 OA
ATOM     87  O   UNL A   1      42.748  18.628  27.038  1.00  0.00    -0.237 OA
ATOM     88  O   UNL A   1      40.821  19.262  25.641  1.00  0.00    -0.744 OA
ENDBRANCH  84  85
ENDBRANCH  52  77
BRANCH  64  89
ATOM     89  C   UNL A   1      47.902  27.072  30.595  1.00  0.00     0.058 A 
ATOM     90  C   UNL A   1      48.960  27.335  29.711  1.00  0.00     0.135 A 
ATOM     91  C   UNL A   1      48.208  26.456  31.820  1.00  0.00     0.135 A 
ATOM     92  F   UNL A   1      48.721  27.917  28.525  1.00  0.00    -0.206 F 
ATOM     93  C   UNL A   1      50.271  26.985  30.022  1.00  0.00     0.059 A 
ATOM     94  C   UNL A   1      49.515  26.120  32.162  1.00  0.00     0.059 A 
ATOM     95  F   UNL A   1      47.234  26.191  32.705  1.00  0.00    -0.206 F 
ATOM     96  C   UNL A   1      50.538  26.380  31.251  1.00  0.00     0.060 A 
BRANCH  96  97
ATOM     97  S   UNL A   1      52.247  25.962  31.658  1.00  0.00     0.124 S 
ATOM     98  O   UNL A   1      52.551  26.946  32.693  1.00  0.00    -0.237 OA
ATOM     99  O   UNL A   1      52.133  24.580  32.111  1.00  0.00    -0.237 OA
ATOM    100  O   UNL A   1      52.951  26.145  30.393  1.00  0.00    -0.744 OA
ENDBRANCH  96  97
ENDBRANCH  64  89
ENDBRANCH  38  39
ENDBRANCH  30  33
ENDBRANCH  28  29
ENDBRANCH  27  28
ENDBRANCH  26  27
ENDBRANCH  25  26
ENDBRANCH   1  25
TORSDOF 22
ENDMDL
MODEL 2
REMARK VINA RESULT:     -10.1      2.389      2.988
REMARK SMILES CC(C)N(CCCC(=O)NCCCCCCNC(=O)c1ccc(-c2c3nc(c(-c4c(F)cc(S(=O)(=O)[O-])cc4F)c4ccc([nH]4)c(-c4c(F)cc(S(=O)(=O)[O-])cc4F)c4nc(c(-c5c(F)cc(S(=O)(=O)[O-])cc5F)c5ccc2[nH]5)C=C4)C=C3)cc1)C(=O)N[C@@H]1CCCC1(C)C
REMARK SMILES IDX 12 1 11 2 10 3 8 4 9 5 7 7 6 8 5 9 4 10 2 11 1 12 3 13 86 14
REMARK SMILES IDX 87 15 88 16 89 18 90 19 93 20 91 21 92 22 94 23 95 24 13 25
REMARK SMILES IDX 14 26 15 27 16 28 17 29 18 30 19 32 20 33 21 34 85 35 22 36
REMARK SMILES IDX 84 37 23 38 24 39 25 40 78 41 26 42 83 43 77 44 79 45 27 46
REMARK SMILES IDX 82 47 76 48 75 49 28 51 62 52 41 53 61 54 42 55 45 56 60 57
REMARK SMILES IDX 80 58 43 59 44 60 59 62 81 63 46 64 29 65 30 66 39 67 31 68
REMARK SMILES IDX 32 69 38 70 40 71 33 72 34 73 35 74 36 75 37 76 63 77 64 78
REMARK SMILES IDX 73 79 65 80 66 81 72 82 74 83 67 84 68 85 69 86 70 87 71 88
REMARK SMILES IDX 47 89 48 90 57 91 49 92 50 93 56 94 58 95 51 96 52 97 53 98
REMARK SMILES IDX 54 99 55 100
REMARK H PARENT 10 6 88 17 17 31 79 50 45 61
REMARK Flexibility Score: inf
ROOT
ATOM      1  C   UNL A   1      31.821  28.746  23.005  1.00  0.00     0.021 C 
ENDROOT
BRANCH   1   2
ATOM      2  C   UNL A   1      31.248  27.655  22.123  1.00  0.00     0.116 C 
BRANCH   2   3
ATOM      3  N   UNL A   1      31.704  26.301  22.335  1.00  0.00    -0.356 N 
ATOM      4  C   UNL A   1      32.747  25.681  21.703  1.00  0.00     0.220 C 
ATOM      5  O   UNL A   1      33.178  26.003  20.601  1.00  0.00    -0.275 OA
ATOM      6  H   UNL A   1      31.213  25.770  23.003  1.00  0.00     0.163 HD
BRANCH   4   7
ATOM      7  C   UNL A   1      33.363  24.546  22.511  1.00  0.00     0.102 C 
BRANCH   7   8
ATOM      8  C   UNL A   1      32.405  23.419  22.911  1.00  0.00     0.031 C 
BRANCH   8   9
ATOM      9  C   UNL A   1      31.724  23.461  24.270  1.00  0.00     0.122 C 
BRANCH   9  10
ATOM     10  N   UNL A   1      31.780  22.419  25.336  1.00  0.00    -0.322 N 
BRANCH  10  11
ATOM     11  C   UNL A   1      31.321  23.052  26.633  1.00  0.00     0.080 C 
ATOM     12  C   UNL A   1      31.497  24.570  26.718  1.00  0.00     0.031 C 
ATOM     13  C   UNL A   1      29.898  22.648  27.060  1.00  0.00     0.031 C 
ENDBRANCH  10  11
BRANCH  10  14
ATOM     14  C   UNL A   1      32.572  21.310  25.496  1.00  0.00     0.317 C 
ATOM     15  O   UNL A   1      32.130  20.179  25.248  1.00  0.00    -0.249 OA
ATOM     16  N   UNL A   1      33.889  21.254  25.745  1.00  0.00    -0.335 N 
ATOM     17  H   UNL A   1      34.137  20.306  25.655  1.00  0.00     0.165 HD
BRANCH  16  18
ATOM     18  C   UNL A   1      35.132  21.960  26.090  1.00  0.00     0.089 C 
ATOM     19  C   UNL A   1      35.101  23.491  26.203  1.00  0.00     0.025 C 
ATOM     20  C   UNL A   1      36.279  21.792  25.037  1.00  0.00    -0.015 C 
ATOM     21  C   UNL A   1      36.582  23.902  26.226  1.00  0.00     0.003 C 
ATOM     22  C   UNL A   1      37.357  22.726  25.627  1.00  0.00     0.008 C 
ATOM     23  C   UNL A   1      36.773  20.349  24.949  1.00  0.00     0.013 C 
ATOM     24  C   UNL A   1      35.931  22.290  23.613  1.00  0.00     0.013 C 
ENDBRANCH  16  18
ENDBRANCH  10  14
ENDBRANCH   9  10
ENDBRANCH   8   9
ENDBRANCH   7   8
ENDBRANCH   4   7
ENDBRANCH   2   3
ENDBRANCH   1   2
BRANCH   1  25
ATOM     25  C   UNL A   1      33.348  28.881  23.085  1.00  0.00     0.002 C 
BRANCH  25  26
ATOM     26  C   UNL A   1      34.148  28.152  24.175  1.00  0.00     0.002 C 
BRANCH  26  27
ATOM     27  C   UNL A   1      33.420  27.472  25.334  1.00  0.00     0.021 C 
BRANCH  27  28
ATOM     28  C   UNL A   1      33.614  28.054  26.721  1.00  0.00     0.116 C 
BRANCH  28  29
ATOM     29  N   UNL A   1      33.441  29.490  26.778  1.00  0.00    -0.352 N 
ATOM     30  C   UNL A   1      34.263  30.424  27.364  1.00  0.00     0.251 C 
ATOM     31  H   UNL A   1      32.631  29.843  26.344  1.00  0.00     0.163 HD
ATOM     32  O   UNL A   1      33.924  31.604  27.400  1.00  0.00    -0.269 OA
BRANCH  30  33
ATOM     33  C   UNL A   1      35.538  29.996  27.988  1.00  0.00     0.039 A 
ATOM     34  C   UNL A   1      36.711  30.078  27.234  1.00  0.00     0.014 A 
ATOM     35  C   UNL A   1      35.584  29.531  29.306  1.00  0.00     0.014 A 
ATOM     36  C   UNL A   1      37.936  29.746  27.817  1.00  0.00     0.010 A 
ATOM     37  C   UNL A   1      36.813  29.268  29.908  1.00  0.00     0.010 A 
ATOM     38  C   UNL A   1      38.001  29.366  29.168  1.00  0.00    -0.014 A 
BRANCH  38  39
ATOM     39  C   UNL A   1      39.303  29.056  29.815  1.00  0.00     0.031 A 
ATOM     40  C   UNL A   1      39.776  29.871  30.989  1.00  0.00     0.074 A 
ATOM     41  C   UNL A   1      40.082  28.079  29.313  1.00  0.00     0.049 A 
ATOM     42  N   UNL A   1      40.895  29.780  31.659  1.00  0.00    -0.248 NA
ATOM     43  C   UNL A   1      38.884  30.947  31.450  1.00  0.00     0.031 C 
ATOM     44  C   UNL A   1      39.758  27.257  28.146  1.00  0.00     0.029 A 
ATOM     45  N   UNL A   1      41.311  27.617  29.713  1.00  0.00    -0.354 N 
ATOM     46  C   UNL A   1      40.849  30.792  32.611  1.00  0.00     0.074 A 
ATOM     47  C   UNL A   1      39.617  31.519  32.394  1.00  0.00     0.031 C 
ATOM     48  C   UNL A   1      40.754  26.380  27.936  1.00  0.00     0.029 A 
ATOM     49  C   UNL A   1      41.799  26.597  28.932  1.00  0.00     0.049 A 
ATOM     50  H   UNL A   1      41.798  27.984  30.487  1.00  0.00     0.167 HD
ATOM     51  C   UNL A   1      41.739  31.074  33.594  1.00  0.00     0.037 A 
ATOM     52  C   UNL A   1      42.957  25.914  29.007  1.00  0.00     0.037 A 
ATOM     53  C   UNL A   1      42.954  30.335  33.816  1.00  0.00     0.049 A 
ATOM     54  C   UNL A   1      43.928  26.233  30.112  1.00  0.00     0.074 A 
ATOM     55  C   UNL A   1      43.894  30.501  34.818  1.00  0.00     0.029 A 
ATOM     56  N   UNL A   1      43.401  29.288  33.020  1.00  0.00    -0.354 N 
ATOM     57  N   UNL A   1      43.836  27.147  31.049  1.00  0.00    -0.248 NA
ATOM     58  C   UNL A   1      45.151  25.423  30.179  1.00  0.00     0.031 C 
ATOM     59  C   UNL A   1      44.929  29.584  34.603  1.00  0.00     0.029 A 
ATOM     60  C   UNL A   1      44.612  28.814  33.495  1.00  0.00     0.049 A 
ATOM     61  H   UNL A   1      42.926  28.936  32.233  1.00  0.00     0.167 HD
ATOM     62  C   UNL A   1      44.978  27.011  31.828  1.00  0.00     0.074 A 
ATOM     63  C   UNL A   1      45.740  25.916  31.260  1.00  0.00     0.031 C 
ATOM     64  C   UNL A   1      45.360  27.725  32.916  1.00  0.00     0.037 A 
BRANCH  51  65
ATOM     65  C   UNL A   1      41.424  32.238  34.496  1.00  0.00     0.058 A 
ATOM     66  C   UNL A   1      40.747  32.063  35.715  1.00  0.00     0.135 A 
ATOM     67  C   UNL A   1      41.798  33.542  34.138  1.00  0.00     0.135 A 
ATOM     68  F   UNL A   1      40.355  30.839  36.101  1.00  0.00    -0.206 F 
ATOM     69  C   UNL A   1      40.410  33.145  36.522  1.00  0.00     0.059 A 
ATOM     70  C   UNL A   1      41.498  34.636  34.945  1.00  0.00     0.059 A 
ATOM     71  F   UNL A   1      42.450  33.768  32.988  1.00  0.00    -0.206 F 
ATOM     72  C   UNL A   1      40.782  34.429  36.125  1.00  0.00     0.060 A 
BRANCH  72  73
ATOM     73  S   UNL A   1      40.312  35.826  37.165  1.00  0.00     0.124 S 
ATOM     74  O   UNL A   1      39.819  36.775  36.172  1.00  0.00    -0.237 OA
ATOM     75  O   UNL A   1      39.298  35.241  38.038  1.00  0.00    -0.237 OA
ATOM     76  O   UNL A   1      41.561  36.197  37.823  1.00  0.00    -0.744 OA
ENDBRANCH  72  73
ENDBRANCH  51  65
BRANCH  52  77
ATOM     77  C   UNL A   1      43.240  24.839  28.019  1.00  0.00     0.058 A 
ATOM     78  C   UNL A   1      43.878  25.126  26.804  1.00  0.00     0.135 A 
ATOM     79  C   UNL A   1      42.926  23.499  28.293  1.00  0.00     0.135 A 
ATOM     80  F   UNL A   1      44.192  26.393  26.494  1.00  0.00    -0.206 F 
ATOM     81  C   UNL A   1      44.197  24.124  25.893  1.00  0.00     0.059 A 
ATOM     82  C   UNL A   1      43.254  22.476  27.409  1.00  0.00     0.059 A 
ATOM     83  F   UNL A   1      42.329  23.172  29.449  1.00  0.00    -0.206 F 
ATOM     84  C   UNL A   1      43.888  22.799  26.209  1.00  0.00     0.060 A 
BRANCH  84  85
ATOM     85  S   UNL A   1      44.381  21.497  25.059  1.00  0.00     0.124 S 
ATOM     86  O   UNL A   1      44.297  22.190  23.778  1.00  0.00    -0.237 OA
ATOM     87  O   UNL A   1      45.725  21.172  25.523  1.00  0.00    -0.237 OA
ATOM     88  O   UNL A   1      43.381  20.457  25.281  1.00  0.00    -0.744 OA
ENDBRANCH  84  85
ENDBRANCH  52  77
BRANCH  64  89
ATOM     89  C   UNL A   1      46.652  27.335  33.579  1.00  0.00     0.058 A 
ATOM     90  C   UNL A   1      47.879  27.895  33.191  1.00  0.00     0.135 A 
ATOM     91  C   UNL A   1      46.655  26.431  34.654  1.00  0.00     0.135 A 
ATOM     92  F   UNL A   1      47.933  28.760  32.165  1.00  0.00    -0.206 F 
ATOM     93  C   UNL A   1      49.067  27.558  33.832  1.00  0.00     0.059 A 
ATOM     94  C   UNL A   1      47.827  26.099  35.326  1.00  0.00     0.059 A 
ATOM     95  F   UNL A   1      45.507  25.874  35.071  1.00  0.00    -0.206 F 
ATOM     96  C   UNL A   1      49.031  26.660  34.901  1.00  0.00     0.060 A 
BRANCH  96  97
ATOM     97  S   UNL A   1      50.573  26.258  35.747  1.00  0.00     0.124 S 
ATOM     98  O   UNL A   1      51.026  25.092  34.995  1.00  0.00    -0.237 OA
ATOM     99  O   UNL A   1      51.358  27.474  35.565  1.00  0.00    -0.237 OA
ATOM    100  O   UNL A   1      50.149  25.993  37.119  1.00  0.00    -0.744 OA
ENDBRANCH  96  97
ENDBRANCH  64  89
ENDBRANCH  38  39
ENDBRANCH  30  33
ENDBRANCH  28  29
ENDBRANCH  27  28
ENDBRANCH  26  27
ENDBRANCH  25  26
ENDBRANCH   1  25
TORSDOF 22
ENDMDL
MODEL 3
REMARK VINA RESULT:      -9.6      0.794      8.200
REMARK SMILES CC(C)N(CCCC(=O)NCCCCCCNC(=O)c1ccc(-c2c3nc(c(-c4c(F)cc(S(=O)(=O)[O-])cc4F)c4ccc([nH]4)c(-c4c(F)cc(S(=O)(=O)[O-])cc4F)c4nc(c(-c5c(F)cc(S(=O)(=O)[O-])cc5F)c5ccc2[nH]5)C=C4)C=C3)cc1)C(=O)N[C@@H]1CCCC1(C)C
REMARK SMILES IDX 12 1 11 2 10 3 8 4 9 5 7 7 6 8 5 9 4 10 2 11 1 12 3 13 86 14
REMARK SMILES IDX 87 15 88 16 89 18 90 19 93 20 91 21 92 22 94 23 95 24 13 25
REMARK SMILES IDX 14 26 15 27 16 28 17 29 18 30 19 32 20 33 21 34 85 35 22 36
REMARK SMILES IDX 84 37 23 38 24 39 25 40 78 41 26 42 83 43 77 44 79 45 27 46
REMARK SMILES IDX 82 47 76 48 75 49 28 51 62 52 41 53 61 54 42 55 45 56 60 57
REMARK SMILES IDX 80 58 43 59 44 60 59 62 81 63 46 64 29 65 30 66 39 67 31 68
REMARK SMILES IDX 32 69 38 70 40 71 33 72 34 73 35 74 36 75 37 76 63 77 64 78
REMARK SMILES IDX 73 79 65 80 66 81 72 82 74 83 67 84 68 85 69 86 70 87 71 88
REMARK SMILES IDX 47 89 48 90 57 91 49 92 50 93 56 94 58 95 51 96 52 97 53 98
REMARK SMILES IDX 54 99 55 100
REMARK H PARENT 10 6 88 17 17 31 79 50 45 61
REMARK Flexibility Score: inf
ROOT
ATOM      1  C   UNL A   1      31.373  28.506  23.135  1.00  0.00     0.021 C 
ENDROOT
BRANCH   1   2
ATOM      2  C   UNL A   1      31.000  27.464  22.100  1.00  0.00     0.116 C 
BRANCH   2   3
ATOM      3  N   UNL A   1      31.456  26.109  22.306  1.00  0.00    -0.356 N 
ATOM      4  C   UNL A   1      32.642  25.573  21.886  1.00  0.00     0.220 C 
ATOM      5  O   UNL A   1      33.298  26.000  20.942  1.00  0.00    -0.275 OA
ATOM      6  H   UNL A   1      30.850  25.509  22.799  1.00  0.00     0.163 HD
BRANCH   4   7
ATOM      7  C   UNL A   1      33.108  24.389  22.723  1.00  0.00     0.102 C 
BRANCH   7   8
ATOM      8  C   UNL A   1      32.993  23.016  22.053  1.00  0.00     0.031 C 
BRANCH   8   9
ATOM      9  C   UNL A   1      32.602  21.805  22.887  1.00  0.00     0.122 C 
BRANCH   9  10
ATOM     10  N   UNL A   1      33.204  21.375  24.182  1.00  0.00    -0.322 N 
BRANCH  10  11
ATOM     11  C   UNL A   1      33.217  19.861  24.211  1.00  0.00     0.080 C 
ATOM     12  C   UNL A   1      32.947  19.230  25.579  1.00  0.00     0.031 C 
ATOM     13  C   UNL A   1      32.336  19.205  23.132  1.00  0.00     0.031 C 
ENDBRANCH  10  11
BRANCH  10  14
ATOM     14  C   UNL A   1      33.240  21.965  25.420  1.00  0.00     0.317 C 
ATOM     15  O   UNL A   1      32.206  22.083  26.093  1.00  0.00    -0.249 OA
ATOM     16  N   UNL A   1      34.312  22.323  26.144  1.00  0.00    -0.335 N 
ATOM     17  H   UNL A   1      33.963  22.581  27.027  1.00  0.00     0.165 HD
BRANCH  16  18
ATOM     18  C   UNL A   1      35.769  22.506  26.222  1.00  0.00     0.089 C 
ATOM     19  C   UNL A   1      36.334  23.933  26.183  1.00  0.00     0.025 C 
ATOM     20  C   UNL A   1      36.560  21.871  25.029  1.00  0.00    -0.015 C 
ATOM     21  C   UNL A   1      37.839  23.741  25.938  1.00  0.00     0.003 C 
ATOM     22  C   UNL A   1      37.997  22.336  25.351  1.00  0.00     0.008 C 
ATOM     23  C   UNL A   1      36.454  20.348  25.013  1.00  0.00     0.013 C 
ATOM     24  C   UNL A   1      36.175  22.414  23.631  1.00  0.00     0.013 C 
ENDBRANCH  16  18
ENDBRANCH  10  14
ENDBRANCH   9  10
ENDBRANCH   8   9
ENDBRANCH   7   8
ENDBRANCH   4   7
ENDBRANCH   2   3
ENDBRANCH   1   2
BRANCH   1  25
ATOM     25  C   UNL A   1      32.840  28.953  23.211  1.00  0.00     0.002 C 
BRANCH  25  26
ATOM     26  C   UNL A   1      33.571  29.033  24.561  1.00  0.00     0.002 C 
BRANCH  26  27
ATOM     27  C   UNL A   1      33.620  27.813  25.479  1.00  0.00     0.021 C 
BRANCH  27  28
ATOM     28  C   UNL A   1      33.842  28.059  26.960  1.00  0.00     0.116 C 
BRANCH  28  29
ATOM     29  N   UNL A   1      33.576  29.421  27.369  1.00  0.00    -0.352 N 
ATOM     30  C   UNL A   1      34.432  30.312  27.972  1.00  0.00     0.251 C 
ATOM     31  H   UNL A   1      32.664  29.752  27.195  1.00  0.00     0.163 HD
ATOM     32  O   UNL A   1      34.020  31.409  28.338  1.00  0.00    -0.269 OA
BRANCH  30  33
ATOM     33  C   UNL A   1      35.843  29.928  28.218  1.00  0.00     0.039 A 
ATOM     34  C   UNL A   1      36.763  30.064  27.175  1.00  0.00     0.014 A 
ATOM     35  C   UNL A   1      36.262  29.450  29.463  1.00  0.00     0.014 A 
ATOM     36  C   UNL A   1      38.111  29.774  27.397  1.00  0.00     0.010 A 
ATOM     37  C   UNL A   1      37.617  29.228  29.703  1.00  0.00     0.010 A 
ATOM     38  C   UNL A   1      38.555  29.381  28.671  1.00  0.00    -0.014 A 
BRANCH  38  39
ATOM     39  C   UNL A   1      39.993  29.116  28.933  1.00  0.00     0.031 A 
ATOM     40  C   UNL A   1      40.589  27.776  28.597  1.00  0.00     0.074 A 
ATOM     41  C   UNL A   1      40.749  30.062  29.525  1.00  0.00     0.049 A 
ATOM     42  N   UNL A   1      41.808  27.343  28.788  1.00  0.00    -0.248 NA
ATOM     43  C   UNL A   1      39.686  26.784  27.992  1.00  0.00     0.031 C 
ATOM     44  C   UNL A   1      40.273  31.379  29.949  1.00  0.00     0.029 A 
ATOM     45  N   UNL A   1      42.074  30.057  29.881  1.00  0.00    -0.354 N 
ATOM     46  C   UNL A   1      41.817  26.027  28.339  1.00  0.00     0.074 A 
ATOM     47  C   UNL A   1      40.467  25.716  27.919  1.00  0.00     0.031 C 
ATOM     48  C   UNL A   1      41.294  32.062  30.490  1.00  0.00     0.029 A 
ATOM     49  C   UNL A   1      42.488  31.223  30.480  1.00  0.00     0.049 A 
ATOM     50  H   UNL A   1      42.672  29.290  29.722  1.00  0.00     0.167 HD
ATOM     51  C   UNL A   1      42.859  25.164  28.259  1.00  0.00     0.037 A 
ATOM     52  C   UNL A   1      43.694  31.575  30.969  1.00  0.00     0.037 A 
ATOM     53  C   UNL A   1      44.203  25.486  28.661  1.00  0.00     0.049 A 
ATOM     54  C   UNL A   1      44.841  30.609  30.861  1.00  0.00     0.074 A 
ATOM     55  C   UNL A   1      45.342  24.705  28.567  1.00  0.00     0.029 A 
ATOM     56  N   UNL A   1      44.590  26.688  29.238  1.00  0.00    -0.354 N 
ATOM     57  N   UNL A   1      44.849  29.393  30.368  1.00  0.00    -0.248 NA
ATOM     58  C   UNL A   1      46.145  31.064  31.361  1.00  0.00     0.031 C 
ATOM     59  C   UNL A   1      46.408  25.419  29.126  1.00  0.00     0.029 A 
ATOM     60  C   UNL A   1      45.944  26.662  29.525  1.00  0.00     0.049 A 
ATOM     61  H   UNL A   1      43.989  27.447  29.418  1.00  0.00     0.167 HD
ATOM     62  C   UNL A   1      46.159  28.944  30.481  1.00  0.00     0.074 A 
ATOM     63  C   UNL A   1      46.919  30.025  31.078  1.00  0.00     0.031 C 
ATOM     64  C   UNL A   1      46.686  27.746  30.122  1.00  0.00     0.037 A 
BRANCH  51  65
ATOM     65  C   UNL A   1      42.574  23.788  27.718  1.00  0.00     0.058 A 
ATOM     66  C   UNL A   1      42.365  22.690  28.570  1.00  0.00     0.135 A 
ATOM     67  C   UNL A   1      42.513  23.561  26.335  1.00  0.00     0.135 A 
ATOM     68  F   UNL A   1      42.426  22.847  29.902  1.00  0.00    -0.206 F 
ATOM     69  C   UNL A   1      42.155  21.409  28.070  1.00  0.00     0.059 A 
ATOM     70  C   UNL A   1      42.272  22.293  25.811  1.00  0.00     0.059 A 
ATOM     71  F   UNL A   1      42.700  24.573  25.474  1.00  0.00    -0.206 F 
ATOM     72  C   UNL A   1      42.119  21.219  26.688  1.00  0.00     0.060 A 
BRANCH  72  73
ATOM     73  S   UNL A   1      41.875  19.548  26.052  1.00  0.00     0.124 S 
ATOM     74  O   UNL A   1      40.451  19.563  25.734  1.00  0.00    -0.237 OA
ATOM     75  O   UNL A   1      42.779  19.513  24.906  1.00  0.00    -0.237 OA
ATOM     76  O   UNL A   1      42.259  18.697  27.174  1.00  0.00    -0.744 OA
ENDBRANCH  72  73
ENDBRANCH  51  65
BRANCH  52  77
ATOM     77  C   UNL A   1      43.872  32.921  31.576  1.00  0.00     0.058 A 
ATOM     78  C   UNL A   1      43.679  33.124  32.949  1.00  0.00     0.135 A 
ATOM     79  C   UNL A   1      44.292  34.016  30.804  1.00  0.00     0.135 A 
ATOM     80  F   UNL A   1      43.271  32.110  33.727  1.00  0.00    -0.206 F 
ATOM     81  C   UNL A   1      43.894  34.366  33.540  1.00  0.00     0.059 A 
ATOM     82  C   UNL A   1      44.536  35.261  31.375  1.00  0.00     0.059 A 
ATOM     83  F   UNL A   1      44.506  33.868  29.488  1.00  0.00    -0.206 F 
ATOM     84  C   UNL A   1      44.332  35.427  32.745  1.00  0.00     0.060 A 
BRANCH  84  85
ATOM     85  S   UNL A   1      44.689  37.011  33.535  1.00  0.00     0.124 S 
ATOM     86  O   UNL A   1      45.748  36.641  34.468  1.00  0.00    -0.237 OA
ATOM     87  O   UNL A   1      45.095  37.835  32.401  1.00  0.00    -0.237 OA
ATOM     88  O   UNL A   1      43.413  37.379  34.142  1.00  0.00    -0.744 OA
ENDBRANCH  84  85
ENDBRANCH  52  77
BRANCH  64  89
ATOM     89  C   UNL A   1      48.159  27.545  30.346  1.00  0.00     0.058 A 
ATOM     90  C   UNL A   1      49.109  27.920  29.384  1.00  0.00     0.135 A 
ATOM     91  C   UNL A   1      48.628  27.020  31.561  1.00  0.00     0.135 A 
ATOM     92  F   UNL A   1      48.714  28.422  28.203  1.00  0.00    -0.206 F 
ATOM     93  C   UNL A   1      50.474  27.765  29.611  1.00  0.00     0.059 A 
ATOM     94  C   UNL A   1      49.988  26.879  31.819  1.00  0.00     0.059 A 
ATOM     95  F   UNL A   1      47.761  26.653  32.519  1.00  0.00    -0.206 F 
ATOM     96  C   UNL A   1      50.903  27.245  30.833  1.00  0.00     0.060 A 
BRANCH  96  97
ATOM     97  S   UNL A   1      52.677  27.082  31.130  1.00  0.00     0.124 S 
ATOM     98  O   UNL A   1      53.233  27.773  29.971  1.00  0.00    -0.237 OA
ATOM     99  O   UNL A   1      52.844  27.758  32.411  1.00  0.00    -0.237 OA
ATOM    100  O   UNL A   1      52.885  25.637  31.159  1.00  0.00    -0.744 OA
ENDBRANCH  96  97
ENDBRANCH  64  89
ENDBRANCH  38  39
ENDBRANCH  30  33
ENDBRANCH  28  29
ENDBRANCH  27  28
ENDBRANCH  26  27
ENDBRANCH  25  26
ENDBRANCH   1  25
TORSDOF 22
ENDMDL
