MODEL 1
REMARK VINA RESULT:     -10.6      0.000      0.000
REMARK SMILES O=C(CSc1nc(-c2cccc(F)c2)n[nH]1)NCCCCCCNC(=O)c1ccc(-c2c3nc(c(-c4c(F)cc(S(=O)(=O)[O-])cc4F)c4ccc([nH]4)c(-c4c(F)cc(S(=O)(=O)[O-])cc4F)c4nc(c(-c5c(F)cc(S(=O)(=O)[O-])cc5F)c5ccc2[nH]5)C=C4)C=C3)cc1
REMARK SMILES IDX 20 1 19 2 18 3 17 4 1 5 2 6 3 8 4 9 5 10 6 11 16 12 7 13
REMARK SMILES IDX 15 14 8 16 9 17 14 18 10 19 12 20 11 21 13 22 21 23 22 24
REMARK SMILES IDX 23 25 24 26 25 27 26 29 27 30 28 31 92 32 29 33 91 34 30 35
REMARK SMILES IDX 31 36 32 37 85 38 33 39 90 40 84 41 86 42 34 43 89 44 83 45
REMARK SMILES IDX 82 46 35 48 69 49 48 50 68 51 49 52 52 53 67 54 87 55 50 56
REMARK SMILES IDX 51 57 66 59 88 60 53 61 36 62 37 63 46 64 38 65 39 66 45 67
REMARK SMILES IDX 47 68 40 69 41 70 42 71 43 72 44 73 70 74 71 75 80 76 72 77
REMARK SMILES IDX 73 78 79 79 81 80 74 81 75 82 76 83 77 84 78 85 54 86 55 87
REMARK SMILES IDX 64 88 56 89 57 90 63 91 65 92 58 93 59 94 60 95 61 96 62 97
REMARK H PARENT 17 7 16 15 24 28 86 47 52 58
REMARK Flexibility Score: inf
ROOT
ATOM      1  C   UNL A   1      34.337  34.667  28.223  1.00  0.00     0.002 C 
ENDROOT
BRANCH   1   2
ATOM      2  C   UNL A   1      33.082  35.373  28.753  1.00  0.00     0.021 C 
BRANCH   2   3
ATOM      3  C   UNL A   1      33.175  36.898  28.791  1.00  0.00     0.116 C 
BRANCH   3   4
ATOM      4  N   UNL A   1      33.655  37.372  30.077  1.00  0.00    -0.355 N 
ATOM      5  O   UNL A   1      31.966  36.458  31.331  1.00  0.00    -0.274 OA
ATOM      6  C   UNL A   1      32.989  37.132  31.259  1.00  0.00     0.230 C 
ATOM      7  H   UNL A   1      34.494  37.886  30.105  1.00  0.00     0.163 HD
BRANCH   6   8
ATOM      8  C   UNL A   1      33.613  37.773  32.484  1.00  0.00     0.178 C 
BRANCH   8   9
ATOM      9  S   UNL A   1      33.843  36.573  33.823  1.00  0.00    -0.077 SA
BRANCH   9  10
ATOM     10  C   UNL A   1      34.720  35.320  33.031  1.00  0.00     0.184 A 
ATOM     11  N   UNL A   1      36.012  35.264  32.827  1.00  0.00    -0.201 NA
ATOM     12  N   UNL A   1      34.102  34.303  32.374  1.00  0.00    -0.254 N 
ATOM     13  C   UNL A   1      36.140  34.200  31.958  1.00  0.00     0.182 A 
ATOM     14  N   UNL A   1      34.981  33.594  31.652  1.00  0.00    -0.153 NA
ATOM     15  H   UNL A   1      33.137  34.112  32.423  1.00  0.00     0.192 HD
BRANCH  13  16
ATOM     16  C   UNL A   1      37.412  33.812  31.378  1.00  0.00     0.024 A 
ATOM     17  C   UNL A   1      37.713  34.119  30.044  1.00  0.00     0.012 A 
ATOM     18  C   UNL A   1      38.356  33.131  32.157  1.00  0.00     0.051 A 
ATOM     19  C   UNL A   1      38.953  33.768  29.501  1.00  0.00     0.004 A 
ATOM     20  C   UNL A   1      39.577  32.772  31.601  1.00  0.00     0.123 A 
ATOM     21  C   UNL A   1      39.886  33.090  30.283  1.00  0.00     0.039 A 
ATOM     22  F   UNL A   1      40.470  32.106  32.344  1.00  0.00    -0.207 F 
ENDBRANCH  13  16
ENDBRANCH   9  10
ENDBRANCH   8   9
ENDBRANCH   6   8
ENDBRANCH   3   4
ENDBRANCH   2   3
ENDBRANCH   1   2
BRANCH   1  23
ATOM     23  C   UNL A   1      34.231  33.143  28.100  1.00  0.00     0.002 C 
BRANCH  23  24
ATOM     24  C   UNL A   1      35.568  32.403  28.002  1.00  0.00     0.021 C 
BRANCH  24  25
ATOM     25  C   UNL A   1      35.549  30.969  28.523  1.00  0.00     0.116 C 
BRANCH  25  26
ATOM     26  N   UNL A   1      35.529  30.908  29.976  1.00  0.00    -0.352 N 
ATOM     27  C   UNL A   1      36.449  30.356  30.834  1.00  0.00     0.251 C 
ATOM     28  H   UNL A   1      34.746  31.321  30.406  1.00  0.00     0.163 HD
ATOM     29  O   UNL A   1      36.176  30.242  32.028  1.00  0.00    -0.269 OA
BRANCH  27  30
ATOM     30  C   UNL A   1      37.752  29.881  30.321  1.00  0.00     0.039 A 
ATOM     31  C   UNL A   1      38.074  30.100  28.979  1.00  0.00     0.014 A 
ATOM     32  C   UNL A   1      38.655  29.216  31.157  1.00  0.00     0.014 A 
ATOM     33  C   UNL A   1      39.321  29.701  28.491  1.00  0.00     0.010 A 
ATOM     34  C   UNL A   1      39.925  28.888  30.688  1.00  0.00     0.010 A 
ATOM     35  C   UNL A   1      40.271  29.121  29.349  1.00  0.00    -0.014 A 
BRANCH  35  36
ATOM     36  C   UNL A   1      41.623  28.736  28.862  1.00  0.00     0.031 A 
ATOM     37  C   UNL A   1      42.715  29.771  28.781  1.00  0.00     0.074 A 
ATOM     38  C   UNL A   1      41.857  27.472  28.452  1.00  0.00     0.049 A 
ATOM     39  N   UNL A   1      43.928  29.653  28.308  1.00  0.00    -0.248 NA
ATOM     40  C   UNL A   1      42.397  31.121  29.277  1.00  0.00     0.031 C 
ATOM     41  C   UNL A   1      40.875  26.385  28.457  1.00  0.00     0.029 A 
ATOM     42  N   UNL A   1      42.992  26.886  27.948  1.00  0.00    -0.354 N 
ATOM     43  C   UNL A   1      44.514  30.905  28.446  1.00  0.00     0.074 A 
ATOM     44  C   UNL A   1      43.507  31.787  28.992  1.00  0.00     0.031 C 
ATOM     45  C   UNL A   1      41.458  25.261  28.010  1.00  0.00     0.029 A 
ATOM     46  C   UNL A   1      42.840  25.552  27.640  1.00  0.00     0.049 A 
ATOM     47  H   UNL A   1      43.836  27.374  27.818  1.00  0.00     0.167 HD
ATOM     48  C   UNL A   1      45.786  31.280  28.172  1.00  0.00     0.037 A 
ATOM     49  C   UNL A   1      43.711  24.668  27.115  1.00  0.00     0.037 A 
ATOM     50  C   UNL A   1      46.796  30.390  27.661  1.00  0.00     0.049 A 
ATOM     51  C   UNL A   1      45.109  25.122  26.788  1.00  0.00     0.074 A 
ATOM     52  C   UNL A   1      48.123  30.672  27.382  1.00  0.00     0.029 A 
ATOM     53  N   UNL A   1      46.600  29.051  27.364  1.00  0.00    -0.354 N 
ATOM     54  N   UNL A   1      45.653  26.305  26.956  1.00  0.00    -0.248 NA
ATOM     55  C   UNL A   1      46.017  24.125  26.203  1.00  0.00     0.031 C 
ATOM     56  C   UNL A   1      48.718  29.514  26.875  1.00  0.00     0.029 A 
ATOM     57  C   UNL A   1      47.778  28.496  26.893  1.00  0.00     0.049 A 
ATOM     58  H   UNL A   1      45.751  28.566  27.472  1.00  0.00     0.167 HD
ATOM     59  C   UNL A   1      46.973  26.181  26.537  1.00  0.00     0.074 A 
ATOM     60  C   UNL A   1      47.150  24.808  26.112  1.00  0.00     0.031 C 
ATOM     61  C   UNL A   1      47.950  27.119  26.504  1.00  0.00     0.037 A 
BRANCH  48  62
ATOM     62  C   UNL A   1      46.188  32.703  28.447  1.00  0.00     0.058 A 
ATOM     63  C   UNL A   1      46.610  33.093  29.727  1.00  0.00     0.135 A 
ATOM     64  C   UNL A   1      46.039  33.702  27.472  1.00  0.00     0.135 A 
ATOM     65  F   UNL A   1      46.777  32.177  30.693  1.00  0.00    -0.206 F 
ATOM     66  C   UNL A   1      46.832  34.429  30.043  1.00  0.00     0.059 A 
ATOM     67  C   UNL A   1      46.282  35.042  27.758  1.00  0.00     0.059 A 
ATOM     68  F   UNL A   1      45.662  33.378  26.225  1.00  0.00    -0.206 F 
ATOM     69  C   UNL A   1      46.656  35.398  29.053  1.00  0.00     0.060 A 
BRANCH  69  70
ATOM     70  S   UNL A   1      46.922  37.130  29.488  1.00  0.00     0.124 S 
ATOM     71  O   UNL A   1      46.903  37.081  30.945  1.00  0.00    -0.237 OA
ATOM     72  O   UNL A   1      48.219  37.400  28.875  1.00  0.00    -0.237 OA
ATOM     73  O   UNL A   1      45.790  37.812  28.866  1.00  0.00    -0.744 OA
ENDBRANCH  69  70
ENDBRANCH  48  62
BRANCH  49  74
ATOM     74  C   UNL A   1      43.301  23.255  26.882  1.00  0.00     0.058 A 
ATOM     75  C   UNL A   1      43.037  22.771  25.591  1.00  0.00     0.135 A 
ATOM     76  C   UNL A   1      43.186  22.352  27.951  1.00  0.00     0.135 A 
ATOM     77  F   UNL A   1      43.120  23.592  24.533  1.00  0.00    -0.206 F 
ATOM     78  C   UNL A   1      42.669  21.449  25.370  1.00  0.00     0.059 A 
ATOM     79  C   UNL A   1      42.849  21.016  27.751  1.00  0.00     0.059 A 
ATOM     80  F   UNL A   1      43.438  22.763  29.203  1.00  0.00    -0.206 F 
ATOM     81  C   UNL A   1      42.583  20.576  26.456  1.00  0.00     0.060 A 
BRANCH  81  82
ATOM     82  S   UNL A   1      42.145  18.853  26.139  1.00  0.00     0.124 S 
ATOM     83  O   UNL A   1      43.076  18.507  25.071  1.00  0.00    -0.237 OA
ATOM     84  O   UNL A   1      42.403  18.230  27.434  1.00  0.00    -0.237 OA
ATOM     85  O   UNL A   1      40.740  18.929  25.751  1.00  0.00    -0.744 OA
ENDBRANCH  81  82
ENDBRANCH  49  74
BRANCH  61  86
ATOM     86  C   UNL A   1      49.320  26.699  26.048  1.00  0.00     0.058 A 
ATOM     87  C   UNL A   1      50.228  26.142  26.963  1.00  0.00     0.135 A 
ATOM     88  C   UNL A   1      49.767  26.930  24.738  1.00  0.00     0.135 A 
ATOM     89  F   UNL A   1      49.854  25.906  28.231  1.00  0.00    -0.206 F 
ATOM     90  C   UNL A   1      51.539  25.851  26.602  1.00  0.00     0.059 A 
ATOM     91  C   UNL A   1      51.066  26.618  24.347  1.00  0.00     0.059 A 
ATOM     92  F   UNL A   1      48.935  27.453  23.823  1.00  0.00    -0.206 F 
ATOM     93  C   UNL A   1      51.950  26.096  25.292  1.00  0.00     0.060 A 
BRANCH  93  94
ATOM     94  S   UNL A   1      53.654  25.710  24.840  1.00  0.00     0.124 S 
ATOM     95  O   UNL A   1      53.886  24.472  25.576  1.00  0.00    -0.237 OA
ATOM     96  O   UNL A   1      53.564  25.578  23.389  1.00  0.00    -0.237 OA
ATOM     97  O   UNL A   1      54.402  26.871  25.313  1.00  0.00    -0.744 OA
ENDBRANCH  93  94
ENDBRANCH  61  86
ENDBRANCH  35  36
ENDBRANCH  27  30
ENDBRANCH  25  26
ENDBRANCH  24  25
ENDBRANCH  23  24
ENDBRANCH   1  23
TORSDOF 19
ENDMDL
MODEL 2
REMARK VINA RESULT:     -10.6      0.404      8.169
REMARK SMILES O=C(CSc1nc(-c2cccc(F)c2)n[nH]1)NCCCCCCNC(=O)c1ccc(-c2c3nc(c(-c4c(F)cc(S(=O)(=O)[O-])cc4F)c4ccc([nH]4)c(-c4c(F)cc(S(=O)(=O)[O-])cc4F)c4nc(c(-c5c(F)cc(S(=O)(=O)[O-])cc5F)c5ccc2[nH]5)C=C4)C=C3)cc1
REMARK SMILES IDX 20 1 19 2 18 3 17 4 1 5 2 6 3 8 4 9 5 10 6 11 16 12 7 13
REMARK SMILES IDX 15 14 8 16 9 17 14 18 10 19 12 20 11 21 13 22 21 23 22 24
REMARK SMILES IDX 23 25 24 26 25 27 26 29 27 30 28 31 92 32 29 33 91 34 30 35
REMARK SMILES IDX 31 36 32 37 85 38 33 39 90 40 84 41 86 42 34 43 89 44 83 45
REMARK SMILES IDX 82 46 35 48 69 49 48 50 68 51 49 52 52 53 67 54 87 55 50 56
REMARK SMILES IDX 51 57 66 59 88 60 53 61 36 62 37 63 46 64 38 65 39 66 45 67
REMARK SMILES IDX 47 68 40 69 41 70 42 71 43 72 44 73 70 74 71 75 80 76 72 77
REMARK SMILES IDX 73 78 79 79 81 80 74 81 75 82 76 83 77 84 78 85 54 86 55 87
REMARK SMILES IDX 64 88 56 89 57 90 63 91 65 92 58 93 59 94 60 95 61 96 62 97
REMARK H PARENT 17 7 16 15 24 28 86 47 52 58
REMARK Flexibility Score: inf
ROOT
ATOM      1  C   UNL A   1      34.449  34.584  28.414  1.00  0.00     0.002 C 
ENDROOT
BRANCH   1   2
ATOM      2  C   UNL A   1      33.133  35.287  28.771  1.00  0.00     0.021 C 
BRANCH   2   3
ATOM      3  C   UNL A   1      33.217  36.813  28.821  1.00  0.00     0.116 C 
BRANCH   3   4
ATOM      4  N   UNL A   1      33.697  37.279  30.109  1.00  0.00    -0.355 N 
ATOM      5  O   UNL A   1      31.945  36.465  31.345  1.00  0.00    -0.274 OA
ATOM      6  C   UNL A   1      33.000  37.088  31.282  1.00  0.00     0.230 C 
ATOM      7  H   UNL A   1      34.560  37.753  30.145  1.00  0.00     0.163 HD
BRANCH   6   8
ATOM      8  C   UNL A   1      33.634  37.714  32.509  1.00  0.00     0.178 C 
BRANCH   8   9
ATOM      9  S   UNL A   1      33.830  36.509  33.850  1.00  0.00    -0.077 SA
BRANCH   9  10
ATOM     10  C   UNL A   1      34.723  35.257  33.075  1.00  0.00     0.184 A 
ATOM     11  N   UNL A   1      36.012  35.227  32.849  1.00  0.00    -0.201 NA
ATOM     12  N   UNL A   1      34.119  34.209  32.456  1.00  0.00    -0.254 N 
ATOM     13  C   UNL A   1      36.150  34.144  32.007  1.00  0.00     0.182 A 
ATOM     14  N   UNL A   1      35.002  33.502  31.737  1.00  0.00    -0.153 NA
ATOM     15  H   UNL A   1      33.159  33.996  32.528  1.00  0.00     0.192 HD
BRANCH  13  16
ATOM     16  C   UNL A   1      37.421  33.770  31.414  1.00  0.00     0.024 A 
ATOM     17  C   UNL A   1      37.671  34.001  30.054  1.00  0.00     0.012 A 
ATOM     18  C   UNL A   1      38.415  33.182  32.206  1.00  0.00     0.051 A 
ATOM     19  C   UNL A   1      38.909  33.667  29.497  1.00  0.00     0.004 A 
ATOM     20  C   UNL A   1      39.634  32.837  31.637  1.00  0.00     0.123 A 
ATOM     21  C   UNL A   1      39.893  33.080  30.292  1.00  0.00     0.039 A 
ATOM     22  F   UNL A   1      40.575  32.258  32.394  1.00  0.00    -0.207 F 
ENDBRANCH  13  16
ENDBRANCH   9  10
ENDBRANCH   8   9
ENDBRANCH   6   8
ENDBRANCH   3   4
ENDBRANCH   2   3
ENDBRANCH   1   2
BRANCH   1  23
ATOM     23  C   UNL A   1      34.320  33.107  28.025  1.00  0.00     0.002 C 
BRANCH  23  24
ATOM     24  C   UNL A   1      35.640  32.334  27.956  1.00  0.00     0.021 C 
BRANCH  24  25
ATOM     25  C   UNL A   1      35.573  30.901  28.475  1.00  0.00     0.116 C 
BRANCH  25  26
ATOM     26  N   UNL A   1      35.573  30.839  29.929  1.00  0.00    -0.352 N 
ATOM     27  C   UNL A   1      36.526  30.328  30.776  1.00  0.00     0.251 C 
ATOM     28  H   UNL A   1      34.778  31.217  30.368  1.00  0.00     0.163 HD
ATOM     29  O   UNL A   1      36.272  30.201  31.973  1.00  0.00    -0.269 OA
BRANCH  27  30
ATOM     30  C   UNL A   1      37.843  29.910  30.248  1.00  0.00     0.039 A 
ATOM     31  C   UNL A   1      38.096  30.035  28.879  1.00  0.00     0.014 A 
ATOM     32  C   UNL A   1      38.826  29.391  31.095  1.00  0.00     0.014 A 
ATOM     33  C   UNL A   1      39.352  29.692  28.372  1.00  0.00     0.010 A 
ATOM     34  C   UNL A   1      40.100  29.123  30.600  1.00  0.00     0.010 A 
ATOM     35  C   UNL A   1      40.376  29.263  29.232  1.00  0.00    -0.014 A 
BRANCH  35  36
ATOM     36  C   UNL A   1      41.736  28.941  28.720  1.00  0.00     0.031 A 
ATOM     37  C   UNL A   1      42.060  27.537  28.280  1.00  0.00     0.074 A 
ATOM     38  C   UNL A   1      42.689  29.896  28.694  1.00  0.00     0.049 A 
ATOM     39  N   UNL A   1      43.203  27.041  27.885  1.00  0.00    -0.248 NA
ATOM     40  C   UNL A   1      40.961  26.556  28.305  1.00  0.00     0.031 C 
ATOM     41  C   UNL A   1      42.506  31.287  29.118  1.00  0.00     0.029 A 
ATOM     42  N   UNL A   1      44.002  29.844  28.296  1.00  0.00    -0.354 N 
ATOM     43  C   UNL A   1      42.964  25.699  27.619  1.00  0.00     0.074 A 
ATOM     44  C   UNL A   1      41.581  25.439  27.952  1.00  0.00     0.031 C 
ATOM     45  C   UNL A   1      43.652  31.960  28.928  1.00  0.00     0.029 A 
ATOM     46  C   UNL A   1      44.667  31.044  28.415  1.00  0.00     0.049 A 
ATOM     47  H   UNL A   1      44.428  29.025  27.957  1.00  0.00     0.167 HD
ATOM     48  C   UNL A   1      43.811  24.772  27.112  1.00  0.00     0.037 A 
ATOM     49  C   UNL A   1      45.948  31.368  28.148  1.00  0.00     0.037 A 
ATOM     50  C   UNL A   1      45.178  25.043  26.749  1.00  0.00     0.049 A 
ATOM     51  C   UNL A   1      46.877  30.307  27.617  1.00  0.00     0.074 A 
ATOM     52  C   UNL A   1      46.104  24.174  26.197  1.00  0.00     0.029 A 
ATOM     53  N   UNL A   1      45.810  26.268  26.885  1.00  0.00    -0.354 N 
ATOM     54  N   UNL A   1      46.621  29.049  27.343  1.00  0.00    -0.248 NA
ATOM     55  C   UNL A   1      48.267  30.706  27.356  1.00  0.00     0.031 C 
ATOM     56  C   UNL A   1      47.310  24.863  26.041  1.00  0.00     0.029 A 
ATOM     57  C   UNL A   1      47.118  26.175  26.440  1.00  0.00     0.049 A 
ATOM     58  H   UNL A   1      45.392  27.084  27.244  1.00  0.00     0.167 HD
ATOM     59  C   UNL A   1      47.806  28.521  26.840  1.00  0.00     0.074 A 
ATOM     60  C   UNL A   1      48.777  29.595  26.842  1.00  0.00     0.031 C 
ATOM     61  C   UNL A   1      48.066  27.261  26.417  1.00  0.00     0.037 A 
BRANCH  48  62
ATOM     62  C   UNL A   1      43.293  23.380  26.880  1.00  0.00     0.058 A 
ATOM     63  C   UNL A   1      43.161  22.476  27.946  1.00  0.00     0.135 A 
ATOM     64  C   UNL A   1      43.043  22.904  25.582  1.00  0.00     0.135 A 
ATOM     65  F   UNL A   1      43.380  22.882  29.207  1.00  0.00    -0.206 F 
ATOM     66  C   UNL A   1      42.839  21.141  27.731  1.00  0.00     0.059 A 
ATOM     67  C   UNL A   1      42.692  21.578  25.347  1.00  0.00     0.059 A 
ATOM     68  F   UNL A   1      43.131  23.734  24.530  1.00  0.00    -0.206 F 
ATOM     69  C   UNL A   1      42.615  20.699  26.426  1.00  0.00     0.060 A 
BRANCH  69  70
ATOM     70  S   UNL A   1      42.224  18.957  26.164  1.00  0.00     0.124 S 
ATOM     71  O   UNL A   1      42.647  18.359  27.425  1.00  0.00    -0.237 OA
ATOM     72  O   UNL A   1      40.784  19.001  25.929  1.00  0.00    -0.237 OA
ATOM     73  O   UNL A   1      43.029  18.601  24.998  1.00  0.00    -0.744 OA
ENDBRANCH  69  70
ENDBRANCH  48  62
BRANCH  49  74
ATOM     74  C   UNL A   1      46.431  32.761  28.354  1.00  0.00     0.058 A 
ATOM     75  C   UNL A   1      46.383  33.714  27.324  1.00  0.00     0.135 A 
ATOM     76  C   UNL A   1      46.935  33.174  29.598  1.00  0.00     0.135 A 
ATOM     77  F   UNL A   1      45.922  33.374  26.111  1.00  0.00    -0.206 F 
ATOM     78  C   UNL A   1      46.820  35.020  27.518  1.00  0.00     0.059 A 
ATOM     79  C   UNL A   1      47.350  34.483  29.825  1.00  0.00     0.059 A 
ATOM     80  F   UNL A   1      46.993  32.303  30.617  1.00  0.00    -0.206 F 
ATOM     81  C   UNL A   1      47.297  35.397  28.775  1.00  0.00     0.060 A 
BRANCH  81  82
ATOM     82  S   UNL A   1      47.820  37.109  29.015  1.00  0.00     0.124 S 
ATOM     83  O   UNL A   1      46.649  37.682  29.670  1.00  0.00    -0.237 OA
ATOM     84  O   UNL A   1      49.004  36.951  29.855  1.00  0.00    -0.237 OA
ATOM     85  O   UNL A   1      48.074  37.577  27.657  1.00  0.00    -0.744 OA
ENDBRANCH  81  82
ENDBRANCH  49  74
BRANCH  61  86
ATOM     86  C   UNL A   1      49.433  26.968  25.865  1.00  0.00     0.058 A 
ATOM     87  C   UNL A   1      50.471  26.568  26.722  1.00  0.00     0.135 A 
ATOM     88  C   UNL A   1      49.743  27.172  24.511  1.00  0.00     0.135 A 
ATOM     89  F   UNL A   1      50.231  26.365  28.028  1.00  0.00    -0.206 F 
ATOM     90  C   UNL A   1      51.772  26.402  26.263  1.00  0.00     0.059 A 
ATOM     91  C   UNL A   1      51.033  26.982  24.024  1.00  0.00     0.059 A 
ATOM     92  F   UNL A   1      48.786  27.546  23.648  1.00  0.00    -0.206 F 
ATOM     93  C   UNL A   1      52.045  26.616  24.912  1.00  0.00     0.060 A 
BRANCH  93  94
ATOM     94  S   UNL A   1      53.740  26.394  24.333  1.00  0.00     0.124 S 
ATOM     95  O   UNL A   1      54.240  25.378  25.252  1.00  0.00    -0.237 OA
ATOM     96  O   UNL A   1      53.538  25.958  22.953  1.00  0.00    -0.237 OA
ATOM     97  O   UNL A   1      54.327  27.722  24.484  1.00  0.00    -0.744 OA
ENDBRANCH  93  94
ENDBRANCH  61  86
ENDBRANCH  35  36
ENDBRANCH  27  30
ENDBRANCH  25  26
ENDBRANCH  24  25
ENDBRANCH  23  24
ENDBRANCH   1  23
TORSDOF 19
ENDMDL
MODEL 3
REMARK VINA RESULT:     -10.4      4.491      6.832
REMARK SMILES O=C(CSc1nc(-c2cccc(F)c2)n[nH]1)NCCCCCCNC(=O)c1ccc(-c2c3nc(c(-c4c(F)cc(S(=O)(=O)[O-])cc4F)c4ccc([nH]4)c(-c4c(F)cc(S(=O)(=O)[O-])cc4F)c4nc(c(-c5c(F)cc(S(=O)(=O)[O-])cc5F)c5ccc2[nH]5)C=C4)C=C3)cc1
REMARK SMILES IDX 20 1 19 2 18 3 17 4 1 5 2 6 3 8 4 9 5 10 6 11 16 12 7 13
REMARK SMILES IDX 15 14 8 16 9 17 14 18 10 19 12 20 11 21 13 22 21 23 22 24
REMARK SMILES IDX 23 25 24 26 25 27 26 29 27 30 28 31 92 32 29 33 91 34 30 35
REMARK SMILES IDX 31 36 32 37 85 38 33 39 90 40 84 41 86 42 34 43 89 44 83 45
REMARK SMILES IDX 82 46 35 48 69 49 48 50 68 51 49 52 52 53 67 54 87 55 50 56
REMARK SMILES IDX 51 57 66 59 88 60 53 61 36 62 37 63 46 64 38 65 39 66 45 67
REMARK SMILES IDX 47 68 40 69 41 70 42 71 43 72 44 73 70 74 71 75 80 76 72 77
REMARK SMILES IDX 73 78 79 79 81 80 74 81 75 82 76 83 77 84 78 85 54 86 55 87
REMARK SMILES IDX 64 88 56 89 57 90 63 91 65 92 58 93 59 94 60 95 61 96 62 97
REMARK H PARENT 17 7 16 15 24 28 86 47 52 58
REMARK Flexibility Score: inf
ROOT
ATOM      1  C   UNL A   1      31.251  29.288  24.875  1.00  0.00     0.002 C 
ENDROOT
BRANCH   1   2
ATOM      2  C   UNL A   1      30.278  29.091  23.705  1.00  0.00     0.021 C 
BRANCH   2   3
ATOM      3  C   UNL A   1      30.946  28.933  22.339  1.00  0.00     0.116 C 
BRANCH   3   4
ATOM      4  N   UNL A   1      31.212  27.539  22.033  1.00  0.00    -0.355 N 
ATOM      5  O   UNL A   1      33.476  27.627  22.394  1.00  0.00    -0.274 OA
ATOM      6  C   UNL A   1      32.478  26.995  22.061  1.00  0.00     0.230 C 
ATOM      7  H   UNL A   1      30.454  26.956  21.797  1.00  0.00     0.163 HD
BRANCH   6   8
ATOM      8  C   UNL A   1      32.556  25.540  21.639  1.00  0.00     0.178 C 
BRANCH   8   9
ATOM      9  S   UNL A   1      31.811  24.444  22.876  1.00  0.00    -0.077 SA
BRANCH   9  10
ATOM     10  C   UNL A   1      33.093  24.266  24.012  1.00  0.00     0.184 A 
ATOM     11  N   UNL A   1      34.297  23.806  23.782  1.00  0.00    -0.201 NA
ATOM     12  N   UNL A   1      32.912  24.445  25.347  1.00  0.00    -0.254 N 
ATOM     13  C   UNL A   1      34.815  23.653  25.051  1.00  0.00     0.182 A 
ATOM     14  N   UNL A   1      33.983  24.027  26.037  1.00  0.00    -0.153 NA
ATOM     15  H   UNL A   1      32.102  24.830  25.753  1.00  0.00     0.192 HD
BRANCH  13  16
ATOM     16  C   UNL A   1      36.124  23.077  25.298  1.00  0.00     0.024 A 
ATOM     17  C   UNL A   1      37.123  23.823  25.939  1.00  0.00     0.012 A 
ATOM     18  C   UNL A   1      36.393  21.760  24.905  1.00  0.00     0.051 A 
ATOM     19  C   UNL A   1      38.372  23.251  26.201  1.00  0.00     0.004 A 
ATOM     20  C   UNL A   1      37.643  21.210  25.154  1.00  0.00     0.123 A 
ATOM     21  C   UNL A   1      38.632  21.940  25.805  1.00  0.00     0.039 A 
ATOM     22  F   UNL A   1      37.903  19.957  24.760  1.00  0.00    -0.207 F 
ENDBRANCH  13  16
ENDBRANCH   9  10
ENDBRANCH   8   9
ENDBRANCH   6   8
ENDBRANCH   3   4
ENDBRANCH   2   3
ENDBRANCH   1   2
BRANCH   1  23
ATOM     23  C   UNL A   1      31.683  28.006  25.593  1.00  0.00     0.002 C 
BRANCH  23  24
ATOM     24  C   UNL A   1      33.186  27.881  25.857  1.00  0.00     0.021 C 
BRANCH  24  25
ATOM     25  C   UNL A   1      33.623  28.235  27.275  1.00  0.00     0.116 C 
BRANCH  25  26
ATOM     26  N   UNL A   1      33.516  29.660  27.548  1.00  0.00    -0.352 N 
ATOM     27  C   UNL A   1      34.448  30.513  28.088  1.00  0.00     0.251 C 
ATOM     28  H   UNL A   1      32.655  30.073  27.311  1.00  0.00     0.163 HD
ATOM     29  O   UNL A   1      34.117  31.653  28.409  1.00  0.00    -0.269 OA
BRANCH  27  30
ATOM     30  C   UNL A   1      35.838  30.054  28.303  1.00  0.00     0.039 A 
ATOM     31  C   UNL A   1      36.743  30.108  27.239  1.00  0.00     0.014 A 
ATOM     32  C   UNL A   1      36.250  29.565  29.546  1.00  0.00     0.014 A 
ATOM     33  C   UNL A   1      38.072  29.726  27.438  1.00  0.00     0.010 A 
ATOM     34  C   UNL A   1      37.592  29.257  29.762  1.00  0.00     0.010 A 
ATOM     35  C   UNL A   1      38.517  29.327  28.710  1.00  0.00    -0.014 A 
BRANCH  35  36
ATOM     36  C   UNL A   1      39.938  28.964  28.957  1.00  0.00     0.031 A 
ATOM     37  C   UNL A   1      40.882  29.982  29.542  1.00  0.00     0.074 A 
ATOM     38  C   UNL A   1      40.390  27.740  28.614  1.00  0.00     0.049 A 
ATOM     39  N   UNL A   1      42.169  29.886  29.752  1.00  0.00    -0.248 NA
ATOM     40  C   UNL A   1      40.311  31.285  29.922  1.00  0.00     0.031 C 
ATOM     41  C   UNL A   1      39.581  26.675  28.015  1.00  0.00     0.029 A 
ATOM     42  N   UNL A   1      41.641  27.182  28.716  1.00  0.00    -0.354 N 
ATOM     43  C   UNL A   1      42.560  31.109  30.283  1.00  0.00     0.074 A 
ATOM     44  C   UNL A   1      41.388  31.955  30.311  1.00  0.00     0.031 C 
ATOM     45  C   UNL A   1      40.346  25.588  27.834  1.00  0.00     0.029 A 
ATOM     46  C   UNL A   1      41.711  25.886  28.256  1.00  0.00     0.049 A 
ATOM     47  H   UNL A   1      42.415  27.665  29.084  1.00  0.00     0.167 HD
ATOM     48  C   UNL A   1      43.779  31.484  30.738  1.00  0.00     0.037 A 
ATOM     49  C   UNL A   1      42.757  25.039  28.177  1.00  0.00     0.037 A 
ATOM     50  C   UNL A   1      44.936  30.627  30.742  1.00  0.00     0.049 A 
ATOM     51  C   UNL A   1      44.109  25.496  28.659  1.00  0.00     0.074 A 
ATOM     52  C   UNL A   1      46.208  30.909  31.213  1.00  0.00     0.029 A 
ATOM     53  N   UNL A   1      44.964  29.326  30.269  1.00  0.00    -0.354 N 
ATOM     54  N   UNL A   1      44.450  26.648  29.187  1.00  0.00    -0.248 NA
ATOM     55  C   UNL A   1      45.220  24.541  28.538  1.00  0.00     0.031 C 
ATOM     56  C   UNL A   1      47.015  29.793  30.983  1.00  0.00     0.029 A 
ATOM     57  C   UNL A   1      46.234  28.795  30.424  1.00  0.00     0.049 A 
ATOM     58  H   UNL A   1      44.196  28.848  29.880  1.00  0.00     0.167 HD
ATOM     59  C   UNL A   1      45.802  26.538  29.498  1.00  0.00     0.074 A 
ATOM     60  C   UNL A   1      46.215  25.209  29.105  1.00  0.00     0.031 C 
ATOM     61  C   UNL A   1      46.626  27.458  30.057  1.00  0.00     0.037 A 
BRANCH  48  62
ATOM     62  C   UNL A   1      43.937  32.867  31.307  1.00  0.00     0.058 A 
ATOM     63  C   UNL A   1      44.376  33.928  30.500  1.00  0.00     0.135 A 
ATOM     64  C   UNL A   1      43.768  33.113  32.679  1.00  0.00     0.135 A 
ATOM     65  F   UNL A   1      44.544  33.749  29.181  1.00  0.00    -0.206 F 
ATOM     66  C   UNL A   1      44.681  35.173  31.040  1.00  0.00     0.059 A 
ATOM     67  C   UNL A   1      44.041  34.358  33.236  1.00  0.00     0.059 A 
ATOM     68  F   UNL A   1      43.325  32.138  33.491  1.00  0.00    -0.206 F 
ATOM     69  C   UNL A   1      44.519  35.376  32.412  1.00  0.00     0.060 A 
BRANCH  69  70
ATOM     70  S   UNL A   1      44.946  36.989  33.099  1.00  0.00     0.124 S 
ATOM     71  O   UNL A   1      45.603  37.634  31.968  1.00  0.00    -0.237 OA
ATOM     72  O   UNL A   1      43.635  37.520  33.463  1.00  0.00    -0.237 OA
ATOM     73  O   UNL A   1      45.814  36.658  34.226  1.00  0.00    -0.744 OA
ENDBRANCH  69  70
ENDBRANCH  48  62
BRANCH  49  74
ATOM     74  C   UNL A   1      42.571  23.662  27.642  1.00  0.00     0.058 A 
ATOM     75  C   UNL A   1      42.620  23.397  26.264  1.00  0.00     0.135 A 
ATOM     76  C   UNL A   1      42.360  22.575  28.505  1.00  0.00     0.135 A 
ATOM     77  F   UNL A   1      42.808  24.400  25.392  1.00  0.00    -0.206 F 
ATOM     78  C   UNL A   1      42.462  22.111  25.762  1.00  0.00     0.059 A 
ATOM     79  C   UNL A   1      42.229  21.273  28.028  1.00  0.00     0.059 A 
ATOM     80  F   UNL A   1      42.314  22.773  29.831  1.00  0.00    -0.206 F 
ATOM     81  C   UNL A   1      42.273  21.053  26.654  1.00  0.00     0.060 A 
BRANCH  81  82
ATOM     82  S   UNL A   1      42.112  19.384  25.981  1.00  0.00     0.124 S 
ATOM     83  O   UNL A   1      42.968  19.461  24.803  1.00  0.00    -0.237 OA
ATOM     84  O   UNL A   1      42.614  18.564  27.080  1.00  0.00    -0.237 OA
ATOM     85  O   UNL A   1      40.682  19.264  25.715  1.00  0.00    -0.744 OA
ENDBRANCH  81  82
ENDBRANCH  49  74
BRANCH  61  86
ATOM     86  C   UNL A   1      48.047  27.056  30.336  1.00  0.00     0.058 A 
ATOM     87  C   UNL A   1      48.391  26.487  31.573  1.00  0.00     0.135 A 
ATOM     88  C   UNL A   1      49.082  27.318  29.425  1.00  0.00     0.135 A 
ATOM     89  F   UNL A   1      47.441  26.223  32.484  1.00  0.00    -0.206 F 
ATOM     90  C   UNL A   1      49.712  26.213  31.907  1.00  0.00     0.059 A 
ATOM     91  C   UNL A   1      50.409  27.023  29.725  1.00  0.00     0.059 A 
ATOM     92  F   UNL A   1      48.806  27.853  28.225  1.00  0.00    -0.206 F 
ATOM     93  C   UNL A   1      50.715  26.488  30.977  1.00  0.00     0.060 A 
BRANCH  93  94
ATOM     94  S   UNL A   1      52.425  26.123  31.426  1.00  0.00     0.124 S 
ATOM     95  O   UNL A   1      52.728  27.205  32.357  1.00  0.00    -0.237 OA
ATOM     96  O   UNL A   1      52.310  24.792  32.016  1.00  0.00    -0.237 OA
ATOM     97  O   UNL A   1      53.131  26.177  30.149  1.00  0.00    -0.744 OA
ENDBRANCH  93  94
ENDBRANCH  61  86
ENDBRANCH  35  36
ENDBRANCH  27  30
ENDBRANCH  25  26
ENDBRANCH  24  25
ENDBRANCH  23  24
ENDBRANCH   1  23
TORSDOF 19
ENDMDL
