MODEL 1
REMARK VINA RESULT:     -10.6      0.000      0.000
REMARK SMILES CCC(CC)NC(=O)N[C@@H]1C=C[C@@H](C(=O)NCCCCCCNC(=O)c2ccc(-c3c4nc(c(-c5c(F)cc(S(=O)(=O)[O-])cc5F)c5ccc([nH]5)c(-c5c(F)cc(S(=O)(=O)[O-])cc5F)c5nc(c(-c6c(F)cc(S(=O)(=O)[O-])cc6F)c6ccc3[nH]6)C=C5)C=C4)cc2)C1
REMARK SMILES IDX 19 1 18 2 17 3 16 4 14 5 15 6 13 8 10 9 11 10 92 11 12 12
REMARK SMILES IDX 9 13 6 14 7 15 8 17 3 19 2 20 1 21 4 22 5 23 20 24 21 25
REMARK SMILES IDX 22 26 23 27 24 28 25 30 26 31 27 32 91 33 28 34 90 35 29 36
REMARK SMILES IDX 30 37 31 38 84 39 32 40 89 41 83 42 85 43 33 44 88 45 82 46
REMARK SMILES IDX 81 47 34 49 68 50 47 51 67 52 48 53 51 54 66 55 86 56 49 57
REMARK SMILES IDX 50 58 65 60 87 61 52 62 35 63 36 64 45 65 37 66 38 67 44 68
REMARK SMILES IDX 46 69 39 70 40 71 41 72 42 73 43 74 69 75 70 76 79 77 71 78
REMARK SMILES IDX 72 79 78 80 80 81 73 82 74 83 75 84 76 85 77 86 53 87 54 88
REMARK SMILES IDX 63 89 55 90 56 91 62 92 64 93 57 94 58 95 59 96 60 97 61 98
REMARK H PARENT 16 7 6 16 9 18 23 29 85 48 51 59
REMARK Flexibility Score: inf
ROOT
ATOM      1  C   UNL A   1      31.880  28.625  24.435  1.00  0.00     0.002 C 
ENDROOT
BRANCH   1   2
ATOM      2  C   UNL A   1      31.820  28.414  22.923  1.00  0.00     0.021 C 
BRANCH   2   3
ATOM      3  C   UNL A   1      31.091  27.151  22.524  1.00  0.00     0.116 C 
BRANCH   3   4
ATOM      4  N   UNL A   1      31.649  26.632  21.300  1.00  0.00    -0.356 N 
ATOM      5  C   UNL A   1      32.532  25.617  21.150  1.00  0.00     0.227 C 
ATOM      6  O   UNL A   1      33.045  25.448  20.043  1.00  0.00    -0.274 OA
ATOM      7  H   UNL A   1      31.350  27.070  20.469  1.00  0.00     0.163 HD
BRANCH   5   8
ATOM      8  C   UNL A   1      32.845  24.683  22.309  1.00  0.00     0.103 C 
ATOM      9  C   UNL A   1      34.234  22.951  23.268  1.00  0.00     0.107 C 
ATOM     10  C   UNL A   1      34.567  24.268  23.871  1.00  0.00    -0.006 C 
ATOM     11  C   UNL A   1      33.429  23.310  22.006  1.00  0.00     0.047 C 
ATOM     12  C   UNL A   1      33.824  25.242  23.323  1.00  0.00    -0.016 C 
BRANCH   9  13
ATOM     13  N   UNL A   1      33.610  22.006  24.198  1.00  0.00    -0.332 N 
ATOM     14  N   UNL A   1      34.849  21.266  26.117  1.00  0.00    -0.335 N 
ATOM     15  C   UNL A   1      33.752  21.371  25.361  1.00  0.00     0.315 C 
ATOM     16  H   UNL A   1      34.682  20.820  26.979  1.00  0.00     0.165 HD
ATOM     17  O   UNL A   1      32.741  20.796  25.785  1.00  0.00    -0.249 OA
ATOM     18  H   UNL A   1      32.746  21.733  23.812  1.00  0.00     0.165 HD
BRANCH  14  19
ATOM     19  C   UNL A   1      36.229  21.667  25.945  1.00  0.00     0.083 C 
BRANCH  19  20
ATOM     20  C   UNL A   1      36.857  21.114  24.656  1.00  0.00     0.021 C 
ATOM     21  C   UNL A   1      37.412  19.699  24.828  1.00  0.00     0.006 C 
ENDBRANCH  19  20
BRANCH  19  22
ATOM     22  C   UNL A   1      36.489  23.142  26.270  1.00  0.00     0.021 C 
ATOM     23  C   UNL A   1      37.636  23.780  25.511  1.00  0.00     0.006 C 
ENDBRANCH  19  22
ENDBRANCH  14  19
ENDBRANCH   9  13
ENDBRANCH   5   8
ENDBRANCH   3   4
ENDBRANCH   2   3
ENDBRANCH   1   2
BRANCH   1  24
ATOM     24  C   UNL A   1      31.898  27.338  25.267  1.00  0.00     0.002 C 
BRANCH  24  25
ATOM     25  C   UNL A   1      32.541  27.466  26.650  1.00  0.00     0.021 C 
BRANCH  25  26
ATOM     26  C   UNL A   1      33.825  28.280  26.678  1.00  0.00     0.116 C 
BRANCH  26  27
ATOM     27  N   UNL A   1      33.594  29.644  27.113  1.00  0.00    -0.352 N 
ATOM     28  C   UNL A   1      34.415  30.450  27.861  1.00  0.00     0.251 C 
ATOM     29  H   UNL A   1      32.738  30.044  26.836  1.00  0.00     0.163 HD
ATOM     30  O   UNL A   1      34.009  31.509  28.307  1.00  0.00    -0.269 OA
BRANCH  28  31
ATOM     31  C   UNL A   1      35.789  29.984  28.135  1.00  0.00     0.039 A 
ATOM     32  C   UNL A   1      36.750  30.112  27.134  1.00  0.00     0.014 A 
ATOM     33  C   UNL A   1      36.127  29.471  29.391  1.00  0.00     0.014 A 
ATOM     34  C   UNL A   1      38.070  29.761  27.408  1.00  0.00     0.010 A 
ATOM     35  C   UNL A   1      37.456  29.199  29.687  1.00  0.00     0.010 A 
ATOM     36  C   UNL A   1      38.438  29.331  28.694  1.00  0.00    -0.014 A 
BRANCH  36  37
ATOM     37  C   UNL A   1      39.849  29.002  29.011  1.00  0.00     0.031 A 
ATOM     38  C   UNL A   1      40.735  30.035  29.650  1.00  0.00     0.074 A 
ATOM     39  C   UNL A   1      40.338  27.791  28.680  1.00  0.00     0.049 A 
ATOM     40  N   UNL A   1      41.999  29.952  29.971  1.00  0.00    -0.248 NA
ATOM     41  C   UNL A   1      40.127  31.344  29.945  1.00  0.00     0.031 C 
ATOM     42  C   UNL A   1      39.585  26.727  28.010  1.00  0.00     0.029 A 
ATOM     43  N   UNL A   1      41.587  27.250  28.858  1.00  0.00    -0.354 N 
ATOM     44  C   UNL A   1      42.339  31.193  30.494  1.00  0.00     0.074 A 
ATOM     45  C   UNL A   1      41.166  32.032  30.392  1.00  0.00     0.031 C 
ATOM     46  C   UNL A   1      40.378  25.655  27.861  1.00  0.00     0.029 A 
ATOM     47  C   UNL A   1      41.705  25.966  28.383  1.00  0.00     0.049 A 
ATOM     48  H   UNL A   1      42.329  27.736  29.284  1.00  0.00     0.167 HD
ATOM     49  C   UNL A   1      43.515  31.588  31.036  1.00  0.00     0.037 A 
ATOM     50  C   UNL A   1      42.764  25.134  28.366  1.00  0.00     0.037 A 
ATOM     51  C   UNL A   1      44.670  30.737  31.151  1.00  0.00     0.049 A 
ATOM     52  C   UNL A   1      44.065  25.601  28.962  1.00  0.00     0.074 A 
ATOM     53  C   UNL A   1      45.891  31.019  31.739  1.00  0.00     0.029 A 
ATOM     54  N   UNL A   1      44.750  29.439  30.665  1.00  0.00    -0.354 N 
ATOM     55  N   UNL A   1      44.348  26.754  29.522  1.00  0.00    -0.248 NA
ATOM     56  C   UNL A   1      45.189  24.656  28.929  1.00  0.00     0.031 C 
ATOM     57  C   UNL A   1      46.727  29.912  31.559  1.00  0.00     0.029 A 
ATOM     58  C   UNL A   1      46.009  28.918  30.911  1.00  0.00     0.049 A 
ATOM     59  H   UNL A   1      44.019  28.960  30.212  1.00  0.00     0.167 HD
ATOM     60  C   UNL A   1      45.675  26.664  29.928  1.00  0.00     0.074 A 
ATOM     61  C   UNL A   1      46.132  25.337  29.565  1.00  0.00     0.031 C 
ATOM     62  C   UNL A   1      46.446  27.594  30.544  1.00  0.00     0.037 A 
BRANCH  49  63
ATOM     63  C   UNL A   1      43.610  33.000  31.547  1.00  0.00     0.058 A 
ATOM     64  C   UNL A   1      43.335  33.321  32.886  1.00  0.00     0.135 A 
ATOM     65  C   UNL A   1      44.016  34.041  30.696  1.00  0.00     0.135 A 
ATOM     66  F   UNL A   1      42.926  32.369  33.741  1.00  0.00    -0.206 F 
ATOM     67  C   UNL A   1      43.429  34.627  33.356  1.00  0.00     0.059 A 
ATOM     68  C   UNL A   1      44.146  35.350  31.153  1.00  0.00     0.059 A 
ATOM     69  F   UNL A   1      44.290  33.793  29.406  1.00  0.00    -0.206 F 
ATOM     70  C   UNL A   1      43.837  35.634  32.482  1.00  0.00     0.060 A 
BRANCH  70  71
ATOM     71  S   UNL A   1      43.960  37.321  33.112  1.00  0.00     0.124 S 
ATOM     72  O   UNL A   1      42.793  37.392  33.986  1.00  0.00    -0.237 OA
ATOM     73  O   UNL A   1      45.255  37.309  33.784  1.00  0.00    -0.237 OA
ATOM     74  O   UNL A   1      43.889  38.141  31.906  1.00  0.00    -0.744 OA
ENDBRANCH  70  71
ENDBRANCH  49  63
BRANCH  50  75
ATOM     75  C   UNL A   1      42.635  23.774  27.777  1.00  0.00     0.058 A 
ATOM     76  C   UNL A   1      42.428  22.651  28.591  1.00  0.00     0.135 A 
ATOM     77  C   UNL A   1      42.701  23.572  26.389  1.00  0.00     0.135 A 
ATOM     78  F   UNL A   1      42.361  22.790  29.923  1.00  0.00    -0.206 F 
ATOM     79  C   UNL A   1      42.309  21.373  28.053  1.00  0.00     0.059 A 
ATOM     80  C   UNL A   1      42.559  22.309  25.826  1.00  0.00     0.059 A 
ATOM     81  F   UNL A   1      42.880  24.617  25.565  1.00  0.00    -0.206 F 
ATOM     82  C   UNL A   1      42.373  21.213  26.667  1.00  0.00     0.060 A 
BRANCH  82  83
ATOM     83  S   UNL A   1      42.172  19.557  25.977  1.00  0.00     0.124 S 
ATOM     84  O   UNL A   1      43.067  19.608  24.826  1.00  0.00    -0.237 OA
ATOM     85  O   UNL A   1      42.601  18.709  27.084  1.00  0.00    -0.237 OA
ATOM     86  O   UNL A   1      40.746  19.494  25.665  1.00  0.00    -0.744 OA
ENDBRANCH  82  83
ENDBRANCH  50  75
BRANCH  62  87
ATOM     87  C   UNL A   1      47.859  27.206  30.886  1.00  0.00     0.058 A 
ATOM     88  C   UNL A   1      48.182  26.607  32.113  1.00  0.00     0.135 A 
ATOM     89  C   UNL A   1      48.891  27.381  29.949  1.00  0.00     0.135 A 
ATOM     90  F   UNL A   1      47.234  26.423  33.046  1.00  0.00    -0.206 F 
ATOM     91  C   UNL A   1      49.483  26.214  32.409  1.00  0.00     0.059 A 
ATOM     92  C   UNL A   1      50.192  26.968  30.211  1.00  0.00     0.059 A 
ATOM     93  F   UNL A   1      48.634  27.940  28.756  1.00  0.00    -0.206 F 
ATOM     94  C   UNL A   1      50.481  26.395  31.450  1.00  0.00     0.060 A 
BRANCH  94  95
ATOM     95  S   UNL A   1      52.156  25.844  31.832  1.00  0.00     0.124 S 
ATOM     96  O   UNL A   1      52.847  26.106  30.574  1.00  0.00    -0.237 OA
ATOM     97  O   UNL A   1      52.522  26.710  32.949  1.00  0.00    -0.237 OA
ATOM     98  O   UNL A   1      51.983  24.435  32.171  1.00  0.00    -0.744 OA
ENDBRANCH  94  95
ENDBRANCH  62  87
ENDBRANCH  36  37
ENDBRANCH  28  31
ENDBRANCH  26  27
ENDBRANCH  25  26
ENDBRANCH  24  25
ENDBRANCH   1  24
TORSDOF 20
ENDMDL
MODEL 2
REMARK VINA RESULT:     -10.3      2.622      3.397
REMARK SMILES CCC(CC)NC(=O)N[C@@H]1C=C[C@@H](C(=O)NCCCCCCNC(=O)c2ccc(-c3c4nc(c(-c5c(F)cc(S(=O)(=O)[O-])cc5F)c5ccc([nH]5)c(-c5c(F)cc(S(=O)(=O)[O-])cc5F)c5nc(c(-c6c(F)cc(S(=O)(=O)[O-])cc6F)c6ccc3[nH]6)C=C5)C=C4)cc2)C1
REMARK SMILES IDX 19 1 18 2 17 3 16 4 14 5 15 6 13 8 10 9 11 10 92 11 12 12
REMARK SMILES IDX 9 13 6 14 7 15 8 17 3 19 2 20 1 21 4 22 5 23 20 24 21 25
REMARK SMILES IDX 22 26 23 27 24 28 25 30 26 31 27 32 91 33 28 34 90 35 29 36
REMARK SMILES IDX 30 37 31 38 84 39 32 40 89 41 83 42 85 43 33 44 88 45 82 46
REMARK SMILES IDX 81 47 34 49 68 50 47 51 67 52 48 53 51 54 66 55 86 56 49 57
REMARK SMILES IDX 50 58 65 60 87 61 52 62 35 63 36 64 45 65 37 66 38 67 44 68
REMARK SMILES IDX 46 69 39 70 40 71 41 72 42 73 43 74 69 75 70 76 79 77 71 78
REMARK SMILES IDX 72 79 78 80 80 81 73 82 74 83 75 84 76 85 77 86 53 87 54 88
REMARK SMILES IDX 63 89 55 90 56 91 62 92 64 93 57 94 58 95 59 96 60 97 61 98
REMARK H PARENT 16 7 6 16 9 18 23 29 85 48 51 59
REMARK Flexibility Score: inf
ROOT
ATOM      1  C   UNL A   1      31.360  28.084  24.730  1.00  0.00     0.002 C 
ENDROOT
BRANCH   1   2
ATOM      2  C   UNL A   1      31.368  27.731  23.243  1.00  0.00     0.021 C 
BRANCH   2   3
ATOM      3  C   UNL A   1      30.963  26.301  22.966  1.00  0.00     0.116 C 
BRANCH   3   4
ATOM      4  N   UNL A   1      31.611  25.835  21.765  1.00  0.00    -0.356 N 
ATOM      5  C   UNL A   1      32.686  25.019  21.661  1.00  0.00     0.227 C 
ATOM      6  O   UNL A   1      33.218  24.893  20.557  1.00  0.00    -0.274 OA
ATOM      7  H   UNL A   1      31.224  26.149  20.916  1.00  0.00     0.163 HD
BRANCH   5   8
ATOM      8  C   UNL A   1      33.192  24.244  22.867  1.00  0.00     0.103 C 
ATOM      9  C   UNL A   1      34.243  22.264  23.777  1.00  0.00     0.107 C 
ATOM     10  C   UNL A   1      35.215  23.388  23.736  1.00  0.00    -0.006 C 
ATOM     11  C   UNL A   1      33.101  22.723  22.853  1.00  0.00     0.047 C 
ATOM     12  C   UNL A   1      34.652  24.483  23.204  1.00  0.00    -0.016 C 
BRANCH   9  13
ATOM     13  N   UNL A   1      33.865  21.845  25.129  1.00  0.00    -0.332 N 
ATOM     14  N   UNL A   1      33.731  19.500  25.630  1.00  0.00    -0.335 N 
ATOM     15  C   UNL A   1      33.723  20.800  25.943  1.00  0.00     0.315 C 
ATOM     16  H   UNL A   1      33.695  18.913  26.419  1.00  0.00     0.165 HD
ATOM     17  O   UNL A   1      33.551  21.071  27.139  1.00  0.00    -0.249 OA
ATOM     18  H   UNL A   1      33.622  22.654  25.635  1.00  0.00     0.165 HD
BRANCH  14  19
ATOM     19  C   UNL A   1      33.779  18.769  24.382  1.00  0.00     0.083 C 
BRANCH  19  20
ATOM     20  C   UNL A   1      34.700  17.541  24.442  1.00  0.00     0.021 C 
ATOM     21  C   UNL A   1      34.018  16.320  25.060  1.00  0.00     0.006 C 
ENDBRANCH  19  20
BRANCH  19  22
ATOM     22  C   UNL A   1      32.407  18.581  23.723  1.00  0.00     0.021 C 
ATOM     23  C   UNL A   1      32.441  18.156  22.268  1.00  0.00     0.006 C 
ENDBRANCH  19  22
ENDBRANCH  14  19
ENDBRANCH   9  13
ENDBRANCH   5   8
ENDBRANCH   3   4
ENDBRANCH   2   3
ENDBRANCH   1   2
BRANCH   1  24
ATOM     24  C   UNL A   1      32.039  27.056  25.642  1.00  0.00     0.002 C 
BRANCH  24  25
ATOM     25  C   UNL A   1      32.981  27.642  26.696  1.00  0.00     0.021 C 
BRANCH  25  26
ATOM     26  C   UNL A   1      34.061  28.558  26.141  1.00  0.00     0.116 C 
BRANCH  26  27
ATOM     27  N   UNL A   1      33.801  29.952  26.446  1.00  0.00    -0.352 N 
ATOM     28  C   UNL A   1      34.454  30.765  27.337  1.00  0.00     0.251 C 
ATOM     29  H   UNL A   1      33.061  30.369  25.949  1.00  0.00     0.163 HD
ATOM     30  O   UNL A   1      34.008  31.862  27.622  1.00  0.00    -0.269 OA
BRANCH  28  31
ATOM     31  C   UNL A   1      35.695  30.262  27.960  1.00  0.00     0.039 A 
ATOM     32  C   UNL A   1      36.904  30.456  27.296  1.00  0.00     0.014 A 
ATOM     33  C   UNL A   1      35.658  29.645  29.216  1.00  0.00     0.014 A 
ATOM     34  C   UNL A   1      38.091  30.068  27.914  1.00  0.00     0.010 A 
ATOM     35  C   UNL A   1      36.847  29.334  29.863  1.00  0.00     0.010 A 
ATOM     36  C   UNL A   1      38.073  29.531  29.213  1.00  0.00    -0.014 A 
BRANCH  36  37
ATOM     37  C   UNL A   1      39.335  29.161  29.899  1.00  0.00     0.031 A 
ATOM     38  C   UNL A   1      39.772  29.915  31.123  1.00  0.00     0.074 A 
ATOM     39  C   UNL A   1      40.101  28.176  29.392  1.00  0.00     0.049 A 
ATOM     40  N   UNL A   1      40.855  29.766  31.840  1.00  0.00    -0.248 NA
ATOM     41  C   UNL A   1      38.892  31.000  31.588  1.00  0.00     0.031 C 
ATOM     42  C   UNL A   1      39.801  27.408  28.180  1.00  0.00     0.029 A 
ATOM     43  N   UNL A   1      41.293  27.653  29.827  1.00  0.00    -0.354 N 
ATOM     44  C   UNL A   1      40.790  30.738  32.831  1.00  0.00     0.074 A 
ATOM     45  C   UNL A   1      39.593  31.511  32.588  1.00  0.00     0.031 C 
ATOM     46  C   UNL A   1      40.767  26.496  27.987  1.00  0.00     0.029 A 
ATOM     47  C   UNL A   1      41.774  26.640  29.033  1.00  0.00     0.049 A 
ATOM     48  H   UNL A   1      41.759  27.974  30.632  1.00  0.00     0.167 HD
ATOM     49  C   UNL A   1      41.637  30.947  33.866  1.00  0.00     0.037 A 
ATOM     50  C   UNL A   1      42.903  25.913  29.133  1.00  0.00     0.037 A 
ATOM     51  C   UNL A   1      42.814  30.156  34.110  1.00  0.00     0.049 A 
ATOM     52  C   UNL A   1      43.837  26.173  30.284  1.00  0.00     0.074 A 
ATOM     53  C   UNL A   1      43.707  30.245  35.163  1.00  0.00     0.029 A 
ATOM     54  N   UNL A   1      43.267  29.133  33.287  1.00  0.00    -0.354 N 
ATOM     55  N   UNL A   1      43.722  27.047  31.257  1.00  0.00    -0.248 NA
ATOM     56  C   UNL A   1      45.050  25.348  30.357  1.00  0.00     0.031 C 
ATOM     57  C   UNL A   1      44.729  29.314  34.949  1.00  0.00     0.029 A 
ATOM     58  C   UNL A   1      44.443  28.604  33.793  1.00  0.00     0.049 A 
ATOM     59  H   UNL A   1      42.818  28.829  32.466  1.00  0.00     0.167 HD
ATOM     60  C   UNL A   1      44.835  26.862  32.069  1.00  0.00     0.074 A 
ATOM     61  C   UNL A   1      45.602  25.781  31.483  1.00  0.00     0.031 C 
ATOM     62  C   UNL A   1      45.192  27.526  33.196  1.00  0.00     0.037 A 
BRANCH  49  63
ATOM     63  C   UNL A   1      41.320  32.073  34.812  1.00  0.00     0.058 A 
ATOM     64  C   UNL A   1      40.438  31.904  35.892  1.00  0.00     0.135 A 
ATOM     65  C   UNL A   1      41.932  33.328  34.659  1.00  0.00     0.135 A 
ATOM     66  F   UNL A   1      39.811  30.730  36.077  1.00  0.00    -0.206 F 
ATOM     67  C   UNL A   1      40.151  32.945  36.768  1.00  0.00     0.059 A 
ATOM     68  C   UNL A   1      41.683  34.375  35.542  1.00  0.00     0.059 A 
ATOM     69  F   UNL A   1      42.781  33.546  33.644  1.00  0.00    -0.206 F 
ATOM     70  C   UNL A   1      40.780  34.177  36.585  1.00  0.00     0.060 A 
BRANCH  70  71
ATOM     71  S   UNL A   1      40.401  35.515  37.736  1.00  0.00     0.124 S 
ATOM     72  O   UNL A   1      39.509  34.845  38.677  1.00  0.00    -0.237 OA
ATOM     73  O   UNL A   1      41.720  35.864  38.252  1.00  0.00    -0.237 OA
ATOM     74  O   UNL A   1      39.774  36.525  36.889  1.00  0.00    -0.744 OA
ENDBRANCH  70  71
ENDBRANCH  49  63
BRANCH  50  75
ATOM     75  C   UNL A   1      43.206  24.863  28.123  1.00  0.00     0.058 A 
ATOM     76  C   UNL A   1      43.885  25.175  26.936  1.00  0.00     0.135 A 
ATOM     77  C   UNL A   1      42.835  23.525  28.331  1.00  0.00     0.135 A 
ATOM     78  F   UNL A   1      44.258  26.440  26.690  1.00  0.00    -0.206 F 
ATOM     79  C   UNL A   1      44.171  24.204  25.983  1.00  0.00     0.059 A 
ATOM     80  C   UNL A   1      43.133  22.531  27.405  1.00  0.00     0.059 A 
ATOM     81  F   UNL A   1      42.199  23.170  29.458  1.00  0.00    -0.206 F 
ATOM     82  C   UNL A   1      43.793  22.882  26.227  1.00  0.00     0.060 A 
BRANCH  82  83
ATOM     83  S   UNL A   1      44.209  21.621  25.004  1.00  0.00     0.124 S 
ATOM     84  O   UNL A   1      45.594  21.323  25.350  1.00  0.00    -0.237 OA
ATOM     85  O   UNL A   1      43.236  20.575  25.301  1.00  0.00    -0.237 OA
ATOM     86  O   UNL A   1      44.010  22.309  23.732  1.00  0.00    -0.744 OA
ENDBRANCH  82  83
ENDBRANCH  50  75
BRANCH  62  87
ATOM     87  C   UNL A   1      46.456  27.091  33.885  1.00  0.00     0.058 A 
ATOM     88  C   UNL A   1      47.695  27.686  33.598  1.00  0.00     0.135 A 
ATOM     89  C   UNL A   1      46.418  26.108  34.889  1.00  0.00     0.135 A 
ATOM     90  F   UNL A   1      47.787  28.625  32.643  1.00  0.00    -0.206 F 
ATOM     91  C   UNL A   1      48.854  27.308  34.266  1.00  0.00     0.059 A 
ATOM     92  C   UNL A   1      47.559  25.736  35.590  1.00  0.00     0.059 A 
ATOM     93  F   UNL A   1      45.257  25.515  35.210  1.00  0.00    -0.206 F 
ATOM     94  C   UNL A   1      48.775  26.335  35.264  1.00  0.00     0.060 A 
BRANCH  94  95
ATOM     95  S   UNL A   1      50.281  25.883  36.150  1.00  0.00     0.124 S 
ATOM     96  O   UNL A   1      50.865  24.891  35.253  1.00  0.00    -0.237 OA
ATOM     97  O   UNL A   1      50.989  27.157  36.231  1.00  0.00    -0.237 OA
ATOM     98  O   UNL A   1      49.787  25.366  37.422  1.00  0.00    -0.744 OA
ENDBRANCH  94  95
ENDBRANCH  62  87
ENDBRANCH  36  37
ENDBRANCH  28  31
ENDBRANCH  26  27
ENDBRANCH  25  26
ENDBRANCH  24  25
ENDBRANCH   1  24
TORSDOF 20
ENDMDL
MODEL 3
REMARK VINA RESULT:     -10.1      3.438      9.103
REMARK SMILES CCC(CC)NC(=O)N[C@@H]1C=C[C@@H](C(=O)NCCCCCCNC(=O)c2ccc(-c3c4nc(c(-c5c(F)cc(S(=O)(=O)[O-])cc5F)c5ccc([nH]5)c(-c5c(F)cc(S(=O)(=O)[O-])cc5F)c5nc(c(-c6c(F)cc(S(=O)(=O)[O-])cc6F)c6ccc3[nH]6)C=C5)C=C4)cc2)C1
REMARK SMILES IDX 19 1 18 2 17 3 16 4 14 5 15 6 13 8 10 9 11 10 92 11 12 12
REMARK SMILES IDX 9 13 6 14 7 15 8 17 3 19 2 20 1 21 4 22 5 23 20 24 21 25
REMARK SMILES IDX 22 26 23 27 24 28 25 30 26 31 27 32 91 33 28 34 90 35 29 36
REMARK SMILES IDX 30 37 31 38 84 39 32 40 89 41 83 42 85 43 33 44 88 45 82 46
REMARK SMILES IDX 81 47 34 49 68 50 47 51 67 52 48 53 51 54 66 55 86 56 49 57
REMARK SMILES IDX 50 58 65 60 87 61 52 62 35 63 36 64 45 65 37 66 38 67 44 68
REMARK SMILES IDX 46 69 39 70 40 71 41 72 42 73 43 74 69 75 70 76 79 77 71 78
REMARK SMILES IDX 72 79 78 80 80 81 73 82 74 83 75 84 76 85 77 86 53 87 54 88
REMARK SMILES IDX 63 89 55 90 56 91 62 92 64 93 57 94 58 95 59 96 60 97 61 98
REMARK H PARENT 16 7 6 16 9 18 23 29 85 48 51 59
REMARK Flexibility Score: inf
ROOT
ATOM      1  C   UNL A   1      33.762  27.259  25.819  1.00  0.00     0.002 C 
ENDROOT
BRANCH   1   2
ATOM      2  C   UNL A   1      32.396  27.021  26.462  1.00  0.00     0.021 C 
BRANCH   2   3
ATOM      3  C   UNL A   1      31.483  26.156  25.622  1.00  0.00     0.116 C 
BRANCH   3   4
ATOM      4  N   UNL A   1      30.681  25.319  26.479  1.00  0.00    -0.356 N 
ATOM      5  C   UNL A   1      30.690  23.968  26.569  1.00  0.00     0.227 C 
ATOM      6  O   UNL A   1      29.794  23.421  27.215  1.00  0.00    -0.274 OA
ATOM      7  H   UNL A   1      30.050  25.787  27.073  1.00  0.00     0.163 HD
BRANCH   5   8
ATOM      8  C   UNL A   1      31.803  23.154  25.929  1.00  0.00     0.103 C 
ATOM      9  C   UNL A   1      32.631  21.025  25.135  1.00  0.00     0.107 C 
ATOM     10  C   UNL A   1      32.204  21.869  23.989  1.00  0.00    -0.006 C 
ATOM     11  C   UNL A   1      31.992  21.705  26.359  1.00  0.00     0.047 C 
ATOM     12  C   UNL A   1      31.713  23.041  24.419  1.00  0.00    -0.016 C 
BRANCH   9  13
ATOM     13  N   UNL A   1      34.074  20.782  25.198  1.00  0.00    -0.332 N 
ATOM     14  N   UNL A   1      34.920  18.612  24.611  1.00  0.00    -0.335 N 
ATOM     15  C   UNL A   1      35.041  19.903  24.935  1.00  0.00     0.315 C 
ATOM     16  H   UNL A   1      35.779  18.191  24.377  1.00  0.00     0.165 HD
ATOM     17  O   UNL A   1      36.198  20.339  25.014  1.00  0.00    -0.249 OA
ATOM     18  H   UNL A   1      34.496  21.583  25.585  1.00  0.00     0.165 HD
BRANCH  14  19
ATOM     19  C   UNL A   1      33.800  17.699  24.531  1.00  0.00     0.083 C 
BRANCH  19  20
ATOM     20  C   UNL A   1      33.405  17.360  23.085  1.00  0.00     0.021 C 
ATOM     21  C   UNL A   1      32.321  18.288  22.536  1.00  0.00     0.006 C 
ENDBRANCH  19  20
BRANCH  19  22
ATOM     22  C   UNL A   1      33.883  16.532  25.522  1.00  0.00     0.021 C 
ATOM     23  C   UNL A   1      32.894  15.408  25.283  1.00  0.00     0.006 C 
ENDBRANCH  19  22
ENDBRANCH  14  19
ENDBRANCH   9  13
ENDBRANCH   5   8
ENDBRANCH   3   4
ENDBRANCH   2   3
ENDBRANCH   1   2
BRANCH   1  24
ATOM     24  C   UNL A   1      34.399  28.616  26.136  1.00  0.00     0.002 C 
BRANCH  24  25
ATOM     25  C   UNL A   1      34.346  29.032  27.608  1.00  0.00     0.021 C 
BRANCH  25  26
ATOM     26  C   UNL A   1      35.622  29.672  28.131  1.00  0.00     0.116 C 
BRANCH  26  27
ATOM     27  N   UNL A   1      35.537  29.977  29.547  1.00  0.00    -0.352 N 
ATOM     28  C   UNL A   1      36.540  29.966  30.482  1.00  0.00     0.251 C 
ATOM     29  H   UNL A   1      34.644  30.223  29.879  1.00  0.00     0.163 HD
ATOM     30  O   UNL A   1      36.285  30.064  31.670  1.00  0.00    -0.269 OA
BRANCH  28  31
ATOM     31  C   UNL A   1      37.931  29.805  30.012  1.00  0.00     0.039 A 
ATOM     32  C   UNL A   1      38.915  29.469  30.939  1.00  0.00     0.014 A 
ATOM     33  C   UNL A   1      38.241  29.939  28.654  1.00  0.00     0.014 A 
ATOM     34  C   UNL A   1      40.214  29.225  30.496  1.00  0.00     0.010 A 
ATOM     35  C   UNL A   1      39.515  29.617  28.206  1.00  0.00     0.010 A 
ATOM     36  C   UNL A   1      40.516  29.269  29.124  1.00  0.00    -0.014 A 
BRANCH  36  37
ATOM     37  C   UNL A   1      41.883  28.962  28.637  1.00  0.00     0.031 A 
ATOM     38  C   UNL A   1      42.222  27.571  28.180  1.00  0.00     0.074 A 
ATOM     39  C   UNL A   1      42.823  29.927  28.650  1.00  0.00     0.049 A 
ATOM     40  N   UNL A   1      43.364  27.098  27.755  1.00  0.00    -0.248 NA
ATOM     41  C   UNL A   1      41.142  26.570  28.233  1.00  0.00     0.031 C 
ATOM     42  C   UNL A   1      42.621  31.300  29.120  1.00  0.00     0.029 A 
ATOM     43  N   UNL A   1      44.139  29.900  28.263  1.00  0.00    -0.354 N 
ATOM     44  C   UNL A   1      43.145  25.751  27.499  1.00  0.00     0.074 A 
ATOM     45  C   UNL A   1      41.778  25.465  27.873  1.00  0.00     0.031 C 
ATOM     46  C   UNL A   1      43.763  31.990  28.966  1.00  0.00     0.029 A 
ATOM     47  C   UNL A   1      44.788  31.101  28.428  1.00  0.00     0.049 A 
ATOM     48  H   UNL A   1      44.578  29.097  27.901  1.00  0.00     0.167 HD
ATOM     49  C   UNL A   1      43.998  24.841  26.972  1.00  0.00     0.037 A 
ATOM     50  C   UNL A   1      46.066  31.445  28.179  1.00  0.00     0.037 A 
ATOM     51  C   UNL A   1      45.350  25.142  26.583  1.00  0.00     0.049 A 
ATOM     52  C   UNL A   1      46.999  30.412  27.607  1.00  0.00     0.074 A 
ATOM     53  C   UNL A   1      46.278  24.310  25.983  1.00  0.00     0.029 A 
ATOM     54  N   UNL A   1      45.971  26.371  26.759  1.00  0.00    -0.354 N 
ATOM     55  N   UNL A   1      46.754  29.160  27.299  1.00  0.00    -0.248 NA
ATOM     56  C   UNL A   1      48.380  30.837  27.342  1.00  0.00     0.031 C 
ATOM     57  C   UNL A   1      47.476  25.018  25.847  1.00  0.00     0.029 A 
ATOM     58  C   UNL A   1      47.278  26.311  26.308  1.00  0.00     0.049 A 
ATOM     59  H   UNL A   1      45.543  27.169  27.147  1.00  0.00     0.167 HD
ATOM     60  C   UNL A   1      47.942  28.655  26.784  1.00  0.00     0.074 A 
ATOM     61  C   UNL A   1      48.901  29.742  26.806  1.00  0.00     0.031 C 
ATOM     62  C   UNL A   1      48.218  27.404  26.336  1.00  0.00     0.037 A 
BRANCH  49  63
ATOM     63  C   UNL A   1      43.493  23.436  26.785  1.00  0.00     0.058 A 
ATOM     64  C   UNL A   1      43.276  22.577  27.875  1.00  0.00     0.135 A 
ATOM     65  C   UNL A   1      43.188  22.952  25.502  1.00  0.00     0.135 A 
ATOM     66  F   UNL A   1      43.566  22.980  29.123  1.00  0.00    -0.206 F 
ATOM     67  C   UNL A   1      42.804  21.281  27.698  1.00  0.00     0.059 A 
ATOM     68  C   UNL A   1      42.685  21.670  25.304  1.00  0.00     0.059 A 
ATOM     69  F   UNL A   1      43.378  23.729  24.424  1.00  0.00    -0.206 F 
ATOM     70  C   UNL A   1      42.510  20.837  26.409  1.00  0.00     0.060 A 
BRANCH  70  71
ATOM     71  S   UNL A   1      41.891  19.154  26.199  1.00  0.00     0.124 S 
ATOM     72  O   UNL A   1      42.657  18.705  25.040  1.00  0.00    -0.237 OA
ATOM     73  O   UNL A   1      42.244  18.532  27.471  1.00  0.00    -0.237 OA
ATOM     74  O   UNL A   1      40.462  19.342  25.970  1.00  0.00    -0.744 OA
ENDBRANCH  70  71
ENDBRANCH  49  63
BRANCH  50  75
ATOM     75  C   UNL A   1      46.532  32.830  28.457  1.00  0.00     0.058 A 
ATOM     76  C   UNL A   1      47.059  33.178  29.710  1.00  0.00     0.135 A 
ATOM     77  C   UNL A   1      46.475  33.829  27.472  1.00  0.00     0.135 A 
ATOM     78  F   UNL A   1      47.131  32.260  30.685  1.00  0.00    -0.206 F 
ATOM     79  C   UNL A   1      47.495  34.470  29.983  1.00  0.00     0.059 A 
ATOM     80  C   UNL A   1      46.930  35.121  27.713  1.00  0.00     0.059 A 
ATOM     81  F   UNL A   1      45.997  33.543  26.251  1.00  0.00    -0.206 F 
ATOM     82  C   UNL A   1      47.429  35.435  28.977  1.00  0.00     0.060 A 
BRANCH  82  83
ATOM     83  S   UNL A   1      48.040  37.097  29.328  1.00  0.00     0.124 S 
ATOM     84  O   UNL A   1      47.408  37.377  30.612  1.00  0.00    -0.237 OA
ATOM     85  O   UNL A   1      49.485  36.892  29.357  1.00  0.00    -0.237 OA
ATOM     86  O   UNL A   1      47.549  37.881  28.198  1.00  0.00    -0.744 OA
ENDBRANCH  82  83
ENDBRANCH  50  75
BRANCH  62  87
ATOM     87  C   UNL A   1      49.604  27.146  25.811  1.00  0.00     0.058 A 
ATOM     88  C   UNL A   1      50.638  26.699  26.648  1.00  0.00     0.135 A 
ATOM     89  C   UNL A   1      49.884  27.291  24.442  1.00  0.00     0.135 A 
ATOM     90  F   UNL A   1      50.424  26.552  27.966  1.00  0.00    -0.206 F 
ATOM     91  C   UNL A   1      51.907  26.425  26.151  1.00  0.00     0.059 A 
ATOM     92  C   UNL A   1      51.137  26.993  23.918  1.00  0.00     0.059 A 
ATOM     93  F   UNL A   1      48.928  27.706  23.596  1.00  0.00    -0.206 F 
ATOM     94  C   UNL A   1      52.146  26.571  24.784  1.00  0.00     0.060 A 
BRANCH  94  95
ATOM     95  S   UNL A   1      53.786  26.172  24.147  1.00  0.00     0.124 S 
ATOM     96  O   UNL A   1      54.027  24.865  24.749  1.00  0.00    -0.237 OA
ATOM     97  O   UNL A   1      53.569  26.173  22.703  1.00  0.00    -0.237 OA
ATOM     98  O   UNL A   1      54.621  27.258  24.649  1.00  0.00    -0.744 OA
ENDBRANCH  94  95
ENDBRANCH  62  87
ENDBRANCH  36  37
ENDBRANCH  28  31
ENDBRANCH  26  27
ENDBRANCH  25  26
ENDBRANCH  24  25
ENDBRANCH   1  24
TORSDOF 20
ENDMDL
