MODEL 1
REMARK VINA RESULT:     -11.1      0.000      0.000
REMARK SMILES O=C(NCCCCCCNC(=O)c1ccc(-n2cc(CSc3nc4ccccc4c(=O)n3-c3ccccc3)nn2)cc1)c1ccc(-c2c3nc(c(-c4c(F)cc(S(=O)(=O)[O-])cc4F)c4ccc([nH]4)c(-c4c(F)cc(S(=O)(=O)[O-])cc4F)c4nc(c(-c5c(F)cc(S(=O)(=O)[O-])cc5F)c5ccc2[nH]5)C=C4)C=C3)cc1
REMARK SMILES IDX 7 1 6 2 5 3 4 4 3 5 1 6 2 7 43 9 44 10 108 11 45 12 107 13
REMARK SMILES IDX 46 14 47 15 48 16 101 17 49 18 106 19 100 20 102 21 50 22
REMARK SMILES IDX 105 23 99 24 98 25 51 27 85 28 64 29 84 30 65 31 68 32 83 33
REMARK SMILES IDX 103 34 66 35 67 36 82 38 104 39 69 40 52 41 53 42 62 43
REMARK SMILES IDX 54 44 55 45 61 46 63 47 56 48 57 49 58 50 59 51 60 52 86 53
REMARK SMILES IDX 87 54 96 55 88 56 89 57 95 58 97 59 90 60 91 61 92 62 93 63
REMARK SMILES IDX 94 64 70 65 71 66 80 67 72 68 73 69 79 70 81 71 74 72 75 73
REMARK SMILES IDX 76 74 77 75 78 76 8 77 9 78 10 79 11 80 12 82 13 83 14 84
REMARK SMILES IDX 42 85 15 86 41 87 16 88 17 89 18 90 40 91 19 92 39 93 20 94
REMARK SMILES IDX 21 95 22 96 23 97 32 98 24 99 30 100 25 101 29 102 31 103
REMARK SMILES IDX 26 104 28 105 27 106 33 107 34 108 38 109 35 110 37 111
REMARK SMILES IDX 36 112
REMARK H PARENT 3 8 102 26 68 37 10 81
REMARK Flexibility Score: inf
ROOT
ATOM      1  C   UNL A   1      32.681  27.734  24.136  1.00  0.00     0.002 C 
ENDROOT
BRANCH   1   2
ATOM      2  C   UNL A   1      33.658  27.608  25.311  1.00  0.00     0.002 C 
BRANCH   2   3
ATOM      3  C   UNL A   1      33.160  28.109  26.673  1.00  0.00     0.021 C 
BRANCH   3   4
ATOM      4  C   UNL A   1      34.076  29.109  27.376  1.00  0.00     0.116 C 
BRANCH   4   5
ATOM      5  N   UNL A   1      33.562  30.462  27.408  1.00  0.00    -0.352 N 
ATOM      6  O   UNL A   1      33.291  32.634  27.647  1.00  0.00    -0.269 OA
ATOM      7  C   UNL A   1      33.985  31.653  27.933  1.00  0.00     0.251 C 
ATOM      8  H   UNL A   1      32.701  30.545  26.938  1.00  0.00     0.163 HD
BRANCH   7   9
ATOM      9  C   UNL A   1      35.166  31.849  28.825  1.00  0.00     0.039 A 
ATOM     10  C   UNL A   1      36.484  31.501  28.531  1.00  0.00     0.014 A 
ATOM     11  C   UNL A   1      34.904  32.460  30.070  1.00  0.00     0.014 A 
ATOM     12  C   UNL A   1      37.501  31.732  29.461  1.00  0.00     0.010 A 
ATOM     13  C   UNL A   1      35.917  32.697  30.999  1.00  0.00     0.010 A 
ATOM     14  C   UNL A   1      37.222  32.325  30.699  1.00  0.00    -0.014 A 
BRANCH  14  15
ATOM     15  C   UNL A   1      38.352  32.693  31.558  1.00  0.00     0.031 A 
ATOM     16  C   UNL A   1      39.522  33.284  30.842  1.00  0.00     0.074 A 
ATOM     17  C   UNL A   1      38.359  32.683  32.906  1.00  0.00     0.049 A 
ATOM     18  N   UNL A   1      40.718  32.804  30.727  1.00  0.00    -0.248 NA
ATOM     19  C   UNL A   1      39.303  34.529  30.093  1.00  0.00     0.031 C 
ATOM     20  C   UNL A   1      37.229  32.473  33.811  1.00  0.00     0.029 A 
ATOM     21  N   UNL A   1      39.394  32.957  33.759  1.00  0.00    -0.354 N 
ATOM     22  C   UNL A   1      41.464  33.779  30.063  1.00  0.00     0.074 A 
ATOM     23  C   UNL A   1      40.513  34.744  29.574  1.00  0.00     0.031 C 
ATOM     24  C   UNL A   1      37.593  32.824  35.066  1.00  0.00     0.029 A 
ATOM     25  C   UNL A   1      39.010  33.155  35.080  1.00  0.00     0.049 A 
ATOM     26  H   UNL A   1      40.331  33.010  33.462  1.00  0.00     0.167 HD
ATOM     27  C   UNL A   1      42.824  33.821  30.134  1.00  0.00     0.037 A 
ATOM     28  C   UNL A   1      39.787  33.609  36.099  1.00  0.00     0.037 A 
ATOM     29  C   UNL A   1      43.367  32.569  30.600  1.00  0.00     0.049 A 
ATOM     30  C   UNL A   1      41.206  33.386  35.723  1.00  0.00     0.074 A 
ATOM     31  C   UNL A   1      43.295  31.255  30.179  1.00  0.00     0.029 A 
ATOM     32  N   UNL A   1      43.878  32.520  31.873  1.00  0.00    -0.354 N 
ATOM     33  N   UNL A   1      41.775  32.216  35.641  1.00  0.00    -0.248 NA
ATOM     34  C   UNL A   1      41.928  34.475  35.086  1.00  0.00     0.031 C 
ATOM     35  C   UNL A   1      43.294  30.481  31.376  1.00  0.00     0.029 A 
ATOM     36  C   UNL A   1      43.410  31.368  32.447  1.00  0.00     0.049 A 
ATOM     37  H   UNL A   1      44.469  33.186  32.293  1.00  0.00     0.167 HD
ATOM     38  C   UNL A   1      42.682  32.337  34.601  1.00  0.00     0.074 A 
ATOM     39  C   UNL A   1      42.816  33.773  34.381  1.00  0.00     0.031 C 
ATOM     40  C   UNL A   1      43.027  31.261  33.836  1.00  0.00     0.037 A 
BRANCH  27  41
ATOM     41  C   UNL A   1      43.655  35.090  30.116  1.00  0.00     0.058 A 
ATOM     42  C   UNL A   1      43.461  36.057  31.128  1.00  0.00     0.135 A 
ATOM     43  C   UNL A   1      44.400  35.528  28.999  1.00  0.00     0.135 A 
ATOM     44  F   UNL A   1      42.776  35.754  32.243  1.00  0.00    -0.206 F 
ATOM     45  C   UNL A   1      43.879  37.382  30.992  1.00  0.00     0.059 A 
ATOM     46  C   UNL A   1      44.876  36.829  28.870  1.00  0.00     0.059 A 
ATOM     47  F   UNL A   1      44.619  34.748  27.934  1.00  0.00    -0.206 F 
ATOM     48  C   UNL A   1      44.564  37.763  29.844  1.00  0.00     0.060 A 
BRANCH  48  49
ATOM     49  S   UNL A   1      44.979  39.498  29.596  1.00  0.00     0.124 S 
ATOM     50  O   UNL A   1      43.674  40.130  29.752  1.00  0.00    -0.237 OA
ATOM     51  O   UNL A   1      45.938  39.738  30.669  1.00  0.00    -0.237 OA
ATOM     52  O   UNL A   1      45.537  39.518  28.247  1.00  0.00    -0.744 OA
ENDBRANCH  48  49
ENDBRANCH  27  41
BRANCH  28  53
ATOM     53  C   UNL A   1      39.412  34.449  37.267  1.00  0.00     0.058 A 
ATOM     54  C   UNL A   1      39.170  33.875  38.530  1.00  0.00     0.135 A 
ATOM     55  C   UNL A   1      39.574  35.848  37.245  1.00  0.00     0.135 A 
ATOM     56  F   UNL A   1      39.019  32.547  38.652  1.00  0.00    -0.206 F 
ATOM     57  C   UNL A   1      39.150  34.633  39.705  1.00  0.00     0.059 A 
ATOM     58  C   UNL A   1      39.545  36.626  38.401  1.00  0.00     0.059 A 
ATOM     59  F   UNL A   1      39.864  36.492  36.105  1.00  0.00    -0.206 F 
ATOM     60  C   UNL A   1      39.363  36.009  39.632  1.00  0.00     0.060 A 
BRANCH  60  61
ATOM     61  S   UNL A   1      39.536  36.963  41.159  1.00  0.00     0.124 S 
ATOM     62  O   UNL A   1      39.014  38.265  40.762  1.00  0.00    -0.237 OA
ATOM     63  O   UNL A   1      38.712  36.203  42.093  1.00  0.00    -0.237 OA
ATOM     64  O   UNL A   1      40.972  36.919  41.424  1.00  0.00    -0.744 OA
ENDBRANCH  60  61
ENDBRANCH  28  53
BRANCH  40  65
ATOM     65  C   UNL A   1      42.758  29.879  34.364  1.00  0.00     0.058 A 
ATOM     66  C   UNL A   1      41.564  29.162  34.172  1.00  0.00     0.135 A 
ATOM     67  C   UNL A   1      43.820  29.201  34.984  1.00  0.00     0.135 A 
ATOM     68  F   UNL A   1      40.538  29.693  33.490  1.00  0.00    -0.206 F 
ATOM     69  C   UNL A   1      41.421  27.848  34.621  1.00  0.00     0.059 A 
ATOM     70  C   UNL A   1      43.711  27.879  35.407  1.00  0.00     0.059 A 
ATOM     71  F   UNL A   1      45.007  29.811  35.145  1.00  0.00    -0.206 F 
ATOM     72  C   UNL A   1      42.501  27.213  35.234  1.00  0.00     0.060 A 
BRANCH  72  73
ATOM     73  S   UNL A   1      42.346  25.484  35.731  1.00  0.00     0.124 S 
ATOM     74  O   UNL A   1      40.896  25.307  35.773  1.00  0.00    -0.237 OA
ATOM     75  O   UNL A   1      43.037  24.780  34.651  1.00  0.00    -0.237 OA
ATOM     76  O   UNL A   1      43.019  25.436  37.021  1.00  0.00    -0.744 OA
ENDBRANCH  72  73
ENDBRANCH  40  65
ENDBRANCH  14  15
ENDBRANCH   7   9
ENDBRANCH   4   5
ENDBRANCH   3   4
ENDBRANCH   2   3
ENDBRANCH   1   2
BRANCH   1  77
ATOM     77  C   UNL A   1      33.305  27.702  22.737  1.00  0.00     0.021 C 
BRANCH  77  78
ATOM     78  C   UNL A   1      33.273  26.344  22.038  1.00  0.00     0.116 C 
BRANCH  78  79
ATOM     79  N   UNL A   1      32.199  25.494  22.531  1.00  0.00    -0.352 N 
ATOM     80  C   UNL A   1      32.277  24.351  23.279  1.00  0.00     0.251 C 
ATOM     81  H   UNL A   1      31.288  25.781  22.292  1.00  0.00     0.163 HD
ATOM     82  O   UNL A   1      31.271  23.667  23.495  1.00  0.00    -0.269 OA
BRANCH  80  83
ATOM     83  C   UNL A   1      33.575  23.911  23.823  1.00  0.00     0.039 A 
ATOM     84  C   UNL A   1      33.895  24.212  25.151  1.00  0.00     0.016 A 
ATOM     85  C   UNL A   1      34.487  23.233  23.011  1.00  0.00     0.016 A 
ATOM     86  C   UNL A   1      35.111  23.785  25.691  1.00  0.00     0.029 A 
ATOM     87  C   UNL A   1      35.711  22.823  23.541  1.00  0.00     0.029 A 
ATOM     88  C   UNL A   1      36.030  23.103  24.881  1.00  0.00     0.066 A 
BRANCH  88  89
ATOM     89  N   UNL A   1      37.297  22.749  25.401  1.00  0.00    -0.220 N 
ATOM     90  C   UNL A   1      38.142  23.541  26.134  1.00  0.00     0.141 A 
ATOM     91  N   UNL A   1      37.864  21.527  25.246  1.00  0.00    -0.062 NA
ATOM     92  C   UNL A   1      39.206  22.740  26.476  1.00  0.00     0.093 A 
ATOM     93  N   UNL A   1      39.038  21.523  25.873  1.00  0.00    -0.134 NA
BRANCH  92  94
ATOM     94  C   UNL A   1      40.449  23.125  27.177  1.00  0.00     0.138 C 
BRANCH  94  95
ATOM     95  S   UNL A   1      41.485  24.478  26.614  1.00  0.00    -0.081 SA
BRANCH  95  96
ATOM     96  C   UNL A   1      41.364  25.863  27.668  1.00  0.00     0.176 A 
ATOM     97  N   UNL A   1      40.240  25.861  28.325  1.00  0.00    -0.223 NA
ATOM     98  N   UNL A   1      42.329  26.850  27.850  1.00  0.00    -0.255 N 
ATOM     99  C   UNL A   1      39.958  26.927  29.181  1.00  0.00     0.079 A 
ATOM    100  C   UNL A   1      41.802  28.115  28.154  1.00  0.00     0.266 A 
ATOM    101  C   UNL A   1      38.940  26.833  30.130  1.00  0.00     0.029 A 
ATOM    102  C   UNL A   1      40.630  28.131  29.040  1.00  0.00     0.066 A 
ATOM    103  O   UNL A   1      42.210  29.198  27.736  1.00  0.00    -0.268 OA
ATOM    104  C   UNL A   1      38.572  27.952  30.888  1.00  0.00     0.002 A 
ATOM    105  C   UNL A   1      40.246  29.271  29.755  1.00  0.00     0.016 A 
ATOM    106  C   UNL A   1      39.206  29.178  30.679  1.00  0.00     0.001 A 
BRANCH  98 107
ATOM    107  C   UNL A   1      43.774  26.716  27.725  1.00  0.00     0.051 A 
ATOM    108  C   UNL A   1      44.545  26.259  28.816  1.00  0.00     0.027 A 
ATOM    109  C   UNL A   1      44.499  26.972  26.553  1.00  0.00     0.027 A 
ATOM    110  C   UNL A   1      45.945  26.256  28.804  1.00  0.00     0.002 A 
ATOM    111  C   UNL A   1      45.903  27.021  26.544  1.00  0.00     0.002 A 
ATOM    112  C   UNL A   1      46.627  26.692  27.682  1.00  0.00     0.000 A 
ENDBRANCH  98 107
ENDBRANCH  95  96
ENDBRANCH  94  95
ENDBRANCH  92  94
ENDBRANCH  88  89
ENDBRANCH  80  83
ENDBRANCH  78  79
ENDBRANCH  77  78
ENDBRANCH   1  77
TORSDOF 21
ENDMDL
MODEL 2
REMARK VINA RESULT:     -10.8      2.918      9.152
REMARK SMILES O=C(NCCCCCCNC(=O)c1ccc(-n2cc(CSc3nc4ccccc4c(=O)n3-c3ccccc3)nn2)cc1)c1ccc(-c2c3nc(c(-c4c(F)cc(S(=O)(=O)[O-])cc4F)c4ccc([nH]4)c(-c4c(F)cc(S(=O)(=O)[O-])cc4F)c4nc(c(-c5c(F)cc(S(=O)(=O)[O-])cc5F)c5ccc2[nH]5)C=C4)C=C3)cc1
REMARK SMILES IDX 7 1 6 2 5 3 4 4 3 5 1 6 2 7 43 9 44 10 108 11 45 12 107 13
REMARK SMILES IDX 46 14 47 15 48 16 101 17 49 18 106 19 100 20 102 21 50 22
REMARK SMILES IDX 105 23 99 24 98 25 51 27 85 28 64 29 84 30 65 31 68 32 83 33
REMARK SMILES IDX 103 34 66 35 67 36 82 38 104 39 69 40 52 41 53 42 62 43
REMARK SMILES IDX 54 44 55 45 61 46 63 47 56 48 57 49 58 50 59 51 60 52 86 53
REMARK SMILES IDX 87 54 96 55 88 56 89 57 95 58 97 59 90 60 91 61 92 62 93 63
REMARK SMILES IDX 94 64 70 65 71 66 80 67 72 68 73 69 79 70 81 71 74 72 75 73
REMARK SMILES IDX 76 74 77 75 78 76 8 77 9 78 10 79 11 80 12 82 13 83 14 84
REMARK SMILES IDX 42 85 15 86 41 87 16 88 17 89 18 90 40 91 19 92 39 93 20 94
REMARK SMILES IDX 21 95 22 96 23 97 32 98 24 99 30 100 25 101 29 102 31 103
REMARK SMILES IDX 26 104 28 105 27 106 33 107 34 108 38 109 35 110 37 111
REMARK SMILES IDX 36 112
REMARK H PARENT 3 8 102 26 68 37 10 81
REMARK Flexibility Score: inf
ROOT
ATOM      1  C   UNL A   1      43.450  25.625  28.855  1.00  0.00     0.002 C 
ENDROOT
BRANCH   1   2
ATOM      2  C   UNL A   1      44.144  24.266  29.002  1.00  0.00     0.002 C 
BRANCH   2   3
ATOM      3  C   UNL A   1      44.860  24.003  30.334  1.00  0.00     0.021 C 
BRANCH   3   4
ATOM      4  C   UNL A   1      43.955  23.569  31.486  1.00  0.00     0.116 C 
BRANCH   4   5
ATOM      5  N   UNL A   1      44.545  23.735  32.798  1.00  0.00    -0.352 N 
ATOM      6  O   UNL A   1      45.041  24.366  34.848  1.00  0.00    -0.269 OA
ATOM      7  C   UNL A   1      44.421  24.641  33.816  1.00  0.00     0.251 C 
ATOM      8  H   UNL A   1      45.192  23.022  33.009  1.00  0.00     0.163 HD
BRANCH   7   9
ATOM      9  C   UNL A   1      43.643  25.914  33.767  1.00  0.00     0.039 A 
ATOM     10  C   UNL A   1      42.851  26.433  34.791  1.00  0.00     0.014 A 
ATOM     11  C   UNL A   1      43.746  26.653  32.569  1.00  0.00     0.014 A 
ATOM     12  C   UNL A   1      42.165  27.637  34.614  1.00  0.00     0.010 A 
ATOM     13  C   UNL A   1      43.066  27.859  32.390  1.00  0.00     0.010 A 
ATOM     14  C   UNL A   1      42.265  28.351  33.413  1.00  0.00    -0.014 A 
BRANCH  14  15
ATOM     15  C   UNL A   1      41.659  29.686  33.352  1.00  0.00     0.031 A 
ATOM     16  C   UNL A   1      42.630  30.819  33.339  1.00  0.00     0.074 A 
ATOM     17  C   UNL A   1      40.351  29.954  33.159  1.00  0.00     0.049 A 
ATOM     18  N   UNL A   1      42.798  31.744  34.229  1.00  0.00    -0.248 NA
ATOM     19  C   UNL A   1      43.590  30.880  32.227  1.00  0.00     0.031 C 
ATOM     20  C   UNL A   1      39.283  29.020  32.808  1.00  0.00     0.029 A 
ATOM     21  N   UNL A   1      39.719  31.168  33.151  1.00  0.00    -0.354 N 
ATOM     22  C   UNL A   1      43.744  32.623  33.701  1.00  0.00     0.074 A 
ATOM     23  C   UNL A   1      44.297  31.966  32.544  1.00  0.00     0.031 C 
ATOM     24  C   UNL A   1      38.189  29.719  32.426  1.00  0.00     0.029 A 
ATOM     25  C   UNL A   1      38.431  31.139  32.630  1.00  0.00     0.049 A 
ATOM     26  H   UNL A   1      40.141  31.992  33.485  1.00  0.00     0.167 HD
ATOM     27  C   UNL A   1      43.863  33.906  34.142  1.00  0.00     0.037 A 
ATOM     28  C   UNL A   1      37.642  32.206  32.338  1.00  0.00     0.037 A 
ATOM     29  C   UNL A   1      43.219  34.087  35.419  1.00  0.00     0.049 A 
ATOM     30  C   UNL A   1      38.144  33.369  33.112  1.00  0.00     0.074 A 
ATOM     31  C   UNL A   1      43.340  33.505  36.667  1.00  0.00     0.029 A 
ATOM     32  N   UNL A   1      42.043  34.794  35.456  1.00  0.00    -0.354 N 
ATOM     33  N   UNL A   1      38.052  33.493  34.406  1.00  0.00    -0.248 NA
ATOM     34  C   UNL A   1      39.086  34.269  32.466  1.00  0.00     0.031 C 
ATOM     35  C   UNL A   1      42.017  33.485  37.197  1.00  0.00     0.029 A 
ATOM     36  C   UNL A   1      41.182  34.095  36.261  1.00  0.00     0.049 A 
ATOM     37  H   UNL A   1      41.854  35.641  34.992  1.00  0.00     0.167 HD
ATOM     38  C   UNL A   1      39.204  34.166  34.779  1.00  0.00     0.074 A 
ATOM     39  C   UNL A   1      39.738  34.719  33.540  1.00  0.00     0.031 C 
ATOM     40  C   UNL A   1      39.763  33.979  36.010  1.00  0.00     0.037 A 
BRANCH  27  41
ATOM     41  C   UNL A   1      44.257  35.088  33.276  1.00  0.00     0.058 A 
ATOM     42  C   UNL A   1      45.234  35.994  33.746  1.00  0.00     0.135 A 
ATOM     43  C   UNL A   1      43.509  35.531  32.162  1.00  0.00     0.135 A 
ATOM     44  F   UNL A   1      46.012  35.679  34.794  1.00  0.00    -0.206 F 
ATOM     45  C   UNL A   1      45.381  37.279  33.221  1.00  0.00     0.059 A 
ATOM     46  C   UNL A   1      43.681  36.787  31.587  1.00  0.00     0.059 A 
ATOM     47  F   UNL A   1      42.510  34.812  31.637  1.00  0.00    -0.206 F 
ATOM     48  C   UNL A   1      44.580  37.674  32.157  1.00  0.00     0.060 A 
BRANCH  48  49
ATOM     49  S   UNL A   1      44.663  39.374  31.569  1.00  0.00     0.124 S 
ATOM     50  O   UNL A   1      44.533  40.115  32.818  1.00  0.00    -0.237 OA
ATOM     51  O   UNL A   1      45.977  39.414  30.935  1.00  0.00    -0.237 OA
ATOM     52  O   UNL A   1      43.529  39.467  30.655  1.00  0.00    -0.744 OA
ENDBRANCH  48  49
ENDBRANCH  27  41
BRANCH  28  53
ATOM     53  C   UNL A   1      36.638  32.367  31.252  1.00  0.00     0.058 A 
ATOM     54  C   UNL A   1      35.270  32.529  31.543  1.00  0.00     0.135 A 
ATOM     55  C   UNL A   1      37.029  32.663  29.932  1.00  0.00     0.135 A 
ATOM     56  F   UNL A   1      34.807  32.286  32.779  1.00  0.00    -0.206 F 
ATOM     57  C   UNL A   1      34.357  33.012  30.601  1.00  0.00     0.059 A 
ATOM     58  C   UNL A   1      36.135  33.133  28.971  1.00  0.00     0.059 A 
ATOM     59  F   UNL A   1      38.316  32.597  29.561  1.00  0.00    -0.206 F 
ATOM     60  C   UNL A   1      34.805  33.335  29.321  1.00  0.00     0.060 A 
BRANCH  60  61
ATOM     61  S   UNL A   1      33.676  34.144  28.162  1.00  0.00     0.124 S 
ATOM     62  O   UNL A   1      32.878  34.980  29.050  1.00  0.00    -0.237 OA
ATOM     63  O   UNL A   1      34.596  34.849  27.276  1.00  0.00    -0.237 OA
ATOM     64  O   UNL A   1      32.963  33.025  27.549  1.00  0.00    -0.744 OA
ENDBRANCH  60  61
ENDBRANCH  28  53
BRANCH  40  65
ATOM     65  C   UNL A   1      38.925  33.379  37.105  1.00  0.00     0.058 A 
ATOM     66  C   UNL A   1      38.501  32.040  37.153  1.00  0.00     0.135 A 
ATOM     67  C   UNL A   1      38.651  34.178  38.227  1.00  0.00     0.135 A 
ATOM     68  F   UNL A   1      38.818  31.177  36.175  1.00  0.00    -0.206 F 
ATOM     69  C   UNL A   1      37.796  31.535  38.247  1.00  0.00     0.059 A 
ATOM     70  C   UNL A   1      37.982  33.686  39.344  1.00  0.00     0.059 A 
ATOM     71  F   UNL A   1      39.081  35.451  38.269  1.00  0.00    -0.206 F 
ATOM     72  C   UNL A   1      37.544  32.364  39.339  1.00  0.00     0.060 A 
BRANCH  72  73
ATOM     73  S   UNL A   1      36.713  31.687  40.792  1.00  0.00     0.124 S 
ATOM     74  O   UNL A   1      37.539  30.522  41.101  1.00  0.00    -0.237 OA
ATOM     75  O   UNL A   1      36.796  32.790  41.749  1.00  0.00    -0.237 OA
ATOM     76  O   UNL A   1      35.370  31.392  40.314  1.00  0.00    -0.744 OA
ENDBRANCH  72  73
ENDBRANCH  40  65
ENDBRANCH  14  15
ENDBRANCH   7   9
ENDBRANCH   4   5
ENDBRANCH   3   4
ENDBRANCH   2   3
ENDBRANCH   1   2
BRANCH   1  77
ATOM     77  C   UNL A   1      42.630  25.826  27.576  1.00  0.00     0.021 C 
BRANCH  77  78
ATOM     78  C   UNL A   1      43.066  26.997  26.698  1.00  0.00     0.116 C 
BRANCH  78  79
ATOM     79  N   UNL A   1      43.647  28.084  27.474  1.00  0.00    -0.352 N 
ATOM     80  C   UNL A   1      43.025  29.145  28.073  1.00  0.00     0.251 C 
ATOM     81  H   UNL A   1      44.625  28.051  27.582  1.00  0.00     0.163 HD
ATOM     82  O   UNL A   1      43.684  30.061  28.577  1.00  0.00    -0.269 OA
BRANCH  80  83
ATOM     83  C   UNL A   1      41.553  29.215  28.108  1.00  0.00     0.039 A 
ATOM     84  C   UNL A   1      40.834  29.038  26.921  1.00  0.00     0.016 A 
ATOM     85  C   UNL A   1      40.887  29.491  29.304  1.00  0.00     0.016 A 
ATOM     86  C   UNL A   1      39.437  29.080  26.938  1.00  0.00     0.029 A 
ATOM     87  C   UNL A   1      39.494  29.554  29.321  1.00  0.00     0.029 A 
ATOM     88  C   UNL A   1      38.764  29.355  28.136  1.00  0.00     0.066 A 
BRANCH  88  89
ATOM     89  N   UNL A   1      37.355  29.486  28.137  1.00  0.00    -0.220 N 
ATOM     90  C   UNL A   1      36.542  29.688  27.052  1.00  0.00     0.141 A 
ATOM     91  N   UNL A   1      36.589  29.418  29.254  1.00  0.00    -0.062 NA
ATOM     92  C   UNL A   1      35.256  29.670  27.538  1.00  0.00     0.093 A 
ATOM     93  N   UNL A   1      35.314  29.557  28.900  1.00  0.00    -0.134 NA
BRANCH  92  94
ATOM     94  C   UNL A   1      34.001  29.944  26.807  1.00  0.00     0.138 C 
BRANCH  94  95
ATOM     95  S   UNL A   1      32.622  28.794  26.809  1.00  0.00    -0.081 SA
BRANCH  95  96
ATOM     96  C   UNL A   1      32.875  27.484  25.685  1.00  0.00     0.176 A 
ATOM     97  N   UNL A   1      33.614  26.548  26.208  1.00  0.00    -0.223 NA
ATOM     98  N   UNL A   1      32.347  27.383  24.401  1.00  0.00    -0.255 N 
ATOM     99  C   UNL A   1      33.956  25.444  25.425  1.00  0.00     0.079 A 
ATOM    100  C   UNL A   1      33.165  26.682  23.500  1.00  0.00     0.266 A 
ATOM    101  C   UNL A   1      34.469  24.284  26.008  1.00  0.00     0.029 A 
ATOM    102  C   UNL A   1      33.873  25.515  24.044  1.00  0.00     0.066 A 
ATOM    103  O   UNL A   1      33.360  26.963  22.318  1.00  0.00    -0.268 OA
ATOM    104  C   UNL A   1      34.938  23.236  25.206  1.00  0.00     0.002 A 
ATOM    105  C   UNL A   1      34.378  24.498  23.227  1.00  0.00     0.016 A 
ATOM    106  C   UNL A   1      34.919  23.356  23.815  1.00  0.00     0.001 A 
BRANCH  98 107
ATOM    107  C   UNL A   1      31.095  27.942  23.907  1.00  0.00     0.051 A 
ATOM    108  C   UNL A   1      30.956  29.336  23.733  1.00  0.00     0.027 A 
ATOM    109  C   UNL A   1      29.978  27.183  23.532  1.00  0.00     0.027 A 
ATOM    110  C   UNL A   1      29.735  29.939  23.408  1.00  0.00     0.002 A 
ATOM    111  C   UNL A   1      28.736  27.777  23.255  1.00  0.00     0.002 A 
ATOM    112  C   UNL A   1      28.607  29.159  23.224  1.00  0.00     0.000 A 
ENDBRANCH  98 107
ENDBRANCH  95  96
ENDBRANCH  94  95
ENDBRANCH  92  94
ENDBRANCH  88  89
ENDBRANCH  80  83
ENDBRANCH  78  79
ENDBRANCH  77  78
ENDBRANCH   1  77
TORSDOF 21
ENDMDL
MODEL 3
REMARK VINA RESULT:     -10.8      1.130      2.629
REMARK SMILES O=C(NCCCCCCNC(=O)c1ccc(-n2cc(CSc3nc4ccccc4c(=O)n3-c3ccccc3)nn2)cc1)c1ccc(-c2c3nc(c(-c4c(F)cc(S(=O)(=O)[O-])cc4F)c4ccc([nH]4)c(-c4c(F)cc(S(=O)(=O)[O-])cc4F)c4nc(c(-c5c(F)cc(S(=O)(=O)[O-])cc5F)c5ccc2[nH]5)C=C4)C=C3)cc1
REMARK SMILES IDX 7 1 6 2 5 3 4 4 3 5 1 6 2 7 43 9 44 10 108 11 45 12 107 13
REMARK SMILES IDX 46 14 47 15 48 16 101 17 49 18 106 19 100 20 102 21 50 22
REMARK SMILES IDX 105 23 99 24 98 25 51 27 85 28 64 29 84 30 65 31 68 32 83 33
REMARK SMILES IDX 103 34 66 35 67 36 82 38 104 39 69 40 52 41 53 42 62 43
REMARK SMILES IDX 54 44 55 45 61 46 63 47 56 48 57 49 58 50 59 51 60 52 86 53
REMARK SMILES IDX 87 54 96 55 88 56 89 57 95 58 97 59 90 60 91 61 92 62 93 63
REMARK SMILES IDX 94 64 70 65 71 66 80 67 72 68 73 69 79 70 81 71 74 72 75 73
REMARK SMILES IDX 76 74 77 75 78 76 8 77 9 78 10 79 11 80 12 82 13 83 14 84
REMARK SMILES IDX 42 85 15 86 41 87 16 88 17 89 18 90 40 91 19 92 39 93 20 94
REMARK SMILES IDX 21 95 22 96 23 97 32 98 24 99 30 100 25 101 29 102 31 103
REMARK SMILES IDX 26 104 28 105 27 106 33 107 34 108 38 109 35 110 37 111
REMARK SMILES IDX 36 112
REMARK H PARENT 3 8 102 26 68 37 10 81
REMARK Flexibility Score: inf
ROOT
ATOM      1  C   UNL A   1      32.711  27.366  24.644  1.00  0.00     0.002 C 
ENDROOT
BRANCH   1   2
ATOM      2  C   UNL A   1      33.570  27.474  25.909  1.00  0.00     0.002 C 
BRANCH   2   3
ATOM      3  C   UNL A   1      33.077  28.443  26.991  1.00  0.00     0.021 C 
BRANCH   3   4
ATOM      4  C   UNL A   1      34.117  29.442  27.496  1.00  0.00     0.116 C 
BRANCH   4   5
ATOM      5  N   UNL A   1      33.620  30.795  27.639  1.00  0.00    -0.352 N 
ATOM      6  O   UNL A   1      33.389  32.953  28.006  1.00  0.00    -0.269 OA
ATOM      7  C   UNL A   1      34.098  31.957  28.181  1.00  0.00     0.251 C 
ATOM      8  H   UNL A   1      32.721  30.904  27.252  1.00  0.00     0.163 HD
BRANCH   7   9
ATOM      9  C   UNL A   1      35.354  32.104  28.974  1.00  0.00     0.039 A 
ATOM     10  C   UNL A   1      36.527  31.369  28.797  1.00  0.00     0.014 A 
ATOM     11  C   UNL A   1      35.337  33.094  29.979  1.00  0.00     0.014 A 
ATOM     12  C   UNL A   1      37.636  31.601  29.615  1.00  0.00     0.010 A 
ATOM     13  C   UNL A   1      36.444  33.331  30.794  1.00  0.00     0.010 A 
ATOM     14  C   UNL A   1      37.598  32.577  30.619  1.00  0.00    -0.014 A 
BRANCH  14  15
ATOM     15  C   UNL A   1      38.844  32.886  31.328  1.00  0.00     0.031 A 
ATOM     16  C   UNL A   1      39.922  33.475  30.481  1.00  0.00     0.074 A 
ATOM     17  C   UNL A   1      39.032  32.825  32.662  1.00  0.00     0.049 A 
ATOM     18  N   UNL A   1      41.078  32.972  30.188  1.00  0.00    -0.248 NA
ATOM     19  C   UNL A   1      39.640  34.752  29.811  1.00  0.00     0.031 C 
ATOM     20  C   UNL A   1      38.029  32.609  33.705  1.00  0.00     0.029 A 
ATOM     21  N   UNL A   1      40.180  33.042  33.375  1.00  0.00    -0.354 N 
ATOM     22  C   UNL A   1      41.755  33.953  29.463  1.00  0.00     0.074 A 
ATOM     23  C   UNL A   1      40.775  34.958  29.140  1.00  0.00     0.031 C 
ATOM     24  C   UNL A   1      38.569  32.904  34.910  1.00  0.00     0.029 A 
ATOM     25  C   UNL A   1      39.984  33.200  34.742  1.00  0.00     0.049 A 
ATOM     26  H   UNL A   1      41.070  33.085  32.956  1.00  0.00     0.167 HD
ATOM     27  C   UNL A   1      43.113  33.960  29.349  1.00  0.00     0.037 A 
ATOM     28  C   UNL A   1      40.903  33.597  35.660  1.00  0.00     0.037 A 
ATOM     29  C   UNL A   1      43.678  32.680  29.694  1.00  0.00     0.049 A 
ATOM     30  C   UNL A   1      42.252  33.355  35.089  1.00  0.00     0.074 A 
ATOM     31  C   UNL A   1      43.512  31.384  29.243  1.00  0.00     0.029 A 
ATOM     32  N   UNL A   1      44.355  32.570  30.883  1.00  0.00    -0.354 N 
ATOM     33  N   UNL A   1      42.772  32.176  34.891  1.00  0.00    -0.248 NA
ATOM     34  C   UNL A   1      42.912  34.450  34.396  1.00  0.00     0.031 C 
ATOM     35  C   UNL A   1      43.651  30.566  30.402  1.00  0.00     0.029 A 
ATOM     36  C   UNL A   1      43.936  31.409  31.476  1.00  0.00     0.049 A 
ATOM     37  H   UNL A   1      45.015  33.207  31.242  1.00  0.00     0.167 HD
ATOM     38  C   UNL A   1      43.533  32.314  33.742  1.00  0.00     0.074 A 
ATOM     39  C   UNL A   1      43.676  33.754  33.554  1.00  0.00     0.031 C 
ATOM     40  C   UNL A   1      43.741  31.260  32.901  1.00  0.00     0.037 A 
BRANCH  27  41
ATOM     41  C   UNL A   1      43.969  35.210  29.262  1.00  0.00     0.058 A 
ATOM     42  C   UNL A   1      43.804  36.229  30.225  1.00  0.00     0.135 A 
ATOM     43  C   UNL A   1      44.714  35.575  28.118  1.00  0.00     0.135 A 
ATOM     44  F   UNL A   1      43.122  35.997  31.358  1.00  0.00    -0.206 F 
ATOM     45  C   UNL A   1      44.248  37.536  30.019  1.00  0.00     0.059 A 
ATOM     46  C   UNL A   1      45.215  36.858  27.920  1.00  0.00     0.059 A 
ATOM     47  F   UNL A   1      44.908  34.738  27.092  1.00  0.00    -0.206 F 
ATOM     48  C   UNL A   1      44.931  37.845  28.849  1.00  0.00     0.060 A 
BRANCH  48  49
ATOM     49  S   UNL A   1      45.379  39.557  28.510  1.00  0.00     0.124 S 
ATOM     50  O   UNL A   1      44.108  40.099  28.047  1.00  0.00    -0.237 OA
ATOM     51  O   UNL A   1      45.833  40.017  29.819  1.00  0.00    -0.237 OA
ATOM     52  O   UNL A   1      46.424  39.434  27.498  1.00  0.00    -0.744 OA
ENDBRANCH  48  49
ENDBRANCH  27  41
BRANCH  28  53
ATOM     53  C   UNL A   1      40.714  34.402  36.897  1.00  0.00     0.058 A 
ATOM     54  C   UNL A   1      40.065  35.651  36.861  1.00  0.00     0.135 A 
ATOM     55  C   UNL A   1      40.898  33.837  38.174  1.00  0.00     0.135 A 
ATOM     56  F   UNL A   1      39.832  36.260  35.688  1.00  0.00    -0.206 F 
ATOM     57  C   UNL A   1      39.573  36.272  38.013  1.00  0.00     0.059 A 
ATOM     58  C   UNL A   1      40.429  34.444  39.338  1.00  0.00     0.059 A 
ATOM     59  F   UNL A   1      41.454  32.626  38.320  1.00  0.00    -0.206 F 
ATOM     60  C   UNL A   1      39.740  35.647  39.248  1.00  0.00     0.060 A 
BRANCH  60  61
ATOM     61  S   UNL A   1      38.937  36.343  40.712  1.00  0.00     0.124 S 
ATOM     62  O   UNL A   1      40.058  36.483  41.633  1.00  0.00    -0.237 OA
ATOM     63  O   UNL A   1      38.375  37.586  40.195  1.00  0.00    -0.237 OA
ATOM     64  O   UNL A   1      37.954  35.323  41.075  1.00  0.00    -0.744 OA
ENDBRANCH  60  61
ENDBRANCH  28  53
BRANCH  40  65
ATOM     65  C   UNL A   1      43.506  29.866  33.414  1.00  0.00     0.058 A 
ATOM     66  C   UNL A   1      44.484  29.053  34.012  1.00  0.00     0.135 A 
ATOM     67  C   UNL A   1      42.186  29.386  33.415  1.00  0.00     0.135 A 
ATOM     68  F   UNL A   1      45.748  29.480  34.155  1.00  0.00    -0.206 F 
ATOM     69  C   UNL A   1      44.169  27.800  34.542  1.00  0.00     0.059 A 
ATOM     70  C   UNL A   1      41.843  28.157  33.970  1.00  0.00     0.059 A 
ATOM     71  F   UNL A   1      41.195  30.141  32.912  1.00  0.00    -0.206 F 
ATOM     72  C   UNL A   1      42.846  27.362  34.519  1.00  0.00     0.060 A 
BRANCH  72  73
ATOM     73  S   UNL A   1      42.423  25.782  35.286  1.00  0.00     0.124 S 
ATOM     74  O   UNL A   1      40.962  25.826  35.289  1.00  0.00    -0.237 OA
ATOM     75  O   UNL A   1      43.024  24.813  34.370  1.00  0.00    -0.237 OA
ATOM     76  O   UNL A   1      43.052  25.858  36.597  1.00  0.00    -0.744 OA
ENDBRANCH  72  73
ENDBRANCH  40  65
ENDBRANCH  14  15
ENDBRANCH   7   9
ENDBRANCH   4   5
ENDBRANCH   3   4
ENDBRANCH   2   3
ENDBRANCH   1   2
BRANCH   1  77
ATOM     77  C   UNL A   1      33.444  27.567  23.313  1.00  0.00     0.021 C 
BRANCH  77  78
ATOM     78  C   UNL A   1      33.552  26.323  22.433  1.00  0.00     0.116 C 
BRANCH  78  79
ATOM     79  N   UNL A   1      32.567  25.310  22.783  1.00  0.00    -0.352 N 
ATOM     80  C   UNL A   1      32.745  24.124  23.442  1.00  0.00     0.251 C 
ATOM     81  H   UNL A   1      31.642  25.505  22.507  1.00  0.00     0.163 HD
ATOM     82  O   UNL A   1      31.821  23.308  23.535  1.00  0.00    -0.269 OA
BRANCH  80  83
ATOM     83  C   UNL A   1      34.054  23.797  24.035  1.00  0.00     0.039 A 
ATOM     84  C   UNL A   1      34.278  24.075  25.387  1.00  0.00     0.016 A 
ATOM     85  C   UNL A   1      35.069  23.250  23.247  1.00  0.00     0.016 A 
ATOM     86  C   UNL A   1      35.505  23.753  25.973  1.00  0.00     0.029 A 
ATOM     87  C   UNL A   1      36.303  22.946  23.824  1.00  0.00     0.029 A 
ATOM     88  C   UNL A   1      36.527  23.202  25.188  1.00  0.00     0.066 A 
BRANCH  88  89
ATOM     89  N   UNL A   1      37.799  22.958  25.759  1.00  0.00    -0.220 N 
ATOM     90  C   UNL A   1      38.530  23.810  26.545  1.00  0.00     0.141 A 
ATOM     91  N   UNL A   1      38.487  21.800  25.607  1.00  0.00    -0.062 NA
ATOM     92  C   UNL A   1      39.650  23.107  26.920  1.00  0.00     0.093 A 
ATOM     93  N   UNL A   1      39.627  21.894  26.287  1.00  0.00    -0.134 NA
BRANCH  92  94
ATOM     94  C   UNL A   1      40.818  23.592  27.685  1.00  0.00     0.138 C 
BRANCH  94  95
ATOM     95  S   UNL A   1      42.304  24.198  26.880  1.00  0.00    -0.081 SA
BRANCH  95  96
ATOM     96  C   UNL A   1      43.153  25.348  27.880  1.00  0.00     0.176 A 
ATOM     97  N   UNL A   1      44.423  25.068  27.949  1.00  0.00    -0.223 NA
ATOM     98  N   UNL A   1      42.601  26.460  28.510  1.00  0.00    -0.255 N 
ATOM     99  C   UNL A   1      45.245  25.863  28.750  1.00  0.00     0.079 A 
ATOM    100  C   UNL A   1      43.233  26.804  29.717  1.00  0.00     0.266 A 
ATOM    101  C   UNL A   1      46.633  25.812  28.624  1.00  0.00     0.029 A 
ATOM    102  C   UNL A   1      44.694  26.653  29.747  1.00  0.00     0.066 A 
ATOM    103  O   UNL A   1      42.682  27.194  30.745  1.00  0.00    -0.268 OA
ATOM    104  C   UNL A   1      47.453  26.507  29.523  1.00  0.00     0.002 A 
ATOM    105  C   UNL A   1      45.497  27.317  30.681  1.00  0.00     0.016 A 
ATOM    106  C   UNL A   1      46.884  27.235  30.569  1.00  0.00     0.001 A 
BRANCH  98 107
ATOM    107  C   UNL A   1      41.456  27.250  28.081  1.00  0.00     0.051 A 
ATOM    108  C   UNL A   1      41.620  28.293  27.143  1.00  0.00     0.027 A 
ATOM    109  C   UNL A   1      40.136  27.035  28.503  1.00  0.00     0.027 A 
ATOM    110  C   UNL A   1      40.588  29.180  26.811  1.00  0.00     0.002 A 
ATOM    111  C   UNL A   1      39.107  27.946  28.216  1.00  0.00     0.002 A 
ATOM    112  C   UNL A   1      39.341  29.039  27.394  1.00  0.00     0.000 A 
ENDBRANCH  98 107
ENDBRANCH  95  96
ENDBRANCH  94  95
ENDBRANCH  92  94
ENDBRANCH  88  89
ENDBRANCH  80  83
ENDBRANCH  78  79
ENDBRANCH  77  78
ENDBRANCH   1  77
TORSDOF 21
ENDMDL
