MODEL 1
REMARK VINA RESULT:     -13.0      0.000      0.000
REMARK SMILES Cc1c(CC(=O)NCCCCCCNC(=O)c2ccc(-c3c4nc(c(-c5c(F)cc(S(=O)(=O)[O-])cc5F)c5ccc([nH]5)c(-c5c(F)cc(S(=O)(=O)[O-])cc5F)c5nc(c(-c6c(F)cc(S(=O)(=O)[O-])cc6F)c6ccc3[nH]6)C=C5)C=C4)cc2)c2cc(O)ccc2n1C(=O)c1ccc(Cl)cc1
REMARK SMILES IDX 10 1 9 2 8 3 7 4 5 5 6 6 4 8 3 9 1 10 2 11 90 12 83 13 89 14
REMARK SMILES IDX 84 15 88 16 85 17 87 18 91 19 92 20 93 21 94 22 99 23 95 24
REMARK SMILES IDX 98 25 96 26 97 27 86 28 11 30 12 31 13 32 14 33 15 34 16 36
REMARK SMILES IDX 17 37 18 38 82 39 19 40 81 41 20 42 21 43 22 44 75 45 23 46
REMARK SMILES IDX 80 47 74 48 76 49 24 50 79 51 73 52 72 53 25 55 59 56 38 57
REMARK SMILES IDX 58 58 39 59 42 60 57 61 77 62 40 63 41 64 56 66 78 67 43 68
REMARK SMILES IDX 26 69 27 70 36 71 28 72 29 73 35 74 37 75 30 76 31 77 32 78
REMARK SMILES IDX 33 79 34 80 60 81 61 82 70 83 62 84 63 85 69 86 71 87 64 88
REMARK SMILES IDX 65 89 66 90 67 91 68 92 44 93 45 94 54 95 46 96 47 97 53 98
REMARK SMILES IDX 55 99 48 100 49 101 50 102 51 103 52 104
REMARK H PARENT 7 7 86 29 14 35 76 54 42 65
REMARK Flexibility Score: inf
ROOT
ATOM      1  C   UNL A   1      31.001  28.659  24.399  1.00  0.00     0.002 C 
ENDROOT
BRANCH   1   2
ATOM      2  C   UNL A   1      30.038  27.465  24.367  1.00  0.00     0.021 C 
BRANCH   2   3
ATOM      3  C   UNL A   1      30.713  26.146  23.997  1.00  0.00     0.116 C 
BRANCH   3   4
ATOM      4  N   UNL A   1      30.600  25.181  25.074  1.00  0.00    -0.356 N 
ATOM      5  C   UNL A   1      30.774  23.829  25.031  1.00  0.00     0.224 C 
ATOM      6  O   UNL A   1      30.561  23.175  26.055  1.00  0.00    -0.275 OA
ATOM      7  H   UNL A   1      30.365  25.553  25.955  1.00  0.00     0.163 HD
BRANCH   5   8
ATOM      8  C   UNL A   1      31.284  23.164  23.763  1.00  0.00     0.138 C 
BRANCH   8   9
ATOM      9  C   UNL A   1      32.668  22.586  23.885  1.00  0.00    -0.009 A 
ATOM     10  C   UNL A   1      34.102  24.740  23.629  1.00  0.00     0.065 C 
ATOM     11  C   UNL A   1      33.877  23.270  23.820  1.00  0.00     0.028 A 
ATOM     12  N   UNL A   1      34.928  22.350  23.945  1.00  0.00    -0.280 N 
ATOM     13  C   UNL A   1      32.973  21.220  24.154  1.00  0.00     0.008 A 
ATOM     14  C   UNL A   1      34.364  21.103  24.260  1.00  0.00     0.057 A 
ATOM     15  C   UNL A   1      32.165  20.077  24.348  1.00  0.00     0.056 A 
ATOM     16  C   UNL A   1      34.935  19.867  24.641  1.00  0.00     0.031 A 
ATOM     17  C   UNL A   1      32.753  18.853  24.652  1.00  0.00     0.116 A 
ATOM     18  C   UNL A   1      34.120  18.745  24.810  1.00  0.00     0.048 A 
BRANCH  12  19
ATOM     19  C   UNL A   1      36.317  22.650  23.796  1.00  0.00     0.262 C 
ATOM     20  O   UNL A   1      36.749  22.964  22.696  1.00  0.00    -0.268 OA
BRANCH  19  21
ATOM     21  C   UNL A   1      37.301  22.654  24.894  1.00  0.00     0.040 A 
ATOM     22  C   UNL A   1      37.528  23.800  25.665  1.00  0.00     0.015 A 
ATOM     23  C   UNL A   1      38.039  21.486  25.108  1.00  0.00     0.015 A 
ATOM     24  C   UNL A   1      38.572  23.797  26.594  1.00  0.00     0.021 A 
ATOM     25  C   UNL A   1      39.075  21.489  26.040  1.00  0.00     0.021 A 
ATOM     26  C   UNL A   1      39.351  22.650  26.763  1.00  0.00     0.041 A 
ATOM     27  Cl  UNL A   1      40.686  22.676  27.848  1.00  0.00    -0.084 Cl
ENDBRANCH  19  21
ENDBRANCH  12  19
BRANCH  17  28
ATOM     28  O   UNL A   1      31.935  17.774  24.809  1.00  0.00    -0.508 OA
ATOM     29  H   UNL A   1      31.992  17.052  24.215  1.00  0.00     0.293 HD
ENDBRANCH  17  28
ENDBRANCH   8   9
ENDBRANCH   5   8
ENDBRANCH   3   4
ENDBRANCH   2   3
ENDBRANCH   1   2
BRANCH   1  30
ATOM     30  C   UNL A   1      32.207  28.488  25.328  1.00  0.00     0.002 C 
BRANCH  30  31
ATOM     31  C   UNL A   1      32.139  29.283  26.637  1.00  0.00     0.021 C 
BRANCH  31  32
ATOM     32  C   UNL A   1      33.501  29.559  27.275  1.00  0.00     0.116 C 
BRANCH  32  33
ATOM     33  N   UNL A   1      33.631  30.897  27.815  1.00  0.00    -0.352 N 
ATOM     34  C   UNL A   1      34.660  31.618  28.356  1.00  0.00     0.251 C 
ATOM     35  H   UNL A   1      32.787  31.402  27.788  1.00  0.00     0.163 HD
ATOM     36  O   UNL A   1      34.400  32.787  28.655  1.00  0.00    -0.269 OA
BRANCH  34  37
ATOM     37  C   UNL A   1      36.022  31.085  28.643  1.00  0.00     0.039 A 
ATOM     38  C   UNL A   1      37.055  31.790  29.259  1.00  0.00     0.014 A 
ATOM     39  C   UNL A   1      36.274  29.766  28.221  1.00  0.00     0.014 A 
ATOM     40  C   UNL A   1      38.326  31.236  29.367  1.00  0.00     0.010 A 
ATOM     41  C   UNL A   1      37.537  29.194  28.357  1.00  0.00     0.010 A 
ATOM     42  C   UNL A   1      38.575  29.948  28.893  1.00  0.00    -0.014 A 
BRANCH  42  43
ATOM     43  C   UNL A   1      39.930  29.425  29.061  1.00  0.00     0.031 A 
ATOM     44  C   UNL A   1      40.360  29.179  30.469  1.00  0.00     0.074 A 
ATOM     45  C   UNL A   1      40.725  29.073  28.032  1.00  0.00     0.049 A 
ATOM     46  N   UNL A   1      41.355  29.699  31.118  1.00  0.00    -0.248 NA
ATOM     47  C   UNL A   1      39.514  28.291  31.282  1.00  0.00     0.031 C 
ATOM     48  C   UNL A   1      40.371  28.970  26.615  1.00  0.00     0.029 A 
ATOM     49  N   UNL A   1      42.013  28.627  28.063  1.00  0.00    -0.354 N 
ATOM     50  C   UNL A   1      41.379  29.058  32.356  1.00  0.00     0.074 A 
ATOM     51  C   UNL A   1      40.155  28.301  32.450  1.00  0.00     0.031 C 
ATOM     52  C   UNL A   1      41.339  28.286  25.966  1.00  0.00     0.029 A 
ATOM     53  C   UNL A   1      42.432  28.024  26.885  1.00  0.00     0.049 A 
ATOM     54  H   UNL A   1      42.595  28.723  28.852  1.00  0.00     0.167 HD
ATOM     55  C   UNL A   1      42.485  29.027  33.149  1.00  0.00     0.037 A 
ATOM     56  C   UNL A   1      43.560  27.294  26.706  1.00  0.00     0.037 A 
ATOM     57  C   UNL A   1      43.432  30.053  32.813  1.00  0.00     0.049 A 
ATOM     58  C   UNL A   1      44.511  27.663  27.785  1.00  0.00     0.074 A 
ATOM     59  C   UNL A   1      43.400  31.434  32.779  1.00  0.00     0.029 A 
ATOM     60  N   UNL A   1      44.562  29.693  32.123  1.00  0.00    -0.354 N 
ATOM     61  N   UNL A   1      45.082  28.830  27.901  1.00  0.00    -0.248 NA
ATOM     62  C   UNL A   1      44.549  26.832  28.979  1.00  0.00     0.031 C 
ATOM     63  C   UNL A   1      44.229  31.799  31.678  1.00  0.00     0.029 A 
ATOM     64  C   UNL A   1      44.734  30.621  31.127  1.00  0.00     0.049 A 
ATOM     65  H   UNL A   1      45.140  28.917  32.309  1.00  0.00     0.167 HD
ATOM     66  C   UNL A   1      45.188  29.043  29.267  1.00  0.00     0.074 A 
ATOM     67  C   UNL A   1      44.950  27.737  29.873  1.00  0.00     0.031 C 
ATOM     68  C   UNL A   1      45.193  30.303  29.792  1.00  0.00     0.037 A 
BRANCH  55  69
ATOM     69  C   UNL A   1      42.834  27.854  34.030  1.00  0.00     0.058 A 
ATOM     70  C   UNL A   1      42.893  28.002  35.431  1.00  0.00     0.135 A 
ATOM     71  C   UNL A   1      43.372  26.652  33.518  1.00  0.00     0.135 A 
ATOM     72  F   UNL A   1      42.443  29.121  36.018  1.00  0.00    -0.206 F 
ATOM     73  C   UNL A   1      43.475  27.037  36.256  1.00  0.00     0.059 A 
ATOM     74  C   UNL A   1      43.906  25.655  34.326  1.00  0.00     0.059 A 
ATOM     75  F   UNL A   1      43.486  26.437  32.200  1.00  0.00    -0.206 F 
ATOM     76  C   UNL A   1      43.988  25.872  35.691  1.00  0.00     0.060 A 
BRANCH  76  77
ATOM     77  S   UNL A   1      44.827  24.670  36.740  1.00  0.00     0.124 S 
ATOM     78  O   UNL A   1      46.219  25.081  36.596  1.00  0.00    -0.237 OA
ATOM     79  O   UNL A   1      44.216  24.921  38.041  1.00  0.00    -0.237 OA
ATOM     80  O   UNL A   1      44.478  23.391  36.128  1.00  0.00    -0.744 OA
ENDBRANCH  76  77
ENDBRANCH  55  69
BRANCH  56  81
ATOM     81  C   UNL A   1      43.727  26.071  25.878  1.00  0.00     0.058 A 
ATOM     82  C   UNL A   1      44.968  25.758  25.294  1.00  0.00     0.135 A 
ATOM     83  C   UNL A   1      42.763  25.043  25.877  1.00  0.00     0.135 A 
ATOM     84  F   UNL A   1      45.953  26.668  25.269  1.00  0.00    -0.206 F 
ATOM     85  C   UNL A   1      45.254  24.484  24.792  1.00  0.00     0.059 A 
ATOM     86  C   UNL A   1      43.019  23.772  25.367  1.00  0.00     0.059 A 
ATOM     87  F   UNL A   1      41.567  25.210  26.461  1.00  0.00    -0.206 F 
ATOM     88  C   UNL A   1      44.278  23.490  24.854  1.00  0.00     0.060 A 
BRANCH  88  89
ATOM     89  S   UNL A   1      44.702  21.798  24.381  1.00  0.00     0.124 S 
ATOM     90  O   UNL A   1      43.741  21.018  25.154  1.00  0.00    -0.237 OA
ATOM     91  O   UNL A   1      44.491  21.823  22.937  1.00  0.00    -0.237 OA
ATOM     92  O   UNL A   1      46.094  21.666  24.803  1.00  0.00    -0.744 OA
ENDBRANCH  88  89
ENDBRANCH  56  81
BRANCH  68  93
ATOM     93  C   UNL A   1      45.423  31.465  28.861  1.00  0.00     0.058 A 
ATOM     94  C   UNL A   1      46.693  31.924  28.470  1.00  0.00     0.135 A 
ATOM     95  C   UNL A   1      44.312  32.031  28.215  1.00  0.00     0.135 A 
ATOM     96  F   UNL A   1      47.809  31.366  28.961  1.00  0.00    -0.206 F 
ATOM     97  C   UNL A   1      46.849  32.921  27.506  1.00  0.00     0.059 A 
ATOM     98  C   UNL A   1      44.444  33.004  27.229  1.00  0.00     0.059 A 
ATOM     99  F   UNL A   1      43.073  31.593  28.501  1.00  0.00    -0.206 F 
ATOM    100  C   UNL A   1      45.719  33.452  26.885  1.00  0.00     0.060 A 
BRANCH 100 101
ATOM    101  S   UNL A   1      45.933  34.663  25.562  1.00  0.00     0.124 S 
ATOM    102  O   UNL A   1      45.497  35.900  26.202  1.00  0.00    -0.237 OA
ATOM    103  O   UNL A   1      47.361  34.567  25.272  1.00  0.00    -0.237 OA
ATOM    104  O   UNL A   1      45.059  34.168  24.501  1.00  0.00    -0.744 OA
ENDBRANCH 100 101
ENDBRANCH  68  93
ENDBRANCH  42  43
ENDBRANCH  34  37
ENDBRANCH  32  33
ENDBRANCH  31  32
ENDBRANCH  30  31
ENDBRANCH   1  30
TORSDOF 20
ENDMDL
MODEL 2
REMARK VINA RESULT:     -12.7      2.886      9.436
REMARK SMILES Cc1c(CC(=O)NCCCCCCNC(=O)c2ccc(-c3c4nc(c(-c5c(F)cc(S(=O)(=O)[O-])cc5F)c5ccc([nH]5)c(-c5c(F)cc(S(=O)(=O)[O-])cc5F)c5nc(c(-c6c(F)cc(S(=O)(=O)[O-])cc6F)c6ccc3[nH]6)C=C5)C=C4)cc2)c2cc(O)ccc2n1C(=O)c1ccc(Cl)cc1
REMARK SMILES IDX 10 1 9 2 8 3 7 4 5 5 6 6 4 8 3 9 1 10 2 11 90 12 83 13 89 14
REMARK SMILES IDX 84 15 88 16 85 17 87 18 91 19 92 20 93 21 94 22 99 23 95 24
REMARK SMILES IDX 98 25 96 26 97 27 86 28 11 30 12 31 13 32 14 33 15 34 16 36
REMARK SMILES IDX 17 37 18 38 82 39 19 40 81 41 20 42 21 43 22 44 75 45 23 46
REMARK SMILES IDX 80 47 74 48 76 49 24 50 79 51 73 52 72 53 25 55 59 56 38 57
REMARK SMILES IDX 58 58 39 59 42 60 57 61 77 62 40 63 41 64 56 66 78 67 43 68
REMARK SMILES IDX 26 69 27 70 36 71 28 72 29 73 35 74 37 75 30 76 31 77 32 78
REMARK SMILES IDX 33 79 34 80 60 81 61 82 70 83 62 84 63 85 69 86 71 87 64 88
REMARK SMILES IDX 65 89 66 90 67 91 68 92 44 93 45 94 54 95 46 96 47 97 53 98
REMARK SMILES IDX 55 99 48 100 49 101 50 102 51 103 52 104
REMARK H PARENT 7 7 86 29 14 35 76 54 42 65
REMARK Flexibility Score: inf
ROOT
ATOM      1  C   UNL A   1      39.609  22.115  27.197  1.00  0.00     0.002 C 
ENDROOT
BRANCH   1   2
ATOM      2  C   UNL A   1      39.458  22.565  25.738  1.00  0.00     0.021 C 
BRANCH   2   3
ATOM      3  C   UNL A   1      38.089  22.241  25.140  1.00  0.00     0.116 C 
BRANCH   3   4
ATOM      4  N   UNL A   1      37.057  22.257  26.157  1.00  0.00    -0.356 N 
ATOM      5  C   UNL A   1      35.985  23.093  26.274  1.00  0.00     0.224 C 
ATOM      6  O   UNL A   1      35.256  22.981  27.264  1.00  0.00    -0.275 OA
ATOM      7  H   UNL A   1      37.141  21.572  26.860  1.00  0.00     0.163 HD
BRANCH   5   8
ATOM      8  C   UNL A   1      35.669  24.089  25.171  1.00  0.00     0.138 C 
BRANCH   8   9
ATOM      9  C   UNL A   1      34.206  24.413  25.035  1.00  0.00    -0.009 A 
ATOM     10  C   UNL A   1      34.144  26.774  26.123  1.00  0.00     0.065 C 
ATOM     11  C   UNL A   1      33.556  25.569  25.454  1.00  0.00     0.028 A 
ATOM     12  N   UNL A   1      32.187  25.449  25.170  1.00  0.00    -0.280 N 
ATOM     13  C   UNL A   1      33.234  23.596  24.388  1.00  0.00     0.008 A 
ATOM     14  C   UNL A   1      32.013  24.278  24.414  1.00  0.00     0.057 A 
ATOM     15  C   UNL A   1      33.312  22.337  23.750  1.00  0.00     0.056 A 
ATOM     16  C   UNL A   1      30.897  23.741  23.733  1.00  0.00     0.031 A 
ATOM     17  C   UNL A   1      32.182  21.793  23.148  1.00  0.00     0.116 A 
ATOM     18  C   UNL A   1      30.988  22.486  23.125  1.00  0.00     0.048 A 
BRANCH  12  19
ATOM     19  C   UNL A   1      31.173  26.373  25.568  1.00  0.00     0.262 C 
ATOM     20  O   UNL A   1      30.734  26.329  26.709  1.00  0.00    -0.268 OA
BRANCH  19  21
ATOM     21  C   UNL A   1      30.616  27.434  24.709  1.00  0.00     0.040 A 
ATOM     22  C   UNL A   1      29.596  27.167  23.789  1.00  0.00     0.015 A 
ATOM     23  C   UNL A   1      31.178  28.712  24.809  1.00  0.00     0.015 A 
ATOM     24  C   UNL A   1      29.206  28.171  22.897  1.00  0.00     0.021 A 
ATOM     25  C   UNL A   1      30.780  29.708  23.920  1.00  0.00     0.021 A 
ATOM     26  C   UNL A   1      29.812  29.428  22.955  1.00  0.00     0.041 A 
ATOM     27  Cl  UNL A   1      29.388  30.634  21.804  1.00  0.00    -0.084 Cl
ENDBRANCH  19  21
ENDBRANCH  12  19
BRANCH  17  28
ATOM     28  O   UNL A   1      32.298  20.566  22.564  1.00  0.00    -0.508 OA
ATOM     29  H   UNL A   1      31.531  20.095  22.306  1.00  0.00     0.293 HD
ENDBRANCH  17  28
ENDBRANCH   8   9
ENDBRANCH   5   8
ENDBRANCH   3   4
ENDBRANCH   2   3
ENDBRANCH   1   2
BRANCH   1  30
ATOM     30  C   UNL A   1      40.755  21.130  27.451  1.00  0.00     0.002 C 
BRANCH  30  31
ATOM     31  C   UNL A   1      40.906  20.021  26.402  1.00  0.00     0.021 C 
BRANCH  31  32
ATOM     32  C   UNL A   1      42.229  19.258  26.484  1.00  0.00     0.116 C 
BRANCH  32  33
ATOM     33  N   UNL A   1      43.146  19.566  25.406  1.00  0.00    -0.352 N 
ATOM     34  C   UNL A   1      43.866  20.672  25.045  1.00  0.00     0.251 C 
ATOM     35  H   UNL A   1      43.282  18.807  24.793  1.00  0.00     0.163 HD
ATOM     36  O   UNL A   1      44.613  20.534  24.072  1.00  0.00    -0.269 OA
BRANCH  34  37
ATOM     37  C   UNL A   1      43.775  22.006  25.702  1.00  0.00     0.039 A 
ATOM     38  C   UNL A   1      44.296  22.330  26.954  1.00  0.00     0.014 A 
ATOM     39  C   UNL A   1      43.075  23.000  24.994  1.00  0.00     0.014 A 
ATOM     40  C   UNL A   1      44.047  23.573  27.525  1.00  0.00     0.010 A 
ATOM     41  C   UNL A   1      42.850  24.259  25.547  1.00  0.00     0.010 A 
ATOM     42  C   UNL A   1      43.302  24.529  26.835  1.00  0.00    -0.014 A 
BRANCH  42  43
ATOM     43  C   UNL A   1      43.100  25.820  27.490  1.00  0.00     0.031 A 
ATOM     44  C   UNL A   1      44.167  26.839  27.260  1.00  0.00     0.074 A 
ATOM     45  C   UNL A   1      41.984  26.141  28.173  1.00  0.00     0.049 A 
ATOM     46  N   UNL A   1      44.923  27.434  28.128  1.00  0.00    -0.248 NA
ATOM     47  C   UNL A   1      44.480  27.175  25.862  1.00  0.00     0.031 C 
ATOM     48  C   UNL A   1      40.731  25.389  28.255  1.00  0.00     0.029 A 
ATOM     49  N   UNL A   1      41.706  27.284  28.864  1.00  0.00    -0.354 N 
ATOM     50  C   UNL A   1      45.672  28.364  27.407  1.00  0.00     0.074 A 
ATOM     51  C   UNL A   1      45.454  28.073  26.011  1.00  0.00     0.031 C 
ATOM     52  C   UNL A   1      39.766  26.190  28.760  1.00  0.00     0.029 A 
ATOM     53  C   UNL A   1      40.361  27.454  29.159  1.00  0.00     0.049 A 
ATOM     54  H   UNL A   1      42.399  27.932  29.130  1.00  0.00     0.167 HD
ATOM     55  C   UNL A   1      46.272  29.438  27.988  1.00  0.00     0.037 A 
ATOM     56  C   UNL A   1      39.770  28.583  29.621  1.00  0.00     0.037 A 
ATOM     57  C   UNL A   1      46.432  29.278  29.407  1.00  0.00     0.049 A 
ATOM     58  C   UNL A   1      40.826  29.421  30.242  1.00  0.00     0.074 A 
ATOM     59  C   UNL A   1      47.094  28.374  30.215  1.00  0.00     0.029 A 
ATOM     60  N   UNL A   1      45.585  29.965  30.238  1.00  0.00    -0.354 N 
ATOM     61  N   UNL A   1      41.471  29.111  31.332  1.00  0.00    -0.248 NA
ATOM     62  C   UNL A   1      41.440  30.461  29.431  1.00  0.00     0.031 C 
ATOM     63  C   UNL A   1      46.272  28.237  31.371  1.00  0.00     0.029 A 
ATOM     64  C   UNL A   1      45.175  29.084  31.207  1.00  0.00     0.049 A 
ATOM     65  H   UNL A   1      45.321  30.910  30.156  1.00  0.00     0.167 HD
ATOM     66  C   UNL A   1      42.752  29.610  31.144  1.00  0.00     0.074 A 
ATOM     67  C   UNL A   1      42.639  30.524  30.013  1.00  0.00     0.031 C 
ATOM     68  C   UNL A   1      43.834  29.037  31.747  1.00  0.00     0.037 A 
BRANCH  55  69
ATOM     69  C   UNL A   1      46.426  30.770  27.297  1.00  0.00     0.058 A 
ATOM     70  C   UNL A   1      47.693  31.375  27.182  1.00  0.00     0.135 A 
ATOM     71  C   UNL A   1      45.322  31.593  26.978  1.00  0.00     0.135 A 
ATOM     72  F   UNL A   1      48.806  30.694  27.495  1.00  0.00    -0.206 F 
ATOM     73  C   UNL A   1      47.847  32.713  26.808  1.00  0.00     0.059 A 
ATOM     74  C   UNL A   1      45.456  32.908  26.552  1.00  0.00     0.059 A 
ATOM     75  F   UNL A   1      44.060  31.180  27.159  1.00  0.00    -0.206 F 
ATOM     76  C   UNL A   1      46.720  33.473  26.505  1.00  0.00     0.060 A 
BRANCH  76  77
ATOM     77  S   UNL A   1      46.906  35.223  26.118  1.00  0.00     0.124 S 
ATOM     78  O   UNL A   1      48.080  35.206  25.254  1.00  0.00    -0.237 OA
ATOM     79  O   UNL A   1      45.636  35.528  25.467  1.00  0.00    -0.237 OA
ATOM     80  O   UNL A   1      47.093  35.838  27.429  1.00  0.00    -0.744 OA
ENDBRANCH  76  77
ENDBRANCH  55  69
BRANCH  56  81
ATOM     81  C   UNL A   1      38.433  29.122  29.257  1.00  0.00     0.058 A 
ATOM     82  C   UNL A   1      37.473  29.402  30.245  1.00  0.00     0.135 A 
ATOM     83  C   UNL A   1      38.172  29.640  27.972  1.00  0.00     0.135 A 
ATOM     84  F   UNL A   1      37.649  28.966  31.502  1.00  0.00    -0.206 F 
ATOM     85  C   UNL A   1      36.350  30.196  29.989  1.00  0.00     0.059 A 
ATOM     86  C   UNL A   1      37.051  30.419  27.689  1.00  0.00     0.059 A 
ATOM     87  F   UNL A   1      39.048  29.487  26.968  1.00  0.00    -0.206 F 
ATOM     88  C   UNL A   1      36.161  30.719  28.711  1.00  0.00     0.060 A 
BRANCH  88  89
ATOM     89  S   UNL A   1      34.819  31.895  28.422  1.00  0.00     0.124 S 
ATOM     90  O   UNL A   1      33.825  31.062  27.755  1.00  0.00    -0.237 OA
ATOM     91  O   UNL A   1      34.488  32.320  29.779  1.00  0.00    -0.237 OA
ATOM     92  O   UNL A   1      35.438  32.919  27.584  1.00  0.00    -0.744 OA
ENDBRANCH  88  89
ENDBRANCH  56  81
BRANCH  68  93
ATOM     93  C   UNL A   1      43.594  28.073  32.881  1.00  0.00     0.058 A 
ATOM     94  C   UNL A   1      43.309  28.463  34.201  1.00  0.00     0.135 A 
ATOM     95  C   UNL A   1      43.491  26.705  32.580  1.00  0.00     0.135 A 
ATOM     96  F   UNL A   1      43.285  29.757  34.547  1.00  0.00    -0.206 F 
ATOM     97  C   UNL A   1      42.970  27.532  35.184  1.00  0.00     0.059 A 
ATOM     98  C   UNL A   1      43.123  25.762  33.537  1.00  0.00     0.059 A 
ATOM     99  F   UNL A   1      43.691  26.275  31.323  1.00  0.00    -0.206 F 
ATOM    100  C   UNL A   1      42.871  26.183  34.842  1.00  0.00     0.060 A 
BRANCH 100 101
ATOM    101  S   UNL A   1      42.325  24.999  36.092  1.00  0.00     0.124 S 
ATOM    102  O   UNL A   1      40.915  25.343  36.248  1.00  0.00    -0.237 OA
ATOM    103  O   UNL A   1      42.597  23.715  35.452  1.00  0.00    -0.237 OA
ATOM    104  O   UNL A   1      43.172  25.301  37.242  1.00  0.00    -0.744 OA
ENDBRANCH 100 101
ENDBRANCH  68  93
ENDBRANCH  42  43
ENDBRANCH  34  37
ENDBRANCH  32  33
ENDBRANCH  31  32
ENDBRANCH  30  31
ENDBRANCH   1  30
TORSDOF 20
ENDMDL
MODEL 3
REMARK VINA RESULT:     -12.3      1.818      3.140
REMARK SMILES Cc1c(CC(=O)NCCCCCCNC(=O)c2ccc(-c3c4nc(c(-c5c(F)cc(S(=O)(=O)[O-])cc5F)c5ccc([nH]5)c(-c5c(F)cc(S(=O)(=O)[O-])cc5F)c5nc(c(-c6c(F)cc(S(=O)(=O)[O-])cc6F)c6ccc3[nH]6)C=C5)C=C4)cc2)c2cc(O)ccc2n1C(=O)c1ccc(Cl)cc1
REMARK SMILES IDX 10 1 9 2 8 3 7 4 5 5 6 6 4 8 3 9 1 10 2 11 90 12 83 13 89 14
REMARK SMILES IDX 84 15 88 16 85 17 87 18 91 19 92 20 93 21 94 22 99 23 95 24
REMARK SMILES IDX 98 25 96 26 97 27 86 28 11 30 12 31 13 32 14 33 15 34 16 36
REMARK SMILES IDX 17 37 18 38 82 39 19 40 81 41 20 42 21 43 22 44 75 45 23 46
REMARK SMILES IDX 80 47 74 48 76 49 24 50 79 51 73 52 72 53 25 55 59 56 38 57
REMARK SMILES IDX 58 58 39 59 42 60 57 61 77 62 40 63 41 64 56 66 78 67 43 68
REMARK SMILES IDX 26 69 27 70 36 71 28 72 29 73 35 74 37 75 30 76 31 77 32 78
REMARK SMILES IDX 33 79 34 80 60 81 61 82 70 83 62 84 63 85 69 86 71 87 64 88
REMARK SMILES IDX 65 89 66 90 67 91 68 92 44 93 45 94 54 95 46 96 47 97 53 98
REMARK SMILES IDX 55 99 48 100 49 101 50 102 51 103 52 104
REMARK H PARENT 7 7 86 29 14 35 76 54 42 65
REMARK Flexibility Score: inf
ROOT
ATOM      1  C   UNL A   1      33.497  28.912  26.641  1.00  0.00     0.002 C 
ENDROOT
BRANCH   1   2
ATOM      2  C   UNL A   1      32.068  28.738  27.172  1.00  0.00     0.021 C 
BRANCH   2   3
ATOM      3  C   UNL A   1      31.202  27.826  26.304  1.00  0.00     0.116 C 
BRANCH   3   4
ATOM      4  N   UNL A   1      31.051  26.518  26.911  1.00  0.00    -0.356 N 
ATOM      5  C   UNL A   1      31.698  25.356  26.607  1.00  0.00     0.224 C 
ATOM      6  O   UNL A   1      31.369  24.327  27.203  1.00  0.00    -0.275 OA
ATOM      7  H   UNL A   1      30.392  26.461  27.640  1.00  0.00     0.163 HD
BRANCH   5   8
ATOM      8  C   UNL A   1      32.840  25.356  25.604  1.00  0.00     0.138 C 
BRANCH   8   9
ATOM      9  C   UNL A   1      33.189  23.994  25.069  1.00  0.00    -0.009 A 
ATOM     10  C   UNL A   1      31.013  23.431  23.761  1.00  0.00     0.065 C 
ATOM     11  C   UNL A   1      32.393  23.169  24.282  1.00  0.00     0.028 A 
ATOM     12  N   UNL A   1      33.083  21.973  24.035  1.00  0.00    -0.280 N 
ATOM     13  C   UNL A   1      34.441  23.336  25.235  1.00  0.00     0.008 A 
ATOM     14  C   UNL A   1      34.388  22.126  24.533  1.00  0.00     0.057 A 
ATOM     15  C   UNL A   1      35.633  23.696  25.906  1.00  0.00     0.056 A 
ATOM     16  C   UNL A   1      35.547  21.323  24.433  1.00  0.00     0.031 A 
ATOM     17  C   UNL A   1      36.740  22.855  25.855  1.00  0.00     0.116 A 
ATOM     18  C   UNL A   1      36.709  21.687  25.119  1.00  0.00     0.048 A 
BRANCH  12  19
ATOM     19  C   UNL A   1      32.547  20.825  23.375  1.00  0.00     0.262 C 
ATOM     20  O   UNL A   1      32.041  20.950  22.269  1.00  0.00    -0.268 OA
BRANCH  19  21
ATOM     21  C   UNL A   1      32.585  19.451  23.909  1.00  0.00     0.040 A 
ATOM     22  C   UNL A   1      32.580  19.204  25.286  1.00  0.00     0.015 A 
ATOM     23  C   UNL A   1      32.679  18.400  22.990  1.00  0.00     0.015 A 
ATOM     24  C   UNL A   1      32.765  17.895  25.742  1.00  0.00     0.021 A 
ATOM     25  C   UNL A   1      32.860  17.098  23.452  1.00  0.00     0.021 A 
ATOM     26  C   UNL A   1      32.924  16.854  24.825  1.00  0.00     0.041 A 
ATOM     27  Cl  UNL A   1      33.234  15.258  25.389  1.00  0.00    -0.084 Cl
ENDBRANCH  19  21
ENDBRANCH  12  19
BRANCH  17  28
ATOM     28  O   UNL A   1      37.860  23.233  26.535  1.00  0.00    -0.508 OA
ATOM     29  H   UNL A   1      38.649  23.424  26.069  1.00  0.00     0.293 HD
ENDBRANCH  17  28
ENDBRANCH   8   9
ENDBRANCH   5   8
ENDBRANCH   3   4
ENDBRANCH   2   3
ENDBRANCH   1   2
BRANCH   1  30
ATOM     30  C   UNL A   1      34.282  30.068  27.272  1.00  0.00     0.002 C 
BRANCH  30  31
ATOM     31  C   UNL A   1      33.495  31.373  27.444  1.00  0.00     0.021 C 
BRANCH  31  32
ATOM     32  C   UNL A   1      34.276  32.489  28.139  1.00  0.00     0.116 C 
BRANCH  32  33
ATOM     33  N   UNL A   1      34.149  32.478  29.581  1.00  0.00    -0.352 N 
ATOM     34  C   UNL A   1      34.965  32.106  30.615  1.00  0.00     0.251 C 
ATOM     35  H   UNL A   1      33.276  32.814  29.889  1.00  0.00     0.163 HD
ATOM     36  O   UNL A   1      34.524  32.308  31.750  1.00  0.00    -0.269 OA
BRANCH  34  37
ATOM     37  C   UNL A   1      36.294  31.449  30.464  1.00  0.00     0.039 A 
ATOM     38  C   UNL A   1      36.504  30.090  30.234  1.00  0.00     0.014 A 
ATOM     39  C   UNL A   1      37.419  32.285  30.597  1.00  0.00     0.014 A 
ATOM     40  C   UNL A   1      37.791  29.562  30.231  1.00  0.00     0.010 A 
ATOM     41  C   UNL A   1      38.712  31.766  30.562  1.00  0.00     0.010 A 
ATOM     42  C   UNL A   1      38.894  30.394  30.421  1.00  0.00    -0.014 A 
BRANCH  42  43
ATOM     43  C   UNL A   1      40.215  29.771  30.385  1.00  0.00     0.031 A 
ATOM     44  C   UNL A   1      40.863  29.547  31.711  1.00  0.00     0.074 A 
ATOM     45  C   UNL A   1      40.793  29.316  29.256  1.00  0.00     0.049 A 
ATOM     46  N   UNL A   1      41.989  30.009  32.154  1.00  0.00    -0.248 NA
ATOM     47  C   UNL A   1      40.107  28.762  32.700  1.00  0.00     0.031 C 
ATOM     48  C   UNL A   1      40.194  29.186  27.927  1.00  0.00     0.029 A 
ATOM     49  N   UNL A   1      42.032  28.768  29.093  1.00  0.00    -0.354 N 
ATOM     50  C   UNL A   1      42.180  29.418  33.403  1.00  0.00     0.074 A 
ATOM     51  C   UNL A   1      40.939  28.766  33.742  1.00  0.00     0.031 C 
ATOM     52  C   UNL A   1      40.983  28.401  27.161  1.00  0.00     0.029 A 
ATOM     53  C   UNL A   1      42.196  28.088  27.895  1.00  0.00     0.049 A 
ATOM     54  H   UNL A   1      42.747  28.848  29.766  1.00  0.00     0.167 HD
ATOM     55  C   UNL A   1      43.401  29.329  33.998  1.00  0.00     0.037 A 
ATOM     56  C   UNL A   1      43.221  27.263  27.566  1.00  0.00     0.037 A 
ATOM     57  C   UNL A   1      44.348  30.261  33.453  1.00  0.00     0.049 A 
ATOM     58  C   UNL A   1      44.367  27.596  28.449  1.00  0.00     0.074 A 
ATOM     59  C   UNL A   1      44.411  31.638  33.354  1.00  0.00     0.029 A 
ATOM     60  N   UNL A   1      45.313  29.784  32.603  1.00  0.00    -0.354 N 
ATOM     61  N   UNL A   1      45.033  28.716  28.405  1.00  0.00    -0.248 NA
ATOM     62  C   UNL A   1      44.550  26.812  29.661  1.00  0.00     0.031 C 
ATOM     63  C   UNL A   1      45.062  31.891  32.111  1.00  0.00     0.029 A 
ATOM     64  C   UNL A   1      45.378  30.655  31.545  1.00  0.00     0.049 A 
ATOM     65  H   UNL A   1      45.856  28.973  32.729  1.00  0.00     0.167 HD
ATOM     66  C   UNL A   1      45.388  28.974  29.721  1.00  0.00     0.074 A 
ATOM     67  C   UNL A   1      45.164  27.716  30.426  1.00  0.00     0.031 C 
ATOM     68  C   UNL A   1      45.575  30.249  30.171  1.00  0.00     0.037 A 
BRANCH  55  69
ATOM     69  C   UNL A   1      43.810  28.167  34.868  1.00  0.00     0.058 A 
ATOM     70  C   UNL A   1      44.306  28.386  36.170  1.00  0.00     0.135 A 
ATOM     71  C   UNL A   1      43.978  26.859  34.361  1.00  0.00     0.135 A 
ATOM     72  F   UNL A   1      44.229  29.601  36.734  1.00  0.00    -0.206 F 
ATOM     73  C   UNL A   1      44.950  27.383  36.898  1.00  0.00     0.059 A 
ATOM     74  C   UNL A   1      44.567  25.833  35.089  1.00  0.00     0.059 A 
ATOM     75  F   UNL A   1      43.661  26.548  33.096  1.00  0.00    -0.206 F 
ATOM     76  C   UNL A   1      45.085  26.113  36.343  1.00  0.00     0.060 A 
BRANCH  76  77
ATOM     77  S   UNL A   1      46.001  24.844  37.237  1.00  0.00     0.124 S 
ATOM     78  O   UNL A   1      47.101  25.621  37.796  1.00  0.00    -0.237 OA
ATOM     79  O   UNL A   1      45.006  24.364  38.190  1.00  0.00    -0.237 OA
ATOM     80  O   UNL A   1      46.366  23.894  36.190  1.00  0.00    -0.744 OA
ENDBRANCH  76  77
ENDBRANCH  55  69
BRANCH  56  81
ATOM     81  C   UNL A   1      43.153  25.998  26.787  1.00  0.00     0.058 A 
ATOM     82  C   UNL A   1      43.871  25.850  25.587  1.00  0.00     0.135 A 
ATOM     83  C   UNL A   1      42.619  24.818  27.342  1.00  0.00     0.135 A 
ATOM     84  F   UNL A   1      44.433  26.917  24.999  1.00  0.00    -0.206 F 
ATOM     85  C   UNL A   1      44.094  24.599  25.003  1.00  0.00     0.059 A 
ATOM     86  C   UNL A   1      42.813  23.563  26.769  1.00  0.00     0.059 A 
ATOM     87  F   UNL A   1      41.969  24.832  28.515  1.00  0.00    -0.206 F 
ATOM     88  C   UNL A   1      43.580  23.457  25.616  1.00  0.00     0.060 A 
BRANCH  88  89
ATOM     89  S   UNL A   1      44.022  21.827  24.972  1.00  0.00     0.124 S 
ATOM     90  O   UNL A   1      42.860  21.029  25.347  1.00  0.00    -0.237 OA
ATOM     91  O   UNL A   1      44.180  22.095  23.546  1.00  0.00    -0.237 OA
ATOM     92  O   UNL A   1      45.255  21.503  25.684  1.00  0.00    -0.744 OA
ENDBRANCH  88  89
ENDBRANCH  56  81
BRANCH  68  93
ATOM     93  C   UNL A   1      45.725  31.351  29.153  1.00  0.00     0.058 A 
ATOM     94  C   UNL A   1      44.646  32.031  28.562  1.00  0.00     0.135 A 
ATOM     95  C   UNL A   1      47.014  31.843  28.890  1.00  0.00     0.135 A 
ATOM     96  F   UNL A   1      43.381  31.692  28.843  1.00  0.00    -0.206 F 
ATOM     97  C   UNL A   1      44.842  33.129  27.722  1.00  0.00     0.059 A 
ATOM     98  C   UNL A   1      47.231  32.955  28.081  1.00  0.00     0.059 A 
ATOM     99  F   UNL A   1      48.083  31.273  29.473  1.00  0.00    -0.206 F 
ATOM    100  C   UNL A   1      46.139  33.590  27.493  1.00  0.00     0.060 A 
BRANCH 100 101
ATOM    101  S   UNL A   1      46.377  35.076  26.494  1.00  0.00     0.124 S 
ATOM    102  O   UNL A   1      45.009  35.551  26.317  1.00  0.00    -0.237 OA
ATOM    103  O   UNL A   1      47.229  35.899  27.349  1.00  0.00    -0.237 OA
ATOM    104  O   UNL A   1      47.026  34.575  25.285  1.00  0.00    -0.744 OA
ENDBRANCH 100 101
ENDBRANCH  68  93
ENDBRANCH  42  43
ENDBRANCH  34  37
ENDBRANCH  32  33
ENDBRANCH  31  32
ENDBRANCH  30  31
ENDBRANCH   1  30
TORSDOF 20
ENDMDL
