MODEL 1
REMARK VINA RESULT:     -11.6      0.000      0.000
REMARK SMILES Cc1noc(C)c1CCC(=O)N1CCC2(CC1)NC(=O)C[C@@H]2C(=O)NCCCCCCNC(=O)c1ccc(-c2c3nc(c(-c4c(F)cc(S(=O)(=O)[O-])cc4F)c4ccc([nH]4)c(-c4c(F)cc(S(=O)(=O)[O-])cc4F)c4nc(c(-c5c(F)cc(S(=O)(=O)[O-])cc5F)c5ccc2[nH]5)C=C4)C=C3)cc1
REMARK SMILES IDX 28 1 27 2 26 3 25 4 23 5 24 6 22 8 10 9 11 10 12 11 13 12
REMARK SMILES IDX 17 13 14 14 16 15 15 16 18 17 19 18 21 20 20 21 9 22 8 23
REMARK SMILES IDX 7 24 1 25 2 26 3 27 4 28 5 29 6 30 29 31 30 32 31 33 32 34
REMARK SMILES IDX 33 35 34 37 35 38 36 39 100 40 37 41 99 42 38 43 39 44 40 45
REMARK SMILES IDX 93 46 41 47 98 48 92 49 94 50 42 51 97 52 91 53 90 54 43 56
REMARK SMILES IDX 77 57 56 58 76 59 57 60 60 61 75 62 95 63 58 64 59 65 74 67
REMARK SMILES IDX 96 68 61 69 44 70 45 71 54 72 46 73 47 74 53 75 55 76 48 77
REMARK SMILES IDX 49 78 50 79 51 80 52 81 78 82 79 83 88 84 80 85 81 86 87 87
REMARK SMILES IDX 89 88 82 89 83 90 84 91 85 92 86 93 62 94 63 95 72 96 64 97
REMARK SMILES IDX 65 98 71 99 73 100 66 101 67 102 68 103 69 104 70 105
REMARK H PARENT 25 7 18 19 32 36 94 55 60 66
REMARK Flexibility Score: inf
ROOT
ATOM      1  C   UNL A   1      45.501  25.114  28.016  1.00  0.00     0.002 C 
ENDROOT
BRANCH   1   2
ATOM      2  C   UNL A   1      45.100  23.687  28.395  1.00  0.00     0.021 C 
BRANCH   2   3
ATOM      3  C   UNL A   1      44.009  23.113  27.518  1.00  0.00     0.116 C 
BRANCH   3   4
ATOM      4  N   UNL A   1      44.400  22.222  26.456  1.00  0.00    -0.356 N 
ATOM      5  C   UNL A   1      43.475  21.838  25.527  1.00  0.00     0.226 C 
ATOM      6  O   UNL A   1      43.588  22.354  24.405  1.00  0.00    -0.275 OA
ATOM      7  H   UNL A   1      45.326  21.893  26.400  1.00  0.00     0.163 HD
BRANCH   5   8
ATOM      8  C   UNL A   1      42.525  20.637  25.691  1.00  0.00     0.113 C 
ATOM      9  C   UNL A   1      38.408  23.329  26.148  1.00  0.00     0.222 C 
ATOM     10  O   UNL A   1      38.829  24.469  26.359  1.00  0.00    -0.275 OA
ATOM     11  N   UNL A   1      39.143  22.190  26.521  1.00  0.00    -0.343 N 
ATOM     12  C   UNL A   1      40.285  22.480  27.344  1.00  0.00     0.122 C 
ATOM     13  C   UNL A   1      39.279  21.069  25.611  1.00  0.00     0.122 C 
ATOM     14  C   UNL A   1      41.039  21.260  27.870  1.00  0.00     0.051 C 
ATOM     15  C   UNL A   1      40.094  19.883  26.103  1.00  0.00     0.051 C 
ATOM     16  C   UNL A   1      41.439  20.284  26.767  1.00  0.00     0.055 C 
ATOM     17  N   UNL A   1      41.952  19.068  27.379  1.00  0.00    -0.350 N 
ATOM     18  C   UNL A   1      42.975  18.470  26.700  1.00  0.00     0.221 C 
ATOM     19  H   UNL A   1      41.589  18.704  28.219  1.00  0.00     0.164 HD
ATOM     20  C   UNL A   1      43.475  19.411  25.655  1.00  0.00     0.116 C 
ATOM     21  O   UNL A   1      43.403  17.354  26.925  1.00  0.00    -0.275 OA
BRANCH   9  22
ATOM     22  C   UNL A   1      37.047  23.129  25.519  1.00  0.00     0.105 C 
BRANCH  22  23
ATOM     23  C   UNL A   1      36.039  24.234  25.827  1.00  0.00     0.051 C 
BRANCH  23  24
ATOM     24  C   UNL A   1      34.613  23.869  25.578  1.00  0.00     0.018 A 
ATOM     25  C   UNL A   1      34.029  22.432  27.699  1.00  0.00     0.071 C 
ATOM     26  C   UNL A   1      33.754  23.065  26.385  1.00  0.00     0.084 A 
ATOM     27  N   UNL A   1      32.517  23.009  25.875  1.00  0.00    -0.085 NA
ATOM     28  O   UNL A   1      32.541  23.782  24.734  1.00  0.00    -0.361 OA
ATOM     29  C   UNL A   1      33.782  24.309  24.564  1.00  0.00     0.137 A 
ATOM     30  C   UNL A   1      33.921  25.273  23.453  1.00  0.00     0.091 C 
ENDBRANCH  23  24
ENDBRANCH  22  23
ENDBRANCH   9  22
ENDBRANCH   5   8
ENDBRANCH   3   4
ENDBRANCH   2   3
ENDBRANCH   1   2
BRANCH   1  31
ATOM     31  C   UNL A   1      46.015  25.374  26.590  1.00  0.00     0.002 C 
BRANCH  31  32
ATOM     32  C   UNL A   1      46.153  26.826  26.127  1.00  0.00     0.021 C 
BRANCH  32  33
ATOM     33  C   UNL A   1      44.942  27.437  25.429  1.00  0.00     0.116 C 
BRANCH  33  34
ATOM     34  N   UNL A   1      43.939  26.452  25.064  1.00  0.00    -0.352 N 
ATOM     35  C   UNL A   1      42.762  26.100  25.676  1.00  0.00     0.251 C 
ATOM     36  H   UNL A   1      44.136  25.952  24.239  1.00  0.00     0.163 HD
ATOM     37  O   UNL A   1      42.125  25.139  25.254  1.00  0.00    -0.269 OA
BRANCH  35  38
ATOM     38  C   UNL A   1      42.270  26.851  26.850  1.00  0.00     0.039 A 
ATOM     39  C   UNL A   1      41.595  26.150  27.855  1.00  0.00     0.014 A 
ATOM     40  C   UNL A   1      42.454  28.230  26.959  1.00  0.00     0.014 A 
ATOM     41  C   UNL A   1      41.173  26.820  29.005  1.00  0.00     0.010 A 
ATOM     42  C   UNL A   1      42.086  28.886  28.133  1.00  0.00     0.010 A 
ATOM     43  C   UNL A   1      41.455  28.185  29.172  1.00  0.00    -0.014 A 
BRANCH  43  44
ATOM     44  C   UNL A   1      41.138  28.889  30.440  1.00  0.00     0.031 A 
ATOM     45  C   UNL A   1      40.012  29.884  30.495  1.00  0.00     0.074 A 
ATOM     46  C   UNL A   1      41.927  28.696  31.517  1.00  0.00     0.049 A 
ATOM     47  N   UNL A   1      39.666  30.684  31.469  1.00  0.00    -0.248 NA
ATOM     48  C   UNL A   1      39.182  30.012  29.287  1.00  0.00     0.031 C 
ATOM     49  C   UNL A   1      43.071  27.784  31.571  1.00  0.00     0.029 A 
ATOM     50  N   UNL A   1      41.904  29.271  32.763  1.00  0.00    -0.354 N 
ATOM     51  C   UNL A   1      38.591  31.423  30.990  1.00  0.00     0.074 A 
ATOM     52  C   UNL A   1      38.367  31.003  29.623  1.00  0.00     0.031 C 
ATOM     53  C   UNL A   1      43.636  27.856  32.786  1.00  0.00     0.029 A 
ATOM     54  C   UNL A   1      42.927  28.852  33.582  1.00  0.00     0.049 A 
ATOM     55  H   UNL A   1      41.220  29.921  33.044  1.00  0.00     0.167 HD
ATOM     56  C   UNL A   1      37.850  32.353  31.637  1.00  0.00     0.037 A 
ATOM     57  C   UNL A   1      43.271  29.245  34.824  1.00  0.00     0.037 A 
ATOM     58  C   UNL A   1      38.070  32.749  33.004  1.00  0.00     0.049 A 
ATOM     59  C   UNL A   1      42.448  30.299  35.514  1.00  0.00     0.074 A 
ATOM     60  C   UNL A   1      37.332  33.634  33.773  1.00  0.00     0.029 A 
ATOM     61  N   UNL A   1      39.107  32.293  33.806  1.00  0.00    -0.354 N 
ATOM     62  N   UNL A   1      41.393  30.938  35.068  1.00  0.00    -0.248 NA
ATOM     63  C   UNL A   1      42.861  30.688  36.869  1.00  0.00     0.031 C 
ATOM     64  C   UNL A   1      37.955  33.753  35.020  1.00  0.00     0.029 A 
ATOM     65  C   UNL A   1      39.049  32.904  35.048  1.00  0.00     0.049 A 
ATOM     66  H   UNL A   1      39.784  31.633  33.532  1.00  0.00     0.167 HD
ATOM     67  C   UNL A   1      41.005  31.793  36.095  1.00  0.00     0.074 A 
ATOM     68  C   UNL A   1      41.930  31.576  37.190  1.00  0.00     0.031 C 
ATOM     69  C   UNL A   1      39.979  32.677  36.128  1.00  0.00     0.037 A 
BRANCH  56  70
ATOM     70  C   UNL A   1      36.732  33.014  30.877  1.00  0.00     0.058 A 
ATOM     71  C   UNL A   1      36.978  34.011  29.920  1.00  0.00     0.135 A 
ATOM     72  C   UNL A   1      35.401  32.610  31.072  1.00  0.00     0.135 A 
ATOM     73  F   UNL A   1      38.230  34.444  29.702  1.00  0.00    -0.206 F 
ATOM     74  C   UNL A   1      35.943  34.605  29.205  1.00  0.00     0.059 A 
ATOM     75  C   UNL A   1      34.352  33.170  30.348  1.00  0.00     0.059 A 
ATOM     76  F   UNL A   1      35.108  31.660  31.973  1.00  0.00    -0.206 F 
ATOM     77  C   UNL A   1      34.634  34.177  29.426  1.00  0.00     0.060 A 
BRANCH  77  78
ATOM     78  S   UNL A   1      33.303  34.954  28.483  1.00  0.00     0.124 S 
ATOM     79  O   UNL A   1      34.054  35.831  27.591  1.00  0.00    -0.237 OA
ATOM     80  O   UNL A   1      32.660  33.807  27.850  1.00  0.00    -0.237 OA
ATOM     81  O   UNL A   1      32.509  35.628  29.505  1.00  0.00    -0.744 OA
ENDBRANCH  77  78
ENDBRANCH  56  70
BRANCH  57  82
ATOM     82  C   UNL A   1      44.457  28.641  35.491  1.00  0.00     0.058 A 
ATOM     83  C   UNL A   1      45.707  29.274  35.455  1.00  0.00     0.135 A 
ATOM     84  C   UNL A   1      44.358  27.427  36.190  1.00  0.00     0.135 A 
ATOM     85  F   UNL A   1      45.854  30.431  34.792  1.00  0.00    -0.206 F 
ATOM     86  C   UNL A   1      46.822  28.721  36.078  1.00  0.00     0.059 A 
ATOM     87  C   UNL A   1      45.452  26.868  36.842  1.00  0.00     0.059 A 
ATOM     88  F   UNL A   1      43.181  26.787  36.266  1.00  0.00    -0.206 F 
ATOM     89  C   UNL A   1      46.683  27.518  36.772  1.00  0.00     0.060 A 
BRANCH  89  90
ATOM     90  S   UNL A   1      48.124  26.833  37.618  1.00  0.00     0.124 S 
ATOM     91  O   UNL A   1      49.176  27.057  36.635  1.00  0.00    -0.237 OA
ATOM     92  O   UNL A   1      48.189  27.651  38.825  1.00  0.00    -0.237 OA
ATOM     93  O   UNL A   1      47.751  25.437  37.836  1.00  0.00    -0.744 OA
ENDBRANCH  89  90
ENDBRANCH  57  82
BRANCH  69  94
ATOM     94  C   UNL A   1      39.784  33.471  37.389  1.00  0.00     0.058 A 
ATOM     95  C   UNL A   1      40.472  34.674  37.612  1.00  0.00     0.135 A 
ATOM     96  C   UNL A   1      38.845  33.065  38.351  1.00  0.00     0.135 A 
ATOM     97  F   UNL A   1      41.388  35.102  36.729  1.00  0.00    -0.206 F 
ATOM     98  C   UNL A   1      40.242  35.443  38.747  1.00  0.00     0.059 A 
ATOM     99  C   UNL A   1      38.580  33.831  39.481  1.00  0.00     0.059 A 
ATOM    100  F   UNL A   1      38.157  31.925  38.183  1.00  0.00    -0.206 F 
ATOM    101  C   UNL A   1      39.287  35.017  39.673  1.00  0.00     0.060 A 
BRANCH 101 102
ATOM    102  S   UNL A   1      38.955  36.055  41.112  1.00  0.00     0.124 S 
ATOM    103  O   UNL A   1      40.209  35.946  41.850  1.00  0.00    -0.237 OA
ATOM    104  O   UNL A   1      38.690  37.355  40.502  1.00  0.00    -0.237 OA
ATOM    105  O   UNL A   1      37.801  35.415  41.736  1.00  0.00    -0.744 OA
ENDBRANCH 101 102
ENDBRANCH  69  94
ENDBRANCH  43  44
ENDBRANCH  35  38
ENDBRANCH  33  34
ENDBRANCH  32  33
ENDBRANCH  31  32
ENDBRANCH   1  31
TORSDOF 19
ENDMDL
MODEL 2
REMARK VINA RESULT:     -11.6      4.758     10.638
REMARK SMILES Cc1noc(C)c1CCC(=O)N1CCC2(CC1)NC(=O)C[C@@H]2C(=O)NCCCCCCNC(=O)c1ccc(-c2c3nc(c(-c4c(F)cc(S(=O)(=O)[O-])cc4F)c4ccc([nH]4)c(-c4c(F)cc(S(=O)(=O)[O-])cc4F)c4nc(c(-c5c(F)cc(S(=O)(=O)[O-])cc5F)c5ccc2[nH]5)C=C4)C=C3)cc1
REMARK SMILES IDX 28 1 27 2 26 3 25 4 23 5 24 6 22 8 10 9 11 10 12 11 13 12
REMARK SMILES IDX 17 13 14 14 16 15 15 16 18 17 19 18 21 20 20 21 9 22 8 23
REMARK SMILES IDX 7 24 1 25 2 26 3 27 4 28 5 29 6 30 29 31 30 32 31 33 32 34
REMARK SMILES IDX 33 35 34 37 35 38 36 39 100 40 37 41 99 42 38 43 39 44 40 45
REMARK SMILES IDX 93 46 41 47 98 48 92 49 94 50 42 51 97 52 91 53 90 54 43 56
REMARK SMILES IDX 77 57 56 58 76 59 57 60 60 61 75 62 95 63 58 64 59 65 74 67
REMARK SMILES IDX 96 68 61 69 44 70 45 71 54 72 46 73 47 74 53 75 55 76 48 77
REMARK SMILES IDX 49 78 50 79 51 80 52 81 78 82 79 83 88 84 80 85 81 86 87 87
REMARK SMILES IDX 89 88 82 89 83 90 84 91 85 92 86 93 62 94 63 95 72 96 64 97
REMARK SMILES IDX 65 98 71 99 73 100 66 101 67 102 68 103 69 104 70 105
REMARK H PARENT 25 7 18 19 32 36 94 55 60 66
REMARK Flexibility Score: inf
ROOT
ATOM      1  C   UNL A   1      34.654  21.470  25.012  1.00  0.00     0.002 C 
ENDROOT
BRANCH   1   2
ATOM      2  C   UNL A   1      33.141  21.656  24.876  1.00  0.00     0.021 C 
BRANCH   2   3
ATOM      3  C   UNL A   1      32.583  22.744  25.767  1.00  0.00     0.116 C 
BRANCH   3   4
ATOM      4  N   UNL A   1      31.587  23.623  25.210  1.00  0.00    -0.356 N 
ATOM      5  C   UNL A   1      31.605  23.893  23.871  1.00  0.00     0.226 C 
ATOM      6  O   UNL A   1      30.720  23.346  23.197  1.00  0.00    -0.275 OA
ATOM      7  H   UNL A   1      30.900  24.024  25.789  1.00  0.00     0.163 HD
BRANCH   5   8
ATOM      8  C   UNL A   1      32.434  25.018  23.223  1.00  0.00     0.113 C 
ATOM      9  C   UNL A   1      31.902  28.225  26.943  1.00  0.00     0.222 C 
ATOM     10  O   UNL A   1      30.981  27.745  27.610  1.00  0.00    -0.275 OA
ATOM     11  N   UNL A   1      32.004  28.001  25.558  1.00  0.00    -0.343 N 
ATOM     12  C   UNL A   1      30.848  27.368  24.985  1.00  0.00     0.122 C 
ATOM     13  C   UNL A   1      33.281  27.664  24.958  1.00  0.00     0.122 C 
ATOM     14  C   UNL A   1      30.871  27.219  23.466  1.00  0.00     0.051 C 
ATOM     15  C   UNL A   1      33.292  27.438  23.455  1.00  0.00     0.051 C 
ATOM     16  C   UNL A   1      32.134  26.534  22.952  1.00  0.00     0.055 C 
ATOM     17  N   UNL A   1      32.164  26.631  21.501  1.00  0.00    -0.350 N 
ATOM     18  C   UNL A   1      32.696  25.546  20.863  1.00  0.00     0.221 C 
ATOM     19  H   UNL A   1      31.826  27.418  21.015  1.00  0.00     0.164 HD
ATOM     20  C   UNL A   1      32.834  24.430  21.844  1.00  0.00     0.116 C 
ATOM     21  O   UNL A   1      32.997  25.508  19.685  1.00  0.00    -0.275 OA
BRANCH   9  22
ATOM     22  C   UNL A   1      32.927  29.121  27.602  1.00  0.00     0.105 C 
BRANCH  22  23
ATOM     23  C   UNL A   1      32.749  30.608  27.310  1.00  0.00     0.051 C 
BRANCH  23  24
ATOM     24  C   UNL A   1      33.975  31.437  27.503  1.00  0.00     0.018 A 
ATOM     25  C   UNL A   1      32.971  33.822  27.957  1.00  0.00     0.071 C 
ATOM     26  C   UNL A   1      34.064  32.838  27.759  1.00  0.00     0.084 A 
ATOM     27  N   UNL A   1      35.334  33.221  27.939  1.00  0.00    -0.085 NA
ATOM     28  O   UNL A   1      36.097  32.080  27.816  1.00  0.00    -0.361 OA
ATOM     29  C   UNL A   1      35.290  31.014  27.573  1.00  0.00     0.137 A 
ATOM     30  C   UNL A   1      35.960  29.697  27.553  1.00  0.00     0.091 C 
ENDBRANCH  23  24
ENDBRANCH  22  23
ENDBRANCH   9  22
ENDBRANCH   5   8
ENDBRANCH   3   4
ENDBRANCH   2   3
ENDBRANCH   1   2
BRANCH   1  31
ATOM     31  C   UNL A   1      35.576  22.310  24.112  1.00  0.00     0.002 C 
BRANCH  31  32
ATOM     32  C   UNL A   1      36.038  23.675  24.629  1.00  0.00     0.021 C 
BRANCH  32  33
ATOM     33  C   UNL A   1      36.708  23.694  25.999  1.00  0.00     0.116 C 
BRANCH  33  34
ATOM     34  N   UNL A   1      37.781  22.721  26.120  1.00  0.00    -0.352 N 
ATOM     35  C   UNL A   1      39.100  22.878  26.462  1.00  0.00     0.251 C 
ATOM     36  H   UNL A   1      37.517  21.793  25.924  1.00  0.00     0.163 HD
ATOM     37  O   UNL A   1      39.865  21.921  26.376  1.00  0.00    -0.269 OA
BRANCH  35  38
ATOM     38  C   UNL A   1      39.612  24.191  26.907  1.00  0.00     0.039 A 
ATOM     39  C   UNL A   1      39.572  24.496  28.271  1.00  0.00     0.014 A 
ATOM     40  C   UNL A   1      40.112  25.123  25.996  1.00  0.00     0.014 A 
ATOM     41  C   UNL A   1      40.104  25.703  28.730  1.00  0.00     0.010 A 
ATOM     42  C   UNL A   1      40.697  26.299  26.459  1.00  0.00     0.010 A 
ATOM     43  C   UNL A   1      40.711  26.595  27.831  1.00  0.00    -0.014 A 
BRANCH  43  44
ATOM     44  C   UNL A   1      41.403  27.819  28.307  1.00  0.00     0.031 A 
ATOM     45  C   UNL A   1      42.903  27.910  28.262  1.00  0.00     0.074 A 
ATOM     46  C   UNL A   1      40.679  28.811  28.864  1.00  0.00     0.049 A 
ATOM     47  N   UNL A   1      43.688  28.838  28.743  1.00  0.00    -0.248 NA
ATOM     48  C   UNL A   1      43.614  26.798  27.610  1.00  0.00     0.031 C 
ATOM     49  C   UNL A   1      39.220  28.819  28.998  1.00  0.00     0.029 A 
ATOM     50  N   UNL A   1      41.069  29.992  29.444  1.00  0.00    -0.354 N 
ATOM     51  C   UNL A   1      44.984  28.418  28.470  1.00  0.00     0.074 A 
ATOM     52  C   UNL A   1      44.881  27.131  27.814  1.00  0.00     0.031 C 
ATOM     53  C   UNL A   1      38.840  29.949  29.612  1.00  0.00     0.029 A 
ATOM     54  C   UNL A   1      40.025  30.724  29.961  1.00  0.00     0.049 A 
ATOM     55  H   UNL A   1      42.007  30.288  29.486  1.00  0.00     0.167 HD
ATOM     56  C   UNL A   1      46.150  29.056  28.728  1.00  0.00     0.037 A 
ATOM     57  C   UNL A   1      40.025  31.876  30.660  1.00  0.00     0.037 A 
ATOM     58  C   UNL A   1      46.239  30.346  29.362  1.00  0.00     0.049 A 
ATOM     59  C   UNL A   1      41.335  32.554  30.957  1.00  0.00     0.074 A 
ATOM     60  C   UNL A   1      47.369  31.107  29.608  1.00  0.00     0.029 A 
ATOM     61  N   UNL A   1      45.160  31.062  29.860  1.00  0.00    -0.354 N 
ATOM     62  N   UNL A   1      42.547  32.175  30.632  1.00  0.00    -0.248 NA
ATOM     63  C   UNL A   1      41.280  33.810  31.717  1.00  0.00     0.031 C 
ATOM     64  C   UNL A   1      46.978  32.258  30.301  1.00  0.00     0.029 A 
ATOM     65  C   UNL A   1      45.600  32.240  30.441  1.00  0.00     0.049 A 
ATOM     66  H   UNL A   1      44.219  30.775  29.807  1.00  0.00     0.167 HD
ATOM     67  C   UNL A   1      43.399  33.155  31.131  1.00  0.00     0.074 A 
ATOM     68  C   UNL A   1      42.561  34.151  31.767  1.00  0.00     0.031 C 
ATOM     69  C   UNL A   1      44.751  33.222  31.071  1.00  0.00     0.037 A 
BRANCH  56  70
ATOM     70  C   UNL A   1      47.428  28.370  28.328  1.00  0.00     0.058 A 
ATOM     71  C   UNL A   1      48.130  27.540  29.216  1.00  0.00     0.135 A 
ATOM     72  C   UNL A   1      47.933  28.506  27.024  1.00  0.00     0.135 A 
ATOM     73  F   UNL A   1      47.700  27.383  30.478  1.00  0.00    -0.206 F 
ATOM     74  C   UNL A   1      49.302  26.892  28.836  1.00  0.00     0.059 A 
ATOM     75  C   UNL A   1      49.087  27.846  26.613  1.00  0.00     0.059 A 
ATOM     76  F   UNL A   1      47.302  29.287  26.133  1.00  0.00    -0.206 F 
ATOM     77  C   UNL A   1      49.771  27.051  27.532  1.00  0.00     0.060 A 
BRANCH  77  78
ATOM     78  S   UNL A   1      51.289  26.197  27.052  1.00  0.00     0.124 S 
ATOM     79  O   UNL A   1      52.134  26.433  28.218  1.00  0.00    -0.237 OA
ATOM     80  O   UNL A   1      50.829  24.824  26.871  1.00  0.00    -0.237 OA
ATOM     81  O   UNL A   1      51.697  26.885  25.832  1.00  0.00    -0.744 OA
ENDBRANCH  77  78
ENDBRANCH  56  70
BRANCH  57  82
ATOM     82  C   UNL A   1      38.738  32.455  31.133  1.00  0.00     0.058 A 
ATOM     83  C   UNL A   1      38.174  32.064  32.355  1.00  0.00     0.135 A 
ATOM     84  C   UNL A   1      38.056  33.424  30.379  1.00  0.00     0.135 A 
ATOM     85  F   UNL A   1      38.784  31.135  33.108  1.00  0.00    -0.206 F 
ATOM     86  C   UNL A   1      36.973  32.601  32.809  1.00  0.00     0.059 A 
ATOM     87  C   UNL A   1      36.869  33.995  30.824  1.00  0.00     0.059 A 
ATOM     88  F   UNL A   1      38.560  33.843  29.207  1.00  0.00    -0.206 F 
ATOM     89  C   UNL A   1      36.329  33.570  32.037  1.00  0.00     0.060 A 
BRANCH  89  90
ATOM     90  S   UNL A   1      34.798  34.297  32.657  1.00  0.00     0.124 S 
ATOM     91  O   UNL A   1      34.452  33.379  33.736  1.00  0.00    -0.237 OA
ATOM     92  O   UNL A   1      35.233  35.629  33.065  1.00  0.00    -0.237 OA
ATOM     93  O   UNL A   1      33.916  34.264  31.493  1.00  0.00    -0.744 OA
ENDBRANCH  89  90
ENDBRANCH  57  82
BRANCH  69  94
ATOM     94  C   UNL A   1      45.417  34.417  31.694  1.00  0.00     0.058 A 
ATOM     95  C   UNL A   1      45.641  35.595  30.963  1.00  0.00     0.135 A 
ATOM     96  C   UNL A   1      45.766  34.412  33.054  1.00  0.00     0.135 A 
ATOM     97  F   UNL A   1      45.335  35.649  29.657  1.00  0.00    -0.206 F 
ATOM     98  C   UNL A   1      46.194  36.723  31.558  1.00  0.00     0.059 A 
ATOM     99  C   UNL A   1      46.296  35.537  33.675  1.00  0.00     0.059 A 
ATOM    100  F   UNL A   1      45.566  33.313  33.798  1.00  0.00    -0.206 F 
ATOM    101  C   UNL A   1      46.512  36.688  32.917  1.00  0.00     0.060 A 
BRANCH 101 102
ATOM    102  S   UNL A   1      47.174  38.179  33.689  1.00  0.00     0.124 S 
ATOM    103  O   UNL A   1      48.267  37.637  34.489  1.00  0.00    -0.237 OA
ATOM    104  O   UNL A   1      47.569  38.978  32.533  1.00  0.00    -0.237 OA
ATOM    105  O   UNL A   1      46.041  38.703  34.448  1.00  0.00    -0.744 OA
ENDBRANCH 101 102
ENDBRANCH  69  94
ENDBRANCH  43  44
ENDBRANCH  35  38
ENDBRANCH  33  34
ENDBRANCH  32  33
ENDBRANCH  31  32
ENDBRANCH   1  31
TORSDOF 19
ENDMDL
MODEL 3
REMARK VINA RESULT:     -11.2      5.093     12.383
REMARK SMILES Cc1noc(C)c1CCC(=O)N1CCC2(CC1)NC(=O)C[C@@H]2C(=O)NCCCCCCNC(=O)c1ccc(-c2c3nc(c(-c4c(F)cc(S(=O)(=O)[O-])cc4F)c4ccc([nH]4)c(-c4c(F)cc(S(=O)(=O)[O-])cc4F)c4nc(c(-c5c(F)cc(S(=O)(=O)[O-])cc5F)c5ccc2[nH]5)C=C4)C=C3)cc1
REMARK SMILES IDX 28 1 27 2 26 3 25 4 23 5 24 6 22 8 10 9 11 10 12 11 13 12
REMARK SMILES IDX 17 13 14 14 16 15 15 16 18 17 19 18 21 20 20 21 9 22 8 23
REMARK SMILES IDX 7 24 1 25 2 26 3 27 4 28 5 29 6 30 29 31 30 32 31 33 32 34
REMARK SMILES IDX 33 35 34 37 35 38 36 39 100 40 37 41 99 42 38 43 39 44 40 45
REMARK SMILES IDX 93 46 41 47 98 48 92 49 94 50 42 51 97 52 91 53 90 54 43 56
REMARK SMILES IDX 77 57 56 58 76 59 57 60 60 61 75 62 95 63 58 64 59 65 74 67
REMARK SMILES IDX 96 68 61 69 44 70 45 71 54 72 46 73 47 74 53 75 55 76 48 77
REMARK SMILES IDX 49 78 50 79 51 80 52 81 78 82 79 83 88 84 80 85 81 86 87 87
REMARK SMILES IDX 89 88 82 89 83 90 84 91 85 92 86 93 62 94 63 95 72 96 64 97
REMARK SMILES IDX 65 98 71 99 73 100 66 101 67 102 68 103 69 104 70 105
REMARK H PARENT 25 7 18 19 32 36 94 55 60 66
REMARK Flexibility Score: inf
ROOT
ATOM      1  C   UNL A   1      38.840  33.139  30.143  1.00  0.00     0.002 C 
ENDROOT
BRANCH   1   2
ATOM      2  C   UNL A   1      40.083  33.900  30.609  1.00  0.00     0.021 C 
BRANCH   2   3
ATOM      3  C   UNL A   1      39.912  34.571  31.954  1.00  0.00     0.116 C 
BRANCH   3   4
ATOM      4  N   UNL A   1      40.360  33.855  33.122  1.00  0.00    -0.356 N 
ATOM      5  C   UNL A   1      40.823  32.577  32.988  1.00  0.00     0.226 C 
ATOM      6  O   UNL A   1      42.049  32.431  33.094  1.00  0.00    -0.275 OA
ATOM      7  H   UNL A   1      40.332  34.283  34.007  1.00  0.00     0.163 HD
BRANCH   5   8
ATOM      8  C   UNL A   1      39.930  31.322  33.009  1.00  0.00     0.113 C 
ATOM      9  C   UNL A   1      35.650  33.772  33.305  1.00  0.00     0.222 C 
ATOM     10  O   UNL A   1      35.993  34.917  33.614  1.00  0.00    -0.275 OA
ATOM     11  N   UNL A   1      36.417  32.651  33.667  1.00  0.00    -0.343 N 
ATOM     12  C   UNL A   1      37.479  32.945  34.590  1.00  0.00     0.122 C 
ATOM     13  C   UNL A   1      36.680  31.596  32.707  1.00  0.00     0.122 C 
ATOM     14  C   UNL A   1      38.256  31.735  35.101  1.00  0.00     0.051 C 
ATOM     15  C   UNL A   1      37.520  30.424  33.189  1.00  0.00     0.051 C 
ATOM     16  C   UNL A   1      38.789  30.849  33.977  1.00  0.00     0.055 C 
ATOM     17  N   UNL A   1      39.320  29.625  34.554  1.00  0.00    -0.350 N 
ATOM     18  C   UNL A   1      40.421  29.121  33.922  1.00  0.00     0.221 C 
ATOM     19  H   UNL A   1      38.917  29.192  35.342  1.00  0.00     0.164 HD
ATOM     20  C   UNL A   1      40.945  30.149  32.975  1.00  0.00     0.116 C 
ATOM     21  O   UNL A   1      40.892  28.017  34.115  1.00  0.00    -0.275 OA
BRANCH   9  22
ATOM     22  C   UNL A   1      34.352  33.545  32.564  1.00  0.00     0.105 C 
BRANCH  22  23
ATOM     23  C   UNL A   1      33.255  34.557  32.884  1.00  0.00     0.051 C 
BRANCH  23  24
ATOM     24  C   UNL A   1      33.197  35.731  31.964  1.00  0.00     0.018 A 
ATOM     25  C   UNL A   1      33.620  37.742  33.601  1.00  0.00     0.071 C 
ATOM     26  C   UNL A   1      33.332  37.114  32.288  1.00  0.00     0.084 A 
ATOM     27  N   UNL A   1      33.288  37.879  31.190  1.00  0.00    -0.085 NA
ATOM     28  O   UNL A   1      33.135  37.013  30.129  1.00  0.00    -0.361 OA
ATOM     29  C   UNL A   1      33.097  35.733  30.585  1.00  0.00     0.137 A 
ATOM     30  C   UNL A   1      33.073  34.684  29.544  1.00  0.00     0.091 C 
ENDBRANCH  23  24
ENDBRANCH  22  23
ENDBRANCH   9  22
ENDBRANCH   5   8
ENDBRANCH   3   4
ENDBRANCH   2   3
ENDBRANCH   1   2
BRANCH   1  31
ATOM     31  C   UNL A   1      38.036  33.709  28.962  1.00  0.00     0.002 C 
BRANCH  31  32
ATOM     32  C   UNL A   1      36.542  33.383  28.884  1.00  0.00     0.021 C 
BRANCH  32  33
ATOM     33  C   UNL A   1      36.015  32.357  29.882  1.00  0.00     0.116 C 
BRANCH  33  34
ATOM     34  N   UNL A   1      35.198  31.328  29.262  1.00  0.00    -0.352 N 
ATOM     35  C   UNL A   1      35.550  30.163  28.629  1.00  0.00     0.251 C 
ATOM     36  H   UNL A   1      34.228  31.494  29.303  1.00  0.00     0.163 HD
ATOM     37  O   UNL A   1      34.687  29.499  28.061  1.00  0.00    -0.269 OA
BRANCH  35  38
ATOM     38  C   UNL A   1      36.959  29.716  28.602  1.00  0.00     0.039 A 
ATOM     39  C   UNL A   1      37.667  29.813  27.401  1.00  0.00     0.014 A 
ATOM     40  C   UNL A   1      37.576  29.192  29.739  1.00  0.00     0.014 A 
ATOM     41  C   UNL A   1      39.017  29.456  27.358  1.00  0.00     0.010 A 
ATOM     42  C   UNL A   1      38.937  28.893  29.712  1.00  0.00     0.010 A 
ATOM     43  C   UNL A   1      39.673  29.036  28.526  1.00  0.00    -0.014 A 
BRANCH  43  44
ATOM     44  C   UNL A   1      41.136  28.781  28.540  1.00  0.00     0.031 A 
ATOM     45  C   UNL A   1      41.673  27.421  28.192  1.00  0.00     0.074 A 
ATOM     46  C   UNL A   1      41.971  29.754  28.957  1.00  0.00     0.049 A 
ATOM     47  N   UNL A   1      42.899  26.974  28.268  1.00  0.00    -0.248 NA
ATOM     48  C   UNL A   1      40.698  26.425  27.718  1.00  0.00     0.031 C 
ATOM     49  C   UNL A   1      41.561  31.103  29.357  1.00  0.00     0.029 A 
ATOM     50  N   UNL A   1      43.331  29.755  29.138  1.00  0.00    -0.354 N 
ATOM     51  C   UNL A   1      42.844  25.644  27.869  1.00  0.00     0.074 A 
ATOM     52  C   UNL A   1      41.455  25.345  27.589  1.00  0.00     0.031 C 
ATOM     53  C   UNL A   1      42.645  31.800  29.729  1.00  0.00     0.029 A 
ATOM     54  C   UNL A   1      43.820  30.939  29.642  1.00  0.00     0.049 A 
ATOM     55  H   UNL A   1      43.903  28.983  28.927  1.00  0.00     0.167 HD
ATOM     56  C   UNL A   1      43.861  24.760  27.734  1.00  0.00     0.037 A 
ATOM     57  C   UNL A   1      45.067  31.282  30.017  1.00  0.00     0.037 A 
ATOM     58  C   UNL A   1      45.242  25.076  27.997  1.00  0.00     0.049 A 
ATOM     59  C   UNL A   1      46.177  30.275  29.882  1.00  0.00     0.074 A 
ATOM     60  C   UNL A   1      46.355  24.270  27.825  1.00  0.00     0.029 A 
ATOM     61  N   UNL A   1      45.699  26.288  28.493  1.00  0.00    -0.354 N 
ATOM     62  N   UNL A   1      46.117  29.042  29.439  1.00  0.00    -0.248 NA
ATOM     63  C   UNL A   1      47.520  30.701  30.299  1.00  0.00     0.031 C 
ATOM     64  C   UNL A   1      47.478  24.977  28.268  1.00  0.00     0.029 A 
ATOM     65  C   UNL A   1      47.073  26.241  28.666  1.00  0.00     0.049 A 
ATOM     66  H   UNL A   1      45.131  27.067  28.692  1.00  0.00     0.167 HD
ATOM     67  C   UNL A   1      47.416  28.550  29.507  1.00  0.00     0.074 A 
ATOM     68  C   UNL A   1      48.243  29.625  30.019  1.00  0.00     0.031 C 
ATOM     69  C   UNL A   1      47.881  27.321  29.178  1.00  0.00     0.037 A 
BRANCH  56  70
ATOM     70  C   UNL A   1      43.523  23.365  27.286  1.00  0.00     0.058 A 
ATOM     71  C   UNL A   1      42.919  22.437  28.149  1.00  0.00     0.135 A 
ATOM     72  C   UNL A   1      43.762  22.964  25.960  1.00  0.00     0.135 A 
ATOM     73  F   UNL A   1      42.678  22.762  29.429  1.00  0.00    -0.206 F 
ATOM     74  C   UNL A   1      42.590  21.153  27.724  1.00  0.00     0.059 A 
ATOM     75  C   UNL A   1      43.416  21.694  25.505  1.00  0.00     0.059 A 
ATOM     76  F   UNL A   1      44.337  23.810  25.092  1.00  0.00    -0.206 F 
ATOM     77  C   UNL A   1      42.842  20.792  26.400  1.00  0.00     0.060 A 
BRANCH  77  78
ATOM     78  S   UNL A   1      42.402  19.125  25.863  1.00  0.00     0.124 S 
ATOM     79  O   UNL A   1      40.956  19.245  25.703  1.00  0.00    -0.237 OA
ATOM     80  O   UNL A   1      43.166  18.984  24.628  1.00  0.00    -0.237 OA
ATOM     81  O   UNL A   1      42.842  18.282  26.969  1.00  0.00    -0.744 OA
ENDBRANCH  77  78
ENDBRANCH  56  70
BRANCH  57  82
ATOM     82  C   UNL A   1      45.329  32.642  30.563  1.00  0.00     0.058 A 
ATOM     83  C   UNL A   1      45.597  33.724  29.713  1.00  0.00     0.135 A 
ATOM     84  C   UNL A   1      45.299  32.888  31.945  1.00  0.00     0.135 A 
ATOM     85  F   UNL A   1      45.644  33.537  28.385  1.00  0.00    -0.206 F 
ATOM     86  C   UNL A   1      45.839  35.001  30.212  1.00  0.00     0.059 A 
ATOM     87  C   UNL A   1      45.512  34.160  32.466  1.00  0.00     0.059 A 
ATOM     88  F   UNL A   1      45.035  31.890  32.803  1.00  0.00    -0.206 F 
ATOM     89  C   UNL A   1      45.791  35.209  31.591  1.00  0.00     0.060 A 
BRANCH  89  90
ATOM     90  S   UNL A   1      46.057  36.878  32.226  1.00  0.00     0.124 S 
ATOM     91  O   UNL A   1      44.760  37.176  32.822  1.00  0.00    -0.237 OA
ATOM     92  O   UNL A   1      47.161  36.679  33.161  1.00  0.00    -0.237 OA
ATOM     93  O   UNL A   1      46.392  37.643  31.027  1.00  0.00    -0.744 OA
ENDBRANCH  89  90
ENDBRANCH  57  82
BRANCH  69  94
ATOM     94  C   UNL A   1      49.354  27.067  29.344  1.00  0.00     0.058 A 
ATOM     95  C   UNL A   1      50.294  27.584  28.438  1.00  0.00     0.135 A 
ATOM     96  C   UNL A   1      49.836  26.364  30.460  1.00  0.00     0.135 A 
ATOM     97  F   UNL A   1      49.885  28.254  27.349  1.00  0.00    -0.206 F 
ATOM     98  C   UNL A   1      51.659  27.406  28.629  1.00  0.00     0.059 A 
ATOM     99  C   UNL A   1      51.197  26.197  30.684  1.00  0.00     0.059 A 
ATOM    100  F   UNL A   1      48.978  25.854  31.358  1.00  0.00    -0.206 F 
ATOM    101  C   UNL A   1      52.102  26.717  29.760  1.00  0.00     0.060 A 
BRANCH 101 102
ATOM    102  S   UNL A   1      53.880  26.547  30.026  1.00  0.00     0.124 S 
ATOM    103  O   UNL A   1      53.920  25.786  31.271  1.00  0.00    -0.237 OA
ATOM    104  O   UNL A   1      54.305  25.828  28.830  1.00  0.00    -0.237 OA
ATOM    105  O   UNL A   1      54.345  27.928  30.119  1.00  0.00    -0.744 OA
ENDBRANCH 101 102
ENDBRANCH  69  94
ENDBRANCH  43  44
ENDBRANCH  35  38
ENDBRANCH  33  34
ENDBRANCH  32  33
ENDBRANCH  31  32
ENDBRANCH   1  31
TORSDOF 19
ENDMDL
