MODEL 1
REMARK VINA RESULT:     -11.7      0.000      0.000
REMARK SMILES Cc1cc(C)c2c(c1)C=C(C(=O)NCCCCCCNC(=O)c1ccc(-c3c4nc(c(-c5c(F)cc(S(=O)(=O)[O-])cc5F)c5ccc([nH]5)c(-c5c(F)cc(S(=O)(=O)[O-])cc5F)c5nc(c(-c6c(F)cc(S(=O)(=O)[O-])cc6F)c6ccc3[nH]6)C=C5)C=C4)cc1)[C@@H](C(F)(F)F)O2
REMARK SMILES IDX 17 1 16 2 15 3 14 4 13 5 11 6 12 7 10 9 1 10 2 11 3 12 8 13
REMARK SMILES IDX 4 14 7 15 5 16 6 17 9 18 94 19 89 20 90 21 91 22 92 23 93 24
REMARK SMILES IDX 18 25 19 26 20 27 21 28 22 30 23 31 24 32 88 33 25 34 87 35
REMARK SMILES IDX 26 36 27 37 28 38 81 39 29 40 86 41 80 42 82 43 30 44 85 45
REMARK SMILES IDX 79 46 78 47 31 49 65 50 44 51 64 52 45 53 48 54 63 55 83 56
REMARK SMILES IDX 46 57 47 58 62 60 84 61 49 62 32 63 33 64 42 65 34 66 35 67
REMARK SMILES IDX 41 68 43 69 36 70 37 71 38 72 39 73 40 74 66 75 67 76 76 77
REMARK SMILES IDX 68 78 69 79 75 80 77 81 70 82 71 83 72 84 73 85 74 86 50 87
REMARK SMILES IDX 51 88 60 89 52 90 53 91 59 92 61 93 54 94 55 95 56 96 57 97
REMARK SMILES IDX 58 98
REMARK H PARENT 13 8 20 29 82 48 48 59
REMARK Flexibility Score: inf
ROOT
ATOM      1  C   UNL A   1      33.377  28.759  24.540  1.00  0.00     0.002 C 
ENDROOT
BRANCH   1   2
ATOM      2  C   UNL A   1      32.245  28.974  23.528  1.00  0.00     0.002 C 
BRANCH   2   3
ATOM      3  C   UNL A   1      30.931  28.262  23.859  1.00  0.00     0.021 C 
BRANCH   3   4
ATOM      4  C   UNL A   1      30.470  27.289  22.777  1.00  0.00     0.116 C 
BRANCH   4   5
ATOM      5  N   UNL A   1      31.566  26.887  21.912  1.00  0.00    -0.352 N 
ATOM      6  C   UNL A   1      32.623  26.045  21.977  1.00  0.00     0.251 C 
ATOM      7  O   UNL A   1      33.315  25.993  20.954  1.00  0.00    -0.270 OA
ATOM      8  H   UNL A   1      31.528  27.352  21.044  1.00  0.00     0.163 HD
BRANCH   6   9
ATOM      9  C   UNL A   1      32.991  25.210  23.159  1.00  0.00     0.067 C 
ATOM     10  C   UNL A   1      37.853  22.276  25.603  1.00  0.00     0.044 C 
ATOM     11  C   UNL A   1      36.453  22.812  25.553  1.00  0.00    -0.050 A 
ATOM     12  C   UNL A   1      35.542  22.529  26.580  1.00  0.00     0.010 A 
ATOM     13  C   UNL A   1      36.040  23.588  24.461  1.00  0.00     0.015 A 
ATOM     14  C   UNL A   1      34.232  23.021  26.530  1.00  0.00    -0.008 A 
ATOM     15  C   UNL A   1      34.734  24.078  24.393  1.00  0.00     0.018 A 
ATOM     16  C   UNL A   1      33.259  22.719  27.634  1.00  0.00     0.048 C 
ATOM     17  C   UNL A   1      33.840  23.787  25.425  1.00  0.00     0.130 A 
ATOM     18  C   UNL A   1      34.299  24.916  23.282  1.00  0.00     0.025 C 
ATOM     19  O   UNL A   1      32.563  24.268  25.432  1.00  0.00    -0.475 OA
ATOM     20  C   UNL A   1      32.006  24.667  24.154  1.00  0.00     0.314 C 
BRANCH  20  21
ATOM     21  C   UNL A   1      31.161  23.512  23.588  1.00  0.00     0.429 C 
ATOM     22  F   UNL A   1      30.061  23.990  22.956  1.00  0.00    -0.167 F 
ATOM     23  F   UNL A   1      31.837  22.776  22.673  1.00  0.00    -0.167 F 
ATOM     24  F   UNL A   1      30.742  22.656  24.546  1.00  0.00    -0.167 F 
ENDBRANCH  20  21
ENDBRANCH   6   9
ENDBRANCH   4   5
ENDBRANCH   3   4
ENDBRANCH   2   3
ENDBRANCH   1   2
BRANCH   1  25
ATOM     25  C   UNL A   1      33.043  27.838  25.719  1.00  0.00     0.021 C 
BRANCH  25  26
ATOM     26  C   UNL A   1      33.746  28.194  27.026  1.00  0.00     0.116 C 
BRANCH  26  27
ATOM     27  N   UNL A   1      33.581  29.599  27.355  1.00  0.00    -0.352 N 
ATOM     28  C   UNL A   1      34.426  30.439  28.027  1.00  0.00     0.251 C 
ATOM     29  H   UNL A   1      32.737  30.006  27.052  1.00  0.00     0.163 HD
ATOM     30  O   UNL A   1      34.012  31.529  28.426  1.00  0.00    -0.269 OA
BRANCH  28  31
ATOM     31  C   UNL A   1      35.829  30.048  28.271  1.00  0.00     0.039 A 
ATOM     32  C   UNL A   1      36.197  29.615  29.548  1.00  0.00     0.014 A 
ATOM     33  C   UNL A   1      36.791  30.159  27.263  1.00  0.00     0.014 A 
ATOM     34  C   UNL A   1      37.524  29.267  29.806  1.00  0.00     0.010 A 
ATOM     35  C   UNL A   1      38.102  29.756  27.504  1.00  0.00     0.010 A 
ATOM     36  C   UNL A   1      38.483  29.324  28.784  1.00  0.00    -0.014 A 
BRANCH  36  37
ATOM     37  C   UNL A   1      39.904  28.989  29.044  1.00  0.00     0.031 A 
ATOM     38  C   UNL A   1      40.816  30.025  29.643  1.00  0.00     0.074 A 
ATOM     39  C   UNL A   1      40.380  27.775  28.705  1.00  0.00     0.049 A 
ATOM     40  N   UNL A   1      42.103  29.966  29.863  1.00  0.00    -0.248 NA
ATOM     41  C   UNL A   1      40.200  31.307  30.025  1.00  0.00     0.031 C 
ATOM     42  C   UNL A   1      39.594  26.696  28.104  1.00  0.00     0.029 A 
ATOM     43  N   UNL A   1      41.642  27.249  28.812  1.00  0.00    -0.354 N 
ATOM     44  C   UNL A   1      42.453  31.199  30.401  1.00  0.00     0.074 A 
ATOM     45  C   UNL A   1      41.252  32.005  30.427  1.00  0.00     0.031 C 
ATOM     46  C   UNL A   1      40.388  25.630  27.913  1.00  0.00     0.029 A 
ATOM     47  C   UNL A   1      41.744  25.962  28.339  1.00  0.00     0.049 A 
ATOM     48  H   UNL A   1      42.403  27.745  29.191  1.00  0.00     0.167 HD
ATOM     49  C   UNL A   1      43.660  31.612  30.854  1.00  0.00     0.037 A 
ATOM     50  C   UNL A   1      42.814  25.146  28.253  1.00  0.00     0.037 A 
ATOM     51  C   UNL A   1      44.845  30.795  30.845  1.00  0.00     0.049 A 
ATOM     52  C   UNL A   1      44.150  25.639  28.737  1.00  0.00     0.074 A 
ATOM     53  C   UNL A   1      46.110  31.109  31.311  1.00  0.00     0.029 A 
ATOM     54  N   UNL A   1      44.910  29.500  30.351  1.00  0.00    -0.354 N 
ATOM     55  N   UNL A   1      44.460  26.802  29.260  1.00  0.00    -0.248 NA
ATOM     56  C   UNL A   1      45.281  24.711  28.619  1.00  0.00     0.031 C 
ATOM     57  C   UNL A   1      46.949  30.016  31.064  1.00  0.00     0.029 A 
ATOM     58  C   UNL A   1      46.198  29.007  30.485  1.00  0.00     0.049 A 
ATOM     59  H   UNL A   1      44.154  29.005  29.962  1.00  0.00     0.167 HD
ATOM     60  C   UNL A   1      45.819  26.739  29.548  1.00  0.00     0.074 A 
ATOM     61  C   UNL A   1      46.266  25.416  29.159  1.00  0.00     0.031 C 
ATOM     62  C   UNL A   1      46.624  27.690  30.083  1.00  0.00     0.037 A 
BRANCH  49  63
ATOM     63  C   UNL A   1      43.758  33.008  31.405  1.00  0.00     0.058 A 
ATOM     64  C   UNL A   1      44.086  34.099  30.584  1.00  0.00     0.135 A 
ATOM     65  C   UNL A   1      43.480  33.265  32.757  1.00  0.00     0.135 A 
ATOM     66  F   UNL A   1      44.380  33.906  29.288  1.00  0.00    -0.206 F 
ATOM     67  C   UNL A   1      44.152  35.393  31.088  1.00  0.00     0.059 A 
ATOM     68  C   UNL A   1      43.515  34.556  33.277  1.00  0.00     0.059 A 
ATOM     69  F   UNL A   1      43.167  32.258  33.587  1.00  0.00    -0.206 F 
ATOM     70  C   UNL A   1      43.862  35.613  32.435  1.00  0.00     0.060 A 
BRANCH  70  71
ATOM     71  S   UNL A   1      43.935  37.302  33.066  1.00  0.00     0.124 S 
ATOM     72  O   UNL A   1      43.811  38.079  31.836  1.00  0.00    -0.237 OA
ATOM     73  O   UNL A   1      42.784  37.348  33.964  1.00  0.00    -0.237 OA
ATOM     74  O   UNL A   1      45.238  37.367  33.720  1.00  0.00    -0.744 OA
ENDBRANCH  70  71
ENDBRANCH  49  63
BRANCH  50  75
ATOM     75  C   UNL A   1      42.657  23.775  27.700  1.00  0.00     0.058 A 
ATOM     76  C   UNL A   1      42.499  22.672  28.551  1.00  0.00     0.135 A 
ATOM     77  C   UNL A   1      42.643  23.542  26.316  1.00  0.00     0.135 A 
ATOM     78  F   UNL A   1      42.516  22.844  29.881  1.00  0.00    -0.206 F 
ATOM     79  C   UNL A   1      42.340  21.384  28.052  1.00  0.00     0.059 A 
ATOM     80  C   UNL A   1      42.461  22.265  25.793  1.00  0.00     0.059 A 
ATOM     81  F   UNL A   1      42.777  24.566  25.459  1.00  0.00    -0.206 F 
ATOM     82  C   UNL A   1      42.317  21.191  26.670  1.00  0.00     0.060 A 
BRANCH  82  83
ATOM     83  S   UNL A   1      42.050  19.521  26.035  1.00  0.00     0.124 S 
ATOM     84  O   UNL A   1      40.608  19.515  25.822  1.00  0.00    -0.237 OA
ATOM     85  O   UNL A   1      42.875  19.518  24.829  1.00  0.00    -0.237 OA
ATOM     86  O   UNL A   1      42.534  18.670  27.118  1.00  0.00    -0.744 OA
ENDBRANCH  82  83
ENDBRANCH  50  75
BRANCH  62  87
ATOM     87  C   UNL A   1      48.070  27.330  30.285  1.00  0.00     0.058 A 
ATOM     88  C   UNL A   1      49.056  27.703  29.359  1.00  0.00     0.135 A 
ATOM     89  C   UNL A   1      48.480  26.640  31.438  1.00  0.00     0.135 A 
ATOM     90  F   UNL A   1      48.715  28.360  28.239  1.00  0.00    -0.206 F 
ATOM     91  C   UNL A   1      50.394  27.379  29.552  1.00  0.00     0.059 A 
ATOM     92  C   UNL A   1      49.818  26.330  31.665  1.00  0.00     0.059 A 
ATOM     93  F   UNL A   1      47.579  26.271  32.362  1.00  0.00    -0.206 F 
ATOM     94  C   UNL A   1      50.765  26.692  30.710  1.00  0.00     0.060 A 
BRANCH  94  95
ATOM     95  S   UNL A   1      52.508  26.293  30.955  1.00  0.00     0.124 S 
ATOM     96  O   UNL A   1      53.000  27.507  31.594  1.00  0.00    -0.237 OA
ATOM     97  O   UNL A   1      52.440  25.110  31.808  1.00  0.00    -0.237 OA
ATOM     98  O   UNL A   1      52.996  26.053  29.600  1.00  0.00    -0.744 OA
ENDBRANCH  94  95
ENDBRANCH  62  87
ENDBRANCH  36  37
ENDBRANCH  28  31
ENDBRANCH  26  27
ENDBRANCH  25  26
ENDBRANCH   1  25
TORSDOF 17
ENDMDL
MODEL 2
REMARK VINA RESULT:     -11.5      4.788     10.206
REMARK SMILES Cc1cc(C)c2c(c1)C=C(C(=O)NCCCCCCNC(=O)c1ccc(-c3c4nc(c(-c5c(F)cc(S(=O)(=O)[O-])cc5F)c5ccc([nH]5)c(-c5c(F)cc(S(=O)(=O)[O-])cc5F)c5nc(c(-c6c(F)cc(S(=O)(=O)[O-])cc6F)c6ccc3[nH]6)C=C5)C=C4)cc1)[C@@H](C(F)(F)F)O2
REMARK SMILES IDX 17 1 16 2 15 3 14 4 13 5 11 6 12 7 10 9 1 10 2 11 3 12 8 13
REMARK SMILES IDX 4 14 7 15 5 16 6 17 9 18 94 19 89 20 90 21 91 22 92 23 93 24
REMARK SMILES IDX 18 25 19 26 20 27 21 28 22 30 23 31 24 32 88 33 25 34 87 35
REMARK SMILES IDX 26 36 27 37 28 38 81 39 29 40 86 41 80 42 82 43 30 44 85 45
REMARK SMILES IDX 79 46 78 47 31 49 65 50 44 51 64 52 45 53 48 54 63 55 83 56
REMARK SMILES IDX 46 57 47 58 62 60 84 61 49 62 32 63 33 64 42 65 34 66 35 67
REMARK SMILES IDX 41 68 43 69 36 70 37 71 38 72 39 73 40 74 66 75 67 76 76 77
REMARK SMILES IDX 68 78 69 79 75 80 77 81 70 82 71 83 72 84 73 85 74 86 50 87
REMARK SMILES IDX 51 88 60 89 52 90 53 91 59 92 61 93 54 94 55 95 56 96 57 97
REMARK SMILES IDX 58 98
REMARK H PARENT 13 8 20 29 82 48 48 59
REMARK Flexibility Score: inf
ROOT
ATOM      1  C   UNL A   1      36.223  24.067  25.752  1.00  0.00     0.002 C 
ENDROOT
BRANCH   1   2
ATOM      2  C   UNL A   1      35.170  23.097  26.303  1.00  0.00     0.002 C 
BRANCH   2   3
ATOM      3  C   UNL A   1      34.756  21.974  25.350  1.00  0.00     0.021 C 
BRANCH   3   4
ATOM      4  C   UNL A   1      33.405  22.203  24.679  1.00  0.00     0.116 C 
BRANCH   4   5
ATOM      5  N   UNL A   1      33.554  22.605  23.291  1.00  0.00    -0.352 N 
ATOM      6  C   UNL A   1      33.379  23.730  22.560  1.00  0.00     0.251 C 
ATOM      7  O   UNL A   1      33.664  23.626  21.362  1.00  0.00    -0.270 OA
ATOM      8  H   UNL A   1      33.869  21.858  22.732  1.00  0.00     0.163 HD
BRANCH   6   9
ATOM      9  C   UNL A   1      32.882  25.035  23.088  1.00  0.00     0.067 C 
ATOM     10  C   UNL A   1      34.472  29.491  27.068  1.00  0.00     0.044 C 
ATOM     11  C   UNL A   1      33.659  28.834  25.992  1.00  0.00    -0.050 A 
ATOM     12  C   UNL A   1      32.484  29.433  25.517  1.00  0.00     0.010 A 
ATOM     13  C   UNL A   1      34.063  27.598  25.468  1.00  0.00     0.015 A 
ATOM     14  C   UNL A   1      31.719  28.816  24.520  1.00  0.00    -0.008 A 
ATOM     15  C   UNL A   1      33.305  26.967  24.479  1.00  0.00     0.018 A 
ATOM     16  C   UNL A   1      30.463  29.462  24.010  1.00  0.00     0.048 C 
ATOM     17  C   UNL A   1      32.137  27.578  24.016  1.00  0.00     0.130 A 
ATOM     18  C   UNL A   1      33.729  25.699  23.897  1.00  0.00     0.025 C 
ATOM     19  O   UNL A   1      31.376  27.027  23.027  1.00  0.00    -0.475 OA
ATOM     20  C   UNL A   1      31.520  25.601  22.807  1.00  0.00     0.314 C 
BRANCH  20  21
ATOM     21  C   UNL A   1      30.400  24.858  23.557  1.00  0.00     0.429 C 
ATOM     22  F   UNL A   1      30.815  24.494  24.795  1.00  0.00    -0.167 F 
ATOM     23  F   UNL A   1      29.297  25.626  23.735  1.00  0.00    -0.167 F 
ATOM     24  F   UNL A   1      29.997  23.739  22.915  1.00  0.00    -0.167 F 
ENDBRANCH  20  21
ENDBRANCH   6   9
ENDBRANCH   4   5
ENDBRANCH   3   4
ENDBRANCH   2   3
ENDBRANCH   1   2
BRANCH   1  25
ATOM     25  C   UNL A   1      37.644  23.503  25.641  1.00  0.00     0.021 C 
BRANCH  25  26
ATOM     26  C   UNL A   1      38.633  24.063  26.660  1.00  0.00     0.116 C 
BRANCH  26  27
ATOM     27  N   UNL A   1      39.992  24.054  26.146  1.00  0.00    -0.352 N 
ATOM     28  C   UNL A   1      41.018  24.926  26.387  1.00  0.00     0.251 C 
ATOM     29  H   UNL A   1      40.205  23.312  25.535  1.00  0.00     0.163 HD
ATOM     30  O   UNL A   1      42.022  24.897  25.673  1.00  0.00    -0.269 OA
BRANCH  28  31
ATOM     31  C   UNL A   1      40.929  25.895  27.498  1.00  0.00     0.039 A 
ATOM     32  C   UNL A   1      39.927  25.730  28.459  1.00  0.00     0.014 A 
ATOM     33  C   UNL A   1      41.791  26.993  27.563  1.00  0.00     0.014 A 
ATOM     34  C   UNL A   1      39.809  26.651  29.501  1.00  0.00     0.010 A 
ATOM     35  C   UNL A   1      41.710  27.878  28.635  1.00  0.00     0.010 A 
ATOM     36  C   UNL A   1      40.707  27.725  29.604  1.00  0.00    -0.014 A 
BRANCH  36  37
ATOM     37  C   UNL A   1      40.580  28.732  30.685  1.00  0.00     0.031 A 
ATOM     38  C   UNL A   1      41.465  28.637  31.897  1.00  0.00     0.074 A 
ATOM     39  C   UNL A   1      39.648  29.700  30.594  1.00  0.00     0.049 A 
ATOM     40  N   UNL A   1      41.452  29.357  32.989  1.00  0.00    -0.248 NA
ATOM     41  C   UNL A   1      42.487  27.577  31.891  1.00  0.00     0.031 C 
ATOM     42  C   UNL A   1      38.724  29.882  29.473  1.00  0.00     0.029 A 
ATOM     43  N   UNL A   1      39.320  30.708  31.463  1.00  0.00    -0.354 N 
ATOM     44  C   UNL A   1      42.454  28.836  33.799  1.00  0.00     0.074 A 
ATOM     45  C   UNL A   1      43.021  27.706  33.096  1.00  0.00     0.031 C 
ATOM     46  C   UNL A   1      37.946  30.949  29.715  1.00  0.00     0.029 A 
ATOM     47  C   UNL A   1      38.288  31.502  31.022  1.00  0.00     0.049 A 
ATOM     48  H   UNL A   1      39.779  30.850  32.323  1.00  0.00     0.167 HD
ATOM     49  C   UNL A   1      42.877  29.274  35.008  1.00  0.00     0.037 A 
ATOM     50  C   UNL A   1      37.681  32.552  31.612  1.00  0.00     0.037 A 
ATOM     51  C   UNL A   1      42.322  30.413  35.690  1.00  0.00     0.049 A 
ATOM     52  C   UNL A   1      38.152  33.001  32.968  1.00  0.00     0.074 A 
ATOM     53  C   UNL A   1      42.702  30.958  36.904  1.00  0.00     0.029 A 
ATOM     54  N   UNL A   1      41.273  31.186  35.216  1.00  0.00    -0.354 N 
ATOM     55  N   UNL A   1      39.113  32.509  33.713  1.00  0.00    -0.248 NA
ATOM     56  C   UNL A   1      37.456  34.150  33.564  1.00  0.00     0.031 C 
ATOM     57  C   UNL A   1      41.857  32.039  37.181  1.00  0.00     0.029 A 
ATOM     58  C   UNL A   1      40.980  32.194  36.120  1.00  0.00     0.049 A 
ATOM     59  H   UNL A   1      40.805  31.040  34.362  1.00  0.00     0.167 HD
ATOM     60  C   UNL A   1      39.148  33.295  34.858  1.00  0.00     0.074 A 
ATOM     61  C   UNL A   1      38.124  34.309  34.698  1.00  0.00     0.031 C 
ATOM     62  C   UNL A   1      39.951  33.188  35.946  1.00  0.00     0.037 A 
BRANCH  49  63
ATOM     63  C   UNL A   1      44.002  28.523  35.667  1.00  0.00     0.058 A 
ATOM     64  C   UNL A   1      45.341  28.906  35.491  1.00  0.00     0.135 A 
ATOM     65  C   UNL A   1      43.737  27.437  36.518  1.00  0.00     0.135 A 
ATOM     66  F   UNL A   1      45.651  29.924  34.673  1.00  0.00    -0.206 F 
ATOM     67  C   UNL A   1      46.379  28.227  36.120  1.00  0.00     0.059 A 
ATOM     68  C   UNL A   1      44.759  26.761  37.179  1.00  0.00     0.059 A 
ATOM     69  F   UNL A   1      42.475  27.027  36.717  1.00  0.00    -0.206 F 
ATOM     70  C   UNL A   1      46.078  27.158  36.964  1.00  0.00     0.060 A 
BRANCH  70  71
ATOM     71  S   UNL A   1      47.438  26.302  37.787  1.00  0.00     0.124 S 
ATOM     72  O   UNL A   1      48.500  27.301  37.710  1.00  0.00    -0.237 OA
ATOM     73  O   UNL A   1      46.892  26.060  39.119  1.00  0.00    -0.237 OA
ATOM     74  O   UNL A   1      47.638  25.111  36.968  1.00  0.00    -0.744 OA
ENDBRANCH  70  71
ENDBRANCH  49  63
BRANCH  50  75
ATOM     75  C   UNL A   1      36.575  33.257  30.912  1.00  0.00     0.058 A 
ATOM     76  C   UNL A   1      35.243  33.079  31.312  1.00  0.00     0.135 A 
ATOM     77  C   UNL A   1      36.827  34.134  29.846  1.00  0.00     0.135 A 
ATOM     78  F   UNL A   1      34.953  32.243  32.320  1.00  0.00    -0.206 F 
ATOM     79  C   UNL A   1      34.197  33.739  30.677  1.00  0.00     0.059 A 
ATOM     80  C   UNL A   1      35.799  34.824  29.209  1.00  0.00     0.059 A 
ATOM     81  F   UNL A   1      38.085  34.349  29.433  1.00  0.00    -0.206 F 
ATOM     82  C   UNL A   1      34.486  34.615  29.629  1.00  0.00     0.060 A 
BRANCH  82  83
ATOM     83  S   UNL A   1      33.123  35.511  28.851  1.00  0.00     0.124 S 
ATOM     84  O   UNL A   1      33.838  36.511  28.068  1.00  0.00    -0.237 OA
ATOM     85  O   UNL A   1      32.460  34.456  28.090  1.00  0.00    -0.237 OA
ATOM     86  O   UNL A   1      32.366  36.022  29.990  1.00  0.00    -0.744 OA
ENDBRANCH  82  83
ENDBRANCH  50  75
BRANCH  62  87
ATOM     87  C   UNL A   1      39.759  34.197  37.043  1.00  0.00     0.058 A 
ATOM     88  C   UNL A   1      38.928  33.936  38.143  1.00  0.00     0.135 A 
ATOM     89  C   UNL A   1      40.445  35.422  37.015  1.00  0.00     0.135 A 
ATOM     90  F   UNL A   1      38.246  32.782  38.215  1.00  0.00    -0.206 F 
ATOM     91  C   UNL A   1      38.760  34.865  39.163  1.00  0.00     0.059 A 
ATOM     92  C   UNL A   1      40.313  36.356  38.039  1.00  0.00     0.059 A 
ATOM     93  F   UNL A   1      41.263  35.717  35.992  1.00  0.00    -0.206 F 
ATOM     94  C   UNL A   1      39.457  36.074  39.102  1.00  0.00     0.060 A 
BRANCH  94  95
ATOM     95  S   UNL A   1      39.242  37.264  40.442  1.00  0.00     0.124 S 
ATOM     96  O   UNL A   1      38.330  38.227  39.835  1.00  0.00    -0.237 OA
ATOM     97  O   UNL A   1      38.676  36.438  41.504  1.00  0.00    -0.237 OA
ATOM     98  O   UNL A   1      40.596  37.749  40.687  1.00  0.00    -0.744 OA
ENDBRANCH  94  95
ENDBRANCH  62  87
ENDBRANCH  36  37
ENDBRANCH  28  31
ENDBRANCH  26  27
ENDBRANCH  25  26
ENDBRANCH   1  25
TORSDOF 17
ENDMDL
MODEL 3
REMARK VINA RESULT:     -11.4      2.973      9.252
REMARK SMILES Cc1cc(C)c2c(c1)C=C(C(=O)NCCCCCCNC(=O)c1ccc(-c3c4nc(c(-c5c(F)cc(S(=O)(=O)[O-])cc5F)c5ccc([nH]5)c(-c5c(F)cc(S(=O)(=O)[O-])cc5F)c5nc(c(-c6c(F)cc(S(=O)(=O)[O-])cc6F)c6ccc3[nH]6)C=C5)C=C4)cc1)[C@@H](C(F)(F)F)O2
REMARK SMILES IDX 17 1 16 2 15 3 14 4 13 5 11 6 12 7 10 9 1 10 2 11 3 12 8 13
REMARK SMILES IDX 4 14 7 15 5 16 6 17 9 18 94 19 89 20 90 21 91 22 92 23 93 24
REMARK SMILES IDX 18 25 19 26 20 27 21 28 22 30 23 31 24 32 88 33 25 34 87 35
REMARK SMILES IDX 26 36 27 37 28 38 81 39 29 40 86 41 80 42 82 43 30 44 85 45
REMARK SMILES IDX 79 46 78 47 31 49 65 50 44 51 64 52 45 53 48 54 63 55 83 56
REMARK SMILES IDX 46 57 47 58 62 60 84 61 49 62 32 63 33 64 42 65 34 66 35 67
REMARK SMILES IDX 41 68 43 69 36 70 37 71 38 72 39 73 40 74 66 75 67 76 76 77
REMARK SMILES IDX 68 78 69 79 75 80 77 81 70 82 71 83 72 84 73 85 74 86 50 87
REMARK SMILES IDX 51 88 60 89 52 90 53 91 59 92 61 93 54 94 55 95 56 96 57 97
REMARK SMILES IDX 58 98
REMARK H PARENT 13 8 20 29 82 48 48 59
REMARK Flexibility Score: inf
ROOT
ATOM      1  C   UNL A   1      34.798  22.956  23.675  1.00  0.00     0.002 C 
ENDROOT
BRANCH   1   2
ATOM      2  C   UNL A   1      34.602  21.681  24.505  1.00  0.00     0.002 C 
BRANCH   2   3
ATOM      3  C   UNL A   1      33.145  21.276  24.743  1.00  0.00     0.021 C 
BRANCH   3   4
ATOM      4  C   UNL A   1      32.149  22.410  24.526  1.00  0.00     0.116 C 
BRANCH   4   5
ATOM      5  N   UNL A   1      31.314  22.625  25.694  1.00  0.00    -0.352 N 
ATOM      6  C   UNL A   1      30.778  23.680  26.350  1.00  0.00     0.251 C 
ATOM      7  O   UNL A   1      30.079  23.391  27.327  1.00  0.00    -0.270 OA
ATOM      8  H   UNL A   1      31.071  21.773  26.124  1.00  0.00     0.163 HD
BRANCH   6   9
ATOM      9  C   UNL A   1      30.973  25.115  25.984  1.00  0.00     0.067 C 
ATOM     10  C   UNL A   1      28.778  29.388  22.093  1.00  0.00     0.044 C 
ATOM     11  C   UNL A   1      29.592  28.857  23.235  1.00  0.00    -0.050 A 
ATOM     12  C   UNL A   1      30.493  29.686  23.917  1.00  0.00     0.010 A 
ATOM     13  C   UNL A   1      29.468  27.514  23.617  1.00  0.00     0.015 A 
ATOM     14  C   UNL A   1      31.260  29.190  24.977  1.00  0.00    -0.008 A 
ATOM     15  C   UNL A   1      30.233  27.002  24.667  1.00  0.00     0.018 A 
ATOM     16  C   UNL A   1      32.223  30.081  25.709  1.00  0.00     0.048 C 
ATOM     17  C   UNL A   1      31.126  27.842  25.336  1.00  0.00     0.130 A 
ATOM     18  C   UNL A   1      30.091  25.617  25.100  1.00  0.00     0.025 C 
ATOM     19  O   UNL A   1      31.873  27.409  26.393  1.00  0.00    -0.475 OA
ATOM     20  C   UNL A   1      32.087  25.979  26.500  1.00  0.00     0.314 C 
BRANCH  20  21
ATOM     21  C   UNL A   1      33.452  25.624  25.882  1.00  0.00     0.429 C 
ATOM     22  F   UNL A   1      33.334  25.429  24.546  1.00  0.00    -0.167 F 
ATOM     23  F   UNL A   1      34.366  26.610  26.044  1.00  0.00    -0.167 F 
ATOM     24  F   UNL A   1      33.988  24.502  26.413  1.00  0.00    -0.167 F 
ENDBRANCH  20  21
ENDBRANCH   6   9
ENDBRANCH   4   5
ENDBRANCH   3   4
ENDBRANCH   2   3
ENDBRANCH   1   2
BRANCH   1  25
ATOM     25  C   UNL A   1      36.237  23.476  23.593  1.00  0.00     0.021 C 
BRANCH  25  26
ATOM     26  C   UNL A   1      36.900  23.732  24.944  1.00  0.00     0.116 C 
BRANCH  26  27
ATOM     27  N   UNL A   1      37.818  22.664  25.300  1.00  0.00    -0.352 N 
ATOM     28  C   UNL A   1      39.005  22.727  25.976  1.00  0.00     0.251 C 
ATOM     29  H   UNL A   1      37.545  21.762  25.012  1.00  0.00     0.163 HD
ATOM     30  O   UNL A   1      39.762  21.755  25.969  1.00  0.00    -0.269 OA
BRANCH  28  31
ATOM     31  C   UNL A   1      39.380  23.951  26.714  1.00  0.00     0.039 A 
ATOM     32  C   UNL A   1      40.184  24.901  26.080  1.00  0.00     0.014 A 
ATOM     33  C   UNL A   1      38.987  24.136  28.043  1.00  0.00     0.014 A 
ATOM     34  C   UNL A   1      40.572  26.051  26.770  1.00  0.00     0.010 A 
ATOM     35  C   UNL A   1      39.325  25.310  28.711  1.00  0.00     0.010 A 
ATOM     36  C   UNL A   1      40.136  26.270  28.085  1.00  0.00    -0.014 A 
BRANCH  36  37
ATOM     37  C   UNL A   1      40.561  27.469  28.847  1.00  0.00     0.031 A 
ATOM     38  C   UNL A   1      41.903  27.481  29.528  1.00  0.00     0.074 A 
ATOM     39  C   UNL A   1      39.729  28.521  28.960  1.00  0.00     0.049 A 
ATOM     40  N   UNL A   1      42.423  28.387  30.314  1.00  0.00    -0.248 NA
ATOM     41  C   UNL A   1      42.766  26.307  29.312  1.00  0.00     0.031 C 
ATOM     42  C   UNL A   1      38.398  28.617  28.357  1.00  0.00     0.029 A 
ATOM     43  N   UNL A   1      39.878  29.710  29.628  1.00  0.00    -0.354 N 
ATOM     44  C   UNL A   1      43.666  27.892  30.691  1.00  0.00     0.074 A 
ATOM     45  C   UNL A   1      43.802  26.584  30.090  1.00  0.00     0.031 C 
ATOM     46  C   UNL A   1      37.861  29.808  28.667  1.00  0.00     0.029 A 
ATOM     47  C   UNL A   1      38.789  30.542  29.521  1.00  0.00     0.049 A 
ATOM     48  H   UNL A   1      40.688  29.945  30.136  1.00  0.00     0.167 HD
ATOM     49  C   UNL A   1      44.617  28.486  31.451  1.00  0.00     0.037 A 
ATOM     50  C   UNL A   1      38.563  31.757  30.060  1.00  0.00     0.037 A 
ATOM     51  C   UNL A   1      44.483  29.798  32.027  1.00  0.00     0.049 A 
ATOM     52  C   UNL A   1      39.624  32.383  30.923  1.00  0.00     0.074 A 
ATOM     53  C   UNL A   1      45.401  30.502  32.786  1.00  0.00     0.029 A 
ATOM     54  N   UNL A   1      43.362  30.606  31.904  1.00  0.00    -0.354 N 
ATOM     55  N   UNL A   1      40.802  31.910  31.256  1.00  0.00    -0.248 NA
ATOM     56  C   UNL A   1      39.326  33.707  31.485  1.00  0.00     0.031 C 
ATOM     57  C   UNL A   1      44.821  31.722  33.152  1.00  0.00     0.029 A 
ATOM     58  C   UNL A   1      43.558  31.796  32.586  1.00  0.00     0.049 A 
ATOM     59  H   UNL A   1      42.547  30.370  31.405  1.00  0.00     0.167 HD
ATOM     60  C   UNL A   1      41.392  32.884  32.053  1.00  0.00     0.074 A 
ATOM     61  C   UNL A   1      40.448  33.982  32.135  1.00  0.00     0.031 C 
ATOM     62  C   UNL A   1      42.602  32.872  32.664  1.00  0.00     0.037 A 
BRANCH  49  63
ATOM     63  C   UNL A   1      45.890  27.724  31.696  1.00  0.00     0.058 A 
ATOM     64  C   UNL A   1      46.062  26.931  32.841  1.00  0.00     0.135 A 
ATOM     65  C   UNL A   1      46.934  27.752  30.756  1.00  0.00     0.135 A 
ATOM     66  F   UNL A   1      45.104  26.885  33.781  1.00  0.00    -0.206 F 
ATOM     67  C   UNL A   1      47.230  26.207  33.056  1.00  0.00     0.059 A 
ATOM     68  C   UNL A   1      48.100  27.014  30.938  1.00  0.00     0.059 A 
ATOM     69  F   UNL A   1      46.824  28.498  29.646  1.00  0.00    -0.206 F 
ATOM     70  C   UNL A   1      48.242  26.252  32.097  1.00  0.00     0.060 A 
BRANCH  70  71
ATOM     71  S   UNL A   1      49.742  25.291  32.384  1.00  0.00     0.124 S 
ATOM     72  O   UNL A   1      49.245  24.226  33.251  1.00  0.00    -0.237 OA
ATOM     73  O   UNL A   1      50.114  24.884  31.032  1.00  0.00    -0.237 OA
ATOM     74  O   UNL A   1      50.644  26.246  33.019  1.00  0.00    -0.744 OA
ENDBRANCH  70  71
ENDBRANCH  49  63
BRANCH  50  75
ATOM     75  C   UNL A   1      37.285  32.464  29.782  1.00  0.00     0.058 A 
ATOM     76  C   UNL A   1      36.103  32.095  30.438  1.00  0.00     0.135 A 
ATOM     77  C   UNL A   1      37.224  33.533  28.875  1.00  0.00     0.135 A 
ATOM     78  F   UNL A   1      36.110  31.073  31.308  1.00  0.00    -0.206 F 
ATOM     79  C   UNL A   1      34.901  32.753  30.200  1.00  0.00     0.059 A 
ATOM     80  C   UNL A   1      36.039  34.222  28.637  1.00  0.00     0.059 A 
ATOM     81  F   UNL A   1      38.331  33.934  28.231  1.00  0.00    -0.206 F 
ATOM     82  C   UNL A   1      34.880  33.820  29.300  1.00  0.00     0.060 A 
BRANCH  82  83
ATOM     83  S   UNL A   1      33.325  34.704  29.044  1.00  0.00     0.124 S 
ATOM     84  O   UNL A   1      32.792  34.759  30.400  1.00  0.00    -0.237 OA
ATOM     85  O   UNL A   1      33.785  35.972  28.485  1.00  0.00    -0.237 OA
ATOM     86  O   UNL A   1      32.601  33.843  28.113  1.00  0.00    -0.744 OA
ENDBRANCH  82  83
ENDBRANCH  50  75
BRANCH  62  87
ATOM     87  C   UNL A   1      42.978  34.085  33.468  1.00  0.00     0.058 A 
ATOM     88  C   UNL A   1      42.711  34.165  34.843  1.00  0.00     0.135 A 
ATOM     89  C   UNL A   1      43.648  35.163  32.866  1.00  0.00     0.135 A 
ATOM     90  F   UNL A   1      42.068  33.163  35.465  1.00  0.00    -0.206 F 
ATOM     91  C   UNL A   1      43.068  35.282  35.589  1.00  0.00     0.059 A 
ATOM     92  C   UNL A   1      44.039  36.279  33.599  1.00  0.00     0.059 A 
ATOM     93  F   UNL A   1      43.939  35.132  31.556  1.00  0.00    -0.206 F 
ATOM     94  C   UNL A   1      43.733  36.336  34.957  1.00  0.00     0.060 A 
BRANCH  94  95
ATOM     95  S   UNL A   1      44.204  37.773  35.941  1.00  0.00     0.124 S 
ATOM     96  O   UNL A   1      45.646  37.589  36.058  1.00  0.00    -0.237 OA
ATOM     97  O   UNL A   1      43.774  38.884  35.097  1.00  0.00    -0.237 OA
ATOM     98  O   UNL A   1      43.446  37.603  37.177  1.00  0.00    -0.744 OA
ENDBRANCH  94  95
ENDBRANCH  62  87
ENDBRANCH  36  37
ENDBRANCH  28  31
ENDBRANCH  26  27
ENDBRANCH  25  26
ENDBRANCH   1  25
TORSDOF 17
ENDMDL
