MODEL 1
REMARK VINA RESULT:     -13.3      0.000      0.000
REMARK SMILES Cc1cc2nc(NC(=O)[C@H]3[C@@H](C(=O)NCCCCCCNC(=O)c4ccc(-c5c6nc(c(-c7c(F)cc(S(=O)(=O)[O-])cc7F)c7ccc([nH]7)c(-c7c(F)cc(S(=O)(=O)[O-])cc7F)c7nc(c(-c8c(F)cc(S(=O)(=O)[O-])cc8F)c8ccc5[nH]8)C=C7)C=C6)cc4)[C@@H]4C=C[C@H]3C4)sc2cc1C
REMARK SMILES IDX 18 1 17 2 16 3 15 4 14 5 12 6 13 7 11 9 10 10 93 11 90 12
REMARK SMILES IDX 92 13 94 14 91 15 8 16 7 17 9 19 6 20 1 21 2 22 3 23 98 24
REMARK SMILES IDX 4 25 97 26 99 27 5 28 96 29 95 30 19 31 20 32 21 33 22 34
REMARK SMILES IDX 23 36 24 37 25 38 89 39 26 40 88 41 27 42 28 43 29 44 82 45
REMARK SMILES IDX 30 46 87 47 81 48 83 49 31 50 86 51 80 52 79 53 32 55 66 56
REMARK SMILES IDX 45 57 65 58 46 59 49 60 64 61 84 62 47 63 48 64 63 66 85 67
REMARK SMILES IDX 50 68 33 69 34 70 43 71 35 72 36 73 42 74 44 75 37 76 38 77
REMARK SMILES IDX 39 78 40 79 41 80 67 81 68 82 77 83 69 84 70 85 76 86 78 87
REMARK SMILES IDX 71 88 72 89 73 90 74 91 75 92 51 93 52 94 61 95 53 96 54 97
REMARK SMILES IDX 60 98 62 99 55 100 56 101 57 102 58 103 59 104
REMARK H PARENT 14 8 7 18 21 35 83 54 49 65
REMARK Flexibility Score: inf
ROOT
ATOM      1  C   UNL A   1      31.864  27.757  27.251  1.00  0.00     0.002 C 
ENDROOT
BRANCH   1   2
ATOM      2  C   UNL A   1      31.381  26.534  26.465  1.00  0.00     0.002 C 
BRANCH   2   3
ATOM      3  C   UNL A   1      32.335  25.339  26.476  1.00  0.00     0.021 C 
BRANCH   3   4
ATOM      4  C   UNL A   1      31.639  24.000  26.647  1.00  0.00     0.116 C 
BRANCH   4   5
ATOM      5  N   UNL A   1      32.532  23.027  27.202  1.00  0.00    -0.356 N 
ATOM      6  C   UNL A   1      33.781  22.622  26.925  1.00  0.00     0.224 C 
ATOM      7  O   UNL A   1      34.119  21.661  27.624  1.00  0.00    -0.275 OA
ATOM      8  H   UNL A   1      32.137  22.544  27.965  1.00  0.00     0.163 HD
BRANCH   6   9
ATOM      9  C   UNL A   1      34.689  23.185  25.802  1.00  0.00     0.098 C 
ATOM     10  C   UNL A   1      34.587  22.317  24.477  1.00  0.00     0.099 C 
ATOM     11  C   UNL A   1      35.989  21.614  24.454  1.00  0.00     0.025 C 
ATOM     12  C   UNL A   1      36.220  23.186  26.009  1.00  0.00     0.025 C 
ATOM     13  C   UNL A   1      36.909  22.665  23.868  1.00  0.00    -0.027 C 
ATOM     14  C   UNL A   1      36.491  21.692  25.903  1.00  0.00     0.017 C 
ATOM     15  C   UNL A   1      36.969  23.655  24.770  1.00  0.00    -0.027 C 
BRANCH  10  16
ATOM     16  C   UNL A   1      33.394  21.384  24.265  1.00  0.00     0.230 C 
ATOM     17  N   UNL A   1      32.291  21.825  23.568  1.00  0.00    -0.302 N 
ATOM     18  H   UNL A   1      31.560  21.185  23.410  1.00  0.00     0.172 HD
ATOM     19  O   UNL A   1      33.400  20.227  24.696  1.00  0.00    -0.274 OA
BRANCH  17  20
ATOM     20  C   UNL A   1      32.142  23.095  23.078  1.00  0.00     0.190 A 
ATOM     21  C   UNL A   1      33.826  28.794  22.702  1.00  0.00     0.044 C 
ATOM     22  C   UNL A   1      32.882  27.623  22.750  1.00  0.00    -0.046 A 
ATOM     23  C   UNL A   1      33.427  26.342  22.576  1.00  0.00     0.033 A 
ATOM     24  C   UNL A   1      31.494  27.759  22.935  1.00  0.00    -0.047 A 
ATOM     25  C   UNL A   1      32.620  25.195  22.700  1.00  0.00     0.084 A 
ATOM     26  C   UNL A   1      30.674  26.612  23.057  1.00  0.00     0.025 A 
ATOM     27  C   UNL A   1      30.827  29.104  23.056  1.00  0.00     0.044 C 
ATOM     28  N   UNL A   1      33.081  23.899  22.662  1.00  0.00    -0.220 NA
ATOM     29  C   UNL A   1      31.261  25.339  22.960  1.00  0.00     0.057 A 
ATOM     30  S   UNL A   1      30.569  23.758  23.140  1.00  0.00    -0.097 S 
ENDBRANCH  17  20
ENDBRANCH  10  16
ENDBRANCH   6   9
ENDBRANCH   4   5
ENDBRANCH   3   4
ENDBRANCH   2   3
ENDBRANCH   1   2
BRANCH   1  31
ATOM     31  C   UNL A   1      32.066  29.033  26.425  1.00  0.00     0.021 C 
BRANCH  31  32
ATOM     32  C   UNL A   1      33.469  29.628  26.521  1.00  0.00     0.116 C 
BRANCH  32  33
ATOM     33  N   UNL A   1      33.499  30.901  27.196  1.00  0.00    -0.352 N 
ATOM     34  C   UNL A   1      34.431  31.535  27.965  1.00  0.00     0.251 C 
ATOM     35  H   UNL A   1      32.674  31.423  27.078  1.00  0.00     0.163 HD
ATOM     36  O   UNL A   1      34.111  32.643  28.402  1.00  0.00    -0.269 OA
BRANCH  34  37
ATOM     37  C   UNL A   1      35.759  30.965  28.327  1.00  0.00     0.039 A 
ATOM     38  C   UNL A   1      36.106  29.613  28.281  1.00  0.00     0.014 A 
ATOM     39  C   UNL A   1      36.735  31.891  28.733  1.00  0.00     0.014 A 
ATOM     40  C   UNL A   1      37.363  29.187  28.688  1.00  0.00     0.010 A 
ATOM     41  C   UNL A   1      38.013  31.476  29.096  1.00  0.00     0.010 A 
ATOM     42  C   UNL A   1      38.319  30.118  29.093  1.00  0.00    -0.014 A 
BRANCH  42  43
ATOM     43  C   UNL A   1      39.675  29.619  29.312  1.00  0.00     0.031 A 
ATOM     44  C   UNL A   1      40.049  29.487  30.749  1.00  0.00     0.074 A 
ATOM     45  C   UNL A   1      40.488  29.173  28.335  1.00  0.00     0.049 A 
ATOM     46  N   UNL A   1      40.995  30.093  31.388  1.00  0.00    -0.248 NA
ATOM     47  C   UNL A   1      39.179  28.664  31.609  1.00  0.00     0.031 C 
ATOM     48  C   UNL A   1      40.127  28.968  26.931  1.00  0.00     0.029 A 
ATOM     49  N   UNL A   1      41.766  28.688  28.405  1.00  0.00    -0.354 N 
ATOM     50  C   UNL A   1      40.994  29.539  32.666  1.00  0.00     0.074 A 
ATOM     51  C   UNL A   1      39.762  28.808  32.800  1.00  0.00     0.031 C 
ATOM     52  C   UNL A   1      41.059  28.187  26.346  1.00  0.00     0.029 A 
ATOM     53  C   UNL A   1      42.143  27.954  27.287  1.00  0.00     0.049 A 
ATOM     54  H   UNL A   1      42.361  28.844  29.174  1.00  0.00     0.167 HD
ATOM     55  C   UNL A   1      42.134  29.473  33.405  1.00  0.00     0.037 A 
ATOM     56  C   UNL A   1      43.229  27.153  27.156  1.00  0.00     0.037 A 
ATOM     57  C   UNL A   1      43.160  30.332  32.886  1.00  0.00     0.049 A 
ATOM     58  C   UNL A   1      44.257  27.605  28.127  1.00  0.00     0.074 A 
ATOM     59  C   UNL A   1      43.463  31.675  32.903  1.00  0.00     0.029 A 
ATOM     60  N   UNL A   1      43.933  29.750  31.922  1.00  0.00    -0.354 N 
ATOM     61  N   UNL A   1      44.852  28.765  28.070  1.00  0.00    -0.248 NA
ATOM     62  C   UNL A   1      44.456  26.863  29.368  1.00  0.00     0.031 C 
ATOM     63  C   UNL A   1      44.345  31.900  31.807  1.00  0.00     0.029 A 
ATOM     64  C   UNL A   1      44.569  30.688  31.158  1.00  0.00     0.049 A 
ATOM     65  H   UNL A   1      44.020  28.777  31.794  1.00  0.00     0.167 HD
ATOM     66  C   UNL A   1      45.139  29.067  29.386  1.00  0.00     0.074 A 
ATOM     67  C   UNL A   1      45.047  27.806  30.104  1.00  0.00     0.031 C 
ATOM     68  C   UNL A   1      45.073  30.349  29.844  1.00  0.00     0.037 A 
BRANCH  55  69
ATOM     69  C   UNL A   1      42.503  28.288  34.273  1.00  0.00     0.058 A 
ATOM     70  C   UNL A   1      42.683  28.470  35.659  1.00  0.00     0.135 A 
ATOM     71  C   UNL A   1      42.997  27.074  33.747  1.00  0.00     0.135 A 
ATOM     72  F   UNL A   1      42.281  29.605  36.255  1.00  0.00    -0.206 F 
ATOM     73  C   UNL A   1      43.345  27.532  36.455  1.00  0.00     0.059 A 
ATOM     74  C   UNL A   1      43.609  26.102  34.530  1.00  0.00     0.059 A 
ATOM     75  F   UNL A   1      43.004  26.820  32.432  1.00  0.00    -0.206 F 
ATOM     76  C   UNL A   1      43.811  26.355  35.877  1.00  0.00     0.060 A 
BRANCH  76  77
ATOM     77  S   UNL A   1      44.732  25.175  36.881  1.00  0.00     0.124 S 
ATOM     78  O   UNL A   1      44.355  23.908  36.265  1.00  0.00    -0.237 OA
ATOM     79  O   UNL A   1      46.110  25.606  36.667  1.00  0.00    -0.237 OA
ATOM     80  O   UNL A   1      44.214  25.405  38.226  1.00  0.00    -0.744 OA
ENDBRANCH  76  77
ENDBRANCH  55  69
BRANCH  56  81
ATOM     81  C   UNL A   1      43.340  25.866  26.418  1.00  0.00     0.058 A 
ATOM     82  C   UNL A   1      44.360  25.667  25.468  1.00  0.00     0.135 A 
ATOM     83  C   UNL A   1      42.638  24.711  26.822  1.00  0.00     0.135 A 
ATOM     84  F   UNL A   1      45.087  26.705  25.028  1.00  0.00    -0.206 F 
ATOM     85  C   UNL A   1      44.713  24.395  25.008  1.00  0.00     0.059 A 
ATOM     86  C   UNL A   1      42.958  23.436  26.361  1.00  0.00     0.059 A 
ATOM     87  F   UNL A   1      41.677  24.769  27.755  1.00  0.00    -0.206 F 
ATOM     88  C   UNL A   1      44.023  23.281  25.482  1.00  0.00     0.060 A 
BRANCH  88  89
ATOM     89  S   UNL A   1      44.611  21.627  25.055  1.00  0.00     0.124 S 
ATOM     90  O   UNL A   1      44.568  21.659  23.598  1.00  0.00    -0.237 OA
ATOM     91  O   UNL A   1      45.939  21.610  25.657  1.00  0.00    -0.237 OA
ATOM     92  O   UNL A   1      43.631  20.746  25.689  1.00  0.00    -0.744 OA
ENDBRANCH  88  89
ENDBRANCH  56  81
BRANCH  68  93
ATOM     93  C   UNL A   1      45.372  31.461  28.889  1.00  0.00     0.058 A 
ATOM     94  C   UNL A   1      46.657  31.901  28.540  1.00  0.00     0.135 A 
ATOM     95  C   UNL A   1      44.282  32.042  28.221  1.00  0.00     0.135 A 
ATOM     96  F   UNL A   1      47.750  31.345  29.083  1.00  0.00    -0.206 F 
ATOM     97  C   UNL A   1      46.847  32.892  27.575  1.00  0.00     0.059 A 
ATOM     98  C   UNL A   1      44.449  33.007  27.236  1.00  0.00     0.059 A 
ATOM     99  F   UNL A   1      43.031  31.631  28.488  1.00  0.00    -0.206 F 
ATOM    100  C   UNL A   1      45.736  33.433  26.922  1.00  0.00     0.060 A 
BRANCH 100 101
ATOM    101  S   UNL A   1      45.983  34.638  25.601  1.00  0.00     0.124 S 
ATOM    102  O   UNL A   1      45.077  34.143  24.563  1.00  0.00    -0.237 OA
ATOM    103  O   UNL A   1      45.581  35.891  26.242  1.00  0.00    -0.237 OA
ATOM    104  O   UNL A   1      47.399  34.531  25.295  1.00  0.00    -0.744 OA
ENDBRANCH 100 101
ENDBRANCH  68  93
ENDBRANCH  42  43
ENDBRANCH  34  37
ENDBRANCH  32  33
ENDBRANCH  31  32
ENDBRANCH   1  31
TORSDOF 18
ENDMDL
MODEL 2
REMARK VINA RESULT:     -12.4      2.425      8.775
REMARK SMILES Cc1cc2nc(NC(=O)[C@H]3[C@@H](C(=O)NCCCCCCNC(=O)c4ccc(-c5c6nc(c(-c7c(F)cc(S(=O)(=O)[O-])cc7F)c7ccc([nH]7)c(-c7c(F)cc(S(=O)(=O)[O-])cc7F)c7nc(c(-c8c(F)cc(S(=O)(=O)[O-])cc8F)c8ccc5[nH]8)C=C7)C=C6)cc4)[C@@H]4C=C[C@H]3C4)sc2cc1C
REMARK SMILES IDX 18 1 17 2 16 3 15 4 14 5 12 6 13 7 11 9 10 10 93 11 90 12
REMARK SMILES IDX 92 13 94 14 91 15 8 16 7 17 9 19 6 20 1 21 2 22 3 23 98 24
REMARK SMILES IDX 4 25 97 26 99 27 5 28 96 29 95 30 19 31 20 32 21 33 22 34
REMARK SMILES IDX 23 36 24 37 25 38 89 39 26 40 88 41 27 42 28 43 29 44 82 45
REMARK SMILES IDX 30 46 87 47 81 48 83 49 31 50 86 51 80 52 79 53 32 55 66 56
REMARK SMILES IDX 45 57 65 58 46 59 49 60 64 61 84 62 47 63 48 64 63 66 85 67
REMARK SMILES IDX 50 68 33 69 34 70 43 71 35 72 36 73 42 74 44 75 37 76 38 77
REMARK SMILES IDX 39 78 40 79 41 80 67 81 68 82 77 83 69 84 70 85 76 86 78 87
REMARK SMILES IDX 71 88 72 89 73 90 74 91 75 92 51 93 52 94 61 95 53 96 54 97
REMARK SMILES IDX 60 98 62 99 55 100 56 101 57 102 58 103 59 104
REMARK H PARENT 14 8 7 18 21 35 83 54 49 65
REMARK Flexibility Score: inf
ROOT
ATOM      1  C   UNL A   1      40.465  20.699  26.947  1.00  0.00     0.002 C 
ENDROOT
BRANCH   1   2
ATOM      2  C   UNL A   1      39.694  21.859  26.309  1.00  0.00     0.002 C 
BRANCH   2   3
ATOM      3  C   UNL A   1      38.338  21.485  25.710  1.00  0.00     0.021 C 
BRANCH   3   4
ATOM      4  C   UNL A   1      37.481  22.682  25.337  1.00  0.00     0.116 C 
BRANCH   4   5
ATOM      5  N   UNL A   1      36.509  22.950  26.354  1.00  0.00    -0.356 N 
ATOM      6  C   UNL A   1      35.168  23.018  26.387  1.00  0.00     0.224 C 
ATOM      7  O   UNL A   1      34.753  23.387  27.490  1.00  0.00    -0.275 OA
ATOM      8  H   UNL A   1      36.918  23.127  27.232  1.00  0.00     0.163 HD
BRANCH   6   9
ATOM      9  C   UNL A   1      34.218  22.777  25.187  1.00  0.00     0.098 C 
ATOM     10  C   UNL A   1      32.721  22.550  25.661  1.00  0.00     0.099 C 
ATOM     11  C   UNL A   1      32.528  21.021  25.369  1.00  0.00     0.025 C 
ATOM     12  C   UNL A   1      34.421  21.518  24.314  1.00  0.00     0.025 C 
ATOM     13  C   UNL A   1      32.218  20.975  23.887  1.00  0.00    -0.027 C 
ATOM     14  C   UNL A   1      33.952  20.453  25.294  1.00  0.00     0.017 C 
ATOM     15  C   UNL A   1      33.335  21.368  23.258  1.00  0.00    -0.027 C 
BRANCH  10  16
ATOM     16  C   UNL A   1      32.286  23.000  27.057  1.00  0.00     0.230 C 
ATOM     17  N   UNL A   1      31.760  24.259  27.242  1.00  0.00    -0.302 N 
ATOM     18  H   UNL A   1      31.449  24.500  28.144  1.00  0.00     0.172 HD
ATOM     19  O   UNL A   1      32.382  22.248  28.032  1.00  0.00    -0.274 OA
BRANCH  17  20
ATOM     20  C   UNL A   1      31.641  25.200  26.254  1.00  0.00     0.190 A 
ATOM     21  C   UNL A   1      30.543  30.759  24.424  1.00  0.00     0.044 C 
ATOM     22  C   UNL A   1      30.549  29.255  24.377  1.00  0.00    -0.046 A 
ATOM     23  C   UNL A   1      31.388  28.580  25.276  1.00  0.00     0.033 A 
ATOM     24  C   UNL A   1      29.778  28.509  23.467  1.00  0.00    -0.047 A 
ATOM     25  C   UNL A   1      31.378  27.175  25.353  1.00  0.00     0.084 A 
ATOM     26  C   UNL A   1      29.765  27.095  23.533  1.00  0.00     0.025 A 
ATOM     27  C   UNL A   1      28.910  29.163  22.424  1.00  0.00     0.044 C 
ATOM     28  N   UNL A   1      32.076  26.431  26.276  1.00  0.00    -0.220 NA
ATOM     29  C   UNL A   1      30.553  26.449  24.499  1.00  0.00     0.057 A 
ATOM     30  S   UNL A   1      30.703  24.766  24.895  1.00  0.00    -0.097 S 
ENDBRANCH  17  20
ENDBRANCH  10  16
ENDBRANCH   6   9
ENDBRANCH   4   5
ENDBRANCH   3   4
ENDBRANCH   2   3
ENDBRANCH   1   2
BRANCH   1  31
ATOM     31  C   UNL A   1      40.876  19.575  25.989  1.00  0.00     0.021 C 
BRANCH  31  32
ATOM     32  C   UNL A   1      42.253  18.980  26.272  1.00  0.00     0.116 C 
BRANCH  32  33
ATOM     33  N   UNL A   1      43.252  19.385  25.315  1.00  0.00    -0.352 N 
ATOM     34  C   UNL A   1      43.891  20.565  25.066  1.00  0.00     0.251 C 
ATOM     35  H   UNL A   1      43.533  18.658  24.715  1.00  0.00     0.163 HD
ATOM     36  O   UNL A   1      44.704  20.556  24.139  1.00  0.00    -0.269 OA
BRANCH  34  37
ATOM     37  C   UNL A   1      43.642  21.835  25.805  1.00  0.00     0.039 A 
ATOM     38  C   UNL A   1      44.007  22.093  27.128  1.00  0.00     0.014 A 
ATOM     39  C   UNL A   1      42.995  22.850  25.080  1.00  0.00     0.014 A 
ATOM     40  C   UNL A   1      43.680  23.299  27.733  1.00  0.00     0.010 A 
ATOM     41  C   UNL A   1      42.708  24.079  25.665  1.00  0.00     0.010 A 
ATOM     42  C   UNL A   1      43.034  24.295  27.001  1.00  0.00    -0.014 A 
BRANCH  42  43
ATOM     43  C   UNL A   1      42.905  25.604  27.639  1.00  0.00     0.031 A 
ATOM     44  C   UNL A   1      44.024  26.540  27.338  1.00  0.00     0.074 A 
ATOM     45  C   UNL A   1      41.818  26.011  28.324  1.00  0.00     0.049 A 
ATOM     46  N   UNL A   1      44.862  27.076  28.164  1.00  0.00    -0.248 NA
ATOM     47  C   UNL A   1      44.322  26.817  25.921  1.00  0.00     0.031 C 
ATOM     48  C   UNL A   1      40.541  25.302  28.428  1.00  0.00     0.029 A 
ATOM     49  N   UNL A   1      41.574  27.196  28.965  1.00  0.00    -0.354 N 
ATOM     50  C   UNL A   1      45.630  27.951  27.398  1.00  0.00     0.074 A 
ATOM     51  C   UNL A   1      45.381  27.623  26.020  1.00  0.00     0.031 C 
ATOM     52  C   UNL A   1      39.597  26.159  28.872  1.00  0.00     0.029 A 
ATOM     53  C   UNL A   1      40.225  27.426  29.210  1.00  0.00     0.049 A 
ATOM     54  H   UNL A   1      42.285  27.825  29.226  1.00  0.00     0.167 HD
ATOM     55  C   UNL A   1      46.179  29.069  27.945  1.00  0.00     0.037 A 
ATOM     56  C   UNL A   1      39.646  28.589  29.597  1.00  0.00     0.037 A 
ATOM     57  C   UNL A   1      46.182  29.018  29.380  1.00  0.00     0.049 A 
ATOM     58  C   UNL A   1      40.675  29.414  30.279  1.00  0.00     0.074 A 
ATOM     59  C   UNL A   1      46.919  28.412  30.371  1.00  0.00     0.029 A 
ATOM     60  N   UNL A   1      45.033  29.487  29.952  1.00  0.00    -0.354 N 
ATOM     61  N   UNL A   1      41.243  29.084  31.407  1.00  0.00    -0.248 NA
ATOM     62  C   UNL A   1      41.303  30.522  29.566  1.00  0.00     0.031 C 
ATOM     63  C   UNL A   1      46.097  28.407  31.536  1.00  0.00     0.029 A 
ATOM     64  C   UNL A   1      44.886  29.022  31.229  1.00  0.00     0.049 A 
ATOM     65  H   UNL A   1      44.392  30.083  29.500  1.00  0.00     0.167 HD
ATOM     66  C   UNL A   1      42.500  29.647  31.334  1.00  0.00     0.074 A 
ATOM     67  C   UNL A   1      42.417  30.655  30.289  1.00  0.00     0.031 C 
ATOM     68  C   UNL A   1      43.585  29.015  31.864  1.00  0.00     0.037 A 
BRANCH  55  69
ATOM     69  C   UNL A   1      46.248  30.403  27.232  1.00  0.00     0.058 A 
ATOM     70  C   UNL A   1      47.470  31.102  27.181  1.00  0.00     0.135 A 
ATOM     71  C   UNL A   1      45.100  31.153  26.892  1.00  0.00     0.135 A 
ATOM     72  F   UNL A   1      48.619  30.492  27.519  1.00  0.00    -0.206 F 
ATOM     73  C   UNL A   1      47.541  32.459  26.858  1.00  0.00     0.059 A 
ATOM     74  C   UNL A   1      45.154  32.490  26.513  1.00  0.00     0.059 A 
ATOM     75  F   UNL A   1      43.864  30.654  27.013  1.00  0.00    -0.206 F 
ATOM     76  C   UNL A   1      46.374  33.145  26.533  1.00  0.00     0.060 A 
BRANCH  76  77
ATOM     77  S   UNL A   1      46.447  34.912  26.189  1.00  0.00     0.124 S 
ATOM     78  O   UNL A   1      45.037  35.233  26.004  1.00  0.00    -0.237 OA
ATOM     79  O   UNL A   1      47.069  35.432  27.402  1.00  0.00    -0.237 OA
ATOM     80  O   UNL A   1      47.276  34.985  24.989  1.00  0.00    -0.744 OA
ENDBRANCH  76  77
ENDBRANCH  55  69
BRANCH  56  81
ATOM     81  C   UNL A   1      38.322  29.137  29.196  1.00  0.00     0.058 A 
ATOM     82  C   UNL A   1      37.330  29.402  30.159  1.00  0.00     0.135 A 
ATOM     83  C   UNL A   1      38.097  29.676  27.912  1.00  0.00     0.135 A 
ATOM     84  F   UNL A   1      37.460  28.936  31.410  1.00  0.00    -0.206 F 
ATOM     85  C   UNL A   1      36.226  30.215  29.888  1.00  0.00     0.059 A 
ATOM     86  C   UNL A   1      36.993  30.471  27.613  1.00  0.00     0.059 A 
ATOM     87  F   UNL A   1      38.992  29.528  26.925  1.00  0.00    -0.206 F 
ATOM     88  C   UNL A   1      36.080  30.769  28.618  1.00  0.00     0.060 A 
BRANCH  88  89
ATOM     89  S   UNL A   1      34.777  31.984  28.325  1.00  0.00     0.124 S 
ATOM     90  O   UNL A   1      33.786  31.195  27.603  1.00  0.00    -0.237 OA
ATOM     91  O   UNL A   1      34.415  32.377  29.683  1.00  0.00    -0.237 OA
ATOM     92  O   UNL A   1      35.447  33.017  27.538  1.00  0.00    -0.744 OA
ENDBRANCH  88  89
ENDBRANCH  56  81
BRANCH  68  93
ATOM     93  C   UNL A   1      43.383  28.138  33.059  1.00  0.00     0.058 A 
ATOM     94  C   UNL A   1      43.486  26.740  33.061  1.00  0.00     0.135 A 
ATOM     95  C   UNL A   1      43.168  28.776  34.292  1.00  0.00     0.135 A 
ATOM     96  F   UNL A   1      43.761  26.065  31.935  1.00  0.00    -0.206 F 
ATOM     97  C   UNL A   1      43.364  26.005  34.242  1.00  0.00     0.059 A 
ATOM     98  C   UNL A   1      43.074  28.068  35.483  1.00  0.00     0.059 A 
ATOM     99  F   UNL A   1      43.099  30.116  34.354  1.00  0.00    -0.206 F 
ATOM    100  C   UNL A   1      43.166  26.679  35.450  1.00  0.00     0.060 A 
BRANCH 100 101
ATOM    101  S   UNL A   1      43.113  25.741  36.991  1.00  0.00     0.124 S 
ATOM    102  O   UNL A   1      43.912  24.560  36.658  1.00  0.00    -0.237 OA
ATOM    103  O   UNL A   1      43.729  26.669  37.942  1.00  0.00    -0.237 OA
ATOM    104  O   UNL A   1      41.697  25.497  37.199  1.00  0.00    -0.744 OA
ENDBRANCH 100 101
ENDBRANCH  68  93
ENDBRANCH  42  43
ENDBRANCH  34  37
ENDBRANCH  32  33
ENDBRANCH  31  32
ENDBRANCH   1  31
TORSDOF 18
ENDMDL
MODEL 3
REMARK VINA RESULT:     -12.3      1.666      3.506
REMARK SMILES Cc1cc2nc(NC(=O)[C@H]3[C@@H](C(=O)NCCCCCCNC(=O)c4ccc(-c5c6nc(c(-c7c(F)cc(S(=O)(=O)[O-])cc7F)c7ccc([nH]7)c(-c7c(F)cc(S(=O)(=O)[O-])cc7F)c7nc(c(-c8c(F)cc(S(=O)(=O)[O-])cc8F)c8ccc5[nH]8)C=C7)C=C6)cc4)[C@@H]4C=C[C@H]3C4)sc2cc1C
REMARK SMILES IDX 18 1 17 2 16 3 15 4 14 5 12 6 13 7 11 9 10 10 93 11 90 12
REMARK SMILES IDX 92 13 94 14 91 15 8 16 7 17 9 19 6 20 1 21 2 22 3 23 98 24
REMARK SMILES IDX 4 25 97 26 99 27 5 28 96 29 95 30 19 31 20 32 21 33 22 34
REMARK SMILES IDX 23 36 24 37 25 38 89 39 26 40 88 41 27 42 28 43 29 44 82 45
REMARK SMILES IDX 30 46 87 47 81 48 83 49 31 50 86 51 80 52 79 53 32 55 66 56
REMARK SMILES IDX 45 57 65 58 46 59 49 60 64 61 84 62 47 63 48 64 63 66 85 67
REMARK SMILES IDX 50 68 33 69 34 70 43 71 35 72 36 73 42 74 44 75 37 76 38 77
REMARK SMILES IDX 39 78 40 79 41 80 67 81 68 82 77 83 69 84 70 85 76 86 78 87
REMARK SMILES IDX 71 88 72 89 73 90 74 91 75 92 51 93 52 94 61 95 53 96 54 97
REMARK SMILES IDX 60 98 62 99 55 100 56 101 57 102 58 103 59 104
REMARK H PARENT 14 8 7 18 21 35 83 54 49 65
REMARK Flexibility Score: inf
ROOT
ATOM      1  C   UNL A   1      32.438  28.934  25.278  1.00  0.00     0.002 C 
ENDROOT
BRANCH   1   2
ATOM      2  C   UNL A   1      31.741  27.585  25.482  1.00  0.00     0.002 C 
BRANCH   2   3
ATOM      3  C   UNL A   1      32.660  26.365  25.420  1.00  0.00     0.021 C 
BRANCH   3   4
ATOM      4  C   UNL A   1      33.072  25.979  24.011  1.00  0.00     0.116 C 
BRANCH   4   5
ATOM      5  N   UNL A   1      32.191  24.984  23.476  1.00  0.00    -0.356 N 
ATOM      6  C   UNL A   1      31.928  23.699  23.764  1.00  0.00     0.224 C 
ATOM      7  O   UNL A   1      31.144  23.197  22.952  1.00  0.00    -0.275 OA
ATOM      8  H   UNL A   1      31.654  25.321  22.722  1.00  0.00     0.163 HD
BRANCH   6   9
ATOM      9  C   UNL A   1      32.584  22.871  24.897  1.00  0.00     0.098 C 
ATOM     10  C   UNL A   1      34.011  22.321  24.471  1.00  0.00     0.099 C 
ATOM     11  C   UNL A   1      33.720  20.787  24.315  1.00  0.00     0.025 C 
ATOM     12  C   UNL A   1      31.910  21.557  25.350  1.00  0.00     0.025 C 
ATOM     13  C   UNL A   1      33.783  20.263  25.735  1.00  0.00    -0.027 C 
ATOM     14  C   UNL A   1      32.200  20.692  24.131  1.00  0.00     0.017 C 
ATOM     15  C   UNL A   1      32.742  20.807  26.381  1.00  0.00    -0.027 C 
BRANCH  10  16
ATOM     16  C   UNL A   1      34.755  22.960  23.297  1.00  0.00     0.230 C 
ATOM     17  N   UNL A   1      36.073  23.333  23.440  1.00  0.00    -0.302 N 
ATOM     18  H   UNL A   1      36.536  23.699  22.652  1.00  0.00     0.172 HD
ATOM     19  O   UNL A   1      34.202  23.139  22.208  1.00  0.00    -0.274 OA
BRANCH  17  20
ATOM     20  C   UNL A   1      36.785  23.229  24.605  1.00  0.00     0.190 A 
ATOM     21  C   UNL A   1      40.622  25.399  28.609  1.00  0.00     0.044 C 
ATOM     22  C   UNL A   1      39.934  24.363  27.761  1.00  0.00    -0.046 A 
ATOM     23  C   UNL A   1      38.733  24.730  27.134  1.00  0.00     0.033 A 
ATOM     24  C   UNL A   1      40.425  23.056  27.592  1.00  0.00    -0.047 A 
ATOM     25  C   UNL A   1      38.082  23.845  26.254  1.00  0.00     0.084 A 
ATOM     26  C   UNL A   1      39.774  22.157  26.712  1.00  0.00     0.025 A 
ATOM     27  C   UNL A   1      41.666  22.566  28.290  1.00  0.00     0.044 C 
ATOM     28  N   UNL A   1      36.969  24.154  25.507  1.00  0.00    -0.220 NA
ATOM     29  C   UNL A   1      38.619  22.580  26.034  1.00  0.00     0.057 A 
ATOM     30  S   UNL A   1      37.645  21.773  24.847  1.00  0.00    -0.097 S 
ENDBRANCH  17  20
ENDBRANCH  10  16
ENDBRANCH   6   9
ENDBRANCH   4   5
ENDBRANCH   3   4
ENDBRANCH   2   3
ENDBRANCH   1   2
BRANCH   1  31
ATOM     31  C   UNL A   1      33.874  29.021  25.805  1.00  0.00     0.021 C 
BRANCH  31  32
ATOM     32  C   UNL A   1      33.986  29.030  27.328  1.00  0.00     0.116 C 
BRANCH  32  33
ATOM     33  N   UNL A   1      33.995  30.359  27.886  1.00  0.00    -0.352 N 
ATOM     34  C   UNL A   1      34.979  31.159  28.391  1.00  0.00     0.251 C 
ATOM     35  H   UNL A   1      33.106  30.777  27.908  1.00  0.00     0.163 HD
ATOM     36  O   UNL A   1      34.620  32.264  28.803  1.00  0.00    -0.269 OA
BRANCH  34  37
ATOM     37  C   UNL A   1      36.413  30.769  28.504  1.00  0.00     0.039 A 
ATOM     38  C   UNL A   1      37.424  31.539  29.081  1.00  0.00     0.014 A 
ATOM     39  C   UNL A   1      36.747  29.504  27.989  1.00  0.00     0.014 A 
ATOM     40  C   UNL A   1      38.739  31.096  29.088  1.00  0.00     0.010 A 
ATOM     41  C   UNL A   1      38.055  29.032  28.037  1.00  0.00     0.010 A 
ATOM     42  C   UNL A   1      39.056  29.840  28.570  1.00  0.00    -0.014 A 
BRANCH  42  43
ATOM     43  C   UNL A   1      40.418  29.358  28.793  1.00  0.00     0.031 A 
ATOM     44  C   UNL A   1      40.755  29.133  30.227  1.00  0.00     0.074 A 
ATOM     45  C   UNL A   1      41.269  29.001  27.812  1.00  0.00     0.049 A 
ATOM     46  N   UNL A   1      41.667  29.714  30.935  1.00  0.00    -0.248 NA
ATOM     47  C   UNL A   1      39.882  28.231  31.002  1.00  0.00     0.031 C 
ATOM     48  C   UNL A   1      40.952  28.888  26.386  1.00  0.00     0.029 A 
ATOM     49  N   UNL A   1      42.556  28.543  27.885  1.00  0.00    -0.354 N 
ATOM     50  C   UNL A   1      41.645  29.071  32.171  1.00  0.00     0.074 A 
ATOM     51  C   UNL A   1      40.428  28.304  32.217  1.00  0.00     0.031 C 
ATOM     52  C   UNL A   1      41.919  28.173  25.775  1.00  0.00     0.029 A 
ATOM     53  C   UNL A   1      42.982  27.898  26.730  1.00  0.00     0.049 A 
ATOM     54  H   UNL A   1      43.125  28.657  28.680  1.00  0.00     0.167 HD
ATOM     55  C   UNL A   1      42.765  28.979  32.937  1.00  0.00     0.037 A 
ATOM     56  C   UNL A   1      44.091  27.135  26.574  1.00  0.00     0.037 A 
ATOM     57  C   UNL A   1      43.784  29.896  32.510  1.00  0.00     0.049 A 
ATOM     58  C   UNL A   1      45.080  27.540  27.605  1.00  0.00     0.074 A 
ATOM     59  C   UNL A   1      44.051  31.241  32.630  1.00  0.00     0.029 A 
ATOM     60  N   UNL A   1      44.597  29.402  31.530  1.00  0.00    -0.354 N 
ATOM     61  N   UNL A   1      45.647  28.715  27.648  1.00  0.00    -0.248 NA
ATOM     62  C   UNL A   1      45.264  26.716  28.796  1.00  0.00     0.031 C 
ATOM     63  C   UNL A   1      44.958  31.564  31.578  1.00  0.00     0.029 A 
ATOM     64  C   UNL A   1      45.230  30.406  30.853  1.00  0.00     0.049 A 
ATOM     65  H   UNL A   1      44.712  28.443  31.336  1.00  0.00     0.167 HD
ATOM     66  C   UNL A   1      45.889  28.929  28.988  1.00  0.00     0.074 A 
ATOM     67  C   UNL A   1      45.810  27.619  29.614  1.00  0.00     0.031 C 
ATOM     68  C   UNL A   1      45.778  30.173  29.533  1.00  0.00     0.037 A 
BRANCH  55  69
ATOM     69  C   UNL A   1      43.139  27.744  33.729  1.00  0.00     0.058 A 
ATOM     70  C   UNL A   1      43.330  27.843  35.122  1.00  0.00     0.135 A 
ATOM     71  C   UNL A   1      43.629  26.563  33.128  1.00  0.00     0.135 A 
ATOM     72  F   UNL A   1      42.932  28.939  35.788  1.00  0.00    -0.206 F 
ATOM     73  C   UNL A   1      43.996  26.859  35.856  1.00  0.00     0.059 A 
ATOM     74  C   UNL A   1      44.247  25.546  33.848  1.00  0.00     0.059 A 
ATOM     75  F   UNL A   1      43.627  26.389  31.801  1.00  0.00    -0.206 F 
ATOM     76  C   UNL A   1      44.459  25.718  35.205  1.00  0.00     0.060 A 
BRANCH  76  77
ATOM     77  S   UNL A   1      45.386  24.480  36.130  1.00  0.00     0.124 S 
ATOM     78  O   UNL A   1      44.490  23.332  36.063  1.00  0.00    -0.237 OA
ATOM     79  O   UNL A   1      46.616  24.379  35.352  1.00  0.00    -0.237 OA
ATOM     80  O   UNL A   1      45.536  25.091  37.448  1.00  0.00    -0.744 OA
ENDBRANCH  76  77
ENDBRANCH  55  69
BRANCH  56  81
ATOM     81  C   UNL A   1      44.256  25.906  25.751  1.00  0.00     0.058 A 
ATOM     82  C   UNL A   1      45.537  25.442  25.398  1.00  0.00     0.135 A 
ATOM     83  C   UNL A   1      43.191  25.007  25.532  1.00  0.00     0.135 A 
ATOM     84  F   UNL A   1      46.612  26.224  25.575  1.00  0.00    -0.206 F 
ATOM     85  C   UNL A   1      45.758  24.143  24.932  1.00  0.00     0.059 A 
ATOM     86  C   UNL A   1      43.385  23.715  25.049  1.00  0.00     0.059 A 
ATOM     87  F   UNL A   1      41.932  25.319  25.872  1.00  0.00    -0.206 F 
ATOM     88  C   UNL A   1      44.677  23.276  24.787  1.00  0.00     0.060 A 
BRANCH  88  89
ATOM     89  S   UNL A   1      44.980  21.540  24.389  1.00  0.00     0.124 S 
ATOM     90  O   UNL A   1      44.522  21.463  23.007  1.00  0.00    -0.237 OA
ATOM     91  O   UNL A   1      46.420  21.428  24.593  1.00  0.00    -0.237 OA
ATOM     92  O   UNL A   1      44.158  20.823  25.361  1.00  0.00    -0.744 OA
ENDBRANCH  88  89
ENDBRANCH  56  81
BRANCH  68  93
ATOM     93  C   UNL A   1      46.076  31.357  28.669  1.00  0.00     0.058 A 
ATOM     94  C   UNL A   1      47.351  31.898  28.452  1.00  0.00     0.135 A 
ATOM     95  C   UNL A   1      45.005  31.906  27.945  1.00  0.00     0.135 A 
ATOM     96  F   UNL A   1      48.433  31.381  29.053  1.00  0.00    -0.206 F 
ATOM     97  C   UNL A   1      47.549  32.955  27.561  1.00  0.00     0.059 A 
ATOM     98  C   UNL A   1      45.183  32.937  27.031  1.00  0.00     0.059 A 
ATOM     99  F   UNL A   1      43.768  31.402  28.085  1.00  0.00    -0.206 F 
ATOM    100  C   UNL A   1      46.460  33.462  26.849  1.00  0.00     0.060 A 
BRANCH 100 101
ATOM    101  S   UNL A   1      46.728  34.757  25.620  1.00  0.00     0.124 S 
ATOM    102  O   UNL A   1      48.056  34.419  25.105  1.00  0.00    -0.237 OA
ATOM    103  O   UNL A   1      45.619  34.538  24.689  1.00  0.00    -0.237 OA
ATOM    104  O   UNL A   1      46.651  35.986  26.389  1.00  0.00    -0.744 OA
ENDBRANCH 100 101
ENDBRANCH  68  93
ENDBRANCH  42  43
ENDBRANCH  34  37
ENDBRANCH  32  33
ENDBRANCH  31  32
ENDBRANCH   1  31
TORSDOF 18
ENDMDL
