MODEL 1
REMARK VINA RESULT:     -13.2      0.000      0.000
REMARK SMILES O=C(NCCCCCCNC(=O)[C@@H]1Nc2ccc(NC(=O)c3ccccc3)cc2[C@@H]2C=CC[C@H]12)c1ccc(-c2c3nc(c(-c4c(F)cc(S(=O)(=O)[O-])cc4F)c4ccc([nH]4)c(-c4c(F)cc(S(=O)(=O)[O-])cc4F)c4nc(c(-c5c(F)cc(S(=O)(=O)[O-])cc5F)c5ccc2[nH]5)C=C4)C=C3)cc1
REMARK SMILES IDX 6 1 5 2 4 3 3 4 1 5 2 6 35 8 36 9 100 10 37 11 99 12 38 13
REMARK SMILES IDX 39 14 40 15 93 16 41 17 98 18 92 19 94 20 42 21 97 22 91 23
REMARK SMILES IDX 90 24 43 26 77 27 56 28 76 29 57 30 60 31 75 32 95 33 58 34
REMARK SMILES IDX 59 35 74 37 96 38 61 39 44 40 45 41 54 42 46 43 47 44 53 45
REMARK SMILES IDX 55 46 48 47 49 48 50 49 51 50 52 51 78 52 79 53 88 54 80 55
REMARK SMILES IDX 81 56 87 57 89 58 82 59 83 60 84 61 85 62 86 63 62 64 63 65
REMARK SMILES IDX 72 66 64 67 65 68 71 69 73 70 66 71 67 72 68 73 69 74 70 75
REMARK SMILES IDX 7 76 8 77 9 78 10 79 11 80 12 82 13 83 14 84 34 85 15 86
REMARK SMILES IDX 30 88 33 89 16 90 29 91 31 92 32 93 17 94 28 95 18 96 19 97
REMARK SMILES IDX 20 98 21 100 22 101 23 102 27 103 24 104 26 105 25 106
REMARK H PARENT 3 7 94 25 60 36 10 81 14 87 19 99
REMARK Flexibility Score: inf
ROOT
ATOM      1  C   UNL A   1      38.489  21.861  25.698  1.00  0.00     0.002 C 
ENDROOT
BRANCH   1   2
ATOM      2  C   UNL A   1      37.756  23.179  25.958  1.00  0.00     0.021 C 
BRANCH   2   3
ATOM      3  C   UNL A   1      38.628  24.269  26.567  1.00  0.00     0.116 C 
BRANCH   3   4
ATOM      4  N   UNL A   1      39.991  24.220  26.057  1.00  0.00    -0.352 N 
ATOM      5  O   UNL A   1      42.067  25.012  25.661  1.00  0.00    -0.269 OA
ATOM      6  C   UNL A   1      41.053  25.040  26.353  1.00  0.00     0.251 C 
ATOM      7  H   UNL A   1      40.177  23.500  25.413  1.00  0.00     0.163 HD
BRANCH   6   8
ATOM      8  C   UNL A   1      40.956  25.961  27.505  1.00  0.00     0.039 A 
ATOM      9  C   UNL A   1      40.048  25.693  28.531  1.00  0.00     0.014 A 
ATOM     10  C   UNL A   1      41.768  27.096  27.563  1.00  0.00     0.014 A 
ATOM     11  C   UNL A   1      39.839  26.634  29.526  1.00  0.00     0.010 A 
ATOM     12  C   UNL A   1      41.634  27.991  28.631  1.00  0.00     0.010 A 
ATOM     13  C   UNL A   1      40.651  27.779  29.609  1.00  0.00    -0.014 A 
BRANCH  13  14
ATOM     14  C   UNL A   1      40.492  28.667  30.789  1.00  0.00     0.031 A 
ATOM     15  C   UNL A   1      41.381  28.551  31.995  1.00  0.00     0.074 A 
ATOM     16  C   UNL A   1      39.561  29.641  30.720  1.00  0.00     0.049 A 
ATOM     17  N   UNL A   1      41.409  29.302  33.067  1.00  0.00    -0.248 NA
ATOM     18  C   UNL A   1      42.357  27.451  32.011  1.00  0.00     0.031 C 
ATOM     19  C   UNL A   1      38.622  29.826  29.607  1.00  0.00     0.029 A 
ATOM     20  N   UNL A   1      39.267  30.673  31.572  1.00  0.00    -0.354 N 
ATOM     21  C   UNL A   1      42.398  28.770  33.885  1.00  0.00     0.074 A 
ATOM     22  C   UNL A   1      42.923  27.606  33.202  1.00  0.00     0.031 C 
ATOM     23  C   UNL A   1      37.905  30.938  29.814  1.00  0.00     0.029 A 
ATOM     24  C   UNL A   1      38.276  31.504  31.104  1.00  0.00     0.049 A 
ATOM     25  H   UNL A   1      39.721  30.806  32.435  1.00  0.00     0.167 HD
ATOM     26  C   UNL A   1      42.834  29.221  35.087  1.00  0.00     0.037 A 
ATOM     27  C   UNL A   1      37.711  32.592  31.658  1.00  0.00     0.037 A 
ATOM     28  C   UNL A   1      42.301  30.382  35.756  1.00  0.00     0.049 A 
ATOM     29  C   UNL A   1      38.209  33.062  32.993  1.00  0.00     0.074 A 
ATOM     30  C   UNL A   1      42.674  30.923  36.974  1.00  0.00     0.029 A 
ATOM     31  N   UNL A   1      41.281  31.186  35.263  1.00  0.00    -0.354 N 
ATOM     32  N   UNL A   1      39.158  32.552  33.741  1.00  0.00    -0.248 NA
ATOM     33  C   UNL A   1      37.561  34.250  33.560  1.00  0.00     0.031 C 
ATOM     34  C   UNL A   1      41.856  32.027  37.236  1.00  0.00     0.029 A 
ATOM     35  C   UNL A   1      41.005  32.208  36.158  1.00  0.00     0.049 A 
ATOM     36  H   UNL A   1      40.821  31.049  34.403  1.00  0.00     0.167 HD
ATOM     37  C   UNL A   1      39.227  33.362  34.867  1.00  0.00     0.074 A 
ATOM     38  C   UNL A   1      38.247  34.415  34.682  1.00  0.00     0.031 C 
ATOM     39  C   UNL A   1      40.020  33.242  35.961  1.00  0.00     0.037 A 
BRANCH  26  40
ATOM     40  C   UNL A   1      43.943  28.459  35.765  1.00  0.00     0.058 A 
ATOM     41  C   UNL A   1      43.674  27.417  36.669  1.00  0.00     0.135 A 
ATOM     42  C   UNL A   1      45.288  28.725  35.460  1.00  0.00     0.135 A 
ATOM     43  F   UNL A   1      42.408  27.128  37.009  1.00  0.00    -0.206 F 
ATOM     44  C   UNL A   1      44.698  26.681  37.257  1.00  0.00     0.059 A 
ATOM     45  C   UNL A   1      46.328  27.984  36.017  1.00  0.00     0.059 A 
ATOM     46  F   UNL A   1      45.605  29.709  34.603  1.00  0.00    -0.206 F 
ATOM     47  C   UNL A   1      46.022  26.970  36.923  1.00  0.00     0.060 A 
BRANCH  47  48
ATOM     48  S   UNL A   1      47.334  25.988  37.682  1.00  0.00     0.124 S 
ATOM     49  O   UNL A   1      46.670  24.700  37.857  1.00  0.00    -0.237 OA
ATOM     50  O   UNL A   1      48.381  26.028  36.666  1.00  0.00    -0.237 OA
ATOM     51  O   UNL A   1      47.632  26.712  38.915  1.00  0.00    -0.744 OA
ENDBRANCH  47  48
ENDBRANCH  26  40
BRANCH  27  52
ATOM     52  C   UNL A   1      36.596  33.284  30.957  1.00  0.00     0.058 A 
ATOM     53  C   UNL A   1      36.820  34.061  29.812  1.00  0.00     0.135 A 
ATOM     54  C   UNL A   1      35.276  33.164  31.418  1.00  0.00     0.135 A 
ATOM     55  F   UNL A   1      38.064  34.206  29.331  1.00  0.00    -0.206 F 
ATOM     56  C   UNL A   1      35.778  34.715  29.164  1.00  0.00     0.059 A 
ATOM     57  C   UNL A   1      34.214  33.779  30.767  1.00  0.00     0.059 A 
ATOM     58  F   UNL A   1      35.004  32.412  32.497  1.00  0.00    -0.206 F 
ATOM     59  C   UNL A   1      34.477  34.568  29.650  1.00  0.00     0.060 A 
BRANCH  59  60
ATOM     60  S   UNL A   1      33.126  35.396  28.787  1.00  0.00     0.124 S 
ATOM     61  O   UNL A   1      32.331  35.897  29.901  1.00  0.00    -0.237 OA
ATOM     62  O   UNL A   1      33.833  36.402  28.001  1.00  0.00    -0.237 OA
ATOM     63  O   UNL A   1      32.517  34.320  28.009  1.00  0.00    -0.744 OA
ENDBRANCH  59  60
ENDBRANCH  27  52
BRANCH  39  64
ATOM     64  C   UNL A   1      39.862  34.289  37.028  1.00  0.00     0.058 A 
ATOM     65  C   UNL A   1      39.066  34.071  38.163  1.00  0.00     0.135 A 
ATOM     66  C   UNL A   1      40.519  35.525  36.914  1.00  0.00     0.135 A 
ATOM     67  F   UNL A   1      38.411  32.908  38.316  1.00  0.00    -0.206 F 
ATOM     68  C   UNL A   1      38.889  35.057  39.127  1.00  0.00     0.059 A 
ATOM     69  C   UNL A   1      40.381  36.514  37.883  1.00  0.00     0.059 A 
ATOM     70  F   UNL A   1      41.301  35.782  35.854  1.00  0.00    -0.206 F 
ATOM     71  C   UNL A   1      39.549  36.278  38.975  1.00  0.00     0.060 A 
BRANCH  71  72
ATOM     72  S   UNL A   1      39.309  37.552  40.231  1.00  0.00     0.124 S 
ATOM     73  O   UNL A   1      38.303  38.400  39.602  1.00  0.00    -0.237 OA
ATOM     74  O   UNL A   1      38.855  36.775  41.382  1.00  0.00    -0.237 OA
ATOM     75  O   UNL A   1      40.635  38.146  40.369  1.00  0.00    -0.744 OA
ENDBRANCH  71  72
ENDBRANCH  39  64
ENDBRANCH  13  14
ENDBRANCH   6   8
ENDBRANCH   3   4
ENDBRANCH   2   3
ENDBRANCH   1   2
BRANCH   1  76
ATOM     76  C   UNL A   1      37.644  20.771  25.032  1.00  0.00     0.002 C 
BRANCH  76  77
ATOM     77  C   UNL A   1      36.229  21.210  24.649  1.00  0.00     0.021 C 
BRANCH  77  78
ATOM     78  C   UNL A   1      35.153  20.754  25.637  1.00  0.00     0.116 C 
BRANCH  78  79
ATOM     79  N   UNL A   1      34.270  19.814  24.986  1.00  0.00    -0.354 N 
ATOM     80  C   UNL A   1      33.019  19.989  24.485  1.00  0.00     0.242 C 
ATOM     81  H   UNL A   1      34.632  18.904  24.891  1.00  0.00     0.163 HD
ATOM     82  O   UNL A   1      32.407  18.960  24.172  1.00  0.00    -0.273 OA
BRANCH  80  83
ATOM     83  C   UNL A   1      32.382  21.374  24.238  1.00  0.00     0.173 C 
ATOM     84  N   UNL A   1      33.242  22.253  23.452  1.00  0.00    -0.373 N 
ATOM     85  C   UNL A   1      31.762  22.129  25.412  1.00  0.00     0.036 C 
ATOM     86  C   UNL A   1      32.695  23.473  23.067  1.00  0.00     0.039 A 
ATOM     87  H   UNL A   1      34.160  21.996  23.206  1.00  0.00     0.161 HD
ATOM     88  C   UNL A   1      30.890  23.285  24.856  1.00  0.00     0.050 C 
ATOM     89  C   UNL A   1      32.667  22.840  26.433  1.00  0.00     0.034 C 
ATOM     90  C   UNL A   1      33.360  24.247  22.121  1.00  0.00     0.028 A 
ATOM     91  C   UNL A   1      31.545  24.002  23.684  1.00  0.00    -0.015 A 
ATOM     92  C   UNL A   1      30.791  24.174  26.070  1.00  0.00    -0.023 C 
ATOM     93  C   UNL A   1      31.787  23.942  26.929  1.00  0.00    -0.030 C 
ATOM     94  C   UNL A   1      32.847  25.482  21.717  1.00  0.00     0.028 A 
ATOM     95  C   UNL A   1      31.005  25.218  23.221  1.00  0.00     0.032 A 
ATOM     96  C   UNL A   1      31.631  25.948  22.207  1.00  0.00     0.041 A 
BRANCH  96  97
ATOM     97  N   UNL A   1      30.992  27.129  21.780  1.00  0.00    -0.322 N 
ATOM     98  C   UNL A   1      30.865  28.370  22.363  1.00  0.00     0.255 C 
ATOM     99  H   UNL A   1      30.554  27.052  20.903  1.00  0.00     0.170 HD
ATOM    100  O   UNL A   1      30.120  29.217  21.872  1.00  0.00    -0.269 OA
BRANCH  98 101
ATOM    101  C   UNL A   1      31.661  28.736  23.549  1.00  0.00     0.040 A 
ATOM    102  C   UNL A   1      31.004  28.907  24.770  1.00  0.00     0.014 A 
ATOM    103  C   UNL A   1      33.054  28.851  23.464  1.00  0.00     0.014 A 
ATOM    104  C   UNL A   1      31.754  29.112  25.927  1.00  0.00     0.001 A 
ATOM    105  C   UNL A   1      33.799  29.047  24.626  1.00  0.00     0.001 A 
ATOM    106  C   UNL A   1      33.149  29.164  25.857  1.00  0.00     0.000 A 
ENDBRANCH  98 101
ENDBRANCH  96  97
ENDBRANCH  80  83
ENDBRANCH  78  79
ENDBRANCH  77  78
ENDBRANCH  76  77
ENDBRANCH   1  76
TORSDOF 18
ENDMDL
MODEL 2
REMARK VINA RESULT:     -12.9      1.091      2.178
REMARK SMILES O=C(NCCCCCCNC(=O)[C@@H]1Nc2ccc(NC(=O)c3ccccc3)cc2[C@@H]2C=CC[C@H]12)c1ccc(-c2c3nc(c(-c4c(F)cc(S(=O)(=O)[O-])cc4F)c4ccc([nH]4)c(-c4c(F)cc(S(=O)(=O)[O-])cc4F)c4nc(c(-c5c(F)cc(S(=O)(=O)[O-])cc5F)c5ccc2[nH]5)C=C4)C=C3)cc1
REMARK SMILES IDX 6 1 5 2 4 3 3 4 1 5 2 6 35 8 36 9 100 10 37 11 99 12 38 13
REMARK SMILES IDX 39 14 40 15 93 16 41 17 98 18 92 19 94 20 42 21 97 22 91 23
REMARK SMILES IDX 90 24 43 26 77 27 56 28 76 29 57 30 60 31 75 32 95 33 58 34
REMARK SMILES IDX 59 35 74 37 96 38 61 39 44 40 45 41 54 42 46 43 47 44 53 45
REMARK SMILES IDX 55 46 48 47 49 48 50 49 51 50 52 51 78 52 79 53 88 54 80 55
REMARK SMILES IDX 81 56 87 57 89 58 82 59 83 60 84 61 85 62 86 63 62 64 63 65
REMARK SMILES IDX 72 66 64 67 65 68 71 69 73 70 66 71 67 72 68 73 69 74 70 75
REMARK SMILES IDX 7 76 8 77 9 78 10 79 11 80 12 82 13 83 14 84 34 85 15 86
REMARK SMILES IDX 30 88 33 89 16 90 29 91 31 92 32 93 17 94 28 95 18 96 19 97
REMARK SMILES IDX 20 98 21 100 22 101 23 102 27 103 24 104 26 105 25 106
REMARK H PARENT 3 7 94 25 60 36 10 81 14 87 19 99
REMARK Flexibility Score: inf
ROOT
ATOM      1  C   UNL A   1      40.734  21.870  26.683  1.00  0.00     0.002 C 
ENDROOT
BRANCH   1   2
ATOM      2  C   UNL A   1      41.567  22.291  27.896  1.00  0.00     0.021 C 
BRANCH   2   3
ATOM      3  C   UNL A   1      42.642  23.324  27.587  1.00  0.00     0.116 C 
BRANCH   3   4
ATOM      4  N   UNL A   1      42.366  24.040  26.349  1.00  0.00    -0.352 N 
ATOM      5  O   UNL A   1      41.358  25.585  25.049  1.00  0.00    -0.269 OA
ATOM      6  C   UNL A   1      41.717  25.237  26.171  1.00  0.00     0.251 C 
ATOM      7  H   UNL A   1      42.690  23.605  25.528  1.00  0.00     0.163 HD
BRANCH   6   8
ATOM      8  C   UNL A   1      41.448  26.095  27.344  1.00  0.00     0.039 A 
ATOM      9  C   UNL A   1      42.298  27.166  27.628  1.00  0.00     0.014 A 
ATOM     10  C   UNL A   1      40.349  25.832  28.166  1.00  0.00     0.014 A 
ATOM     11  C   UNL A   1      42.145  27.869  28.812  1.00  0.00     0.010 A 
ATOM     12  C   UNL A   1      40.131  26.617  29.304  1.00  0.00     0.010 A 
ATOM     13  C   UNL A   1      41.041  27.627  29.649  1.00  0.00    -0.014 A 
BRANCH  13  14
ATOM     14  C   UNL A   1      40.838  28.522  30.818  1.00  0.00     0.031 A 
ATOM     15  C   UNL A   1      41.716  28.448  32.034  1.00  0.00     0.074 A 
ATOM     16  C   UNL A   1      39.875  29.462  30.728  1.00  0.00     0.049 A 
ATOM     17  N   UNL A   1      41.706  29.211  33.099  1.00  0.00    -0.248 NA
ATOM     18  C   UNL A   1      42.729  27.383  32.073  1.00  0.00     0.031 C 
ATOM     19  C   UNL A   1      38.943  29.604  29.602  1.00  0.00     0.029 A 
ATOM     20  N   UNL A   1      39.536  30.492  31.565  1.00  0.00    -0.354 N 
ATOM     21  C   UNL A   1      42.704  28.721  33.934  1.00  0.00     0.074 A 
ATOM     22  C   UNL A   1      43.276  27.569  33.269  1.00  0.00     0.031 C 
ATOM     23  C   UNL A   1      38.186  30.693  29.789  1.00  0.00     0.029 A 
ATOM     24  C   UNL A   1      38.523  31.284  31.077  1.00  0.00     0.049 A 
ATOM     25  H   UNL A   1      39.976  30.650  32.432  1.00  0.00     0.167 HD
ATOM     26  C   UNL A   1      43.110  29.200  35.135  1.00  0.00     0.037 A 
ATOM     27  C   UNL A   1      37.915  32.358  31.613  1.00  0.00     0.037 A 
ATOM     28  C   UNL A   1      42.530  30.349  35.785  1.00  0.00     0.049 A 
ATOM     29  C   UNL A   1      38.381  32.858  32.949  1.00  0.00     0.074 A 
ATOM     30  C   UNL A   1      42.871  30.915  37.002  1.00  0.00     0.029 A 
ATOM     31  N   UNL A   1      41.489  31.112  35.273  1.00  0.00    -0.354 N 
ATOM     32  N   UNL A   1      39.338  32.390  33.713  1.00  0.00    -0.248 NA
ATOM     33  C   UNL A   1      37.687  34.030  33.495  1.00  0.00     0.031 C 
ATOM     34  C   UNL A   1      42.012  31.993  37.243  1.00  0.00     0.029 A 
ATOM     35  C   UNL A   1      41.168  32.134  36.153  1.00  0.00     0.049 A 
ATOM     36  H   UNL A   1      41.044  30.951  34.409  1.00  0.00     0.167 HD
ATOM     37  C   UNL A   1      39.366  33.213  34.831  1.00  0.00     0.074 A 
ATOM     38  C   UNL A   1      38.353  34.229  34.623  1.00  0.00     0.031 C 
ATOM     39  C   UNL A   1      40.150  33.131  35.934  1.00  0.00     0.037 A 
BRANCH  26  40
ATOM     40  C   UNL A   1      44.236  28.483  35.834  1.00  0.00     0.058 A 
ATOM     41  C   UNL A   1      43.995  27.412  36.710  1.00  0.00     0.135 A 
ATOM     42  C   UNL A   1      45.574  28.825  35.575  1.00  0.00     0.135 A 
ATOM     43  F   UNL A   1      42.736  27.052  37.006  1.00  0.00    -0.206 F 
ATOM     44  C   UNL A   1      45.038  26.718  37.316  1.00  0.00     0.059 A 
ATOM     45  C   UNL A   1      46.634  28.128  36.151  1.00  0.00     0.059 A 
ATOM     46  F   UNL A   1      45.865  29.839  34.746  1.00  0.00    -0.206 F 
ATOM     47  C   UNL A   1      46.354  27.082  37.029  1.00  0.00     0.060 A 
BRANCH  47  48
ATOM     48  S   UNL A   1      47.693  26.155  37.811  1.00  0.00     0.124 S 
ATOM     49  O   UNL A   1      48.064  25.226  36.748  1.00  0.00    -0.237 OA
ATOM     50  O   UNL A   1      48.666  27.202  38.105  1.00  0.00    -0.237 OA
ATOM     51  O   UNL A   1      47.054  25.550  38.977  1.00  0.00    -0.744 OA
ENDBRANCH  47  48
ENDBRANCH  26  40
BRANCH  27  52
ATOM     52  C   UNL A   1      36.786  33.004  30.892  1.00  0.00     0.058 A 
ATOM     53  C   UNL A   1      35.453  32.679  31.175  1.00  0.00     0.135 A 
ATOM     54  C   UNL A   1      37.027  33.979  29.910  1.00  0.00     0.135 A 
ATOM     55  F   UNL A   1      35.170  31.754  32.106  1.00  0.00    -0.206 F 
ATOM     56  C   UNL A   1      34.398  33.277  30.494  1.00  0.00     0.059 A 
ATOM     57  C   UNL A   1      35.990  34.616  29.241  1.00  0.00     0.059 A 
ATOM     58  F   UNL A   1      38.285  34.344  29.617  1.00  0.00    -0.206 F 
ATOM     59  C   UNL A   1      34.678  34.246  29.528  1.00  0.00     0.060 A 
BRANCH  59  60
ATOM     60  S   UNL A   1      33.304  35.040  28.668  1.00  0.00     0.124 S 
ATOM     61  O   UNL A   1      32.743  33.923  27.919  1.00  0.00    -0.237 OA
ATOM     62  O   UNL A   1      32.494  35.538  29.776  1.00  0.00    -0.237 OA
ATOM     63  O   UNL A   1      33.960  36.072  27.870  1.00  0.00    -0.744 OA
ENDBRANCH  59  60
ENDBRANCH  27  52
BRANCH  39  64
ATOM     64  C   UNL A   1      39.945  34.183  36.988  1.00  0.00     0.058 A 
ATOM     65  C   UNL A   1      40.598  35.425  36.927  1.00  0.00     0.135 A 
ATOM     66  C   UNL A   1      39.083  33.947  38.071  1.00  0.00     0.135 A 
ATOM     67  F   UNL A   1      41.438  35.697  35.916  1.00  0.00    -0.206 F 
ATOM     68  C   UNL A   1      40.438  36.378  37.927  1.00  0.00     0.059 A 
ATOM     69  C   UNL A   1      38.885  34.900  39.065  1.00  0.00     0.059 A 
ATOM     70  F   UNL A   1      38.426  32.781  38.172  1.00  0.00    -0.206 F 
ATOM     71  C   UNL A   1      39.582  36.104  38.994  1.00  0.00     0.060 A 
BRANCH  71  72
ATOM     72  S   UNL A   1      39.386  37.349  40.286  1.00  0.00     0.124 S 
ATOM     73  O   UNL A   1      38.586  38.359  39.602  1.00  0.00    -0.237 OA
ATOM     74  O   UNL A   1      38.701  36.602  41.338  1.00  0.00    -0.237 OA
ATOM     75  O   UNL A   1      40.759  37.737  40.595  1.00  0.00    -0.744 OA
ENDBRANCH  71  72
ENDBRANCH  39  64
ENDBRANCH  13  14
ENDBRANCH   6   8
ENDBRANCH   3   4
ENDBRANCH   2   3
ENDBRANCH   1   2
BRANCH   1  76
ATOM     76  C   UNL A   1      39.327  22.471  26.623  1.00  0.00     0.002 C 
BRANCH  76  77
ATOM     77  C   UNL A   1      38.398  21.812  25.601  1.00  0.00     0.021 C 
BRANCH  77  78
ATOM     78  C   UNL A   1      36.997  22.424  25.556  1.00  0.00     0.116 C 
BRANCH  78  79
ATOM     79  N   UNL A   1      36.107  21.650  26.391  1.00  0.00    -0.354 N 
ATOM     80  C   UNL A   1      34.769  21.770  26.593  1.00  0.00     0.242 C 
ATOM     81  H   UNL A   1      36.539  20.920  26.891  1.00  0.00     0.163 HD
ATOM     82  O   UNL A   1      34.295  21.108  27.525  1.00  0.00    -0.273 OA
BRANCH  80  83
ATOM     83  C   UNL A   1      33.840  22.618  25.696  1.00  0.00     0.173 C 
ATOM     84  N   UNL A   1      32.596  22.982  26.365  1.00  0.00    -0.373 N 
ATOM     85  C   UNL A   1      33.572  22.164  24.262  1.00  0.00     0.036 C 
ATOM     86  C   UNL A   1      31.757  23.857  25.681  1.00  0.00     0.039 A 
ATOM     87  H   UNL A   1      32.362  22.629  27.255  1.00  0.00     0.161 HD
ATOM     88  C   UNL A   1      32.931  23.339  23.480  1.00  0.00     0.050 C 
ATOM     89  C   UNL A   1      32.604  21.001  23.992  1.00  0.00     0.034 C 
ATOM     90  C   UNL A   1      30.684  24.434  26.355  1.00  0.00     0.028 A 
ATOM     91  C   UNL A   1      31.893  24.094  24.301  1.00  0.00    -0.015 A 
ATOM     92  C   UNL A   1      32.301  22.602  22.325  1.00  0.00    -0.023 C 
ATOM     93  C   UNL A   1      32.100  21.314  22.620  1.00  0.00    -0.030 C 
ATOM     94  C   UNL A   1      29.814  25.309  25.699  1.00  0.00     0.028 A 
ATOM     95  C   UNL A   1      31.049  25.027  23.668  1.00  0.00     0.032 A 
ATOM     96  C   UNL A   1      30.028  25.670  24.372  1.00  0.00     0.041 A 
BRANCH  96  97
ATOM     97  N   UNL A   1      29.263  26.620  23.665  1.00  0.00    -0.322 N 
ATOM     98  C   UNL A   1      29.495  27.942  23.354  1.00  0.00     0.255 C 
ATOM     99  H   UNL A   1      28.404  26.275  23.333  1.00  0.00     0.170 HD
ATOM    100  O   UNL A   1      28.607  28.630  22.855  1.00  0.00    -0.269 OA
BRANCH  98 101
ATOM    101  C   UNL A   1      30.826  28.545  23.551  1.00  0.00     0.040 A 
ATOM    102  C   UNL A   1      31.113  29.146  24.779  1.00  0.00     0.014 A 
ATOM    103  C   UNL A   1      31.801  28.464  22.549  1.00  0.00     0.014 A 
ATOM    104  C   UNL A   1      32.408  29.594  25.036  1.00  0.00     0.001 A 
ATOM    105  C   UNL A   1      33.096  28.905  22.816  1.00  0.00     0.001 A 
ATOM    106  C   UNL A   1      33.401  29.457  24.062  1.00  0.00     0.000 A 
ENDBRANCH  98 101
ENDBRANCH  96  97
ENDBRANCH  80  83
ENDBRANCH  78  79
ENDBRANCH  77  78
ENDBRANCH  76  77
ENDBRANCH   1  76
TORSDOF 18
ENDMDL
MODEL 3
REMARK VINA RESULT:     -12.8      0.450      7.926
REMARK SMILES O=C(NCCCCCCNC(=O)[C@@H]1Nc2ccc(NC(=O)c3ccccc3)cc2[C@@H]2C=CC[C@H]12)c1ccc(-c2c3nc(c(-c4c(F)cc(S(=O)(=O)[O-])cc4F)c4ccc([nH]4)c(-c4c(F)cc(S(=O)(=O)[O-])cc4F)c4nc(c(-c5c(F)cc(S(=O)(=O)[O-])cc5F)c5ccc2[nH]5)C=C4)C=C3)cc1
REMARK SMILES IDX 6 1 5 2 4 3 3 4 1 5 2 6 35 8 36 9 100 10 37 11 99 12 38 13
REMARK SMILES IDX 39 14 40 15 93 16 41 17 98 18 92 19 94 20 42 21 97 22 91 23
REMARK SMILES IDX 90 24 43 26 77 27 56 28 76 29 57 30 60 31 75 32 95 33 58 34
REMARK SMILES IDX 59 35 74 37 96 38 61 39 44 40 45 41 54 42 46 43 47 44 53 45
REMARK SMILES IDX 55 46 48 47 49 48 50 49 51 50 52 51 78 52 79 53 88 54 80 55
REMARK SMILES IDX 81 56 87 57 89 58 82 59 83 60 84 61 85 62 86 63 62 64 63 65
REMARK SMILES IDX 72 66 64 67 65 68 71 69 73 70 66 71 67 72 68 73 69 74 70 75
REMARK SMILES IDX 7 76 8 77 9 78 10 79 11 80 12 82 13 83 14 84 34 85 15 86
REMARK SMILES IDX 30 88 33 89 16 90 29 91 31 92 32 93 17 94 28 95 18 96 19 97
REMARK SMILES IDX 20 98 21 100 22 101 23 102 27 103 24 104 26 105 25 106
REMARK H PARENT 3 7 94 25 60 36 10 81 14 87 19 99
REMARK Flexibility Score: inf
ROOT
ATOM      1  C   UNL A   1      38.347  22.002  25.554  1.00  0.00     0.002 C 
ENDROOT
BRANCH   1   2
ATOM      2  C   UNL A   1      37.606  23.310  25.837  1.00  0.00     0.021 C 
BRANCH   2   3
ATOM      3  C   UNL A   1      38.473  24.400  26.453  1.00  0.00     0.116 C 
BRANCH   3   4
ATOM      4  N   UNL A   1      39.864  24.285  26.036  1.00  0.00    -0.352 N 
ATOM      5  O   UNL A   1      41.988  24.991  25.748  1.00  0.00    -0.269 OA
ATOM      6  C   UNL A   1      40.933  25.079  26.371  1.00  0.00     0.251 C 
ATOM      7  H   UNL A   1      40.064  23.535  25.431  1.00  0.00     0.163 HD
BRANCH   6   8
ATOM      8  C   UNL A   1      40.796  26.045  27.481  1.00  0.00     0.039 A 
ATOM      9  C   UNL A   1      41.497  27.252  27.438  1.00  0.00     0.014 A 
ATOM     10  C   UNL A   1      39.972  25.749  28.569  1.00  0.00     0.014 A 
ATOM     11  C   UNL A   1      41.500  28.084  28.546  1.00  0.00     0.010 A 
ATOM     12  C   UNL A   1      39.888  26.646  29.640  1.00  0.00     0.010 A 
ATOM     13  C   UNL A   1      40.671  27.810  29.648  1.00  0.00    -0.014 A 
BRANCH  13  14
ATOM     14  C   UNL A   1      40.590  28.821  30.734  1.00  0.00     0.031 A 
ATOM     15  C   UNL A   1      39.556  29.910  30.729  1.00  0.00     0.074 A 
ATOM     16  C   UNL A   1      41.439  28.692  31.775  1.00  0.00     0.049 A 
ATOM     17  N   UNL A   1      39.317  30.817  31.642  1.00  0.00    -0.248 NA
ATOM     18  C   UNL A   1      38.680  30.005  29.550  1.00  0.00     0.031 C 
ATOM     19  C   UNL A   1      42.505  27.687  31.868  1.00  0.00     0.029 A 
ATOM     20  N   UNL A   1      41.526  29.373  32.960  1.00  0.00    -0.354 N 
ATOM     21  C   UNL A   1      38.271  31.591  31.153  1.00  0.00     0.074 A 
ATOM     22  C   UNL A   1      37.944  31.070  29.842  1.00  0.00     0.031 C 
ATOM     23  C   UNL A   1      43.092  27.776  33.069  1.00  0.00     0.029 A 
ATOM     24  C   UNL A   1      42.500  28.887  33.801  1.00  0.00     0.049 A 
ATOM     25  H   UNL A   1      40.946  30.135  33.188  1.00  0.00     0.167 HD
ATOM     26  C   UNL A   1      37.636  32.629  31.751  1.00  0.00     0.037 A 
ATOM     27  C   UNL A   1      42.891  29.300  35.019  1.00  0.00     0.037 A 
ATOM     28  C   UNL A   1      37.974  33.137  33.058  1.00  0.00     0.049 A 
ATOM     29  C   UNL A   1      42.176  30.458  35.652  1.00  0.00     0.074 A 
ATOM     30  C   UNL A   1      37.392  34.183  33.754  1.00  0.00     0.029 A 
ATOM     31  N   UNL A   1      38.983  32.636  33.871  1.00  0.00    -0.354 N 
ATOM     32  N   UNL A   1      41.177  31.164  35.179  1.00  0.00    -0.248 NA
ATOM     33  C   UNL A   1      42.638  30.876  36.980  1.00  0.00     0.031 C 
ATOM     34  C   UNL A   1      38.072  34.339  34.966  1.00  0.00     0.029 A 
ATOM     35  C   UNL A   1      39.047  33.359  35.052  1.00  0.00     0.049 A 
ATOM     36  H   UNL A   1      39.568  31.878  33.641  1.00  0.00     0.167 HD
ATOM     37  C   UNL A   1      40.886  32.108  36.154  1.00  0.00     0.074 A 
ATOM     38  C   UNL A   1      41.792  31.857  37.258  1.00  0.00     0.031 C 
ATOM     39  C   UNL A   1      39.961  33.100  36.136  1.00  0.00     0.037 A 
BRANCH  26  40
ATOM     40  C   UNL A   1      36.511  33.292  31.001  1.00  0.00     0.058 A 
ATOM     41  C   UNL A   1      35.172  33.137  31.396  1.00  0.00     0.135 A 
ATOM     42  C   UNL A   1      36.776  34.147  29.918  1.00  0.00     0.135 A 
ATOM     43  F   UNL A   1      34.858  32.320  32.415  1.00  0.00    -0.206 F 
ATOM     44  C   UNL A   1      34.137  33.790  30.734  1.00  0.00     0.059 A 
ATOM     45  C   UNL A   1      35.758  34.830  29.256  1.00  0.00     0.059 A 
ATOM     46  F   UNL A   1      38.036  34.334  29.496  1.00  0.00    -0.206 F 
ATOM     47  C   UNL A   1      34.439  34.636  29.667  1.00  0.00     0.060 A 
BRANCH  47  48
ATOM     48  S   UNL A   1      33.083  35.490  28.834  1.00  0.00     0.124 S 
ATOM     49  O   UNL A   1      33.806  36.474  28.033  1.00  0.00    -0.237 OA
ATOM     50  O   UNL A   1      32.447  34.410  28.087  1.00  0.00    -0.237 OA
ATOM     51  O   UNL A   1      32.296  36.037  29.935  1.00  0.00    -0.744 OA
ENDBRANCH  47  48
ENDBRANCH  26  40
BRANCH  27  52
ATOM     52  C   UNL A   1      44.031  28.628  35.698  1.00  0.00     0.058 A 
ATOM     53  C   UNL A   1      45.353  29.051  35.504  1.00  0.00     0.135 A 
ATOM     54  C   UNL A   1      43.811  27.551  36.572  1.00  0.00     0.135 A 
ATOM     55  F   UNL A   1      45.616  30.076  34.679  1.00  0.00    -0.206 F 
ATOM     56  C   UNL A   1      46.419  28.415  36.131  1.00  0.00     0.059 A 
ATOM     57  C   UNL A   1      44.855  26.923  37.237  1.00  0.00     0.059 A 
ATOM     58  F   UNL A   1      42.561  27.122  36.811  1.00  0.00    -0.206 F 
ATOM     59  C   UNL A   1      46.159  27.351  36.998  1.00  0.00     0.060 A 
BRANCH  59  60
ATOM     60  S   UNL A   1      47.544  26.549  37.832  1.00  0.00     0.124 S 
ATOM     61  O   UNL A   1      47.363  25.160  37.429  1.00  0.00    -0.237 OA
ATOM     62  O   UNL A   1      48.693  27.239  37.254  1.00  0.00    -0.237 OA
ATOM     63  O   UNL A   1      47.296  26.836  39.242  1.00  0.00    -0.744 OA
ENDBRANCH  59  60
ENDBRANCH  27  52
BRANCH  39  64
ATOM     64  C   UNL A   1      39.882  33.972  37.358  1.00  0.00     0.058 A 
ATOM     65  C   UNL A   1      40.616  35.164  37.463  1.00  0.00     0.135 A 
ATOM     66  C   UNL A   1      39.058  33.611  38.438  1.00  0.00     0.135 A 
ATOM     67  F   UNL A   1      41.424  35.549  36.462  1.00  0.00    -0.206 F 
ATOM     68  C   UNL A   1      40.573  35.945  38.612  1.00  0.00     0.059 A 
ATOM     69  C   UNL A   1      38.975  34.396  39.584  1.00  0.00     0.059 A 
ATOM     70  F   UNL A   1      38.327  32.487  38.385  1.00  0.00    -0.206 F 
ATOM     71  C   UNL A   1      39.752  35.550  39.669  1.00  0.00     0.060 A 
BRANCH  71  72
ATOM     72  S   UNL A   1      39.706  36.571  41.156  1.00  0.00     0.124 S 
ATOM     73  O   UNL A   1      41.045  36.365  41.696  1.00  0.00    -0.237 OA
ATOM     74  O   UNL A   1      39.437  37.901  40.615  1.00  0.00    -0.237 OA
ATOM     75  O   UNL A   1      38.617  35.988  41.935  1.00  0.00    -0.744 OA
ENDBRANCH  71  72
ENDBRANCH  39  64
ENDBRANCH  13  14
ENDBRANCH   6   8
ENDBRANCH   3   4
ENDBRANCH   2   3
ENDBRANCH   1   2
BRANCH   1  76
ATOM     76  C   UNL A   1      37.507  20.917  24.873  1.00  0.00     0.002 C 
BRANCH  76  77
ATOM     77  C   UNL A   1      36.042  21.297  24.646  1.00  0.00     0.021 C 
BRANCH  77  78
ATOM     78  C   UNL A   1      35.077  20.653  25.644  1.00  0.00     0.116 C 
BRANCH  78  79
ATOM     79  N   UNL A   1      34.207  19.733  24.946  1.00  0.00    -0.354 N 
ATOM     80  C   UNL A   1      32.973  19.927  24.414  1.00  0.00     0.242 C 
ATOM     81  H   UNL A   1      34.567  18.823  24.840  1.00  0.00     0.163 HD
ATOM     82  O   UNL A   1      32.364  18.910  24.059  1.00  0.00    -0.273 OA
BRANCH  80  83
ATOM     83  C   UNL A   1      32.350  21.322  24.181  1.00  0.00     0.173 C 
ATOM     84  N   UNL A   1      33.218  22.199  23.402  1.00  0.00    -0.373 N 
ATOM     85  C   UNL A   1      31.741  22.072  25.364  1.00  0.00     0.036 C 
ATOM     86  C   UNL A   1      32.684  23.429  23.030  1.00  0.00     0.039 A 
ATOM     87  H   UNL A   1      34.134  21.934  23.152  1.00  0.00     0.161 HD
ATOM     88  C   UNL A   1      30.881  23.243  24.821  1.00  0.00     0.050 C 
ATOM     89  C   UNL A   1      32.654  22.762  26.390  1.00  0.00     0.034 C 
ATOM     90  C   UNL A   1      33.357  24.204  22.091  1.00  0.00     0.028 A 
ATOM     91  C   UNL A   1      31.542  23.964  23.654  1.00  0.00    -0.015 A 
ATOM     92  C   UNL A   1      30.792  24.121  26.043  1.00  0.00    -0.023 C 
ATOM     93  C   UNL A   1      31.788  23.870  26.899  1.00  0.00    -0.030 C 
ATOM     94  C   UNL A   1      32.857  25.449  21.699  1.00  0.00     0.028 A 
ATOM     95  C   UNL A   1      31.014  25.190  23.204  1.00  0.00     0.032 A 
ATOM     96  C   UNL A   1      31.646  25.923  22.197  1.00  0.00     0.041 A 
BRANCH  96  97
ATOM     97  N   UNL A   1      31.019  27.115  21.782  1.00  0.00    -0.322 N 
ATOM     98  C   UNL A   1      30.869  28.339  22.397  1.00  0.00     0.255 C 
ATOM     99  H   UNL A   1      30.613  27.063  20.888  1.00  0.00     0.170 HD
ATOM    100  O   UNL A   1      30.140  29.198  21.904  1.00  0.00    -0.269 OA
BRANCH  98 101
ATOM    101  C   UNL A   1      31.623  28.671  23.619  1.00  0.00     0.040 A 
ATOM    102  C   UNL A   1      30.959  28.626  24.847  1.00  0.00     0.014 A 
ATOM    103  C   UNL A   1      32.990  28.967  23.555  1.00  0.00     0.014 A 
ATOM    104  C   UNL A   1      31.686  28.796  26.025  1.00  0.00     0.001 A 
ATOM    105  C   UNL A   1      33.713  29.127  24.737  1.00  0.00     0.001 A 
ATOM    106  C   UNL A   1      33.063  29.029  25.969  1.00  0.00     0.000 A 
ENDBRANCH  98 101
ENDBRANCH  96  97
ENDBRANCH  80  83
ENDBRANCH  78  79
ENDBRANCH  77  78
ENDBRANCH  76  77
ENDBRANCH   1  76
TORSDOF 18
ENDMDL
