MODEL 1
REMARK VINA RESULT:     -10.8      0.000      0.000
REMARK SMILES CC(C)C[C@H](CNC(=O)c1cc(F)ccc1Br)C(=O)NCCCCCCNC(=O)c1ccc(-c2c3nc(c(-c4c(F)cc(S(=O)(=O)[O-])cc4F)c4ccc([nH]4)c(-c4c(F)cc(S(=O)(=O)[O-])cc4F)c4nc(c(-c5c(F)cc(S(=O)(=O)[O-])cc5F)c5ccc2[nH]5)C=C4)C=C3)cc1
REMARK SMILES IDX 23 1 22 2 21 3 20 4 18 5 19 6 5 8 4 9 2 10 1 11 3 12 6 13
REMARK SMILES IDX 7 14 8 15 9 17 10 18 11 19 16 20 12 21 15 22 17 23 13 24
REMARK SMILES IDX 14 25 24 26 25 27 26 28 27 29 28 30 29 32 30 33 31 34 95 35
REMARK SMILES IDX 32 36 94 37 33 38 34 39 35 40 88 41 36 42 93 43 87 44 89 45
REMARK SMILES IDX 37 46 92 47 86 48 85 49 38 51 72 52 51 53 71 54 52 55 55 56
REMARK SMILES IDX 70 57 90 58 53 59 54 60 69 62 91 63 56 64 39 65 40 66 49 67
REMARK SMILES IDX 41 68 42 69 48 70 50 71 43 72 44 73 45 74 46 75 47 76 73 77
REMARK SMILES IDX 74 78 83 79 75 80 76 81 82 82 84 83 77 84 78 85 79 86 80 87
REMARK SMILES IDX 81 88 57 89 58 90 67 91 59 92 60 93 66 94 68 95 61 96 62 97
REMARK SMILES IDX 63 98 64 99 65 100
REMARK H PARENT 20 7 7 16 27 31 89 50 55 61
REMARK Flexibility Score: inf
ROOT
ATOM      1  C   UNL A   1      37.190  21.805  25.305  1.00  0.00     0.002 C 
ENDROOT
BRANCH   1   2
ATOM      2  C   UNL A   1      36.825  22.989  24.405  1.00  0.00     0.021 C 
BRANCH   2   3
ATOM      3  C   UNL A   1      35.388  23.454  24.604  1.00  0.00     0.116 C 
BRANCH   3   4
ATOM      4  N   UNL A   1      34.797  23.815  23.336  1.00  0.00    -0.356 N 
ATOM      5  C   UNL A   1      33.598  23.470  22.805  1.00  0.00     0.224 C 
ATOM      6  O   UNL A   1      33.360  23.819  21.646  1.00  0.00    -0.275 OA
ATOM      7  H   UNL A   1      35.349  24.402  22.771  1.00  0.00     0.163 HD
BRANCH   5   8
ATOM      8  C   UNL A   1      32.574  22.663  23.595  1.00  0.00     0.098 C 
BRANCH   8   9
ATOM      9  C   UNL A   1      32.526  21.150  23.293  1.00  0.00     0.018 C 
BRANCH   9  10
ATOM     10  C   UNL A   1      32.568  20.225  24.530  1.00  0.00    -0.017 C 
ATOM     11  C   UNL A   1      33.406  18.968  24.300  1.00  0.00     0.007 C 
ATOM     12  C   UNL A   1      33.091  20.990  25.747  1.00  0.00     0.007 C 
ENDBRANCH   9  10
ENDBRANCH   8   9
BRANCH   8  13
ATOM     13  C   UNL A   1      31.225  23.412  23.631  1.00  0.00     0.129 C 
BRANCH  13  14
ATOM     14  N   UNL A   1      30.548  23.487  24.922  1.00  0.00    -0.351 N 
ATOM     15  C   UNL A   1      30.523  24.500  25.845  1.00  0.00     0.252 C 
ATOM     16  H   UNL A   1      30.030  22.688  25.168  1.00  0.00     0.163 HD
ATOM     17  O   UNL A   1      29.906  24.366  26.896  1.00  0.00    -0.269 OA
BRANCH  15  18
ATOM     18  C   UNL A   1      31.192  25.772  25.537  1.00  0.00     0.056 A 
ATOM     19  C   UNL A   1      32.481  25.966  26.051  1.00  0.00     0.054 A 
ATOM     20  C   UNL A   1      30.586  26.759  24.752  1.00  0.00     0.030 A 
ATOM     21  C   UNL A   1      33.126  27.172  25.828  1.00  0.00     0.124 A 
ATOM     22  C   UNL A   1      31.263  27.962  24.517  1.00  0.00     0.019 A 
ATOM     23  Br  UNL A   1      28.844  26.574  24.024  1.00  0.00    -0.050 Br
ATOM     24  F   UNL A   1      34.334  27.382  26.366  1.00  0.00    -0.207 F 
ATOM     25  C   UNL A   1      32.529  28.173  25.069  1.00  0.00     0.040 A 
ENDBRANCH  15  18
ENDBRANCH  13  14
ENDBRANCH   8  13
ENDBRANCH   5   8
ENDBRANCH   3   4
ENDBRANCH   2   3
ENDBRANCH   1   2
BRANCH   1  26
ATOM     26  C   UNL A   1      37.379  20.482  24.554  1.00  0.00     0.002 C 
BRANCH  26  27
ATOM     27  C   UNL A   1      38.294  19.476  25.259  1.00  0.00     0.021 C 
BRANCH  27  28
ATOM     28  C   UNL A   1      39.422  20.120  26.055  1.00  0.00     0.116 C 
BRANCH  28  29
ATOM     29  N   UNL A   1      40.575  19.238  26.150  1.00  0.00    -0.352 N 
ATOM     30  C   UNL A   1      41.906  19.560  26.202  1.00  0.00     0.251 C 
ATOM     31  H   UNL A   1      40.370  18.275  26.179  1.00  0.00     0.163 HD
ATOM     32  O   UNL A   1      42.756  18.694  26.025  1.00  0.00    -0.269 OA
BRANCH  30  33
ATOM     33  C   UNL A   1      42.302  20.958  26.464  1.00  0.00     0.039 A 
ATOM     34  C   UNL A   1      42.559  21.355  27.777  1.00  0.00     0.014 A 
ATOM     35  C   UNL A   1      42.413  21.874  25.412  1.00  0.00     0.014 A 
ATOM     36  C   UNL A   1      42.979  22.663  28.030  1.00  0.00     0.010 A 
ATOM     37  C   UNL A   1      42.903  23.152  25.658  1.00  0.00     0.010 A 
ATOM     38  C   UNL A   1      43.182  23.562  26.969  1.00  0.00    -0.014 A 
BRANCH  38  39
ATOM     39  C   UNL A   1      43.682  24.938  27.215  1.00  0.00     0.031 A 
ATOM     40  C   UNL A   1      45.138  25.259  27.011  1.00  0.00     0.074 A 
ATOM     41  C   UNL A   1      42.834  25.880  27.672  1.00  0.00     0.049 A 
ATOM     42  N   UNL A   1      45.775  26.378  27.235  1.00  0.00    -0.248 NA
ATOM     43  C   UNL A   1      45.997  24.171  26.511  1.00  0.00     0.031 C 
ATOM     44  C   UNL A   1      41.410  25.675  27.953  1.00  0.00     0.029 A 
ATOM     45  N   UNL A   1      43.046  27.198  27.994  1.00  0.00    -0.354 N 
ATOM     46  C   UNL A   1      47.104  26.129  26.912  1.00  0.00     0.074 A 
ATOM     47  C   UNL A   1      47.194  24.738  26.531  1.00  0.00     0.031 C 
ATOM     48  C   UNL A   1      40.875  26.829  28.384  1.00  0.00     0.029 A 
ATOM     49  C   UNL A   1      41.921  27.844  28.453  1.00  0.00     0.049 A 
ATOM     50  H   UNL A   1      43.922  27.639  27.905  1.00  0.00     0.167 HD
ATOM     51  C   UNL A   1      48.149  26.991  26.907  1.00  0.00     0.037 A 
ATOM     52  C   UNL A   1      41.756  29.107  28.890  1.00  0.00     0.037 A 
ATOM     53  C   UNL A   1      48.045  28.382  27.268  1.00  0.00     0.049 A 
ATOM     54  C   UNL A   1      42.938  30.039  28.889  1.00  0.00     0.074 A 
ATOM     55  C   UNL A   1      49.034  29.349  27.252  1.00  0.00     0.029 A 
ATOM     56  N   UNL A   1      46.886  29.003  27.708  1.00  0.00    -0.354 N 
ATOM     57  N   UNL A   1      44.174  29.803  28.521  1.00  0.00    -0.248 NA
ATOM     58  C   UNL A   1      42.701  31.412  29.356  1.00  0.00     0.031 C 
ATOM     59  C   UNL A   1      48.485  30.544  27.728  1.00  0.00     0.029 A 
ATOM     60  C   UNL A   1      47.140  30.336  27.985  1.00  0.00     0.049 A 
ATOM     61  H   UNL A   1      46.012  28.561  27.808  1.00  0.00     0.167 HD
ATOM     62  C   UNL A   1      44.856  31.006  28.682  1.00  0.00     0.074 A 
ATOM     63  C   UNL A   1      43.889  31.970  29.166  1.00  0.00     0.031 C 
ATOM     64  C   UNL A   1      46.162  31.287  28.452  1.00  0.00     0.037 A 
BRANCH  51  65
ATOM     65  C   UNL A   1      49.494  26.465  26.485  1.00  0.00     0.058 A 
ATOM     66  C   UNL A   1      49.975  26.644  25.179  1.00  0.00     0.135 A 
ATOM     67  C   UNL A   1      50.337  25.832  27.413  1.00  0.00     0.135 A 
ATOM     68  F   UNL A   1      49.204  27.226  24.247  1.00  0.00    -0.206 F 
ATOM     69  C   UNL A   1      51.238  26.200  24.801  1.00  0.00     0.059 A 
ATOM     70  C   UNL A   1      51.616  25.406  27.064  1.00  0.00     0.059 A 
ATOM     71  F   UNL A   1      49.927  25.633  28.674  1.00  0.00    -0.206 F 
ATOM     72  C   UNL A   1      52.054  25.587  25.753  1.00  0.00     0.060 A 
BRANCH  72  73
ATOM     73  S   UNL A   1      53.702  25.048  25.252  1.00  0.00     0.124 S 
ATOM     74  O   UNL A   1      54.537  25.669  26.276  1.00  0.00    -0.237 OA
ATOM     75  O   UNL A   1      53.589  23.595  25.324  1.00  0.00    -0.237 OA
ATOM     76  O   UNL A   1      53.847  25.597  23.907  1.00  0.00    -0.744 OA
ENDBRANCH  72  73
ENDBRANCH  51  65
BRANCH  52  77
ATOM     77  C   UNL A   1      40.421  29.569  29.360  1.00  0.00     0.058 A 
ATOM     78  C   UNL A   1      39.396  29.870  28.451  1.00  0.00     0.135 A 
ATOM     79  C   UNL A   1      40.148  29.737  30.728  1.00  0.00     0.135 A 
ATOM     80  F   UNL A   1      39.607  29.730  27.133  1.00  0.00    -0.206 F 
ATOM     81  C   UNL A   1      38.162  30.351  28.875  1.00  0.00     0.059 A 
ATOM     82  C   UNL A   1      38.912  30.187  31.179  1.00  0.00     0.059 A 
ATOM     83  F   UNL A   1      41.087  29.446  31.641  1.00  0.00    -0.206 F 
ATOM     84  C   UNL A   1      37.930  30.509  30.243  1.00  0.00     0.060 A 
BRANCH  84  85
ATOM     85  S   UNL A   1      36.319  31.117  30.783  1.00  0.00     0.124 S 
ATOM     86  O   UNL A   1      36.620  32.509  31.094  1.00  0.00    -0.237 OA
ATOM     87  O   UNL A   1      35.492  30.890  29.601  1.00  0.00    -0.237 OA
ATOM     88  O   UNL A   1      36.006  30.267  31.929  1.00  0.00    -0.744 OA
ENDBRANCH  84  85
ENDBRANCH  52  77
BRANCH  64  89
ATOM     89  C   UNL A   1      46.617  32.703  28.676  1.00  0.00     0.058 A 
ATOM     90  C   UNL A   1      46.568  33.666  27.657  1.00  0.00     0.135 A 
ATOM     91  C   UNL A   1      47.055  33.114  29.945  1.00  0.00     0.135 A 
ATOM     92  F   UNL A   1      46.161  33.325  26.423  1.00  0.00    -0.206 F 
ATOM     93  C   UNL A   1      46.963  34.981  27.880  1.00  0.00     0.059 A 
ATOM     94  C   UNL A   1      47.426  34.430  30.200  1.00  0.00     0.059 A 
ATOM     95  F   UNL A   1      47.111  32.236  30.959  1.00  0.00    -0.206 F 
ATOM     96  C   UNL A   1      47.388  35.354  29.157  1.00  0.00     0.060 A 
BRANCH  96  97
ATOM     97  S   UNL A   1      47.866  37.072  29.441  1.00  0.00     0.124 S 
ATOM     98  O   UNL A   1      47.954  37.116  30.897  1.00  0.00    -0.237 OA
ATOM     99  O   UNL A   1      49.136  37.164  28.727  1.00  0.00    -0.237 OA
ATOM    100  O   UNL A   1      46.767  37.833  28.855  1.00  0.00    -0.744 OA
ENDBRANCH  96  97
ENDBRANCH  64  89
ENDBRANCH  38  39
ENDBRANCH  30  33
ENDBRANCH  28  29
ENDBRANCH  27  28
ENDBRANCH  26  27
ENDBRANCH   1  26
TORSDOF 21
ENDMDL
MODEL 2
REMARK VINA RESULT:     -10.5      2.525      8.626
REMARK SMILES CC(C)C[C@H](CNC(=O)c1cc(F)ccc1Br)C(=O)NCCCCCCNC(=O)c1ccc(-c2c3nc(c(-c4c(F)cc(S(=O)(=O)[O-])cc4F)c4ccc([nH]4)c(-c4c(F)cc(S(=O)(=O)[O-])cc4F)c4nc(c(-c5c(F)cc(S(=O)(=O)[O-])cc5F)c5ccc2[nH]5)C=C4)C=C3)cc1
REMARK SMILES IDX 23 1 22 2 21 3 20 4 18 5 19 6 5 8 4 9 2 10 1 11 3 12 6 13
REMARK SMILES IDX 7 14 8 15 9 17 10 18 11 19 16 20 12 21 15 22 17 23 13 24
REMARK SMILES IDX 14 25 24 26 25 27 26 28 27 29 28 30 29 32 30 33 31 34 95 35
REMARK SMILES IDX 32 36 94 37 33 38 34 39 35 40 88 41 36 42 93 43 87 44 89 45
REMARK SMILES IDX 37 46 92 47 86 48 85 49 38 51 72 52 51 53 71 54 52 55 55 56
REMARK SMILES IDX 70 57 90 58 53 59 54 60 69 62 91 63 56 64 39 65 40 66 49 67
REMARK SMILES IDX 41 68 42 69 48 70 50 71 43 72 44 73 45 74 46 75 47 76 73 77
REMARK SMILES IDX 74 78 83 79 75 80 76 81 82 82 84 83 77 84 78 85 79 86 80 87
REMARK SMILES IDX 81 88 57 89 58 90 67 91 59 92 60 93 66 94 68 95 61 96 62 97
REMARK SMILES IDX 63 98 64 99 65 100
REMARK H PARENT 20 7 7 16 27 31 89 50 55 61
REMARK Flexibility Score: inf
ROOT
ATOM      1  C   UNL A   1      35.154  29.519  27.117  1.00  0.00     0.002 C 
ENDROOT
BRANCH   1   2
ATOM      2  C   UNL A   1      34.189  29.024  26.037  1.00  0.00     0.021 C 
BRANCH   2   3
ATOM      3  C   UNL A   1      33.931  27.525  26.126  1.00  0.00     0.116 C 
BRANCH   3   4
ATOM      4  N   UNL A   1      32.671  27.271  26.784  1.00  0.00    -0.356 N 
ATOM      5  C   UNL A   1      31.511  26.779  26.282  1.00  0.00     0.224 C 
ATOM      6  O   UNL A   1      30.527  26.755  27.025  1.00  0.00    -0.275 OA
ATOM      7  H   UNL A   1      32.650  27.487  27.744  1.00  0.00     0.163 HD
BRANCH   5   8
ATOM      8  C   UNL A   1      31.406  26.285  24.843  1.00  0.00     0.098 C 
BRANCH   8   9
ATOM      9  C   UNL A   1      30.414  27.046  23.938  1.00  0.00     0.018 C 
BRANCH   9  10
ATOM     10  C   UNL A   1      31.001  27.583  22.613  1.00  0.00    -0.017 C 
ATOM     11  C   UNL A   1      30.542  29.005  22.296  1.00  0.00     0.007 C 
ATOM     12  C   UNL A   1      32.529  27.519  22.646  1.00  0.00     0.007 C 
ENDBRANCH   9  10
ENDBRANCH   8   9
BRANCH   8  13
ATOM     13  C   UNL A   1      31.336  24.744  24.817  1.00  0.00     0.129 C 
BRANCH  13  14
ATOM     14  N   UNL A   1      31.297  24.065  26.108  1.00  0.00    -0.351 N 
ATOM     15  C   UNL A   1      32.208  23.220  26.686  1.00  0.00     0.252 C 
ATOM     16  H   UNL A   1      30.493  24.241  26.648  1.00  0.00     0.163 HD
ATOM     17  O   UNL A   1      31.984  22.725  27.786  1.00  0.00    -0.269 OA
BRANCH  15  18
ATOM     18  C   UNL A   1      33.484  22.960  26.004  1.00  0.00     0.056 A 
ATOM     19  C   UNL A   1      34.549  23.830  26.272  1.00  0.00     0.054 A 
ATOM     20  C   UNL A   1      33.651  21.882  25.128  1.00  0.00     0.030 A 
ATOM     21  C   UNL A   1      35.754  23.651  25.610  1.00  0.00     0.124 A 
ATOM     22  C   UNL A   1      34.883  21.703  24.488  1.00  0.00     0.019 A 
ATOM     23  Br  UNL A   1      32.258  20.664  24.713  1.00  0.00    -0.050 Br
ATOM     24  F   UNL A   1      36.755  24.514  25.820  1.00  0.00    -0.207 F 
ATOM     25  C   UNL A   1      35.931  22.598  24.720  1.00  0.00     0.040 A 
ENDBRANCH  15  18
ENDBRANCH  13  14
ENDBRANCH   8  13
ENDBRANCH   5   8
ENDBRANCH   3   4
ENDBRANCH   2   3
ENDBRANCH   1   2
BRANCH   1  26
ATOM     26  C   UNL A   1      34.634  30.716  27.923  1.00  0.00     0.002 C 
BRANCH  26  27
ATOM     27  C   UNL A   1      35.453  31.999  27.758  1.00  0.00     0.021 C 
BRANCH  27  28
ATOM     28  C   UNL A   1      36.336  32.325  28.957  1.00  0.00     0.116 C 
BRANCH  28  29
ATOM     29  N   UNL A   1      36.038  31.459  30.087  1.00  0.00    -0.352 N 
ATOM     30  C   UNL A   1      36.739  30.375  30.552  1.00  0.00     0.251 C 
ATOM     31  H   UNL A   1      35.219  31.681  30.586  1.00  0.00     0.163 HD
ATOM     32  O   UNL A   1      36.220  29.606  31.353  1.00  0.00    -0.269 OA
BRANCH  30  33
ATOM     33  C   UNL A   1      38.115  30.143  30.070  1.00  0.00     0.039 A 
ATOM     34  C   UNL A   1      39.144  30.000  31.001  1.00  0.00     0.014 A 
ATOM     35  C   UNL A   1      38.385  30.072  28.699  1.00  0.00     0.014 A 
ATOM     36  C   UNL A   1      40.441  29.734  30.557  1.00  0.00     0.010 A 
ATOM     37  C   UNL A   1      39.661  29.731  28.263  1.00  0.00     0.010 A 
ATOM     38  C   UNL A   1      40.703  29.568  29.187  1.00  0.00    -0.014 A 
BRANCH  38  39
ATOM     39  C   UNL A   1      42.064  29.229  28.701  1.00  0.00     0.031 A 
ATOM     40  C   UNL A   1      42.384  27.822  28.275  1.00  0.00     0.074 A 
ATOM     41  C   UNL A   1      43.023  30.176  28.697  1.00  0.00     0.049 A 
ATOM     42  N   UNL A   1      43.525  27.316  27.887  1.00  0.00    -0.248 NA
ATOM     43  C   UNL A   1      41.279  26.846  28.313  1.00  0.00     0.031 C 
ATOM     44  C   UNL A   1      42.844  31.565  29.132  1.00  0.00     0.029 A 
ATOM     45  N   UNL A   1      44.342  30.115  28.324  1.00  0.00    -0.354 N 
ATOM     46  C   UNL A   1      43.280  25.970  27.641  1.00  0.00     0.074 A 
ATOM     47  C   UNL A   1      41.897  25.723  27.979  1.00  0.00     0.031 C 
ATOM     48  C   UNL A   1      44.003  32.226  28.981  1.00  0.00     0.029 A 
ATOM     49  C   UNL A   1      45.017  31.304  28.482  1.00  0.00     0.049 A 
ATOM     50  H   UNL A   1      44.766  29.298  27.976  1.00  0.00     0.167 HD
ATOM     51  C   UNL A   1      44.126  25.032  27.153  1.00  0.00     0.037 A 
ATOM     52  C   UNL A   1      46.310  31.611  28.261  1.00  0.00     0.037 A 
ATOM     53  C   UNL A   1      45.498  25.293  26.799  1.00  0.00     0.049 A 
ATOM     54  C   UNL A   1      47.232  30.545  27.732  1.00  0.00     0.074 A 
ATOM     55  C   UNL A   1      46.424  24.423  26.253  1.00  0.00     0.029 A 
ATOM     56  N   UNL A   1      46.139  26.513  26.954  1.00  0.00    -0.354 N 
ATOM     57  N   UNL A   1      46.967  29.292  27.447  1.00  0.00    -0.248 NA
ATOM     58  C   UNL A   1      48.628  30.935  27.488  1.00  0.00     0.031 C 
ATOM     59  C   UNL A   1      47.639  25.102  26.122  1.00  0.00     0.029 A 
ATOM     60  C   UNL A   1      47.455  26.412  26.533  1.00  0.00     0.049 A 
ATOM     61  H   UNL A   1      45.721  27.329  27.312  1.00  0.00     0.167 HD
ATOM     62  C   UNL A   1      48.155  28.753  26.961  1.00  0.00     0.074 A 
ATOM     63  C   UNL A   1      49.133  29.821  26.976  1.00  0.00     0.031 C 
ATOM     64  C   UNL A   1      48.412  27.490  26.541  1.00  0.00     0.037 A 
BRANCH  51  65
ATOM     65  C   UNL A   1      43.594  23.639  26.955  1.00  0.00     0.058 A 
ATOM     66  C   UNL A   1      43.390  22.770  28.039  1.00  0.00     0.135 A 
ATOM     67  C   UNL A   1      43.224  23.188  25.677  1.00  0.00     0.135 A 
ATOM     68  F   UNL A   1      43.743  23.142  29.280  1.00  0.00    -0.206 F 
ATOM     69  C   UNL A   1      42.854  21.499  27.863  1.00  0.00     0.059 A 
ATOM     70  C   UNL A   1      42.659  21.931  25.482  1.00  0.00     0.059 A 
ATOM     71  F   UNL A   1      43.400  23.976  24.605  1.00  0.00    -0.206 F 
ATOM     72  C   UNL A   1      42.485  21.091  26.580  1.00  0.00     0.060 A 
BRANCH  72  73
ATOM     73  S   UNL A   1      41.760  19.450  26.377  1.00  0.00     0.124 S 
ATOM     74  O   UNL A   1      40.338  19.769  26.285  1.00  0.00    -0.237 OA
ATOM     75  O   UNL A   1      42.385  18.986  25.143  1.00  0.00    -0.237 OA
ATOM     76  O   UNL A   1      42.168  18.744  27.587  1.00  0.00    -0.744 OA
ENDBRANCH  72  73
ENDBRANCH  51  65
BRANCH  52  77
ATOM     77  C   UNL A   1      46.811  32.986  28.531  1.00  0.00     0.058 A 
ATOM     78  C   UNL A   1      47.213  33.373  29.818  1.00  0.00     0.135 A 
ATOM     79  C   UNL A   1      46.883  33.949  27.510  1.00  0.00     0.135 A 
ATOM     80  F   UNL A   1      47.162  32.492  30.828  1.00  0.00    -0.206 F 
ATOM     81  C   UNL A   1      47.636  34.669  30.093  1.00  0.00     0.059 A 
ATOM     82  C   UNL A   1      47.330  35.243  27.753  1.00  0.00     0.059 A 
ATOM     83  F   UNL A   1      46.528  33.627  26.256  1.00  0.00    -0.206 F 
ATOM     84  C   UNL A   1      47.689  35.599  29.052  1.00  0.00     0.060 A 
BRANCH  84  85
ATOM     85  S   UNL A   1      48.255  37.274  29.416  1.00  0.00     0.124 S 
ATOM     86  O   UNL A   1      47.872  37.984  28.202  1.00  0.00    -0.237 OA
ATOM     87  O   UNL A   1      47.492  37.602  30.617  1.00  0.00    -0.237 OA
ATOM     88  O   UNL A   1      49.690  37.105  29.624  1.00  0.00    -0.744 OA
ENDBRANCH  84  85
ENDBRANCH  52  77
BRANCH  64  89
ATOM     89  C   UNL A   1      49.793  27.201  26.020  1.00  0.00     0.058 A 
ATOM     90  C   UNL A   1      50.830  26.778  26.866  1.00  0.00     0.135 A 
ATOM     91  C   UNL A   1      50.067  27.295  24.646  1.00  0.00     0.135 A 
ATOM     92  F   UNL A   1      50.624  26.676  28.189  1.00  0.00    -0.206 F 
ATOM     93  C   UNL A   1      52.097  26.485  26.372  1.00  0.00     0.059 A 
ATOM     94  C   UNL A   1      51.317  26.978  24.126  1.00  0.00     0.059 A 
ATOM     95  F   UNL A   1      49.108  27.684  23.790  1.00  0.00    -0.206 F 
ATOM     96  C   UNL A   1      52.330  26.584  24.999  1.00  0.00     0.060 A 
BRANCH  96  97
ATOM     97  S   UNL A   1      53.969  26.168  24.367  1.00  0.00     0.124 S 
ATOM     98  O   UNL A   1      54.126  24.797  24.839  1.00  0.00    -0.237 OA
ATOM     99  O   UNL A   1      53.796  26.326  22.926  1.00  0.00    -0.237 OA
ATOM    100  O   UNL A   1      54.839  27.154  25.000  1.00  0.00    -0.744 OA
ENDBRANCH  96  97
ENDBRANCH  64  89
ENDBRANCH  38  39
ENDBRANCH  30  33
ENDBRANCH  28  29
ENDBRANCH  27  28
ENDBRANCH  26  27
ENDBRANCH   1  26
TORSDOF 21
ENDMDL
MODEL 3
REMARK VINA RESULT:     -10.5      1.446      2.126
REMARK SMILES CC(C)C[C@H](CNC(=O)c1cc(F)ccc1Br)C(=O)NCCCCCCNC(=O)c1ccc(-c2c3nc(c(-c4c(F)cc(S(=O)(=O)[O-])cc4F)c4ccc([nH]4)c(-c4c(F)cc(S(=O)(=O)[O-])cc4F)c4nc(c(-c5c(F)cc(S(=O)(=O)[O-])cc5F)c5ccc2[nH]5)C=C4)C=C3)cc1
REMARK SMILES IDX 23 1 22 2 21 3 20 4 18 5 19 6 5 8 4 9 2 10 1 11 3 12 6 13
REMARK SMILES IDX 7 14 8 15 9 17 10 18 11 19 16 20 12 21 15 22 17 23 13 24
REMARK SMILES IDX 14 25 24 26 25 27 26 28 27 29 28 30 29 32 30 33 31 34 95 35
REMARK SMILES IDX 32 36 94 37 33 38 34 39 35 40 88 41 36 42 93 43 87 44 89 45
REMARK SMILES IDX 37 46 92 47 86 48 85 49 38 51 72 52 51 53 71 54 52 55 55 56
REMARK SMILES IDX 70 57 90 58 53 59 54 60 69 62 91 63 56 64 39 65 40 66 49 67
REMARK SMILES IDX 41 68 42 69 48 70 50 71 43 72 44 73 45 74 46 75 47 76 73 77
REMARK SMILES IDX 74 78 83 79 75 80 76 81 82 82 84 83 77 84 78 85 79 86 80 87
REMARK SMILES IDX 81 88 57 89 58 90 67 91 59 92 60 93 66 94 68 95 61 96 62 97
REMARK SMILES IDX 63 98 64 99 65 100
REMARK H PARENT 20 7 7 16 27 31 89 50 55 61
REMARK Flexibility Score: inf
ROOT
ATOM      1  C   UNL A   1      37.618  21.556  25.409  1.00  0.00     0.002 C 
ENDROOT
BRANCH   1   2
ATOM      2  C   UNL A   1      36.268  22.278  25.370  1.00  0.00     0.021 C 
BRANCH   2   3
ATOM      3  C   UNL A   1      35.094  21.316  25.254  1.00  0.00     0.116 C 
BRANCH   3   4
ATOM      4  N   UNL A   1      34.364  21.560  24.031  1.00  0.00    -0.356 N 
ATOM      5  C   UNL A   1      33.457  22.523  23.737  1.00  0.00     0.224 C 
ATOM      6  O   UNL A   1      32.883  22.459  22.647  1.00  0.00    -0.275 OA
ATOM      7  H   UNL A   1      34.555  20.930  23.299  1.00  0.00     0.163 HD
BRANCH   5   8
ATOM      8  C   UNL A   1      33.134  23.646  24.716  1.00  0.00     0.098 C 
BRANCH   8   9
ATOM      9  C   UNL A   1      31.682  23.691  25.237  1.00  0.00     0.018 C 
BRANCH   9  10
ATOM     10  C   UNL A   1      31.361  22.717  26.394  1.00  0.00    -0.017 C 
ATOM     11  C   UNL A   1      32.437  22.713  27.479  1.00  0.00     0.007 C 
ATOM     12  C   UNL A   1      29.999  23.051  27.006  1.00  0.00     0.007 C 
ENDBRANCH   9  10
ENDBRANCH   8   9
BRANCH   8  13
ATOM     13  C   UNL A   1      33.739  24.975  24.215  1.00  0.00     0.129 C 
BRANCH  13  14
ATOM     14  N   UNL A   1      33.785  25.174  22.771  1.00  0.00    -0.351 N 
ATOM     15  C   UNL A   1      33.035  25.997  21.971  1.00  0.00     0.252 C 
ATOM     16  H   UNL A   1      34.459  24.635  22.297  1.00  0.00     0.163 HD
ATOM     17  O   UNL A   1      33.209  26.009  20.757  1.00  0.00    -0.269 OA
BRANCH  15  18
ATOM     18  C   UNL A   1      32.061  26.909  22.587  1.00  0.00     0.056 A 
ATOM     19  C   UNL A   1      30.745  26.450  22.727  1.00  0.00     0.054 A 
ATOM     20  C   UNL A   1      32.420  28.185  23.036  1.00  0.00     0.030 A 
ATOM     21  C   UNL A   1      29.784  27.298  23.255  1.00  0.00     0.124 A 
ATOM     22  C   UNL A   1      31.440  29.018  23.590  1.00  0.00     0.019 A 
ATOM     23  Br  UNL A   1      34.178  28.878  22.880  1.00  0.00    -0.050 Br
ATOM     24  F   UNL A   1      28.514  26.884  23.337  1.00  0.00    -0.207 F 
ATOM     25  C   UNL A   1      30.117  28.577  23.686  1.00  0.00     0.040 A 
ENDBRANCH  15  18
ENDBRANCH  13  14
ENDBRANCH   8  13
ENDBRANCH   5   8
ENDBRANCH   3   4
ENDBRANCH   2   3
ENDBRANCH   1   2
BRANCH   1  26
ATOM     26  C   UNL A   1      37.586  20.135  24.835  1.00  0.00     0.002 C 
BRANCH  26  27
ATOM     27  C   UNL A   1      38.684  19.209  25.367  1.00  0.00     0.021 C 
BRANCH  27  28
ATOM     28  C   UNL A   1      39.816  19.938  26.079  1.00  0.00     0.116 C 
BRANCH  28  29
ATOM     29  N   UNL A   1      40.984  19.085  26.231  1.00  0.00    -0.352 N 
ATOM     30  C   UNL A   1      42.308  19.437  26.295  1.00  0.00     0.251 C 
ATOM     31  H   UNL A   1      40.798  18.120  26.295  1.00  0.00     0.163 HD
ATOM     32  O   UNL A   1      43.178  18.582  26.169  1.00  0.00    -0.269 OA
BRANCH  30  33
ATOM     33  C   UNL A   1      42.670  20.852  26.508  1.00  0.00     0.039 A 
ATOM     34  C   UNL A   1      42.763  21.340  27.812  1.00  0.00     0.014 A 
ATOM     35  C   UNL A   1      42.912  21.694  25.417  1.00  0.00     0.014 A 
ATOM     36  C   UNL A   1      43.151  22.664  28.024  1.00  0.00     0.010 A 
ATOM     37  C   UNL A   1      43.371  22.989  25.633  1.00  0.00     0.010 A 
ATOM     38  C   UNL A   1      43.486  23.490  26.938  1.00  0.00    -0.014 A 
BRANCH  38  39
ATOM     39  C   UNL A   1      43.953  24.883  27.149  1.00  0.00     0.031 A 
ATOM     40  C   UNL A   1      45.401  25.233  26.934  1.00  0.00     0.074 A 
ATOM     41  C   UNL A   1      43.085  25.817  27.583  1.00  0.00     0.049 A 
ATOM     42  N   UNL A   1      46.013  26.371  27.130  1.00  0.00    -0.248 NA
ATOM     43  C   UNL A   1      46.285  24.152  26.462  1.00  0.00     0.031 C 
ATOM     44  C   UNL A   1      41.666  25.585  27.871  1.00  0.00     0.029 A 
ATOM     45  N   UNL A   1      43.266  27.147  27.871  1.00  0.00    -0.354 N 
ATOM     46  C   UNL A   1      47.347  26.146  26.811  1.00  0.00     0.074 A 
ATOM     47  C   UNL A   1      47.469  24.748  26.466  1.00  0.00     0.031 C 
ATOM     48  C   UNL A   1      41.104  26.737  28.273  1.00  0.00     0.029 A 
ATOM     49  C   UNL A   1      42.126  27.777  28.315  1.00  0.00     0.049 A 
ATOM     50  H   UNL A   1      44.131  27.606  27.770  1.00  0.00     0.167 HD
ATOM     51  C   UNL A   1      48.371  27.031  26.784  1.00  0.00     0.037 A 
ATOM     52  C   UNL A   1      41.932  29.047  28.721  1.00  0.00     0.037 A 
ATOM     53  C   UNL A   1      48.235  28.428  27.110  1.00  0.00     0.049 A 
ATOM     54  C   UNL A   1      43.092  30.006  28.695  1.00  0.00     0.074 A 
ATOM     55  C   UNL A   1      49.202  29.417  27.069  1.00  0.00     0.029 A 
ATOM     56  N   UNL A   1      47.062  29.033  27.535  1.00  0.00    -0.354 N 
ATOM     57  N   UNL A   1      44.334  29.790  28.331  1.00  0.00    -0.248 NA
ATOM     58  C   UNL A   1      42.824  31.385  29.127  1.00  0.00     0.031 C 
ATOM     59  C   UNL A   1      48.626  30.610  27.515  1.00  0.00     0.029 A 
ATOM     60  C   UNL A   1      47.286  30.378  27.779  1.00  0.00     0.049 A 
ATOM     61  H   UNL A   1      46.199  28.573  27.648  1.00  0.00     0.167 HD
ATOM     62  C   UNL A   1      44.987  31.012  28.462  1.00  0.00     0.074 A 
ATOM     63  C   UNL A   1      43.998  31.965  28.922  1.00  0.00     0.031 C 
ATOM     64  C   UNL A   1      46.286  31.317  28.223  1.00  0.00     0.037 A 
BRANCH  51  65
ATOM     65  C   UNL A   1      49.728  26.526  26.374  1.00  0.00     0.058 A 
ATOM     66  C   UNL A   1      50.195  26.661  25.057  1.00  0.00     0.135 A 
ATOM     67  C   UNL A   1      50.596  25.958  27.321  1.00  0.00     0.135 A 
ATOM     68  F   UNL A   1      49.400  27.180  24.107  1.00  0.00    -0.206 F 
ATOM     69  C   UNL A   1      51.467  26.237  24.688  1.00  0.00     0.059 A 
ATOM     70  C   UNL A   1      51.884  25.554  26.980  1.00  0.00     0.059 A 
ATOM     71  F   UNL A   1      50.201  25.802  28.593  1.00  0.00    -0.206 F 
ATOM     72  C   UNL A   1      52.307  25.691  25.659  1.00  0.00     0.060 A 
BRANCH  72  73
ATOM     73  S   UNL A   1      53.967  25.177  25.168  1.00  0.00     0.124 S 
ATOM     74  O   UNL A   1      54.027  25.660  23.792  1.00  0.00    -0.237 OA
ATOM     75  O   UNL A   1      54.807  25.889  26.125  1.00  0.00    -0.237 OA
ATOM     76  O   UNL A   1      53.935  23.726  25.323  1.00  0.00    -0.744 OA
ENDBRANCH  72  73
ENDBRANCH  51  65
BRANCH  52  77
ATOM     77  C   UNL A   1      40.587  29.490  29.180  1.00  0.00     0.058 A 
ATOM     78  C   UNL A   1      40.324  29.719  30.538  1.00  0.00     0.135 A 
ATOM     79  C   UNL A   1      39.532  29.677  28.272  1.00  0.00     0.135 A 
ATOM     80  F   UNL A   1      41.296  29.551  31.447  1.00  0.00    -0.206 F 
ATOM     81  C   UNL A   1      39.059  30.085  30.986  1.00  0.00     0.059 A 
ATOM     82  C   UNL A   1      38.266  30.072  28.690  1.00  0.00     0.059 A 
ATOM     83  F   UNL A   1      39.735  29.490  26.958  1.00  0.00    -0.206 F 
ATOM     84  C   UNL A   1      38.034  30.257  30.052  1.00  0.00     0.060 A 
BRANCH  84  85
ATOM     85  S   UNL A   1      36.400  30.748  30.641  1.00  0.00     0.124 S 
ATOM     86  O   UNL A   1      36.702  31.985  31.350  1.00  0.00    -0.237 OA
ATOM     87  O   UNL A   1      35.654  30.891  29.394  1.00  0.00    -0.237 OA
ATOM     88  O   UNL A   1      35.993  29.623  31.478  1.00  0.00    -0.744 OA
ENDBRANCH  84  85
ENDBRANCH  52  77
BRANCH  64  89
ATOM     89  C   UNL A   1      46.708  32.748  28.411  1.00  0.00     0.058 A 
ATOM     90  C   UNL A   1      46.585  33.697  27.385  1.00  0.00     0.135 A 
ATOM     91  C   UNL A   1      47.190  33.188  29.655  1.00  0.00     0.135 A 
ATOM     92  F   UNL A   1      46.134  33.329  26.174  1.00  0.00    -0.206 F 
ATOM     93  C   UNL A   1      46.951  35.026  27.575  1.00  0.00     0.059 A 
ATOM     94  C   UNL A   1      47.533  34.517  29.878  1.00  0.00     0.059 A 
ATOM     95  F   UNL A   1      47.318  32.324  30.675  1.00  0.00    -0.206 F 
ATOM     96  C   UNL A   1      47.421  35.427  28.828  1.00  0.00     0.060 A 
BRANCH  96  97
ATOM     97  S   UNL A   1      47.859  37.161  29.072  1.00  0.00     0.124 S 
ATOM     98  O   UNL A   1      49.295  37.070  29.315  1.00  0.00    -0.237 OA
ATOM     99  O   UNL A   1      47.469  37.762  27.800  1.00  0.00    -0.237 OA
ATOM    100  O   UNL A   1      47.051  37.558  30.220  1.00  0.00    -0.744 OA
ENDBRANCH  96  97
ENDBRANCH  64  89
ENDBRANCH  38  39
ENDBRANCH  30  33
ENDBRANCH  28  29
ENDBRANCH  27  28
ENDBRANCH  26  27
ENDBRANCH   1  26
TORSDOF 21
ENDMDL
