MODEL 1
REMARK VINA RESULT:     -12.0      0.000      0.000
REMARK SMILES Cc1ccc(F)c(C(=O)N[C@@H]2C=C[C@@H](C(=O)NCCCCCCNC(=O)c3ccc(-c4c5nc(c(-c6c(F)cc(S(=O)(=O)[O-])cc6F)c6ccc([nH]6)c(-c6c(F)cc(S(=O)(=O)[O-])cc6F)c6nc(c(-c7c(F)cc(S(=O)(=O)[O-])cc7F)c7ccc4[nH]7)C=C6)C=C5)cc3)C2)c1
REMARK SMILES IDX 21 1 20 2 19 3 18 4 17 5 15 6 16 7 14 9 11 10 12 11 93 12
REMARK SMILES IDX 13 13 10 14 8 15 9 16 7 18 1 19 2 20 3 21 94 22 4 23 5 24
REMARK SMILES IDX 6 25 22 26 23 27 24 28 25 29 26 31 27 32 28 33 92 34 29 35
REMARK SMILES IDX 91 36 30 37 31 38 32 39 85 40 33 41 90 42 84 43 86 44 34 45
REMARK SMILES IDX 89 46 83 47 82 48 35 50 69 51 48 52 68 53 49 54 52 55 67 56
REMARK SMILES IDX 87 57 50 58 51 59 66 61 88 62 53 63 36 64 37 65 46 66 38 67
REMARK SMILES IDX 39 68 45 69 47 70 40 71 41 72 42 73 43 74 44 75 70 76 71 77
REMARK SMILES IDX 80 78 72 79 73 80 79 81 81 82 74 83 75 84 76 85 77 86 78 87
REMARK SMILES IDX 54 88 55 89 64 90 56 91 57 92 63 93 65 94 58 95 59 96 60 97
REMARK SMILES IDX 61 98 62 99
REMARK H PARENT 17 8 10 17 24 30 86 49 52 60
REMARK Flexibility Score: inf
ROOT
ATOM      1  C   UNL A   1      38.231  23.761  26.129  1.00  0.00     0.002 C 
ENDROOT
BRANCH   1   2
ATOM      2  C   UNL A   1      36.763  23.322  26.131  1.00  0.00     0.002 C 
BRANCH   2   3
ATOM      3  C   UNL A   1      36.310  22.596  24.860  1.00  0.00     0.021 C 
BRANCH   3   4
ATOM      4  C   UNL A   1      35.411  21.383  25.097  1.00  0.00     0.116 C 
BRANCH   4   5
ATOM      5  N   UNL A   1      34.230  21.391  24.255  1.00  0.00    -0.356 N 
ATOM      6  C   UNL A   1      33.011  21.974  24.403  1.00  0.00     0.227 C 
ATOM      7  O   UNL A   1      32.249  21.914  23.431  1.00  0.00    -0.274 OA
ATOM      8  H   UNL A   1      34.331  20.878  23.421  1.00  0.00     0.163 HD
BRANCH   6   9
ATOM      9  C   UNL A   1      32.517  22.600  25.716  1.00  0.00     0.103 C 
ATOM     10  C   UNL A   1      31.526  24.851  25.926  1.00  0.00     0.106 C 
ATOM     11  C   UNL A   1      30.539  23.766  26.220  1.00  0.00    -0.006 C 
ATOM     12  C   UNL A   1      32.851  24.088  25.803  1.00  0.00     0.047 C 
ATOM     13  C   UNL A   1      31.061  22.545  26.038  1.00  0.00    -0.016 C 
BRANCH  10  14
ATOM     14  N   UNL A   1      31.486  25.874  26.946  1.00  0.00    -0.346 N 
ATOM     15  C   UNL A   1      31.561  27.249  26.850  1.00  0.00     0.254 C 
ATOM     16  O   UNL A   1      31.305  27.917  27.849  1.00  0.00    -0.269 OA
ATOM     17  H   UNL A   1      31.389  25.532  27.865  1.00  0.00     0.164 HD
BRANCH  15  18
ATOM     18  C   UNL A   1      32.021  27.925  25.608  1.00  0.00     0.075 A 
ATOM     19  C   UNL A   1      30.602  29.210  22.327  1.00  0.00     0.044 C 
ATOM     20  C   UNL A   1      31.591  28.859  23.401  1.00  0.00    -0.050 A 
ATOM     21  C   UNL A   1      32.954  28.789  23.107  1.00  0.00     0.006 A 
ATOM     22  C   UNL A   1      31.149  28.529  24.694  1.00  0.00     0.020 A 
ATOM     23  C   UNL A   1      33.852  28.328  24.066  1.00  0.00     0.040 A 
ATOM     24  C   UNL A   1      33.381  27.869  25.295  1.00  0.00     0.135 A 
ATOM     25  F   UNL A   1      34.272  27.327  26.138  1.00  0.00    -0.206 F 
ENDBRANCH  15  18
ENDBRANCH  10  14
ENDBRANCH   6   9
ENDBRANCH   4   5
ENDBRANCH   3   4
ENDBRANCH   2   3
ENDBRANCH   1   2
BRANCH   1  26
ATOM     26  C   UNL A   1      39.224  22.699  26.609  1.00  0.00     0.021 C 
BRANCH  26  27
ATOM     27  C   UNL A   1      40.568  23.251  27.077  1.00  0.00     0.116 C 
BRANCH  27  28
ATOM     28  N   UNL A   1      41.223  24.035  26.042  1.00  0.00    -0.352 N 
ATOM     29  C   UNL A   1      41.541  25.372  26.038  1.00  0.00     0.251 C 
ATOM     30  H   UNL A   1      41.475  23.537  25.231  1.00  0.00     0.163 HD
ATOM     31  O   UNL A   1      41.892  25.916  24.998  1.00  0.00    -0.269 OA
BRANCH  29  32
ATOM     32  C   UNL A   1      41.435  26.151  27.291  1.00  0.00     0.039 A 
ATOM     33  C   UNL A   1      42.497  26.977  27.666  1.00  0.00     0.014 A 
ATOM     34  C   UNL A   1      40.286  26.075  28.084  1.00  0.00     0.014 A 
ATOM     35  C   UNL A   1      42.377  27.782  28.801  1.00  0.00     0.010 A 
ATOM     36  C   UNL A   1      40.141  26.930  29.175  1.00  0.00     0.010 A 
ATOM     37  C   UNL A   1      41.182  27.798  29.540  1.00  0.00    -0.014 A 
BRANCH  37  38
ATOM     38  C   UNL A   1      40.991  28.745  30.670  1.00  0.00     0.031 A 
ATOM     39  C   UNL A   1      41.805  28.610  31.927  1.00  0.00     0.074 A 
ATOM     40  C   UNL A   1      40.026  29.684  30.586  1.00  0.00     0.049 A 
ATOM     41  N   UNL A   1      41.732  29.303  33.034  1.00  0.00    -0.248 NA
ATOM     42  C   UNL A   1      42.820  27.545  31.954  1.00  0.00     0.031 C 
ATOM     43  C   UNL A   1      39.133  29.877  29.440  1.00  0.00     0.029 A 
ATOM     44  N   UNL A   1      39.622  30.642  31.482  1.00  0.00    -0.354 N 
ATOM     45  C   UNL A   1      42.676  28.752  33.892  1.00  0.00     0.074 A 
ATOM     46  C   UNL A   1      43.280  27.638  33.193  1.00  0.00     0.031 C 
ATOM     47  C   UNL A   1      38.300  30.898  29.697  1.00  0.00     0.029 A 
ATOM     48  C   UNL A   1      38.566  31.403  31.040  1.00  0.00     0.049 A 
ATOM     49  H   UNL A   1      40.049  30.772  32.360  1.00  0.00     0.167 HD
ATOM     50  C   UNL A   1      43.019  29.152  35.140  1.00  0.00     0.037 A 
ATOM     51  C   UNL A   1      37.874  32.386  31.650  1.00  0.00     0.037 A 
ATOM     52  C   UNL A   1      42.426  30.275  35.819  1.00  0.00     0.049 A 
ATOM     53  C   UNL A   1      38.270  32.803  33.041  1.00  0.00     0.074 A 
ATOM     54  C   UNL A   1      42.762  30.807  37.052  1.00  0.00     0.029 A 
ATOM     55  N   UNL A   1      41.369  31.031  35.333  1.00  0.00    -0.354 N 
ATOM     56  N   UNL A   1      39.228  32.329  33.801  1.00  0.00    -0.248 NA
ATOM     57  C   UNL A   1      37.495  33.890  33.656  1.00  0.00     0.031 C 
ATOM     58  C   UNL A   1      41.869  31.845  37.339  1.00  0.00     0.029 A 
ATOM     59  C   UNL A   1      41.015  31.999  36.259  1.00  0.00     0.049 A 
ATOM     60  H   UNL A   1      40.936  30.899  34.460  1.00  0.00     0.167 HD
ATOM     61  C   UNL A   1      39.181  33.070  34.978  1.00  0.00     0.074 A 
ATOM     62  C   UNL A   1      38.116  34.039  34.818  1.00  0.00     0.031 C 
ATOM     63  C   UNL A   1      39.948  32.956  36.090  1.00  0.00     0.037 A 
BRANCH  50  64
ATOM     64  C   UNL A   1      44.085  28.371  35.863  1.00  0.00     0.058 A 
ATOM     65  C   UNL A   1      43.771  27.293  36.705  1.00  0.00     0.135 A 
ATOM     66  C   UNL A   1      45.443  28.668  35.662  1.00  0.00     0.135 A 
ATOM     67  F   UNL A   1      42.489  26.973  36.945  1.00  0.00    -0.206 F 
ATOM     68  C   UNL A   1      44.763  26.551  37.339  1.00  0.00     0.059 A 
ATOM     69  C   UNL A   1      46.453  27.920  36.262  1.00  0.00     0.059 A 
ATOM     70  F   UNL A   1      45.802  29.689  34.867  1.00  0.00    -0.206 F 
ATOM     71  C   UNL A   1      46.102  26.870  37.108  1.00  0.00     0.060 A 
BRANCH  71  72
ATOM     72  S   UNL A   1      47.374  25.884  37.923  1.00  0.00     0.124 S 
ATOM     73  O   UNL A   1      48.427  25.872  36.911  1.00  0.00    -0.237 OA
ATOM     74  O   UNL A   1      47.655  26.668  39.121  1.00  0.00    -0.237 OA
ATOM     75  O   UNL A   1      46.716  24.602  38.156  1.00  0.00    -0.744 OA
ENDBRANCH  71  72
ENDBRANCH  50  64
BRANCH  51  76
ATOM     76  C   UNL A   1      36.733  33.036  30.952  1.00  0.00     0.058 A 
ATOM     77  C   UNL A   1      35.406  32.743  31.301  1.00  0.00     0.135 A 
ATOM     78  C   UNL A   1      36.945  33.971  29.926  1.00  0.00     0.135 A 
ATOM     79  F   UNL A   1      35.149  31.852  32.271  1.00  0.00    -0.206 F 
ATOM     80  C   UNL A   1      34.331  33.339  30.648  1.00  0.00     0.059 A 
ATOM     81  C   UNL A   1      35.888  34.601  29.278  1.00  0.00     0.059 A 
ATOM     82  F   UNL A   1      38.195  34.301  29.565  1.00  0.00    -0.206 F 
ATOM     83  C   UNL A   1      34.584  34.270  29.639  1.00  0.00     0.060 A 
BRANCH  83  84
ATOM     84  S   UNL A   1      33.183  35.071  28.828  1.00  0.00     0.124 S 
ATOM     85  O   UNL A   1      32.678  33.995  27.983  1.00  0.00    -0.237 OA
ATOM     86  O   UNL A   1      32.344  35.441  29.963  1.00  0.00    -0.237 OA
ATOM     87  O   UNL A   1      33.800  36.191  28.123  1.00  0.00    -0.744 OA
ENDBRANCH  83  84
ENDBRANCH  51  76
BRANCH  63  88
ATOM     88  C   UNL A   1      39.675  33.908  37.222  1.00  0.00     0.058 A 
ATOM     89  C   UNL A   1      38.837  33.558  38.292  1.00  0.00     0.135 A 
ATOM     90  C   UNL A   1      40.304  35.163  37.267  1.00  0.00     0.135 A 
ATOM     91  F   UNL A   1      38.203  32.375  38.296  1.00  0.00    -0.206 F 
ATOM     92  C   UNL A   1      38.616  34.427  39.357  1.00  0.00     0.059 A 
ATOM     93  C   UNL A   1      40.122  36.035  38.336  1.00  0.00     0.059 A 
ATOM     94  F   UNL A   1      41.123  35.545  36.274  1.00  0.00    -0.206 F 
ATOM     95  C   UNL A   1      39.268  35.662  39.372  1.00  0.00     0.060 A 
BRANCH  95  96
ATOM     96  S   UNL A   1      39.004  36.760  40.780  1.00  0.00     0.124 S 
ATOM     97  O   UNL A   1      38.385  37.916  40.140  1.00  0.00    -0.237 OA
ATOM     98  O   UNL A   1      38.129  35.963  41.635  1.00  0.00    -0.237 OA
ATOM     99  O   UNL A   1      40.351  36.977  41.300  1.00  0.00    -0.744 OA
ENDBRANCH  95  96
ENDBRANCH  63  88
ENDBRANCH  37  38
ENDBRANCH  29  32
ENDBRANCH  27  28
ENDBRANCH  26  27
ENDBRANCH   1  26
TORSDOF 18
ENDMDL
MODEL 2
REMARK VINA RESULT:     -12.0      6.713     11.976
REMARK SMILES Cc1ccc(F)c(C(=O)N[C@@H]2C=C[C@@H](C(=O)NCCCCCCNC(=O)c3ccc(-c4c5nc(c(-c6c(F)cc(S(=O)(=O)[O-])cc6F)c6ccc([nH]6)c(-c6c(F)cc(S(=O)(=O)[O-])cc6F)c6nc(c(-c7c(F)cc(S(=O)(=O)[O-])cc7F)c7ccc4[nH]7)C=C6)C=C5)cc3)C2)c1
REMARK SMILES IDX 21 1 20 2 19 3 18 4 17 5 15 6 16 7 14 9 11 10 12 11 93 12
REMARK SMILES IDX 13 13 10 14 8 15 9 16 7 18 1 19 2 20 3 21 94 22 4 23 5 24
REMARK SMILES IDX 6 25 22 26 23 27 24 28 25 29 26 31 27 32 28 33 92 34 29 35
REMARK SMILES IDX 91 36 30 37 31 38 32 39 85 40 33 41 90 42 84 43 86 44 34 45
REMARK SMILES IDX 89 46 83 47 82 48 35 50 69 51 48 52 68 53 49 54 52 55 67 56
REMARK SMILES IDX 87 57 50 58 51 59 66 61 88 62 53 63 36 64 37 65 46 66 38 67
REMARK SMILES IDX 39 68 45 69 47 70 40 71 41 72 42 73 43 74 44 75 70 76 71 77
REMARK SMILES IDX 80 78 72 79 73 80 79 81 81 82 74 83 75 84 76 85 77 86 78 87
REMARK SMILES IDX 54 88 55 89 64 90 56 91 57 92 63 93 65 94 58 95 59 96 60 97
REMARK SMILES IDX 61 98 62 99
REMARK H PARENT 17 8 10 17 24 30 86 49 52 60
REMARK Flexibility Score: inf
ROOT
ATOM      1  C   UNL A   1      33.045  28.881  27.238  1.00  0.00     0.002 C 
ENDROOT
BRANCH   1   2
ATOM      2  C   UNL A   1      32.058  28.223  26.267  1.00  0.00     0.002 C 
BRANCH   2   3
ATOM      3  C   UNL A   1      31.132  27.181  26.904  1.00  0.00     0.021 C 
BRANCH   3   4
ATOM      4  C   UNL A   1      30.356  26.317  25.910  1.00  0.00     0.116 C 
BRANCH   4   5
ATOM      5  N   UNL A   1      29.817  25.115  26.518  1.00  0.00    -0.356 N 
ATOM      6  C   UNL A   1      30.348  23.879  26.714  1.00  0.00     0.227 C 
ATOM      7  O   UNL A   1      29.680  23.095  27.399  1.00  0.00    -0.274 OA
ATOM      8  H   UNL A   1      28.895  25.214  26.849  1.00  0.00     0.163 HD
BRANCH   6   9
ATOM      9  C   UNL A   1      31.653  23.396  26.064  1.00  0.00     0.103 C 
ATOM     10  C   UNL A   1      33.677  22.705  27.296  1.00  0.00     0.106 C 
ATOM     11  C   UNL A   1      33.039  21.565  26.565  1.00  0.00    -0.006 C 
ATOM     12  C   UNL A   1      32.886  23.920  26.795  1.00  0.00     0.047 C 
ATOM     13  C   UNL A   1      31.904  21.928  25.955  1.00  0.00    -0.016 C 
BRANCH  10  14
ATOM     14  N   UNL A   1      35.101  22.741  27.052  1.00  0.00    -0.346 N 
ATOM     15  C   UNL A   1      35.825  23.295  26.015  1.00  0.00     0.254 C 
ATOM     16  O   UNL A   1      37.046  23.367  26.131  1.00  0.00    -0.269 OA
ATOM     17  H   UNL A   1      35.646  22.297  27.741  1.00  0.00     0.164 HD
BRANCH  15  18
ATOM     18  C   UNL A   1      35.179  23.719  24.745  1.00  0.00     0.075 A 
ATOM     19  C   UNL A   1      33.239  26.667  23.339  1.00  0.00     0.044 C 
ATOM     20  C   UNL A   1      33.904  25.324  23.431  1.00  0.00    -0.050 A 
ATOM     21  C   UNL A   1      33.595  24.322  22.508  1.00  0.00     0.006 A 
ATOM     22  C   UNL A   1      34.788  25.038  24.486  1.00  0.00     0.020 A 
ATOM     23  C   UNL A   1      34.104  23.037  22.678  1.00  0.00     0.040 A 
ATOM     24  C   UNL A   1      34.863  22.734  23.806  1.00  0.00     0.135 A 
ATOM     25  F   UNL A   1      35.230  21.456  23.983  1.00  0.00    -0.206 F 
ENDBRANCH  15  18
ENDBRANCH  10  14
ENDBRANCH   6   9
ENDBRANCH   4   5
ENDBRANCH   3   4
ENDBRANCH   2   3
ENDBRANCH   1   2
BRANCH   1  26
ATOM     26  C   UNL A   1      34.521  28.595  26.950  1.00  0.00     0.021 C 
BRANCH  26  27
ATOM     27  C   UNL A   1      35.487  29.655  27.472  1.00  0.00     0.116 C 
BRANCH  27  28
ATOM     28  N   UNL A   1      35.318  29.889  28.898  1.00  0.00    -0.352 N 
ATOM     29  C   UNL A   1      36.242  29.778  29.910  1.00  0.00     0.251 C 
ATOM     30  H   UNL A   1      34.415  30.164  29.177  1.00  0.00     0.163 HD
ATOM     31  O   UNL A   1      35.876  29.797  31.079  1.00  0.00    -0.269 OA
BRANCH  29  32
ATOM     32  C   UNL A   1      37.674  29.615  29.576  1.00  0.00     0.039 A 
ATOM     33  C   UNL A   1      38.588  29.394  30.609  1.00  0.00     0.014 A 
ATOM     34  C   UNL A   1      38.109  29.669  28.249  1.00  0.00     0.014 A 
ATOM     35  C   UNL A   1      39.929  29.154  30.302  1.00  0.00     0.010 A 
ATOM     36  C   UNL A   1      39.432  29.361  27.941  1.00  0.00     0.010 A 
ATOM     37  C   UNL A   1      40.355  29.093  28.964  1.00  0.00    -0.014 A 
BRANCH  37  38
ATOM     38  C   UNL A   1      41.748  28.709  28.619  1.00  0.00     0.031 A 
ATOM     39  C   UNL A   1      42.833  29.748  28.548  1.00  0.00     0.074 A 
ATOM     40  C   UNL A   1      42.018  27.426  28.297  1.00  0.00     0.049 A 
ATOM     41  N   UNL A   1      44.088  29.608  28.204  1.00  0.00    -0.248 NA
ATOM     42  C   UNL A   1      42.457  31.129  28.888  1.00  0.00     0.031 C 
ATOM     43  C   UNL A   1      41.037  26.338  28.274  1.00  0.00     0.029 A 
ATOM     44  N   UNL A   1      43.188  26.822  27.911  1.00  0.00    -0.354 N 
ATOM     45  C   UNL A   1      44.646  30.879  28.271  1.00  0.00     0.074 A 
ATOM     46  C   UNL A   1      43.583  31.785  28.646  1.00  0.00     0.031 C 
ATOM     47  C   UNL A   1      41.649  25.200  27.911  1.00  0.00     0.029 A 
ATOM     48  C   UNL A   1      43.053  25.483  27.631  1.00  0.00     0.049 A 
ATOM     49  H   UNL A   1      44.045  27.303  27.843  1.00  0.00     0.167 HD
ATOM     50  C   UNL A   1      45.931  31.250  28.057  1.00  0.00     0.037 A 
ATOM     51  C   UNL A   1      43.951  24.584  27.182  1.00  0.00     0.037 A 
ATOM     52  C   UNL A   1      46.986  30.335  27.703  1.00  0.00     0.049 A 
ATOM     53  C   UNL A   1      45.370  25.025  26.942  1.00  0.00     0.074 A 
ATOM     54  C   UNL A   1      48.335  30.602  27.544  1.00  0.00     0.029 A 
ATOM     55  N   UNL A   1      46.814  28.984  27.442  1.00  0.00    -0.354 N 
ATOM     56  N   UNL A   1      45.900  26.215  27.100  1.00  0.00    -0.248 NA
ATOM     57  C   UNL A   1      46.314  24.004  26.468  1.00  0.00     0.031 C 
ATOM     58  C   UNL A   1      48.967  29.426  27.126  1.00  0.00     0.029 A 
ATOM     59  C   UNL A   1      48.025  28.412  27.084  1.00  0.00     0.049 A 
ATOM     60  H   UNL A   1      45.958  28.502  27.503  1.00  0.00     0.167 HD
ATOM     61  C   UNL A   1      47.242  26.081  26.759  1.00  0.00     0.074 A 
ATOM     62  C   UNL A   1      47.447  24.691  26.411  1.00  0.00     0.031 C 
ATOM     63  C   UNL A   1      48.215  27.025  26.734  1.00  0.00     0.037 A 
BRANCH  50  64
ATOM     64  C   UNL A   1      46.276  32.709  28.194  1.00  0.00     0.058 A 
ATOM     65  C   UNL A   1      46.154  33.603  27.119  1.00  0.00     0.135 A 
ATOM     66  C   UNL A   1      46.677  33.231  29.435  1.00  0.00     0.135 A 
ATOM     67  F   UNL A   1      45.790  33.158  25.906  1.00  0.00    -0.206 F 
ATOM     68  C   UNL A   1      46.438  34.958  27.263  1.00  0.00     0.059 A 
ATOM     69  C   UNL A   1      46.937  34.588  29.610  1.00  0.00     0.059 A 
ATOM     70  F   UNL A   1      46.811  32.421  30.498  1.00  0.00    -0.206 F 
ATOM     71  C   UNL A   1      46.824  35.441  28.515  1.00  0.00     0.060 A 
BRANCH  71  72
ATOM     72  S   UNL A   1      47.168  37.205  28.687  1.00  0.00     0.124 S 
ATOM     73  O   UNL A   1      48.513  37.295  28.124  1.00  0.00    -0.237 OA
ATOM     74  O   UNL A   1      46.107  37.808  27.889  1.00  0.00    -0.237 OA
ATOM     75  O   UNL A   1      47.075  37.432  30.125  1.00  0.00    -0.744 OA
ENDBRANCH  71  72
ENDBRANCH  50  64
BRANCH  51  76
ATOM     76  C   UNL A   1      43.533  23.180  26.922  1.00  0.00     0.058 A 
ATOM     77  C   UNL A   1      43.423  22.686  25.614  1.00  0.00     0.135 A 
ATOM     78  C   UNL A   1      43.242  22.301  27.978  1.00  0.00     0.135 A 
ATOM     79  F   UNL A   1      43.683  23.487  24.570  1.00  0.00    -0.206 F 
ATOM     80  C   UNL A   1      43.022  21.377  25.360  1.00  0.00     0.059 A 
ATOM     81  C   UNL A   1      42.868  20.981  27.751  1.00  0.00     0.059 A 
ATOM     82  F   UNL A   1      43.349  22.718  29.249  1.00  0.00    -0.206 F 
ATOM     83  C   UNL A   1      42.751  20.531  26.437  1.00  0.00     0.060 A 
BRANCH  83  84
ATOM     84  S   UNL A   1      42.276  18.822  26.100  1.00  0.00     0.124 S 
ATOM     85  O   UNL A   1      40.883  18.977  25.698  1.00  0.00    -0.237 OA
ATOM     86  O   UNL A   1      43.209  18.449  25.040  1.00  0.00    -0.237 OA
ATOM     87  O   UNL A   1      42.494  18.154  27.379  1.00  0.00    -0.744 OA
ENDBRANCH  83  84
ENDBRANCH  51  76
BRANCH  63  88
ATOM     88  C   UNL A   1      49.596  26.589  26.328  1.00  0.00     0.058 A 
ATOM     89  C   UNL A   1      50.080  26.799  25.027  1.00  0.00     0.135 A 
ATOM     90  C   UNL A   1      50.465  26.006  27.264  1.00  0.00     0.135 A 
ATOM     91  F   UNL A   1      49.288  27.343  24.090  1.00  0.00    -0.206 F 
ATOM     92  C   UNL A   1      51.371  26.428  24.664  1.00  0.00     0.059 A 
ATOM     93  C   UNL A   1      51.770  25.656  26.931  1.00  0.00     0.059 A 
ATOM     94  F   UNL A   1      50.056  25.791  28.525  1.00  0.00    -0.206 F 
ATOM     95  C   UNL A   1      52.211  25.861  25.625  1.00  0.00     0.060 A 
BRANCH  95  96
ATOM     96  S   UNL A   1      53.897  25.424  25.149  1.00  0.00     0.124 S 
ATOM     97  O   UNL A   1      53.904  25.778  23.734  1.00  0.00    -0.237 OA
ATOM     98  O   UNL A   1      54.696  26.278  26.021  1.00  0.00    -0.237 OA
ATOM     99  O   UNL A   1      53.973  23.996  25.440  1.00  0.00    -0.744 OA
ENDBRANCH  95  96
ENDBRANCH  63  88
ENDBRANCH  37  38
ENDBRANCH  29  32
ENDBRANCH  27  28
ENDBRANCH  26  27
ENDBRANCH   1  26
TORSDOF 18
ENDMDL
MODEL 3
REMARK VINA RESULT:     -11.8      5.018      6.820
REMARK SMILES Cc1ccc(F)c(C(=O)N[C@@H]2C=C[C@@H](C(=O)NCCCCCCNC(=O)c3ccc(-c4c5nc(c(-c6c(F)cc(S(=O)(=O)[O-])cc6F)c6ccc([nH]6)c(-c6c(F)cc(S(=O)(=O)[O-])cc6F)c6nc(c(-c7c(F)cc(S(=O)(=O)[O-])cc7F)c7ccc4[nH]7)C=C6)C=C5)cc3)C2)c1
REMARK SMILES IDX 21 1 20 2 19 3 18 4 17 5 15 6 16 7 14 9 11 10 12 11 93 12
REMARK SMILES IDX 13 13 10 14 8 15 9 16 7 18 1 19 2 20 3 21 94 22 4 23 5 24
REMARK SMILES IDX 6 25 22 26 23 27 24 28 25 29 26 31 27 32 28 33 92 34 29 35
REMARK SMILES IDX 91 36 30 37 31 38 32 39 85 40 33 41 90 42 84 43 86 44 34 45
REMARK SMILES IDX 89 46 83 47 82 48 35 50 69 51 48 52 68 53 49 54 52 55 67 56
REMARK SMILES IDX 87 57 50 58 51 59 66 61 88 62 53 63 36 64 37 65 46 66 38 67
REMARK SMILES IDX 39 68 45 69 47 70 40 71 41 72 42 73 43 74 44 75 70 76 71 77
REMARK SMILES IDX 80 78 72 79 73 80 79 81 81 82 74 83 75 84 76 85 77 86 78 87
REMARK SMILES IDX 54 88 55 89 64 90 56 91 57 92 63 93 65 94 58 95 59 96 60 97
REMARK SMILES IDX 61 98 62 99
REMARK H PARENT 17 8 10 17 24 30 86 49 52 60
REMARK Flexibility Score: inf
ROOT
ATOM      1  C   UNL A   1      34.757  23.495  23.752  1.00  0.00     0.002 C 
ENDROOT
BRANCH   1   2
ATOM      2  C   UNL A   1      34.164  24.827  23.279  1.00  0.00     0.002 C 
BRANCH   2   3
ATOM      3  C   UNL A   1      34.123  25.924  24.349  1.00  0.00     0.021 C 
BRANCH   3   4
ATOM      4  C   UNL A   1      33.634  27.286  23.854  1.00  0.00     0.116 C 
BRANCH   4   5
ATOM      5  N   UNL A   1      32.819  27.185  22.658  1.00  0.00    -0.356 N 
ATOM      6  C   UNL A   1      31.478  27.063  22.479  1.00  0.00     0.227 C 
ATOM      7  O   UNL A   1      31.066  27.143  21.316  1.00  0.00    -0.274 OA
ATOM      8  H   UNL A   1      33.335  27.209  21.820  1.00  0.00     0.163 HD
BRANCH   6   9
ATOM      9  C   UNL A   1      30.491  26.741  23.612  1.00  0.00     0.103 C 
ATOM     10  C   UNL A   1      30.981  25.292  25.549  1.00  0.00     0.106 C 
ATOM     11  C   UNL A   1      30.775  26.721  25.945  1.00  0.00    -0.006 C 
ATOM     12  C   UNL A   1      30.592  25.287  24.065  1.00  0.00     0.047 C 
ATOM     13  C   UNL A   1      30.578  27.515  24.885  1.00  0.00    -0.016 C 
BRANCH  10  14
ATOM     14  N   UNL A   1      30.219  24.406  26.399  1.00  0.00    -0.346 N 
ATOM     15  C   UNL A   1      30.532  23.170  26.927  1.00  0.00     0.254 C 
ATOM     16  O   UNL A   1      29.792  22.699  27.786  1.00  0.00    -0.269 OA
ATOM     17  H   UNL A   1      29.326  24.741  26.643  1.00  0.00     0.164 HD
BRANCH  15  18
ATOM     18  C   UNL A   1      31.681  22.370  26.424  1.00  0.00     0.075 A 
ATOM     19  C   UNL A   1      32.428  19.734  23.793  1.00  0.00     0.044 C 
ATOM     20  C   UNL A   1      32.622  20.689  24.935  1.00  0.00    -0.050 A 
ATOM     21  C   UNL A   1      33.727  20.561  25.780  1.00  0.00     0.006 A 
ATOM     22  C   UNL A   1      31.659  21.676  25.208  1.00  0.00     0.020 A 
ATOM     23  C   UNL A   1      33.831  21.357  26.918  1.00  0.00     0.040 A 
ATOM     24  C   UNL A   1      32.798  22.231  27.251  1.00  0.00     0.135 A 
ATOM     25  F   UNL A   1      32.891  22.887  28.416  1.00  0.00    -0.206 F 
ENDBRANCH  15  18
ENDBRANCH  10  14
ENDBRANCH   6   9
ENDBRANCH   4   5
ENDBRANCH   3   4
ENDBRANCH   2   3
ENDBRANCH   1   2
BRANCH   1  26
ATOM     26  C   UNL A   1      36.235  23.551  24.148  1.00  0.00     0.021 C 
BRANCH  26  27
ATOM     27  C   UNL A   1      36.493  23.482  25.651  1.00  0.00     0.116 C 
BRANCH  27  28
ATOM     28  N   UNL A   1      37.474  22.463  25.987  1.00  0.00    -0.352 N 
ATOM     29  C   UNL A   1      38.777  22.616  26.397  1.00  0.00     0.251 C 
ATOM     30  H   UNL A   1      37.161  21.533  25.909  1.00  0.00     0.163 HD
ATOM     31  O   UNL A   1      39.529  21.649  26.425  1.00  0.00    -0.269 OA
BRANCH  29  32
ATOM     32  C   UNL A   1      39.268  23.957  26.783  1.00  0.00     0.039 A 
ATOM     33  C   UNL A   1      39.121  24.377  28.107  1.00  0.00     0.014 A 
ATOM     34  C   UNL A   1      39.882  24.790  25.843  1.00  0.00     0.014 A 
ATOM     35  C   UNL A   1      39.655  25.604  28.504  1.00  0.00     0.010 A 
ATOM     36  C   UNL A   1      40.474  25.982  26.257  1.00  0.00     0.010 A 
ATOM     37  C   UNL A   1      40.374  26.397  27.594  1.00  0.00    -0.014 A 
BRANCH  37  38
ATOM     38  C   UNL A   1      41.060  27.640  28.033  1.00  0.00     0.031 A 
ATOM     39  C   UNL A   1      42.558  27.753  27.966  1.00  0.00     0.074 A 
ATOM     40  C   UNL A   1      40.329  28.643  28.563  1.00  0.00     0.049 A 
ATOM     41  N   UNL A   1      43.330  28.732  28.362  1.00  0.00    -0.248 NA
ATOM     42  C   UNL A   1      43.288  26.608  27.400  1.00  0.00     0.031 C 
ATOM     43  C   UNL A   1      38.874  28.629  28.734  1.00  0.00     0.029 A 
ATOM     44  N   UNL A   1      40.707  29.861  29.072  1.00  0.00    -0.354 N 
ATOM     45  C   UNL A   1      44.631  28.319  28.107  1.00  0.00     0.074 A 
ATOM     46  C   UNL A   1      44.549  26.981  27.564  1.00  0.00     0.031 C 
ATOM     47  C   UNL A   1      38.483  29.786  29.290  1.00  0.00     0.029 A 
ATOM     48  C   UNL A   1      39.660  30.607  29.559  1.00  0.00     0.049 A 
ATOM     49  H   UNL A   1      41.641  30.172  29.086  1.00  0.00     0.167 HD
ATOM     50  C   UNL A   1      45.787  29.001  28.294  1.00  0.00     0.037 A 
ATOM     51  C   UNL A   1      39.645  31.808  30.170  1.00  0.00     0.037 A 
ATOM     52  C   UNL A   1      45.856  30.342  28.817  1.00  0.00     0.049 A 
ATOM     53  C   UNL A   1      40.944  32.540  30.374  1.00  0.00     0.074 A 
ATOM     54  C   UNL A   1      46.972  31.147  28.968  1.00  0.00     0.029 A 
ATOM     55  N   UNL A   1      44.773  31.070  29.286  1.00  0.00    -0.354 N 
ATOM     56  N   UNL A   1      42.158  32.170  30.042  1.00  0.00    -0.248 NA
ATOM     57  C   UNL A   1      40.872  33.853  31.031  1.00  0.00     0.031 C 
ATOM     58  C   UNL A   1      46.573  32.337  29.585  1.00  0.00     0.029 A 
ATOM     59  C   UNL A   1      45.199  32.299  29.764  1.00  0.00     0.049 A 
ATOM     60  H   UNL A   1      43.839  30.759  29.281  1.00  0.00     0.167 HD
ATOM     61  C   UNL A   1      42.993  33.211  30.436  1.00  0.00     0.074 A 
ATOM     62  C   UNL A   1      42.142  34.234  31.008  1.00  0.00     0.031 C 
ATOM     63  C   UNL A   1      44.342  33.309  30.336  1.00  0.00     0.037 A 
BRANCH  50  64
ATOM     64  C   UNL A   1      47.078  28.315  27.935  1.00  0.00     0.058 A 
ATOM     65  C   UNL A   1      47.787  27.537  28.863  1.00  0.00     0.135 A 
ATOM     66  C   UNL A   1      47.581  28.387  26.625  1.00  0.00     0.135 A 
ATOM     67  F   UNL A   1      47.361  27.445  30.134  1.00  0.00    -0.206 F 
ATOM     68  C   UNL A   1      48.959  26.873  28.513  1.00  0.00     0.059 A 
ATOM     69  C   UNL A   1      48.735  27.707  26.244  1.00  0.00     0.059 A 
ATOM     70  F   UNL A   1      46.944  29.117  25.695  1.00  0.00    -0.206 F 
ATOM     71  C   UNL A   1      49.422  26.962  27.200  1.00  0.00     0.060 A 
BRANCH  71  72
ATOM     72  S   UNL A   1      50.933  26.078  26.760  1.00  0.00     0.124 S 
ATOM     73  O   UNL A   1      50.679  24.761  27.339  1.00  0.00    -0.237 OA
ATOM     74  O   UNL A   1      50.919  26.143  25.303  1.00  0.00    -0.237 OA
ATOM     75  O   UNL A   1      51.985  26.854  27.410  1.00  0.00    -0.744 OA
ENDBRANCH  71  72
ENDBRANCH  50  64
BRANCH  51  76
ATOM     76  C   UNL A   1      38.358  32.388  30.639  1.00  0.00     0.058 A 
ATOM     77  C   UNL A   1      37.558  33.165  29.789  1.00  0.00     0.135 A 
ATOM     78  C   UNL A   1      37.898  32.170  31.948  1.00  0.00     0.135 A 
ATOM     79  F   UNL A   1      37.956  33.408  28.531  1.00  0.00    -0.206 F 
ATOM     80  C   UNL A   1      36.357  33.720  30.222  1.00  0.00     0.059 A 
ATOM     81  C   UNL A   1      36.688  32.690  32.396  1.00  0.00     0.059 A 
ATOM     82  F   UNL A   1      38.616  31.420  32.798  1.00  0.00    -0.206 F 
ATOM     83  C   UNL A   1      35.930  33.474  31.528  1.00  0.00     0.060 A 
BRANCH  83  84
ATOM     84  S   UNL A   1      34.349  34.161  32.067  1.00  0.00     0.124 S 
ATOM     85  O   UNL A   1      34.779  35.337  32.815  1.00  0.00    -0.237 OA
ATOM     86  O   UNL A   1      33.680  34.421  30.796  1.00  0.00    -0.237 OA
ATOM     87  O   UNL A   1      33.769  33.083  32.863  1.00  0.00    -0.744 OA
ENDBRANCH  83  84
ENDBRANCH  51  76
BRANCH  63  88
ATOM     88  C   UNL A   1      44.987  34.569  30.844  1.00  0.00     0.058 A 
ATOM     89  C   UNL A   1      45.145  35.697  30.024  1.00  0.00     0.135 A 
ATOM     90  C   UNL A   1      45.401  34.670  32.182  1.00  0.00     0.135 A 
ATOM     91  F   UNL A   1      44.775  35.652  28.734  1.00  0.00    -0.206 F 
ATOM     92  C   UNL A   1      45.708  36.874  30.507  1.00  0.00     0.059 A 
ATOM     93  C   UNL A   1      45.938  35.846  32.695  1.00  0.00     0.059 A 
ATOM     94  F   UNL A   1      45.264  33.623  33.013  1.00  0.00    -0.206 F 
ATOM     95  C   UNL A   1      46.097  36.940  31.846  1.00  0.00     0.060 A 
BRANCH  95  96
ATOM     96  S   UNL A   1      46.788  38.488  32.469  1.00  0.00     0.124 S 
ATOM     97  O   UNL A   1      45.940  38.742  33.630  1.00  0.00    -0.237 OA
ATOM     98  O   UNL A   1      48.169  38.117  32.760  1.00  0.00    -0.237 OA
ATOM     99  O   UNL A   1      46.614  39.412  31.352  1.00  0.00    -0.744 OA
ENDBRANCH  95  96
ENDBRANCH  63  88
ENDBRANCH  37  38
ENDBRANCH  29  32
ENDBRANCH  27  28
ENDBRANCH  26  27
ENDBRANCH   1  26
TORSDOF 18
ENDMDL
