MODEL 1
REMARK VINA RESULT:      -9.3      0.000      0.000
REMARK SMILES COC[C@@H](C)N(C)C(=O)N[C@@H]1C=C[C@@H](C(=O)NCCCCCCNC(=O)c2ccc(-c3c4nc(c(-c5c(F)cc(S(=O)(=O)[O-])cc5F)c5ccc([nH]5)c(-c5c(F)cc(S(=O)(=O)[O-])cc5F)c5nc(c(-c6c(F)cc(S(=O)(=O)[O-])cc6F)c6ccc3[nH]6)C=C5)C=C4)cc2)C1
REMARK SMILES IDX 19 1 18 2 17 3 15 4 16 5 14 7 11 8 12 9 93 10 13 11 10 12
REMARK SMILES IDX 8 13 9 14 6 16 7 17 4 18 5 19 3 20 2 21 1 22 20 23 21 24
REMARK SMILES IDX 22 25 23 26 24 27 25 28 26 30 27 31 28 32 92 33 29 34 91 35
REMARK SMILES IDX 30 36 31 37 32 38 85 39 33 40 90 41 84 42 86 43 34 44 89 45
REMARK SMILES IDX 83 46 82 47 35 49 69 50 48 51 68 52 49 53 52 54 67 55 87 56
REMARK SMILES IDX 50 57 51 58 66 60 88 61 53 62 36 63 37 64 46 65 38 66 39 67
REMARK SMILES IDX 45 68 47 69 40 70 41 71 42 72 43 73 44 74 70 75 71 76 80 77
REMARK SMILES IDX 72 78 73 79 79 80 81 81 74 82 75 83 76 84 77 85 78 86 54 87
REMARK SMILES IDX 55 88 64 89 56 90 57 91 63 92 65 93 58 94 59 95 60 96 61 97
REMARK SMILES IDX 62 98
REMARK H PARENT 17 6 10 15 24 29 86 48 52 59
REMARK Flexibility Score: inf
ROOT
ATOM      1  C   UNL A   1      38.948  23.770  26.522  1.00  0.00     0.021 C 
ENDROOT
BRANCH   1   2
ATOM      2  C   UNL A   1      37.518  23.519  26.049  1.00  0.00     0.116 C 
BRANCH   2   3
ATOM      3  N   UNL A   1      37.471  23.274  24.624  1.00  0.00    -0.356 N 
ATOM      4  C   UNL A   1      36.442  23.258  23.738  1.00  0.00     0.227 C 
ATOM      5  O   UNL A   1      36.728  23.013  22.560  1.00  0.00    -0.274 OA
ATOM      6  H   UNL A   1      38.349  23.082  24.221  1.00  0.00     0.163 HD
BRANCH   4   7
ATOM      7  C   UNL A   1      34.988  23.562  24.119  1.00  0.00     0.103 C 
ATOM      8  C   UNL A   1      33.429  25.089  22.969  1.00  0.00     0.107 C 
ATOM      9  C   UNL A   1      33.151  23.652  22.664  1.00  0.00    -0.006 C 
ATOM     10  C   UNL A   1      34.534  25.027  24.042  1.00  0.00     0.047 C 
ATOM     11  C   UNL A   1      34.005  22.823  23.272  1.00  0.00    -0.016 C 
BRANCH   8  12
ATOM     12  N   UNL A   1      32.205  25.700  23.409  1.00  0.00    -0.332 N 
ATOM     13  C   UNL A   1      31.870  26.943  23.807  1.00  0.00     0.317 C 
ATOM     14  O   UNL A   1      30.657  27.123  23.958  1.00  0.00    -0.249 OA
ATOM     15  H   UNL A   1      31.446  25.073  23.424  1.00  0.00     0.165 HD
BRANCH  13  16
ATOM     16  N   UNL A   1      32.790  27.942  24.019  1.00  0.00    -0.323 N 
ATOM     17  C   UNL A   1      33.518  28.690  23.002  1.00  0.00     0.149 C 
BRANCH  16  18
ATOM     18  C   UNL A   1      33.242  28.185  25.415  1.00  0.00     0.109 C 
ATOM     19  C   UNL A   1      32.683  27.108  26.349  1.00  0.00     0.033 C 
BRANCH  18  20
ATOM     20  C   UNL A   1      32.972  29.638  25.877  1.00  0.00     0.184 C 
BRANCH  20  21
ATOM     21  O   UNL A   1      33.868  30.098  26.894  1.00  0.00    -0.383 OA
ATOM     22  C   UNL A   1      33.545  31.381  27.409  1.00  0.00     0.194 C 
ENDBRANCH  20  21
ENDBRANCH  18  20
ENDBRANCH  16  18
ENDBRANCH  13  16
ENDBRANCH   8  12
ENDBRANCH   4   7
ENDBRANCH   2   3
ENDBRANCH   1   2
BRANCH   1  23
ATOM     23  C   UNL A   1      39.661  22.504  27.008  1.00  0.00     0.002 C 
BRANCH  23  24
ATOM     24  C   UNL A   1      40.243  21.628  25.892  1.00  0.00     0.002 C 
BRANCH  24  25
ATOM     25  C   UNL A   1      40.181  20.121  26.157  1.00  0.00     0.021 C 
BRANCH  25  26
ATOM     26  C   UNL A   1      41.393  19.560  26.892  1.00  0.00     0.116 C 
BRANCH  26  27
ATOM     27  N   UNL A   1      42.418  19.092  25.974  1.00  0.00    -0.352 N 
ATOM     28  C   UNL A   1      43.375  19.812  25.301  1.00  0.00     0.251 C 
ATOM     29  H   UNL A   1      42.426  18.121  25.811  1.00  0.00     0.163 HD
ATOM     30  O   UNL A   1      44.022  19.283  24.405  1.00  0.00    -0.269 OA
BRANCH  28  31
ATOM     31  C   UNL A   1      43.606  21.228  25.654  1.00  0.00     0.039 A 
ATOM     32  C   UNL A   1      43.901  21.558  26.979  1.00  0.00     0.014 A 
ATOM     33  C   UNL A   1      43.535  22.228  24.679  1.00  0.00     0.014 A 
ATOM     34  C   UNL A   1      44.181  22.884  27.313  1.00  0.00     0.010 A 
ATOM     35  C   UNL A   1      43.891  23.534  24.999  1.00  0.00     0.010 A 
ATOM     36  C   UNL A   1      44.213  23.878  26.321  1.00  0.00    -0.014 A 
BRANCH  36  37
ATOM     37  C   UNL A   1      44.583  25.280  26.644  1.00  0.00     0.031 A 
ATOM     38  C   UNL A   1      45.997  25.755  26.440  1.00  0.00     0.074 A 
ATOM     39  C   UNL A   1      43.661  26.106  27.178  1.00  0.00     0.049 A 
ATOM     40  N   UNL A   1      46.525  26.918  26.724  1.00  0.00    -0.248 NA
ATOM     41  C   UNL A   1      46.947  24.788  25.868  1.00  0.00     0.031 C 
ATOM     42  C   UNL A   1      42.269  25.749  27.463  1.00  0.00     0.029 A 
ATOM     43  N   UNL A   1      43.757  27.413  27.586  1.00  0.00    -0.354 N 
ATOM     44  C   UNL A   1      47.868  26.819  26.376  1.00  0.00     0.074 A 
ATOM     45  C   UNL A   1      48.085  25.464  25.917  1.00  0.00     0.031 C 
ATOM     46  C   UNL A   1      41.636  26.816  27.973  1.00  0.00     0.029 A 
ATOM     47  C   UNL A   1      42.584  27.920  28.096  1.00  0.00     0.049 A 
ATOM     48  H   UNL A   1      44.586  27.938  27.520  1.00  0.00     0.167 HD
ATOM     49  C   UNL A   1      48.826  27.775  26.413  1.00  0.00     0.037 A 
ATOM     50  C   UNL A   1      42.306  29.134  28.612  1.00  0.00     0.037 A 
ATOM     51  C   UNL A   1      48.596  29.127  26.856  1.00  0.00     0.049 A 
ATOM     52  C   UNL A   1      43.392  30.174  28.663  1.00  0.00     0.074 A 
ATOM     53  C   UNL A   1      49.486  30.186  26.881  1.00  0.00     0.029 A 
ATOM     54  N   UNL A   1      47.394  29.604  27.357  1.00  0.00    -0.354 N 
ATOM     55  N   UNL A   1      44.640  30.083  28.268  1.00  0.00    -0.248 NA
ATOM     56  C   UNL A   1      43.033  31.483  29.224  1.00  0.00     0.031 C 
ATOM     57  C   UNL A   1      48.838  31.288  27.449  1.00  0.00     0.029 A 
ATOM     58  C   UNL A   1      47.526  30.934  27.720  1.00  0.00     0.049 A 
ATOM     59  H   UNL A   1      46.567  29.075  27.441  1.00  0.00     0.167 HD
ATOM     60  C   UNL A   1      45.206  31.332  28.502  1.00  0.00     0.074 A 
ATOM     61  C   UNL A   1      44.160  32.163  29.064  1.00  0.00     0.031 C 
ATOM     62  C   UNL A   1      46.473  31.753  28.271  1.00  0.00     0.037 A 
BRANCH  49  63
ATOM     63  C   UNL A   1      50.213  27.394  25.968  1.00  0.00     0.058 A 
ATOM     64  C   UNL A   1      50.586  27.410  24.614  1.00  0.00     0.135 A 
ATOM     65  C   UNL A   1      51.192  27.038  26.909  1.00  0.00     0.135 A 
ATOM     66  F   UNL A   1      49.688  27.728  23.668  1.00  0.00    -0.206 F 
ATOM     67  C   UNL A   1      51.867  27.051  24.207  1.00  0.00     0.059 A 
ATOM     68  C   UNL A   1      52.490  26.709  26.528  1.00  0.00     0.059 A 
ATOM     69  F   UNL A   1      50.894  27.007  28.218  1.00  0.00    -0.206 F 
ATOM     70  C   UNL A   1      52.812  26.701  25.172  1.00  0.00     0.060 A 
BRANCH  70  71
ATOM     71  S   UNL A   1      54.469  26.236  24.625  1.00  0.00     0.124 S 
ATOM     72  O   UNL A   1      54.419  24.783  24.750  1.00  0.00    -0.237 OA
ATOM     73  O   UNL A   1      54.503  26.754  23.262  1.00  0.00    -0.237 OA
ATOM     74  O   UNL A   1      55.344  26.916  25.575  1.00  0.00    -0.744 OA
ENDBRANCH  70  71
ENDBRANCH  49  63
BRANCH  50  75
ATOM     75  C   UNL A   1      40.933  29.437  29.104  1.00  0.00     0.058 A 
ATOM     76  C   UNL A   1      39.871  29.625  28.207  1.00  0.00     0.135 A 
ATOM     77  C   UNL A   1      40.654  29.536  30.476  1.00  0.00     0.135 A 
ATOM     78  F   UNL A   1      40.088  29.547  26.885  1.00  0.00    -0.206 F 
ATOM     79  C   UNL A   1      38.586  29.919  28.650  1.00  0.00     0.059 A 
ATOM     80  C   UNL A   1      39.371  29.801  30.944  1.00  0.00     0.059 A 
ATOM     81  F   UNL A   1      41.631  29.346  31.377  1.00  0.00    -0.206 F 
ATOM     82  C   UNL A   1      38.346  30.002  30.022  1.00  0.00     0.060 A 
BRANCH  82  83
ATOM     83  S   UNL A   1      36.663  30.338  30.586  1.00  0.00     0.124 S 
ATOM     84  O   UNL A   1      36.689  31.788  30.741  1.00  0.00    -0.237 OA
ATOM     85  O   UNL A   1      35.862  29.827  29.478  1.00  0.00    -0.237 OA
ATOM     86  O   UNL A   1      36.565  29.571  31.824  1.00  0.00    -0.744 OA
ENDBRANCH  82  83
ENDBRANCH  50  75
BRANCH  62  87
ATOM     87  C   UNL A   1      46.797  33.189  28.583  1.00  0.00     0.058 A 
ATOM     88  C   UNL A   1      46.546  34.223  27.667  1.00  0.00     0.135 A 
ATOM     89  C   UNL A   1      47.314  33.541  29.842  1.00  0.00     0.135 A 
ATOM     90  F   UNL A   1      46.060  33.943  26.448  1.00  0.00    -0.206 F 
ATOM     91  C   UNL A   1      46.818  35.551  27.979  1.00  0.00     0.059 A 
ATOM     92  C   UNL A   1      47.563  34.866  30.186  1.00  0.00     0.059 A 
ATOM     93  F   UNL A   1      47.563  32.593  30.760  1.00  0.00    -0.206 F 
ATOM     94  C   UNL A   1      47.323  35.864  29.243  1.00  0.00     0.060 A 
BRANCH  94  95
ATOM     95  S   UNL A   1      47.633  37.595  29.647  1.00  0.00     0.124 S 
ATOM     96  O   UNL A   1      46.931  37.732  30.918  1.00  0.00    -0.237 OA
ATOM     97  O   UNL A   1      49.090  37.642  29.719  1.00  0.00    -0.237 OA
ATOM     98  O   UNL A   1      47.043  38.318  28.523  1.00  0.00    -0.744 OA
ENDBRANCH  94  95
ENDBRANCH  62  87
ENDBRANCH  36  37
ENDBRANCH  28  31
ENDBRANCH  26  27
ENDBRANCH  25  26
ENDBRANCH  24  25
ENDBRANCH  23  24
ENDBRANCH   1  23
TORSDOF 21
ENDMDL
MODEL 2
REMARK VINA RESULT:      -9.2      1.180      2.307
REMARK SMILES COC[C@@H](C)N(C)C(=O)N[C@@H]1C=C[C@@H](C(=O)NCCCCCCNC(=O)c2ccc(-c3c4nc(c(-c5c(F)cc(S(=O)(=O)[O-])cc5F)c5ccc([nH]5)c(-c5c(F)cc(S(=O)(=O)[O-])cc5F)c5nc(c(-c6c(F)cc(S(=O)(=O)[O-])cc6F)c6ccc3[nH]6)C=C5)C=C4)cc2)C1
REMARK SMILES IDX 19 1 18 2 17 3 15 4 16 5 14 7 11 8 12 9 93 10 13 11 10 12
REMARK SMILES IDX 8 13 9 14 6 16 7 17 4 18 5 19 3 20 2 21 1 22 20 23 21 24
REMARK SMILES IDX 22 25 23 26 24 27 25 28 26 30 27 31 28 32 92 33 29 34 91 35
REMARK SMILES IDX 30 36 31 37 32 38 85 39 33 40 90 41 84 42 86 43 34 44 89 45
REMARK SMILES IDX 83 46 82 47 35 49 69 50 48 51 68 52 49 53 52 54 67 55 87 56
REMARK SMILES IDX 50 57 51 58 66 60 88 61 53 62 36 63 37 64 46 65 38 66 39 67
REMARK SMILES IDX 45 68 47 69 40 70 41 71 42 72 43 73 44 74 70 75 71 76 80 77
REMARK SMILES IDX 72 78 73 79 79 80 81 81 74 82 75 83 76 84 77 85 78 86 54 87
REMARK SMILES IDX 55 88 64 89 56 90 57 91 63 92 65 93 58 94 59 95 60 96 61 97
REMARK SMILES IDX 62 98
REMARK H PARENT 17 6 10 15 24 29 86 48 52 59
REMARK Flexibility Score: inf
ROOT
ATOM      1  C   UNL A   1      38.616  23.796  26.153  1.00  0.00     0.021 C 
ENDROOT
BRANCH   1   2
ATOM      2  C   UNL A   1      37.340  23.037  25.795  1.00  0.00     0.116 C 
BRANCH   2   3
ATOM      3  N   UNL A   1      37.159  22.961  24.361  1.00  0.00    -0.356 N 
ATOM      4  C   UNL A   1      36.055  23.066  23.578  1.00  0.00     0.227 C 
ATOM      5  O   UNL A   1      36.227  22.954  22.358  1.00  0.00    -0.274 OA
ATOM      6  H   UNL A   1      37.992  22.802  23.860  1.00  0.00     0.163 HD
BRANCH   4   7
ATOM      7  C   UNL A   1      34.650  23.349  24.124  1.00  0.00     0.103 C 
ATOM      8  C   UNL A   1      33.561  22.290  26.068  1.00  0.00     0.107 C 
ATOM      9  C   UNL A   1      34.062  23.665  26.372  1.00  0.00    -0.006 C 
ATOM     10  C   UNL A   1      33.808  22.139  24.554  1.00  0.00     0.047 C 
ATOM     11  C   UNL A   1      34.668  24.235  25.327  1.00  0.00    -0.016 C 
BRANCH   8  12
ATOM     12  N   UNL A   1      32.179  22.219  26.456  1.00  0.00    -0.332 N 
ATOM     13  C   UNL A   1      31.041  22.748  25.966  1.00  0.00     0.317 C 
ATOM     14  O   UNL A   1      30.009  22.318  26.491  1.00  0.00    -0.249 OA
ATOM     15  H   UNL A   1      32.032  21.662  27.255  1.00  0.00     0.165 HD
BRANCH  13  16
ATOM     16  N   UNL A   1      31.016  23.682  24.957  1.00  0.00    -0.323 N 
ATOM     17  C   UNL A   1      31.036  23.421  23.524  1.00  0.00     0.149 C 
BRANCH  16  18
ATOM     18  C   UNL A   1      31.161  25.114  25.332  1.00  0.00     0.109 C 
ATOM     19  C   UNL A   1      29.896  25.608  26.040  1.00  0.00     0.033 C 
BRANCH  18  20
ATOM     20  C   UNL A   1      31.614  25.993  24.140  1.00  0.00     0.184 C 
BRANCH  20  21
ATOM     21  O   UNL A   1      30.625  26.932  23.706  1.00  0.00    -0.383 OA
ATOM     22  C   UNL A   1      31.150  28.012  22.948  1.00  0.00     0.194 C 
ENDBRANCH  20  21
ENDBRANCH  18  20
ENDBRANCH  16  18
ENDBRANCH  13  16
ENDBRANCH   8  12
ENDBRANCH   4   7
ENDBRANCH   2   3
ENDBRANCH   1   2
BRANCH   1  23
ATOM     23  C   UNL A   1      39.387  23.173  27.322  1.00  0.00     0.002 C 
BRANCH  23  24
ATOM     24  C   UNL A   1      40.642  22.392  26.918  1.00  0.00     0.002 C 
BRANCH  24  25
ATOM     25  C   UNL A   1      40.382  20.969  26.416  1.00  0.00     0.021 C 
BRANCH  25  26
ATOM     26  C   UNL A   1      41.234  19.897  27.090  1.00  0.00     0.116 C 
BRANCH  26  27
ATOM     27  N   UNL A   1      42.117  19.232  26.146  1.00  0.00    -0.352 N 
ATOM     28  C   UNL A   1      43.128  19.761  25.382  1.00  0.00     0.251 C 
ATOM     29  H   UNL A   1      41.968  18.265  26.039  1.00  0.00     0.163 HD
ATOM     30  O   UNL A   1      43.630  19.095  24.484  1.00  0.00    -0.269 OA
BRANCH  28  31
ATOM     31  C   UNL A   1      43.593  21.141  25.638  1.00  0.00     0.039 A 
ATOM     32  C   UNL A   1      43.466  22.097  24.628  1.00  0.00     0.014 A 
ATOM     33  C   UNL A   1      44.150  21.490  26.871  1.00  0.00     0.014 A 
ATOM     34  C   UNL A   1      43.844  23.418  24.877  1.00  0.00     0.010 A 
ATOM     35  C   UNL A   1      44.453  22.820  27.143  1.00  0.00     0.010 A 
ATOM     36  C   UNL A   1      44.308  23.798  26.147  1.00  0.00    -0.014 A 
BRANCH  36  37
ATOM     37  C   UNL A   1      44.645  25.212  26.454  1.00  0.00     0.031 A 
ATOM     38  C   UNL A   1      46.054  25.710  26.273  1.00  0.00     0.074 A 
ATOM     39  C   UNL A   1      43.697  26.030  26.954  1.00  0.00     0.049 A 
ATOM     40  N   UNL A   1      46.555  26.886  26.548  1.00  0.00    -0.248 NA
ATOM     41  C   UNL A   1      47.034  24.751  25.738  1.00  0.00     0.031 C 
ATOM     42  C   UNL A   1      42.306  25.652  27.215  1.00  0.00     0.029 A 
ATOM     43  N   UNL A   1      43.760  27.344  27.342  1.00  0.00    -0.354 N 
ATOM     44  C   UNL A   1      47.907  26.807  26.231  1.00  0.00     0.074 A 
ATOM     45  C   UNL A   1      48.158  25.449  25.800  1.00  0.00     0.031 C 
ATOM     46  C   UNL A   1      41.643  26.715  27.694  1.00  0.00     0.029 A 
ATOM     47  C   UNL A   1      42.567  27.838  27.818  1.00  0.00     0.049 A 
ATOM     48  H   UNL A   1      44.581  27.883  27.285  1.00  0.00     0.167 HD
ATOM     49  C   UNL A   1      48.846  27.781  26.273  1.00  0.00     0.037 A 
ATOM     50  C   UNL A   1      42.256  29.055  28.308  1.00  0.00     0.037 A 
ATOM     51  C   UNL A   1      48.582  29.135  26.689  1.00  0.00     0.049 A 
ATOM     52  C   UNL A   1      43.322  30.116  28.364  1.00  0.00     0.074 A 
ATOM     53  C   UNL A   1      49.452  30.211  26.715  1.00  0.00     0.029 A 
ATOM     54  N   UNL A   1      47.361  29.599  27.155  1.00  0.00    -0.354 N 
ATOM     55  N   UNL A   1      44.579  30.041  27.998  1.00  0.00    -0.248 NA
ATOM     56  C   UNL A   1      42.927  31.427  28.896  1.00  0.00     0.031 C 
ATOM     57  C   UNL A   1      48.772  31.310  27.250  1.00  0.00     0.029 A 
ATOM     58  C   UNL A   1      47.461  30.937  27.498  1.00  0.00     0.049 A 
ATOM     59  H   UNL A   1      46.542  29.056  27.230  1.00  0.00     0.167 HD
ATOM     60  C   UNL A   1      45.117  31.304  28.223  1.00  0.00     0.074 A 
ATOM     61  C   UNL A   1      44.045  32.125  28.748  1.00  0.00     0.031 C 
ATOM     62  C   UNL A   1      46.382  31.745  28.012  1.00  0.00     0.037 A 
BRANCH  49  63
ATOM     63  C   UNL A   1      50.249  27.418  25.865  1.00  0.00     0.058 A 
ATOM     64  C   UNL A   1      50.656  27.433  24.520  1.00  0.00     0.135 A 
ATOM     65  C   UNL A   1      51.210  27.081  26.832  1.00  0.00     0.135 A 
ATOM     66  F   UNL A   1      49.777  27.733  23.551  1.00  0.00    -0.206 F 
ATOM     67  C   UNL A   1      51.951  27.091  24.147  1.00  0.00     0.059 A 
ATOM     68  C   UNL A   1      52.521  26.770  26.485  1.00  0.00     0.059 A 
ATOM     69  F   UNL A   1      50.880  27.052  28.133  1.00  0.00    -0.206 F 
ATOM     70  C   UNL A   1      52.878  26.760  25.137  1.00  0.00     0.060 A 
BRANCH  70  71
ATOM     71  S   UNL A   1      54.554  26.317  24.634  1.00  0.00     0.124 S 
ATOM     72  O   UNL A   1      55.351  27.238  25.438  1.00  0.00    -0.237 OA
ATOM     73  O   UNL A   1      54.632  24.912  25.016  1.00  0.00    -0.237 OA
ATOM     74  O   UNL A   1      54.557  26.575  23.198  1.00  0.00    -0.744 OA
ENDBRANCH  70  71
ENDBRANCH  49  63
BRANCH  50  75
ATOM     75  C   UNL A   1      40.868  29.341  28.764  1.00  0.00     0.058 A 
ATOM     76  C   UNL A   1      40.576  29.504  30.127  1.00  0.00     0.135 A 
ATOM     77  C   UNL A   1      39.809  29.466  27.851  1.00  0.00     0.135 A 
ATOM     78  F   UNL A   1      41.553  29.388  31.040  1.00  0.00    -0.206 F 
ATOM     79  C   UNL A   1      39.284  29.761  30.570  1.00  0.00     0.059 A 
ATOM     80  C   UNL A   1      38.513  29.751  28.268  1.00  0.00     0.059 A 
ATOM     81  F   UNL A   1      40.038  29.337  26.534  1.00  0.00    -0.206 F 
ATOM     82  C   UNL A   1      38.258  29.886  29.632  1.00  0.00     0.060 A 
BRANCH  82  83
ATOM     83  S   UNL A   1      36.593  30.266  30.217  1.00  0.00     0.124 S 
ATOM     84  O   UNL A   1      36.698  31.694  30.496  1.00  0.00    -0.237 OA
ATOM     85  O   UNL A   1      35.773  29.898  29.067  1.00  0.00    -0.237 OA
ATOM     86  O   UNL A   1      36.442  29.403  31.385  1.00  0.00    -0.744 OA
ENDBRANCH  82  83
ENDBRANCH  50  75
BRANCH  62  87
ATOM     87  C   UNL A   1      46.672  33.192  28.307  1.00  0.00     0.058 A 
ATOM     88  C   UNL A   1      47.166  33.610  29.553  1.00  0.00     0.135 A 
ATOM     89  C   UNL A   1      46.507  34.165  27.308  1.00  0.00     0.135 A 
ATOM     90  F   UNL A   1      47.336  32.723  30.546  1.00  0.00    -0.206 F 
ATOM     91  C   UNL A   1      47.464  34.946  29.804  1.00  0.00     0.059 A 
ATOM     92  C   UNL A   1      46.829  35.501  27.527  1.00  0.00     0.059 A 
ATOM     93  F   UNL A   1      46.048  33.819  26.095  1.00  0.00    -0.206 F 
ATOM     94  C   UNL A   1      47.296  35.884  28.784  1.00  0.00     0.060 A 
BRANCH  94  95
ATOM     95  S   UNL A   1      47.724  37.606  29.113  1.00  0.00     0.124 S 
ATOM     96  O   UNL A   1      49.107  37.486  29.560  1.00  0.00    -0.237 OA
ATOM     97  O   UNL A   1      47.531  38.230  27.808  1.00  0.00    -0.237 OA
ATOM     98  O   UNL A   1      46.765  38.006  30.139  1.00  0.00    -0.744 OA
ENDBRANCH  94  95
ENDBRANCH  62  87
ENDBRANCH  36  37
ENDBRANCH  28  31
ENDBRANCH  26  27
ENDBRANCH  25  26
ENDBRANCH  24  25
ENDBRANCH  23  24
ENDBRANCH   1  23
TORSDOF 21
ENDMDL
MODEL 3
REMARK VINA RESULT:      -9.2      6.860     12.643
REMARK SMILES COC[C@@H](C)N(C)C(=O)N[C@@H]1C=C[C@@H](C(=O)NCCCCCCNC(=O)c2ccc(-c3c4nc(c(-c5c(F)cc(S(=O)(=O)[O-])cc5F)c5ccc([nH]5)c(-c5c(F)cc(S(=O)(=O)[O-])cc5F)c5nc(c(-c6c(F)cc(S(=O)(=O)[O-])cc6F)c6ccc3[nH]6)C=C5)C=C4)cc2)C1
REMARK SMILES IDX 19 1 18 2 17 3 15 4 16 5 14 7 11 8 12 9 93 10 13 11 10 12
REMARK SMILES IDX 8 13 9 14 6 16 7 17 4 18 5 19 3 20 2 21 1 22 20 23 21 24
REMARK SMILES IDX 22 25 23 26 24 27 25 28 26 30 27 31 28 32 92 33 29 34 91 35
REMARK SMILES IDX 30 36 31 37 32 38 85 39 33 40 90 41 84 42 86 43 34 44 89 45
REMARK SMILES IDX 83 46 82 47 35 49 69 50 48 51 68 52 49 53 52 54 67 55 87 56
REMARK SMILES IDX 50 57 51 58 66 60 88 61 53 62 36 63 37 64 46 65 38 66 39 67
REMARK SMILES IDX 45 68 47 69 40 70 41 71 42 72 43 73 44 74 70 75 71 76 80 77
REMARK SMILES IDX 72 78 73 79 79 80 81 81 74 82 75 83 76 84 77 85 78 86 54 87
REMARK SMILES IDX 55 88 64 89 56 90 57 91 63 92 65 93 58 94 59 95 60 96 61 97
REMARK SMILES IDX 62 98
REMARK H PARENT 17 6 10 15 24 29 86 48 52 59
REMARK Flexibility Score: inf
ROOT
ATOM      1  C   UNL A   1      35.643  31.464  28.910  1.00  0.00     0.021 C 
ENDROOT
BRANCH   1   2
ATOM      2  C   UNL A   1      35.107  31.013  27.552  1.00  0.00     0.116 C 
BRANCH   2   3
ATOM      3  N   UNL A   1      33.763  30.488  27.666  1.00  0.00    -0.356 N 
ATOM      4  C   UNL A   1      33.085  29.563  26.940  1.00  0.00     0.227 C 
ATOM      5  O   UNL A   1      31.924  29.323  27.293  1.00  0.00    -0.274 OA
ATOM      6  H   UNL A   1      33.244  30.875  28.408  1.00  0.00     0.163 HD
BRANCH   4   7
ATOM      7  C   UNL A   1      33.693  28.798  25.759  1.00  0.00     0.103 C 
ATOM      8  C   UNL A   1      32.628  27.019  24.422  1.00  0.00     0.107 C 
ATOM      9  C   UNL A   1      32.652  28.333  23.709  1.00  0.00    -0.006 C 
ATOM     10  C   UNL A   1      33.445  27.284  25.702  1.00  0.00     0.047 C 
ATOM     11  C   UNL A   1      33.213  29.302  24.437  1.00  0.00    -0.016 C 
BRANCH   8  12
ATOM     12  N   UNL A   1      33.190  26.024  23.551  1.00  0.00    -0.332 N 
ATOM     13  C   UNL A   1      33.280  24.681  23.599  1.00  0.00     0.317 C 
ATOM     14  O   UNL A   1      33.702  24.158  22.563  1.00  0.00    -0.249 OA
ATOM     15  H   UNL A   1      33.599  26.408  22.742  1.00  0.00     0.165 HD
BRANCH  13  16
ATOM     16  N   UNL A   1      32.923  23.940  24.701  1.00  0.00    -0.323 N 
ATOM     17  C   UNL A   1      33.821  23.254  25.621  1.00  0.00     0.149 C 
BRANCH  16  18
ATOM     18  C   UNL A   1      31.479  23.643  24.902  1.00  0.00     0.109 C 
ATOM     19  C   UNL A   1      30.734  23.707  23.565  1.00  0.00     0.033 C 
BRANCH  18  20
ATOM     20  C   UNL A   1      30.851  24.500  26.028  1.00  0.00     0.184 C 
BRANCH  20  21
ATOM     21  O   UNL A   1      30.644  23.788  27.251  1.00  0.00    -0.383 OA
ATOM     22  C   UNL A   1      29.537  22.899  27.220  1.00  0.00     0.194 C 
ENDBRANCH  20  21
ENDBRANCH  18  20
ENDBRANCH  16  18
ENDBRANCH  13  16
ENDBRANCH   8  12
ENDBRANCH   4   7
ENDBRANCH   2   3
ENDBRANCH   1   2
BRANCH   1  23
ATOM     23  C   UNL A   1      34.905  32.678  29.483  1.00  0.00     0.002 C 
BRANCH  23  24
ATOM     24  C   UNL A   1      35.250  34.013  28.815  1.00  0.00     0.002 C 
BRANCH  24  25
ATOM     25  C   UNL A   1      34.171  35.092  28.934  1.00  0.00     0.021 C 
BRANCH  25  26
ATOM     26  C   UNL A   1      32.897  34.635  29.637  1.00  0.00     0.116 C 
BRANCH  26  27
ATOM     27  N   UNL A   1      32.528  35.523  30.727  1.00  0.00    -0.352 N 
ATOM     28  C   UNL A   1      33.055  35.611  31.992  1.00  0.00     0.251 C 
ATOM     29  H   UNL A   1      31.795  36.150  30.529  1.00  0.00     0.163 HD
ATOM     30  O   UNL A   1      32.482  36.272  32.850  1.00  0.00    -0.269 OA
BRANCH  28  31
ATOM     31  C   UNL A   1      34.305  34.891  32.314  1.00  0.00     0.039 A 
ATOM     32  C   UNL A   1      35.528  35.540  32.128  1.00  0.00     0.014 A 
ATOM     33  C   UNL A   1      34.270  33.581  32.802  1.00  0.00     0.014 A 
ATOM     34  C   UNL A   1      36.713  34.894  32.486  1.00  0.00     0.010 A 
ATOM     35  C   UNL A   1      35.444  32.970  33.230  1.00  0.00     0.010 A 
ATOM     36  C   UNL A   1      36.679  33.618  33.073  1.00  0.00    -0.014 A 
BRANCH  36  37
ATOM     37  C   UNL A   1      37.923  32.945  33.529  1.00  0.00     0.031 A 
ATOM     38  C   UNL A   1      38.459  33.206  34.912  1.00  0.00     0.074 A 
ATOM     39  C   UNL A   1      38.602  32.150  32.679  1.00  0.00     0.049 A 
ATOM     40  N   UNL A   1      39.559  32.766  35.466  1.00  0.00    -0.248 NA
ATOM     41  C   UNL A   1      37.669  34.099  35.774  1.00  0.00     0.031 C 
ATOM     42  C   UNL A   1      38.205  31.854  31.300  1.00  0.00     0.029 A 
ATOM     43  N   UNL A   1      39.771  31.451  32.843  1.00  0.00    -0.354 N 
ATOM     44  C   UNL A   1      39.599  33.335  36.734  1.00  0.00     0.074 A 
ATOM     45  C   UNL A   1      38.444  34.200  36.844  1.00  0.00     0.031 C 
ATOM     46  C   UNL A   1      39.101  31.016  30.754  1.00  0.00     0.029 A 
ATOM     47  C   UNL A   1      40.158  30.749  31.725  1.00  0.00     0.049 A 
ATOM     48  H   UNL A   1      40.285  31.452  33.683  1.00  0.00     0.167 HD
ATOM     49  C   UNL A   1      40.502  33.139  37.724  1.00  0.00     0.037 A 
ATOM     50  C   UNL A   1      41.245  29.984  31.503  1.00  0.00     0.037 A 
ATOM     51  C   UNL A   1      41.641  32.263  37.611  1.00  0.00     0.049 A 
ATOM     52  C   UNL A   1      42.247  29.797  32.612  1.00  0.00     0.074 A 
ATOM     53  C   UNL A   1      42.584  31.953  38.574  1.00  0.00     0.029 A 
ATOM     54  N   UNL A   1      41.994  31.564  36.466  1.00  0.00    -0.354 N 
ATOM     55  N   UNL A   1      42.233  30.291  33.827  1.00  0.00    -0.248 NA
ATOM     56  C   UNL A   1      43.407  28.945  32.322  1.00  0.00     0.031 C 
ATOM     57  C   UNL A   1      43.539  31.110  37.995  1.00  0.00     0.029 A 
ATOM     58  C   UNL A   1      43.156  30.845  36.690  1.00  0.00     0.049 A 
ATOM     59  H   UNL A   1      41.492  31.576  35.619  1.00  0.00     0.167 HD
ATOM     60  C   UNL A   1      43.365  29.784  34.457  1.00  0.00     0.074 A 
ATOM     61  C   UNL A   1      44.033  28.936  33.491  1.00  0.00     0.031 C 
ATOM     62  C   UNL A   1      43.808  29.997  35.720  1.00  0.00     0.037 A 
BRANCH  49  63
ATOM     63  C   UNL A   1      40.300  33.888  39.014  1.00  0.00     0.058 A 
ATOM     64  C   UNL A   1      40.976  35.089  39.287  1.00  0.00     0.135 A 
ATOM     65  C   UNL A   1      39.395  33.417  39.978  1.00  0.00     0.135 A 
ATOM     66  F   UNL A   1      41.865  35.580  38.409  1.00  0.00    -0.206 F 
ATOM     67  C   UNL A   1      40.790  35.774  40.483  1.00  0.00     0.059 A 
ATOM     68  C   UNL A   1      39.167  34.104  41.167  1.00  0.00     0.059 A 
ATOM     69  F   UNL A   1      38.718  32.276  39.772  1.00  0.00    -0.206 F 
ATOM     70  C   UNL A   1      39.883  35.273  41.418  1.00  0.00     0.060 A 
BRANCH  70  71
ATOM     71  S   UNL A   1      39.657  36.174  42.966  1.00  0.00     0.124 S 
ATOM     72  O   UNL A   1      40.812  35.724  43.736  1.00  0.00    -0.237 OA
ATOM     73  O   UNL A   1      39.693  37.564  42.525  1.00  0.00    -0.237 OA
ATOM     74  O   UNL A   1      38.362  35.704  43.447  1.00  0.00    -0.744 OA
ENDBRANCH  70  71
ENDBRANCH  49  63
BRANCH  50  75
ATOM     75  C   UNL A   1      41.434  29.322  30.183  1.00  0.00     0.058 A 
ATOM     76  C   UNL A   1      42.155  29.950  29.157  1.00  0.00     0.135 A 
ATOM     77  C   UNL A   1      40.906  28.047  29.924  1.00  0.00     0.135 A 
ATOM     78  F   UNL A   1      42.674  31.172  29.355  1.00  0.00    -0.206 F 
ATOM     79  C   UNL A   1      42.331  29.349  27.916  1.00  0.00     0.059 A 
ATOM     80  C   UNL A   1      41.093  27.414  28.700  1.00  0.00     0.059 A 
ATOM     81  F   UNL A   1      40.223  27.394  30.878  1.00  0.00    -0.206 F 
ATOM     82  C   UNL A   1      41.798  28.078  27.698  1.00  0.00     0.060 A 
BRANCH  82  83
ATOM     83  S   UNL A   1      42.074  27.289  26.097  1.00  0.00     0.124 S 
ATOM     84  O   UNL A   1      42.428  28.431  25.263  1.00  0.00    -0.237 OA
ATOM     85  O   UNL A   1      43.155  26.356  26.398  1.00  0.00    -0.237 OA
ATOM     86  O   UNL A   1      40.785  26.668  25.803  1.00  0.00    -0.744 OA
ENDBRANCH  82  83
ENDBRANCH  50  75
BRANCH  62  87
ATOM     87  C   UNL A   1      45.054  29.272  36.152  1.00  0.00     0.058 A 
ATOM     88  C   UNL A   1      45.011  27.973  36.682  1.00  0.00     0.135 A 
ATOM     89  C   UNL A   1      46.315  29.867  35.980  1.00  0.00     0.135 A 
ATOM     90  F   UNL A   1      43.832  27.360  36.875  1.00  0.00    -0.206 F 
ATOM     91  C   UNL A   1      46.172  27.299  37.047  1.00  0.00     0.059 A 
ATOM     92  C   UNL A   1      47.491  29.199  36.307  1.00  0.00     0.059 A 
ATOM     93  F   UNL A   1      46.415  31.104  35.468  1.00  0.00    -0.206 F 
ATOM     94  C   UNL A   1      47.408  27.918  36.852  1.00  0.00     0.060 A 
BRANCH  94  95
ATOM     95  S   UNL A   1      48.907  27.016  37.293  1.00  0.00     0.124 S 
ATOM     96  O   UNL A   1      48.360  25.748  37.763  1.00  0.00    -0.237 OA
ATOM     97  O   UNL A   1      49.625  26.964  36.023  1.00  0.00    -0.237 OA
ATOM     98  O   UNL A   1      49.520  27.854  38.319  1.00  0.00    -0.744 OA
ENDBRANCH  94  95
ENDBRANCH  62  87
ENDBRANCH  36  37
ENDBRANCH  28  31
ENDBRANCH  26  27
ENDBRANCH  25  26
ENDBRANCH  24  25
ENDBRANCH  23  24
ENDBRANCH   1  23
TORSDOF 21
ENDMDL
