MODEL 1
REMARK VINA RESULT:     -11.6      0.000      0.000
REMARK SMILES CC1(C)[C@H](C(=O)Nc2ccc(NC(=O)C[NH+]3CCCCC3)cc2)[C@@H]1C(=O)NCCCCCCNC(=O)c1ccc(-c2c3nc(c(-c4c(F)cc(S(=O)(=O)[O-])cc4F)c4ccc([nH]4)c(-c4c(F)cc(S(=O)(=O)[O-])cc4F)c4nc(c(-c5c(F)cc(S(=O)(=O)[O-])cc5F)c5ccc2[nH]5)C=C4)C=C3)cc1
REMARK SMILES IDX 29 1 28 2 27 3 25 4 26 5 24 7 1 8 2 9 3 10 4 11 5 12 6 13
REMARK SMILES IDX 7 14 8 16 9 17 23 18 10 19 22 20 11 21 12 22 13 23 14 25
REMARK SMILES IDX 15 26 16 27 17 28 21 29 18 31 20 32 19 33 30 34 31 35 32 36
REMARK SMILES IDX 33 37 34 38 35 39 36 41 37 42 38 43 102 44 39 45 101 46
REMARK SMILES IDX 40 47 41 48 42 49 95 50 43 51 100 52 94 53 96 54 44 55 99 56
REMARK SMILES IDX 93 57 92 58 45 60 79 61 58 62 78 63 59 64 62 65 77 66 97 67
REMARK SMILES IDX 60 68 61 69 76 71 98 72 63 73 46 74 47 75 56 76 48 77 49 78
REMARK SMILES IDX 55 79 57 80 50 81 51 82 52 83 53 84 54 85 80 86 81 87 90 88
REMARK SMILES IDX 82 89 83 90 89 91 91 92 84 93 85 94 86 95 87 96 88 97 64 98
REMARK SMILES IDX 65 99 74 100 66 101 67 102 73 103 75 104 68 105 69 106
REMARK SMILES IDX 70 107 71 108 72 109
REMARK H PARENT 27 6 7 15 12 24 16 30 34 40 96 59 62 70
REMARK Flexibility Score: inf
ROOT
ATOM      1  C   UNL A   1      38.855  23.064  26.219  1.00  0.00     0.021 C 
ENDROOT
BRANCH   1   2
ATOM      2  C   UNL A   1      37.555  22.714  25.499  1.00  0.00     0.116 C 
BRANCH   2   3
ATOM      3  N   UNL A   1      36.522  22.266  26.409  1.00  0.00    -0.356 N 
ATOM      4  C   UNL A   1      35.272  21.787  26.111  1.00  0.00     0.224 C 
ATOM      5  O   UNL A   1      34.516  21.462  27.016  1.00  0.00    -0.275 OA
ATOM      6  H   UNL A   1      36.745  22.311  27.366  1.00  0.00     0.163 HD
BRANCH   4   7
ATOM      7  C   UNL A   1      34.816  21.825  24.705  1.00  0.00     0.098 C 
ATOM      8  C   UNL A   1      34.729  23.323  22.567  1.00  0.00     0.013 C 
ATOM      9  C   UNL A   1      34.308  23.100  24.011  1.00  0.00    -0.011 C 
ATOM     10  C   UNL A   1      34.183  24.400  24.743  1.00  0.00     0.013 C 
ATOM     11  C   UNL A   1      33.392  21.918  24.224  1.00  0.00     0.098 C 
BRANCH  11  12
ATOM     12  C   UNL A   1      32.144  21.653  24.994  1.00  0.00     0.228 C 
ATOM     13  O   UNL A   1      32.070  20.526  25.495  1.00  0.00    -0.274 OA
ATOM     14  N   UNL A   1      31.134  22.498  25.363  1.00  0.00    -0.326 N 
ATOM     15  H   UNL A   1      30.510  22.103  26.014  1.00  0.00     0.169 HD
BRANCH  14  16
ATOM     16  C   UNL A   1      30.807  23.796  25.009  1.00  0.00     0.041 A 
ATOM     17  C   UNL A   1      30.714  24.105  23.662  1.00  0.00     0.028 A 
ATOM     18  C   UNL A   1      30.734  24.812  25.949  1.00  0.00     0.028 A 
ATOM     19  C   UNL A   1      30.308  25.374  23.262  1.00  0.00     0.028 A 
ATOM     20  C   UNL A   1      30.371  26.103  25.545  1.00  0.00     0.028 A 
ATOM     21  C   UNL A   1      30.135  26.392  24.194  1.00  0.00     0.041 A 
BRANCH  21  22
ATOM     22  N   UNL A   1      29.693  27.687  23.874  1.00  0.00    -0.321 N 
ATOM     23  C   UNL A   1      30.326  28.771  23.326  1.00  0.00     0.279 C 
ATOM     24  H   UNL A   1      28.744  27.845  24.084  1.00  0.00     0.170 HD
ATOM     25  O   UNL A   1      29.626  29.737  22.992  1.00  0.00    -0.268 OA
BRANCH  23  26
ATOM     26  C   UNL A   1      31.853  28.840  23.162  1.00  0.00     0.363 C 
BRANCH  26  27
ATOM     27  N   UNL A   1      32.492  29.260  24.418  1.00  0.00    -0.327 N 
ATOM     28  C   UNL A   1      31.556  29.836  25.382  1.00  0.00     0.262 C 
ATOM     29  C   UNL A   1      33.307  28.202  25.021  1.00  0.00     0.262 C 
ATOM     30  H   UNL A   1      33.128  30.013  24.152  1.00  0.00     0.348 HD
ATOM     31  C   UNL A   1      32.347  30.500  26.511  1.00  0.00     0.062 C 
ATOM     32  C   UNL A   1      34.142  28.771  26.168  1.00  0.00     0.062 C 
ATOM     33  C   UNL A   1      33.278  29.502  27.192  1.00  0.00     0.012 C 
ENDBRANCH  26  27
ENDBRANCH  23  26
ENDBRANCH  21  22
ENDBRANCH  14  16
ENDBRANCH  11  12
ENDBRANCH   4   7
ENDBRANCH   2   3
ENDBRANCH   1   2
BRANCH   1  34
ATOM     34  C   UNL A   1      39.794  21.890  26.530  1.00  0.00     0.002 C 
BRANCH  34  35
ATOM     35  C   UNL A   1      40.644  22.001  27.798  1.00  0.00     0.002 C 
BRANCH  35  36
ATOM     36  C   UNL A   1      42.157  22.050  27.599  1.00  0.00     0.021 C 
BRANCH  36  37
ATOM     37  C   UNL A   1      42.770  23.444  27.606  1.00  0.00     0.116 C 
BRANCH  37  38
ATOM     38  N   UNL A   1      42.631  24.130  26.332  1.00  0.00    -0.352 N 
ATOM     39  C   UNL A   1      42.152  25.392  26.074  1.00  0.00     0.251 C 
ATOM     40  H   UNL A   1      42.921  23.618  25.543  1.00  0.00     0.163 HD
ATOM     41  O   UNL A   1      41.987  25.756  24.913  1.00  0.00    -0.269 OA
BRANCH  39  42
ATOM     42  C   UNL A   1      41.804  26.296  27.194  1.00  0.00     0.039 A 
ATOM     43  C   UNL A   1      40.790  25.916  28.077  1.00  0.00     0.014 A 
ATOM     44  C   UNL A   1      42.479  27.505  27.380  1.00  0.00     0.014 A 
ATOM     45  C   UNL A   1      40.501  26.715  29.186  1.00  0.00     0.010 A 
ATOM     46  C   UNL A   1      42.239  28.264  28.523  1.00  0.00     0.010 A 
ATOM     47  C   UNL A   1      41.249  27.876  29.438  1.00  0.00    -0.014 A 
BRANCH  47  48
ATOM     48  C   UNL A   1      41.016  28.697  30.656  1.00  0.00     0.031 A 
ATOM     49  C   UNL A   1      39.927  29.733  30.670  1.00  0.00     0.074 A 
ATOM     50  C   UNL A   1      41.833  28.557  31.719  1.00  0.00     0.049 A 
ATOM     51  N   UNL A   1      39.624  30.600  31.603  1.00  0.00    -0.248 NA
ATOM     52  C   UNL A   1      39.082  29.825  29.469  1.00  0.00     0.031 C 
ATOM     53  C   UNL A   1      42.956  27.620  31.808  1.00  0.00     0.029 A 
ATOM     54  N   UNL A   1      41.854  29.213  32.925  1.00  0.00    -0.354 N 
ATOM     55  C   UNL A   1      38.568  31.349  31.095  1.00  0.00     0.074 A 
ATOM     56  C   UNL A   1      38.316  30.868  29.755  1.00  0.00     0.031 C 
ATOM     57  C   UNL A   1      43.542  27.749  33.009  1.00  0.00     0.029 A 
ATOM     58  C   UNL A   1      42.864  28.801  33.762  1.00  0.00     0.049 A 
ATOM     59  H   UNL A   1      41.206  29.913  33.168  1.00  0.00     0.167 HD
ATOM     60  C   UNL A   1      37.860  32.333  31.700  1.00  0.00     0.037 A 
ATOM     61  C   UNL A   1      43.212  29.226  34.991  1.00  0.00     0.037 A 
ATOM     62  C   UNL A   1      38.100  32.789  33.044  1.00  0.00     0.049 A 
ATOM     63  C   UNL A   1      42.409  30.318  35.643  1.00  0.00     0.074 A 
ATOM     64  C   UNL A   1      37.400  33.739  33.768  1.00  0.00     0.029 A 
ATOM     65  N   UNL A   1      39.117  32.330  33.868  1.00  0.00    -0.354 N 
ATOM     66  N   UNL A   1      41.376  30.974  35.172  1.00  0.00    -0.248 NA
ATOM     67  C   UNL A   1      42.816  30.726  36.996  1.00  0.00     0.031 C 
ATOM     68  C   UNL A   1      38.018  33.881  35.015  1.00  0.00     0.029 A 
ATOM     69  C   UNL A   1      39.075  32.989  35.085  1.00  0.00     0.049 A 
ATOM     70  H   UNL A   1      39.772  31.638  33.622  1.00  0.00     0.167 HD
ATOM     71  C   UNL A   1      40.993  31.854  36.178  1.00  0.00     0.074 A 
ATOM     72  C   UNL A   1      41.899  31.639  37.288  1.00  0.00     0.031 C 
ATOM     73  C   UNL A   1      39.982  32.758  36.182  1.00  0.00     0.037 A 
BRANCH  60  74
ATOM     74  C   UNL A   1      36.755  32.979  30.911  1.00  0.00     0.058 A 
ATOM     75  C   UNL A   1      37.017  33.971  29.952  1.00  0.00     0.135 A 
ATOM     76  C   UNL A   1      35.419  32.586  31.096  1.00  0.00     0.135 A 
ATOM     77  F   UNL A   1      38.273  34.395  29.744  1.00  0.00    -0.206 F 
ATOM     78  C   UNL A   1      35.993  34.576  29.230  1.00  0.00     0.059 A 
ATOM     79  C   UNL A   1      34.381  33.157  30.365  1.00  0.00     0.059 A 
ATOM     80  F   UNL A   1      35.112  31.641  31.999  1.00  0.00    -0.206 F 
ATOM     81  C   UNL A   1      34.677  34.164  29.446  1.00  0.00     0.060 A 
BRANCH  81  82
ATOM     82  S   UNL A   1      33.358  34.961  28.507  1.00  0.00     0.124 S 
ATOM     83  O   UNL A   1      32.766  33.823  27.813  1.00  0.00    -0.237 OA
ATOM     84  O   UNL A   1      32.539  35.554  29.561  1.00  0.00    -0.237 OA
ATOM     85  O   UNL A   1      34.070  35.913  27.661  1.00  0.00    -0.744 OA
ENDBRANCH  81  82
ENDBRANCH  60  74
BRANCH  61  86
ATOM     86  C   UNL A   1      44.361  28.598  35.697  1.00  0.00     0.058 A 
ATOM     87  C   UNL A   1      44.168  27.503  36.553  1.00  0.00     0.135 A 
ATOM     88  C   UNL A   1      45.672  29.061  35.514  1.00  0.00     0.135 A 
ATOM     89  F   UNL A   1      42.931  27.028  36.765  1.00  0.00    -0.206 F 
ATOM     90  C   UNL A   1      45.231  26.899  37.214  1.00  0.00     0.059 A 
ATOM     91  C   UNL A   1      46.756  28.458  36.145  1.00  0.00     0.059 A 
ATOM     92  F   UNL A   1      45.912  30.095  34.691  1.00  0.00    -0.206 F 
ATOM     93  C   UNL A   1      46.524  27.382  37.000  1.00  0.00     0.060 A 
BRANCH  93  94
ATOM     94  S   UNL A   1      47.904  26.554  37.820  1.00  0.00     0.124 S 
ATOM     95  O   UNL A   1      47.586  26.775  39.225  1.00  0.00    -0.237 OA
ATOM     96  O   UNL A   1      47.767  25.182  37.341  1.00  0.00    -0.237 OA
ATOM     97  O   UNL A   1      49.071  27.272  37.315  1.00  0.00    -0.744 OA
ENDBRANCH  93  94
ENDBRANCH  61  86
BRANCH  73  98
ATOM     98  C   UNL A   1      39.777  33.562  37.436  1.00  0.00     0.058 A 
ATOM     99  C   UNL A   1      38.887  33.147  38.439  1.00  0.00     0.135 A 
ATOM    100  C   UNL A   1      40.522  34.730  37.662  1.00  0.00     0.135 A 
ATOM    101  F   UNL A   1      38.146  32.041  38.270  1.00  0.00    -0.206 F 
ATOM    102  C   UNL A   1      38.731  33.873  39.616  1.00  0.00     0.059 A 
ATOM    103  C   UNL A   1      40.402  35.457  38.842  1.00  0.00     0.059 A 
ATOM    104  F   UNL A   1      41.394  35.165  36.738  1.00  0.00    -0.206 F 
ATOM    105  C   UNL A   1      39.495  35.026  39.809  1.00  0.00     0.060 A 
BRANCH 105 106
ATOM    106  S   UNL A   1      39.313  35.936  41.358  1.00  0.00     0.124 S 
ATOM    107  O   UNL A   1      38.841  37.232  40.883  1.00  0.00    -0.237 OA
ATOM    108  O   UNL A   1      38.334  35.131  42.082  1.00  0.00    -0.237 OA
ATOM    109  O   UNL A   1      40.662  35.924  41.918  1.00  0.00    -0.744 OA
ENDBRANCH 105 106
ENDBRANCH  73  98
ENDBRANCH  47  48
ENDBRANCH  39  42
ENDBRANCH  37  38
ENDBRANCH  36  37
ENDBRANCH  35  36
ENDBRANCH  34  35
ENDBRANCH   1  34
TORSDOF 21
ENDMDL
MODEL 2
REMARK VINA RESULT:     -11.4      6.195     10.991
REMARK SMILES CC1(C)[C@H](C(=O)Nc2ccc(NC(=O)C[NH+]3CCCCC3)cc2)[C@@H]1C(=O)NCCCCCCNC(=O)c1ccc(-c2c3nc(c(-c4c(F)cc(S(=O)(=O)[O-])cc4F)c4ccc([nH]4)c(-c4c(F)cc(S(=O)(=O)[O-])cc4F)c4nc(c(-c5c(F)cc(S(=O)(=O)[O-])cc5F)c5ccc2[nH]5)C=C4)C=C3)cc1
REMARK SMILES IDX 29 1 28 2 27 3 25 4 26 5 24 7 1 8 2 9 3 10 4 11 5 12 6 13
REMARK SMILES IDX 7 14 8 16 9 17 23 18 10 19 22 20 11 21 12 22 13 23 14 25
REMARK SMILES IDX 15 26 16 27 17 28 21 29 18 31 20 32 19 33 30 34 31 35 32 36
REMARK SMILES IDX 33 37 34 38 35 39 36 41 37 42 38 43 102 44 39 45 101 46
REMARK SMILES IDX 40 47 41 48 42 49 95 50 43 51 100 52 94 53 96 54 44 55 99 56
REMARK SMILES IDX 93 57 92 58 45 60 79 61 58 62 78 63 59 64 62 65 77 66 97 67
REMARK SMILES IDX 60 68 61 69 76 71 98 72 63 73 46 74 47 75 56 76 48 77 49 78
REMARK SMILES IDX 55 79 57 80 50 81 51 82 52 83 53 84 54 85 80 86 81 87 90 88
REMARK SMILES IDX 82 89 83 90 89 91 91 92 84 93 85 94 86 95 87 96 88 97 64 98
REMARK SMILES IDX 65 99 74 100 66 101 67 102 73 103 75 104 68 105 69 106
REMARK SMILES IDX 70 107 71 108 72 109
REMARK H PARENT 27 6 7 15 12 24 16 30 34 40 96 59 62 70
REMARK Flexibility Score: inf
ROOT
ATOM      1  C   UNL A   1      32.305  27.810  24.561  1.00  0.00     0.021 C 
ENDROOT
BRANCH   1   2
ATOM      2  C   UNL A   1      33.689  27.633  23.940  1.00  0.00     0.116 C 
BRANCH   2   3
ATOM      3  N   UNL A   1      33.727  26.557  22.972  1.00  0.00    -0.356 N 
ATOM      4  C   UNL A   1      34.032  25.236  23.176  1.00  0.00     0.224 C 
ATOM      5  O   UNL A   1      34.028  24.459  22.232  1.00  0.00    -0.275 OA
ATOM      6  H   UNL A   1      33.505  26.806  22.046  1.00  0.00     0.163 HD
BRANCH   4   7
ATOM      7  C   UNL A   1      34.514  24.820  24.511  1.00  0.00     0.098 C 
ATOM      8  C   UNL A   1      36.654  24.169  25.860  1.00  0.00     0.013 C 
ATOM      9  C   UNL A   1      35.692  23.854  24.726  1.00  0.00    -0.011 C 
ATOM     10  C   UNL A   1      36.405  23.213  23.577  1.00  0.00     0.013 C 
ATOM     11  C   UNL A   1      34.296  23.482  25.168  1.00  0.00     0.098 C 
BRANCH  11  12
ATOM     12  C   UNL A   1      33.300  22.435  24.809  1.00  0.00     0.228 C 
ATOM     13  O   UNL A   1      33.735  21.279  24.809  1.00  0.00    -0.274 OA
ATOM     14  N   UNL A   1      31.948  22.526  24.622  1.00  0.00    -0.326 N 
ATOM     15  H   UNL A   1      31.502  21.650  24.558  1.00  0.00     0.169 HD
BRANCH  14  16
ATOM     16  C   UNL A   1      31.077  23.595  24.504  1.00  0.00     0.041 A 
ATOM     17  C   UNL A   1      30.773  24.057  23.233  1.00  0.00     0.028 A 
ATOM     18  C   UNL A   1      30.638  24.305  25.611  1.00  0.00     0.028 A 
ATOM     19  C   UNL A   1      29.839  25.075  23.064  1.00  0.00     0.028 A 
ATOM     20  C   UNL A   1      29.734  25.361  25.442  1.00  0.00     0.028 A 
ATOM     21  C   UNL A   1      29.310  25.744  24.163  1.00  0.00     0.041 A 
BRANCH  21  22
ATOM     22  N   UNL A   1      28.338  26.756  24.076  1.00  0.00    -0.321 N 
ATOM     23  C   UNL A   1      28.288  27.932  23.376  1.00  0.00     0.279 C 
ATOM     24  H   UNL A   1      27.539  26.585  24.625  1.00  0.00     0.170 HD
ATOM     25  O   UNL A   1      27.211  28.545  23.359  1.00  0.00    -0.268 OA
BRANCH  23  26
ATOM     26  C   UNL A   1      29.517  28.524  22.667  1.00  0.00     0.363 C 
BRANCH  26  27
ATOM     27  N   UNL A   1      29.293  29.939  22.333  1.00  0.00    -0.327 N 
ATOM     28  C   UNL A   1      28.219  30.143  21.361  1.00  0.00     0.262 C 
ATOM     29  C   UNL A   1      29.115  30.780  23.519  1.00  0.00     0.262 C 
ATOM     30  H   UNL A   1      30.153  30.243  21.876  1.00  0.00     0.348 HD
ATOM     31  C   UNL A   1      28.262  31.590  20.866  1.00  0.00     0.062 C 
ATOM     32  C   UNL A   1      29.145  32.257  23.125  1.00  0.00     0.062 C 
ATOM     33  C   UNL A   1      28.135  32.573  22.026  1.00  0.00     0.012 C 
ENDBRANCH  26  27
ENDBRANCH  23  26
ENDBRANCH  21  22
ENDBRANCH  14  16
ENDBRANCH  11  12
ENDBRANCH   4   7
ENDBRANCH   2   3
ENDBRANCH   1   2
BRANCH   1  34
ATOM     34  C   UNL A   1      32.268  28.042  26.078  1.00  0.00     0.002 C 
BRANCH  34  35
ATOM     35  C   UNL A   1      33.616  28.148  26.795  1.00  0.00     0.002 C 
BRANCH  35  36
ATOM     36  C   UNL A   1      34.102  29.559  27.119  1.00  0.00     0.021 C 
BRANCH  36  37
ATOM     37  C   UNL A   1      35.441  29.636  27.842  1.00  0.00     0.116 C 
BRANCH  37  38
ATOM     38  N   UNL A   1      35.336  30.216  29.170  1.00  0.00    -0.352 N 
ATOM     39  C   UNL A   1      36.321  30.433  30.103  1.00  0.00     0.251 C 
ATOM     40  H   UNL A   1      34.430  30.493  29.438  1.00  0.00     0.163 HD
ATOM     41  O   UNL A   1      36.021  30.818  31.229  1.00  0.00    -0.269 OA
BRANCH  39  42
ATOM     42  C   UNL A   1      37.737  30.170  29.760  1.00  0.00     0.039 A 
ATOM     43  C   UNL A   1      38.630  29.845  30.784  1.00  0.00     0.014 A 
ATOM     44  C   UNL A   1      38.181  30.234  28.436  1.00  0.00     0.014 A 
ATOM     45  C   UNL A   1      39.951  29.514  30.472  1.00  0.00     0.010 A 
ATOM     46  C   UNL A   1      39.478  29.835  28.120  1.00  0.00     0.010 A 
ATOM     47  C   UNL A   1      40.376  29.470  29.135  1.00  0.00    -0.014 A 
BRANCH  47  48
ATOM     48  C   UNL A   1      41.752  29.041  28.774  1.00  0.00     0.031 A 
ATOM     49  C   UNL A   1      42.873  30.044  28.744  1.00  0.00     0.074 A 
ATOM     50  C   UNL A   1      41.976  27.764  28.403  1.00  0.00     0.049 A 
ATOM     51  N   UNL A   1      44.118  29.881  28.375  1.00  0.00    -0.248 NA
ATOM     52  C   UNL A   1      42.545  31.417  29.159  1.00  0.00     0.031 C 
ATOM     53  C   UNL A   1      40.961  26.710  28.344  1.00  0.00     0.029 A 
ATOM     54  N   UNL A   1      43.127  27.139  27.992  1.00  0.00    -0.354 N 
ATOM     55  C   UNL A   1      44.716  31.130  28.498  1.00  0.00     0.074 A 
ATOM     56  C   UNL A   1      43.686  32.050  28.927  1.00  0.00     0.031 C 
ATOM     57  C   UNL A   1      41.538  25.566  27.941  1.00  0.00     0.029 A 
ATOM     58  C   UNL A   1      42.953  25.812  27.675  1.00  0.00     0.049 A 
ATOM     59  H   UNL A   1      43.995  27.598  27.929  1.00  0.00     0.167 HD
ATOM     60  C   UNL A   1      46.010  31.473  28.292  1.00  0.00     0.037 A 
ATOM     61  C   UNL A   1      43.830  24.899  27.216  1.00  0.00     0.037 A 
ATOM     62  C   UNL A   1      47.036  30.546  27.891  1.00  0.00     0.049 A 
ATOM     63  C   UNL A   1      45.263  25.303  26.998  1.00  0.00     0.074 A 
ATOM     64  C   UNL A   1      48.388  30.783  27.714  1.00  0.00     0.029 A 
ATOM     65  N   UNL A   1      46.825  29.206  27.604  1.00  0.00    -0.354 N 
ATOM     66  N   UNL A   1      45.824  26.475  27.176  1.00  0.00    -0.248 NA
ATOM     67  C   UNL A   1      46.182  24.261  26.520  1.00  0.00     0.031 C 
ATOM     68  C   UNL A   1      48.987  29.595  27.282  1.00  0.00     0.029 A 
ATOM     69  C   UNL A   1      48.017  28.606  27.234  1.00  0.00     0.049 A 
ATOM     70  H   UNL A   1      45.955  28.748  27.656  1.00  0.00     0.167 HD
ATOM     71  C   UNL A   1      47.166  26.306  26.857  1.00  0.00     0.074 A 
ATOM     72  C   UNL A   1      47.335  24.916  26.485  1.00  0.00     0.031 C 
ATOM     73  C   UNL A   1      48.169  27.219  26.872  1.00  0.00     0.037 A 
BRANCH  60  74
ATOM     74  C   UNL A   1      46.389  32.913  28.504  1.00  0.00     0.058 A 
ATOM     75  C   UNL A   1      46.341  33.849  27.458  1.00  0.00     0.135 A 
ATOM     76  C   UNL A   1      46.783  33.370  29.773  1.00  0.00     0.135 A 
ATOM     77  F   UNL A   1      45.985  33.463  26.222  1.00  0.00    -0.206 F 
ATOM     78  C   UNL A   1      46.702  35.178  27.652  1.00  0.00     0.059 A 
ATOM     79  C   UNL A   1      47.121  34.702  29.996  1.00  0.00     0.059 A 
ATOM     80  F   UNL A   1      46.846  32.519  30.808  1.00  0.00    -0.206 F 
ATOM     81  C   UNL A   1      47.094  35.595  28.925  1.00  0.00     0.060 A 
BRANCH  81  82
ATOM     82  S   UNL A   1      47.566  37.321  29.161  1.00  0.00     0.124 S 
ATOM     83  O   UNL A   1      48.036  37.307  30.542  1.00  0.00    -0.237 OA
ATOM     84  O   UNL A   1      48.597  37.505  28.143  1.00  0.00    -0.237 OA
ATOM     85  O   UNL A   1      46.323  38.049  28.928  1.00  0.00    -0.744 OA
ENDBRANCH  81  82
ENDBRANCH  60  74
BRANCH  61  86
ATOM     86  C   UNL A   1      43.381  23.505  26.956  1.00  0.00     0.058 A 
ATOM     87  C   UNL A   1      43.125  23.064  25.650  1.00  0.00     0.135 A 
ATOM     88  C   UNL A   1      43.221  22.583  28.001  1.00  0.00     0.135 A 
ATOM     89  F   UNL A   1      43.258  23.911  24.618  1.00  0.00    -0.206 F 
ATOM     90  C   UNL A   1      42.713  21.762  25.388  1.00  0.00     0.059 A 
ATOM     91  C   UNL A   1      42.833  21.268  27.763  1.00  0.00     0.059 A 
ATOM     92  F   UNL A   1      43.471  22.951  29.268  1.00  0.00    -0.206 F 
ATOM     93  C   UNL A   1      42.573  20.869  26.453  1.00  0.00     0.060 A 
BRANCH  93  94
ATOM     94  S   UNL A   1      42.091  19.165  26.096  1.00  0.00     0.124 S 
ATOM     95  O   UNL A   1      42.958  18.845  24.969  1.00  0.00    -0.237 OA
ATOM     96  O   UNL A   1      42.400  18.490  27.353  1.00  0.00    -0.237 OA
ATOM     97  O   UNL A   1      40.668  19.278  25.789  1.00  0.00    -0.744 OA
ENDBRANCH  93  94
ENDBRANCH  61  86
BRANCH  73  98
ATOM     98  C   UNL A   1      49.547  26.740  26.507  1.00  0.00     0.058 A 
ATOM     99  C   UNL A   1      50.388  26.130  27.451  1.00  0.00     0.135 A 
ATOM    100  C   UNL A   1      50.007  26.842  25.185  1.00  0.00     0.135 A 
ATOM    101  F   UNL A   1      49.998  26.015  28.730  1.00  0.00    -0.206 F 
ATOM    102  C   UNL A   1      51.646  25.653  27.098  1.00  0.00     0.059 A 
ATOM    103  C   UNL A   1      51.252  26.348  24.805  1.00  0.00     0.059 A 
ATOM    104  F   UNL A   1      49.238  27.408  24.242  1.00  0.00    -0.206 F 
ATOM    105  C   UNL A   1      52.068  25.764  25.773  1.00  0.00     0.060 A 
BRANCH 105 106
ATOM    106  S   UNL A   1      53.687  25.103  25.320  1.00  0.00     0.124 S 
ATOM    107  O   UNL A   1      53.438  23.666  25.361  1.00  0.00    -0.237 OA
ATOM    108  O   UNL A   1      53.898  25.672  23.993  1.00  0.00    -0.237 OA
ATOM    109  O   UNL A   1      54.567  25.619  26.363  1.00  0.00    -0.744 OA
ENDBRANCH 105 106
ENDBRANCH  73  98
ENDBRANCH  47  48
ENDBRANCH  39  42
ENDBRANCH  37  38
ENDBRANCH  36  37
ENDBRANCH  35  36
ENDBRANCH  34  35
ENDBRANCH   1  34
TORSDOF 21
ENDMDL
MODEL 3
REMARK VINA RESULT:     -11.3      1.164      8.011
REMARK SMILES CC1(C)[C@H](C(=O)Nc2ccc(NC(=O)C[NH+]3CCCCC3)cc2)[C@@H]1C(=O)NCCCCCCNC(=O)c1ccc(-c2c3nc(c(-c4c(F)cc(S(=O)(=O)[O-])cc4F)c4ccc([nH]4)c(-c4c(F)cc(S(=O)(=O)[O-])cc4F)c4nc(c(-c5c(F)cc(S(=O)(=O)[O-])cc5F)c5ccc2[nH]5)C=C4)C=C3)cc1
REMARK SMILES IDX 29 1 28 2 27 3 25 4 26 5 24 7 1 8 2 9 3 10 4 11 5 12 6 13
REMARK SMILES IDX 7 14 8 16 9 17 23 18 10 19 22 20 11 21 12 22 13 23 14 25
REMARK SMILES IDX 15 26 16 27 17 28 21 29 18 31 20 32 19 33 30 34 31 35 32 36
REMARK SMILES IDX 33 37 34 38 35 39 36 41 37 42 38 43 102 44 39 45 101 46
REMARK SMILES IDX 40 47 41 48 42 49 95 50 43 51 100 52 94 53 96 54 44 55 99 56
REMARK SMILES IDX 93 57 92 58 45 60 79 61 58 62 78 63 59 64 62 65 77 66 97 67
REMARK SMILES IDX 60 68 61 69 76 71 98 72 63 73 46 74 47 75 56 76 48 77 49 78
REMARK SMILES IDX 55 79 57 80 50 81 51 82 52 83 53 84 54 85 80 86 81 87 90 88
REMARK SMILES IDX 82 89 83 90 89 91 91 92 84 93 85 94 86 95 87 96 88 97 64 98
REMARK SMILES IDX 65 99 74 100 66 101 67 102 73 103 75 104 68 105 69 106
REMARK SMILES IDX 70 107 71 108 72 109
REMARK H PARENT 27 6 7 15 12 24 16 30 34 40 96 59 62 70
REMARK Flexibility Score: inf
ROOT
ATOM      1  C   UNL A   1      38.832  22.516  26.134  1.00  0.00     0.021 C 
ENDROOT
BRANCH   1   2
ATOM      2  C   UNL A   1      37.640  21.888  25.416  1.00  0.00     0.116 C 
BRANCH   2   3
ATOM      3  N   UNL A   1      36.524  21.645  26.306  1.00  0.00    -0.356 N 
ATOM      4  C   UNL A   1      35.196  21.512  25.992  1.00  0.00     0.224 C 
ATOM      5  O   UNL A   1      34.379  21.320  26.881  1.00  0.00    -0.275 OA
ATOM      6  H   UNL A   1      36.747  21.564  27.261  1.00  0.00     0.163 HD
BRANCH   4   7
ATOM      7  C   UNL A   1      34.770  21.763  24.598  1.00  0.00     0.098 C 
ATOM      8  C   UNL A   1      35.055  23.394  22.578  1.00  0.00     0.013 C 
ATOM      9  C   UNL A   1      34.586  23.171  24.007  1.00  0.00    -0.011 C 
ATOM     10  C   UNL A   1      34.772  24.404  24.834  1.00  0.00     0.013 C 
ATOM     11  C   UNL A   1      33.412  22.230  24.144  1.00  0.00     0.098 C 
BRANCH  11  12
ATOM     12  C   UNL A   1      32.133  22.214  24.908  1.00  0.00     0.228 C 
ATOM     13  O   UNL A   1      31.685  21.088  25.151  1.00  0.00    -0.274 OA
ATOM     14  N   UNL A   1      31.449  23.233  25.512  1.00  0.00    -0.326 N 
ATOM     15  H   UNL A   1      30.719  22.923  26.095  1.00  0.00     0.169 HD
BRANCH  14  16
ATOM     16  C   UNL A   1      31.572  24.611  25.471  1.00  0.00     0.041 A 
ATOM     17  C   UNL A   1      31.506  25.240  24.239  1.00  0.00     0.028 A 
ATOM     18  C   UNL A   1      31.916  25.346  26.596  1.00  0.00     0.028 A 
ATOM     19  C   UNL A   1      31.542  26.629  24.160  1.00  0.00     0.028 A 
ATOM     20  C   UNL A   1      31.999  26.742  26.511  1.00  0.00     0.028 A 
ATOM     21  C   UNL A   1      31.793  27.399  25.291  1.00  0.00     0.041 A 
BRANCH  21  22
ATOM     22  N   UNL A   1      31.808  28.804  25.299  1.00  0.00    -0.321 N 
ATOM     23  C   UNL A   1      30.971  29.742  24.754  1.00  0.00     0.279 C 
ATOM     24  H   UNL A   1      32.568  29.190  25.794  1.00  0.00     0.170 HD
ATOM     25  O   UNL A   1      31.143  30.925  25.080  1.00  0.00    -0.268 OA
BRANCH  23  26
ATOM     26  C   UNL A   1      29.881  29.380  23.733  1.00  0.00     0.363 C 
BRANCH  26  27
ATOM     27  N   UNL A   1      29.493  30.561  22.946  1.00  0.00    -0.327 N 
ATOM     28  C   UNL A   1      28.693  30.235  21.766  1.00  0.00     0.262 C 
ATOM     29  C   UNL A   1      28.858  31.600  23.760  1.00  0.00     0.262 C 
ATOM     30  H   UNL A   1      30.371  30.947  22.598  1.00  0.00     0.348 HD
ATOM     31  C   UNL A   1      28.595  31.473  20.872  1.00  0.00     0.062 C 
ATOM     32  C   UNL A   1      28.716  32.888  22.948  1.00  0.00     0.062 C 
ATOM     33  C   UNL A   1      27.989  32.651  21.628  1.00  0.00     0.012 C 
ENDBRANCH  26  27
ENDBRANCH  23  26
ENDBRANCH  21  22
ENDBRANCH  14  16
ENDBRANCH  11  12
ENDBRANCH   4   7
ENDBRANCH   2   3
ENDBRANCH   1   2
BRANCH   1  34
ATOM     34  C   UNL A   1      39.926  21.548  26.605  1.00  0.00     0.002 C 
BRANCH  34  35
ATOM     35  C   UNL A   1      40.788  21.999  27.787  1.00  0.00     0.002 C 
BRANCH  35  36
ATOM     36  C   UNL A   1      42.300  21.922  27.593  1.00  0.00     0.021 C 
BRANCH  36  37
ATOM     37  C   UNL A   1      42.989  23.250  27.304  1.00  0.00     0.116 C 
BRANCH  37  38
ATOM     38  N   UNL A   1      42.438  23.933  26.146  1.00  0.00    -0.352 N 
ATOM     39  C   UNL A   1      41.789  25.143  26.080  1.00  0.00     0.251 C 
ATOM     40  H   UNL A   1      42.546  23.463  25.288  1.00  0.00     0.163 HD
ATOM     41  O   UNL A   1      41.275  25.503  25.025  1.00  0.00    -0.269 OA
BRANCH  39  42
ATOM     42  C   UNL A   1      41.681  25.992  27.288  1.00  0.00     0.039 A 
ATOM     43  C   UNL A   1      42.627  27.000  27.490  1.00  0.00     0.014 A 
ATOM     44  C   UNL A   1      40.648  25.804  28.211  1.00  0.00     0.014 A 
ATOM     45  C   UNL A   1      42.497  27.864  28.581  1.00  0.00     0.010 A 
ATOM     46  C   UNL A   1      40.480  26.709  29.256  1.00  0.00     0.010 A 
ATOM     47  C   UNL A   1      41.401  27.749  29.451  1.00  0.00    -0.014 A 
BRANCH  47  48
ATOM     48  C   UNL A   1      41.197  28.708  30.568  1.00  0.00     0.031 A 
ATOM     49  C   UNL A   1      42.033  28.605  31.814  1.00  0.00     0.074 A 
ATOM     50  C   UNL A   1      40.210  29.623  30.489  1.00  0.00     0.049 A 
ATOM     51  N   UNL A   1      41.949  29.292  32.925  1.00  0.00    -0.248 NA
ATOM     52  C   UNL A   1      43.086  27.577  31.823  1.00  0.00     0.031 C 
ATOM     53  C   UNL A   1      39.300  29.790  29.353  1.00  0.00     0.029 A 
ATOM     54  N   UNL A   1      39.798  30.577  31.386  1.00  0.00    -0.354 N 
ATOM     55  C   UNL A   1      42.924  28.770  33.768  1.00  0.00     0.074 A 
ATOM     56  C   UNL A   1      43.553  27.677  33.060  1.00  0.00     0.031 C 
ATOM     57  C   UNL A   1      38.451  30.797  29.614  1.00  0.00     0.029 A 
ATOM     58  C   UNL A   1      38.729  31.322  30.948  1.00  0.00     0.049 A 
ATOM     59  H   UNL A   1      40.227  30.713  32.261  1.00  0.00     0.167 HD
ATOM     60  C   UNL A   1      43.276  29.179  35.010  1.00  0.00     0.037 A 
ATOM     61  C   UNL A   1      38.044  32.311  31.554  1.00  0.00     0.037 A 
ATOM     62  C   UNL A   1      42.663  30.285  35.699  1.00  0.00     0.049 A 
ATOM     63  C   UNL A   1      38.456  32.750  32.933  1.00  0.00     0.074 A 
ATOM     64  C   UNL A   1      42.988  30.815  36.935  1.00  0.00     0.029 A 
ATOM     65  N   UNL A   1      41.600  31.031  35.212  1.00  0.00    -0.354 N 
ATOM     66  N   UNL A   1      39.418  32.285  33.692  1.00  0.00    -0.248 NA
ATOM     67  C   UNL A   1      37.690  33.850  33.537  1.00  0.00     0.031 C 
ATOM     68  C   UNL A   1      42.097  31.856  37.213  1.00  0.00     0.029 A 
ATOM     69  C   UNL A   1      41.244  32.005  36.130  1.00  0.00     0.049 A 
ATOM     70  H   UNL A   1      41.162  30.888  34.342  1.00  0.00     0.167 HD
ATOM     71  C   UNL A   1      39.392  33.051  34.852  1.00  0.00     0.074 A 
ATOM     72  C   UNL A   1      38.325  34.017  34.690  1.00  0.00     0.031 C 
ATOM     73  C   UNL A   1      40.182  32.963  35.951  1.00  0.00     0.037 A 
BRANCH  60  74
ATOM     74  C   UNL A   1      44.380  28.428  35.702  1.00  0.00     0.058 A 
ATOM     75  C   UNL A   1      45.729  28.779  35.531  1.00  0.00     0.135 A 
ATOM     76  C   UNL A   1      44.087  27.359  36.565  1.00  0.00     0.135 A 
ATOM     77  F   UNL A   1      46.067  29.784  34.707  1.00  0.00    -0.206 F 
ATOM     78  C   UNL A   1      46.751  28.077  36.163  1.00  0.00     0.059 A 
ATOM     79  C   UNL A   1      45.092  26.660  37.229  1.00  0.00     0.059 A 
ATOM     80  F   UNL A   1      42.815  26.981  36.765  1.00  0.00    -0.206 F 
ATOM     81  C   UNL A   1      46.422  27.017  37.008  1.00  0.00     0.060 A 
BRANCH  81  82
ATOM     82  S   UNL A   1      47.758  26.110  37.816  1.00  0.00     0.124 S 
ATOM     83  O   UNL A   1      47.108  24.837  38.110  1.00  0.00    -0.237 OA
ATOM     84  O   UNL A   1      48.782  26.072  36.776  1.00  0.00    -0.237 OA
ATOM     85  O   UNL A   1      48.076  26.936  38.976  1.00  0.00    -0.744 OA
ENDBRANCH  81  82
ENDBRANCH  60  74
BRANCH  61  86
ATOM     86  C   UNL A   1      36.914  32.971  30.848  1.00  0.00     0.058 A 
ATOM     87  C   UNL A   1      35.589  32.576  31.085  1.00  0.00     0.135 A 
ATOM     88  C   UNL A   1      37.131  34.020  29.942  1.00  0.00     0.135 A 
ATOM     89  F   UNL A   1      35.331  31.572  31.938  1.00  0.00    -0.206 F 
ATOM     90  C   UNL A   1      34.519  33.187  30.440  1.00  0.00     0.059 A 
ATOM     91  C   UNL A   1      36.076  34.664  29.302  1.00  0.00     0.059 A 
ATOM     92  F   UNL A   1      38.379  34.448  29.694  1.00  0.00    -0.206 F 
ATOM     93  C   UNL A   1      34.773  34.234  29.551  1.00  0.00     0.060 A 
BRANCH  93  94
ATOM     94  S   UNL A   1      33.374  35.058  28.761  1.00  0.00     0.124 S 
ATOM     95  O   UNL A   1      32.744  33.951  28.052  1.00  0.00    -0.237 OA
ATOM     96  O   UNL A   1      32.640  35.583  29.908  1.00  0.00    -0.237 OA
ATOM     97  O   UNL A   1      34.012  36.068  27.921  1.00  0.00    -0.744 OA
ENDBRANCH  93  94
ENDBRANCH  61  86
BRANCH  73  98
ATOM     98  C   UNL A   1      39.946  33.957  37.054  1.00  0.00     0.058 A 
ATOM     99  C   UNL A   1      40.525  35.235  37.029  1.00  0.00     0.135 A 
ATOM    100  C   UNL A   1      39.085  33.646  38.118  1.00  0.00     0.135 A 
ATOM    101  F   UNL A   1      41.361  35.579  36.038  1.00  0.00    -0.206 F 
ATOM    102  C   UNL A   1      40.271  36.166  38.032  1.00  0.00     0.059 A 
ATOM    103  C   UNL A   1      38.796  34.570  39.118  1.00  0.00     0.059 A 
ATOM    104  F   UNL A   1      38.498  32.441  38.184  1.00  0.00    -0.206 F 
ATOM    105  C   UNL A   1      39.403  35.825  39.071  1.00  0.00     0.060 A 
BRANCH 105 106
ATOM    106  S   UNL A   1      39.050  37.056  40.344  1.00  0.00     0.124 S 
ATOM    107  O   UNL A   1      40.383  37.320  40.875  1.00  0.00    -0.237 OA
ATOM    108  O   UNL A   1      38.448  38.139  39.574  1.00  0.00    -0.237 OA
ATOM    109  O   UNL A   1      38.140  36.357  41.247  1.00  0.00    -0.744 OA
ENDBRANCH 105 106
ENDBRANCH  73  98
ENDBRANCH  47  48
ENDBRANCH  39  42
ENDBRANCH  37  38
ENDBRANCH  36  37
ENDBRANCH  35  36
ENDBRANCH  34  35
ENDBRANCH   1  34
TORSDOF 21
ENDMDL
