MODEL 1
REMARK VINA RESULT:     -10.8      0.000      0.000
REMARK SMILES O=CN[C@@H](Cc1cc(Cl)ccc1[N+](=O)[O-])C(=O)NCCCCCCNC(=O)c1ccc(-c2c3nc(c(-c4c(F)cc(S(=O)(=O)[O-])cc4F)c4ccc([nH]4)c(-c4c(F)cc(S(=O)(=O)[O-])cc4F)c4nc(c(-c5c(F)cc(S(=O)(=O)[O-])cc5F)c5ccc2[nH]5)C=C4)C=C3)cc1
REMARK SMILES IDX 21 1 20 2 19 3 18 4 16 5 17 6 4 8 3 9 1 10 2 11 5 13 6 14
REMARK SMILES IDX 7 15 12 16 8 17 11 18 9 19 10 20 13 21 14 22 15 23 22 24
REMARK SMILES IDX 23 25 24 26 25 27 26 28 27 30 28 31 29 32 93 33 30 34 92 35
REMARK SMILES IDX 31 36 32 37 33 38 86 39 34 40 91 41 85 42 87 43 35 44 90 45
REMARK SMILES IDX 84 46 83 47 36 49 70 50 49 51 69 52 50 53 53 54 68 55 88 56
REMARK SMILES IDX 51 57 52 58 67 60 89 61 54 62 37 63 38 64 47 65 39 66 40 67
REMARK SMILES IDX 46 68 48 69 41 70 42 71 43 72 44 73 45 74 71 75 72 76 81 77
REMARK SMILES IDX 73 78 74 79 80 80 82 81 75 82 76 83 77 84 78 85 79 86 55 87
REMARK SMILES IDX 56 88 65 89 57 90 58 91 64 92 66 93 59 94 60 95 61 96 62 97
REMARK SMILES IDX 63 98
REMARK H PARENT 18 7 3 12 25 29 87 48 53 59
REMARK Flexibility Score: inf
ROOT
ATOM      1  C   UNL A   1      33.730  32.853  28.019  1.00  0.00     0.002 C 
ENDROOT
BRANCH   1   2
ATOM      2  C   UNL A   1      34.007  31.392  27.651  1.00  0.00     0.021 C 
BRANCH   2   3
ATOM      3  C   UNL A   1      32.908  30.660  26.855  1.00  0.00     0.116 C 
BRANCH   3   4
ATOM      4  N   UNL A   1      33.471  29.849  25.776  1.00  0.00    -0.354 N 
ATOM      5  C   UNL A   1      33.048  29.078  24.751  1.00  0.00     0.242 C 
ATOM      6  O   UNL A   1      33.974  28.488  24.164  1.00  0.00    -0.273 OA
ATOM      7  H   UNL A   1      34.456  29.873  25.806  1.00  0.00     0.163 HD
BRANCH   5   8
ATOM      8  C   UNL A   1      31.600  28.835  24.215  1.00  0.00     0.175 C 
BRANCH   8   9
ATOM      9  N   UNL A   1      31.281  29.431  22.917  1.00  0.00    -0.347 N 
ATOM     10  O   UNL A   1      29.801  29.888  21.264  1.00  0.00    -0.279 OA
ATOM     11  C   UNL A   1      30.017  29.592  22.436  1.00  0.00     0.337 C 
ATOM     12  H   UNL A   1      32.029  29.736  22.355  1.00  0.00     0.164 HD
ENDBRANCH   8   9
BRANCH   8  13
ATOM     13  C   UNL A   1      30.859  27.520  24.466  1.00  0.00     0.078 C 
BRANCH  13  14
ATOM     14  C   UNL A   1      31.411  26.118  24.319  1.00  0.00     0.034 A 
ATOM     15  C   UNL A   1      31.065  25.257  25.389  1.00  0.00     0.031 A 
ATOM     16  C   UNL A   1      32.209  25.556  23.308  1.00  0.00     0.272 A 
ATOM     17  C   UNL A   1      31.582  23.965  25.498  1.00  0.00     0.041 A 
ATOM     18  C   UNL A   1      32.776  24.275  23.438  1.00  0.00     0.087 A 
ATOM     19  Cl  UNL A   1      31.106  22.970  26.814  1.00  0.00    -0.084 Cl
ATOM     20  C   UNL A   1      32.476  23.488  24.549  1.00  0.00     0.027 A 
BRANCH  16  21
ATOM     21  N   UNL A   1      32.410  26.186  22.018  1.00  0.00     0.062 N 
ATOM     22  O   UNL A   1      31.413  26.561  21.397  1.00  0.00    -0.258 OA
ATOM     23  O   UNL A   1      33.579  26.288  21.633  1.00  0.00    -0.258 OA
ENDBRANCH  16  21
ENDBRANCH  13  14
ENDBRANCH   8  13
ENDBRANCH   5   8
ENDBRANCH   3   4
ENDBRANCH   2   3
ENDBRANCH   1   2
BRANCH   1  24
ATOM     24  C   UNL A   1      34.944  33.785  28.043  1.00  0.00     0.002 C 
BRANCH  24  25
ATOM     25  C   UNL A   1      36.299  33.142  28.367  1.00  0.00     0.021 C 
BRANCH  25  26
ATOM     26  C   UNL A   1      36.703  33.106  29.843  1.00  0.00     0.116 C 
BRANCH  26  27
ATOM     27  N   UNL A   1      36.180  31.942  30.541  1.00  0.00    -0.352 N 
ATOM     28  C   UNL A   1      36.642  30.652  30.621  1.00  0.00     0.251 C 
ATOM     29  H   UNL A   1      35.350  32.109  31.044  1.00  0.00     0.163 HD
ATOM     30  O   UNL A   1      35.907  29.788  31.099  1.00  0.00    -0.269 OA
BRANCH  28  31
ATOM     31  C   UNL A   1      37.992  30.274  30.141  1.00  0.00     0.039 A 
ATOM     32  C   UNL A   1      39.075  30.404  31.018  1.00  0.00     0.014 A 
ATOM     33  C   UNL A   1      38.220  29.874  28.821  1.00  0.00     0.014 A 
ATOM     34  C   UNL A   1      40.366  30.081  30.592  1.00  0.00     0.010 A 
ATOM     35  C   UNL A   1      39.501  29.489  28.416  1.00  0.00     0.010 A 
ATOM     36  C   UNL A   1      40.590  29.591  29.295  1.00  0.00    -0.014 A 
BRANCH  36  37
ATOM     37  C   UNL A   1      41.952  29.176  28.859  1.00  0.00     0.031 A 
ATOM     38  C   UNL A   1      43.083  30.170  28.811  1.00  0.00     0.074 A 
ATOM     39  C   UNL A   1      42.161  27.903  28.465  1.00  0.00     0.049 A 
ATOM     40  N   UNL A   1      44.325  29.992  28.439  1.00  0.00    -0.248 NA
ATOM     41  C   UNL A   1      42.773  31.552  29.210  1.00  0.00     0.031 C 
ATOM     42  C   UNL A   1      41.136  26.857  28.415  1.00  0.00     0.029 A 
ATOM     43  N   UNL A   1      43.299  27.271  28.029  1.00  0.00    -0.354 N 
ATOM     44  C   UNL A   1      44.941  31.234  28.549  1.00  0.00     0.074 A 
ATOM     45  C   UNL A   1      43.922  32.169  28.973  1.00  0.00     0.031 C 
ATOM     46  C   UNL A   1      41.697  25.710  27.999  1.00  0.00     0.029 A 
ATOM     47  C   UNL A   1      43.111  25.944  27.721  1.00  0.00     0.049 A 
ATOM     48  H   UNL A   1      44.168  27.726  27.943  1.00  0.00     0.167 HD
ATOM     49  C   UNL A   1      46.240  31.560  28.340  1.00  0.00     0.037 A 
ATOM     50  C   UNL A   1      43.977  25.017  27.268  1.00  0.00     0.037 A 
ATOM     51  C   UNL A   1      47.257  30.620  27.940  1.00  0.00     0.049 A 
ATOM     52  C   UNL A   1      45.416  25.401  27.055  1.00  0.00     0.074 A 
ATOM     53  C   UNL A   1      48.612  30.840  27.761  1.00  0.00     0.029 A 
ATOM     54  N   UNL A   1      47.030  29.281  27.653  1.00  0.00    -0.354 N 
ATOM     55  N   UNL A   1      45.993  26.566  27.230  1.00  0.00    -0.248 NA
ATOM     56  C   UNL A   1      46.323  24.343  26.590  1.00  0.00     0.031 C 
ATOM     57  C   UNL A   1      49.196  29.645  27.324  1.00  0.00     0.029 A 
ATOM     58  C   UNL A   1      48.215  28.669  27.277  1.00  0.00     0.049 A 
ATOM     59  H   UNL A   1      46.155  28.833  27.708  1.00  0.00     0.167 HD
ATOM     60  C   UNL A   1      47.334  26.377  26.915  1.00  0.00     0.074 A 
ATOM     61  C   UNL A   1      47.486  24.980  26.560  1.00  0.00     0.031 C 
ATOM     62  C   UNL A   1      48.349  27.278  26.917  1.00  0.00     0.037 A 
BRANCH  49  63
ATOM     63  C   UNL A   1      46.642  32.998  28.547  1.00  0.00     0.058 A 
ATOM     64  C   UNL A   1      47.073  33.469  29.798  1.00  0.00     0.135 A 
ATOM     65  C   UNL A   1      46.631  33.907  27.476  1.00  0.00     0.135 A 
ATOM     66  F   UNL A   1      47.092  32.649  30.860  1.00  0.00    -0.206 F 
ATOM     67  C   UNL A   1      47.449  34.796  29.988  1.00  0.00     0.059 A 
ATOM     68  C   UNL A   1      47.029  35.232  27.636  1.00  0.00     0.059 A 
ATOM     69  F   UNL A   1      46.231  33.511  26.258  1.00  0.00    -0.206 F 
ATOM     70  C   UNL A   1      47.422  35.670  28.900  1.00  0.00     0.060 A 
BRANCH  70  71
ATOM     71  S   UNL A   1      47.913  37.388  29.163  1.00  0.00     0.124 S 
ATOM     72  O   UNL A   1      46.723  38.103  28.713  1.00  0.00    -0.237 OA
ATOM     73  O   UNL A   1      48.168  37.423  30.600  1.00  0.00    -0.237 OA
ATOM     74  O   UNL A   1      49.093  37.538  28.318  1.00  0.00    -0.744 OA
ENDBRANCH  70  71
ENDBRANCH  49  63
BRANCH  50  75
ATOM     75  C   UNL A   1      43.512  23.627  27.012  1.00  0.00     0.058 A 
ATOM     76  C   UNL A   1      43.293  22.732  28.069  1.00  0.00     0.135 A 
ATOM     77  C   UNL A   1      43.258  23.173  25.708  1.00  0.00     0.135 A 
ATOM     78  F   UNL A   1      43.527  23.117  29.332  1.00  0.00    -0.206 F 
ATOM     79  C   UNL A   1      42.855  21.432  27.844  1.00  0.00     0.059 A 
ATOM     80  C   UNL A   1      42.794  21.885  25.460  1.00  0.00     0.059 A 
ATOM     81  F   UNL A   1      43.434  23.996  24.662  1.00  0.00    -0.206 F 
ATOM     82  C   UNL A   1      42.605  21.017  26.535  1.00  0.00     0.060 A 
BRANCH  82  83
ATOM     83  S   UNL A   1      41.981  19.345  26.258  1.00  0.00     0.124 S 
ATOM     84  O   UNL A   1      42.281  18.705  27.532  1.00  0.00    -0.237 OA
ATOM     85  O   UNL A   1      40.569  19.587  25.980  1.00  0.00    -0.237 OA
ATOM     86  O   UNL A   1      42.764  18.881  25.116  1.00  0.00    -0.744 OA
ENDBRANCH  82  83
ENDBRANCH  50  75
BRANCH  62  87
ATOM     87  C   UNL A   1      49.714  26.774  26.538  1.00  0.00     0.058 A 
ATOM     88  C   UNL A   1      50.159  26.787  25.206  1.00  0.00     0.135 A 
ATOM     89  C   UNL A   1      50.595  26.291  27.519  1.00  0.00     0.135 A 
ATOM     90  F   UNL A   1      49.354  27.232  24.229  1.00  0.00    -0.206 F 
ATOM     91  C   UNL A   1      51.416  26.306  24.856  1.00  0.00     0.059 A 
ATOM     92  C   UNL A   1      51.868  25.832  27.195  1.00  0.00     0.059 A 
ATOM     93  F   UNL A   1      50.224  26.268  28.809  1.00  0.00    -0.206 F 
ATOM     94  C   UNL A   1      52.262  25.826  25.857  1.00  0.00     0.060 A 
BRANCH  94  95
ATOM     95  S   UNL A   1      53.894  25.210  25.391  1.00  0.00     0.124 S 
ATOM     96  O   UNL A   1      53.547  24.103  24.506  1.00  0.00    -0.237 OA
ATOM     97  O   UNL A   1      54.497  26.372  24.746  1.00  0.00    -0.237 OA
ATOM     98  O   UNL A   1      54.491  24.830  26.668  1.00  0.00    -0.744 OA
ENDBRANCH  94  95
ENDBRANCH  62  87
ENDBRANCH  36  37
ENDBRANCH  28  31
ENDBRANCH  26  27
ENDBRANCH  25  26
ENDBRANCH  24  25
ENDBRANCH   1  24
TORSDOF 20
ENDMDL
MODEL 2
REMARK VINA RESULT:     -10.5      1.454      2.130
REMARK SMILES O=CN[C@@H](Cc1cc(Cl)ccc1[N+](=O)[O-])C(=O)NCCCCCCNC(=O)c1ccc(-c2c3nc(c(-c4c(F)cc(S(=O)(=O)[O-])cc4F)c4ccc([nH]4)c(-c4c(F)cc(S(=O)(=O)[O-])cc4F)c4nc(c(-c5c(F)cc(S(=O)(=O)[O-])cc5F)c5ccc2[nH]5)C=C4)C=C3)cc1
REMARK SMILES IDX 21 1 20 2 19 3 18 4 16 5 17 6 4 8 3 9 1 10 2 11 5 13 6 14
REMARK SMILES IDX 7 15 12 16 8 17 11 18 9 19 10 20 13 21 14 22 15 23 22 24
REMARK SMILES IDX 23 25 24 26 25 27 26 28 27 30 28 31 29 32 93 33 30 34 92 35
REMARK SMILES IDX 31 36 32 37 33 38 86 39 34 40 91 41 85 42 87 43 35 44 90 45
REMARK SMILES IDX 84 46 83 47 36 49 70 50 49 51 69 52 50 53 53 54 68 55 88 56
REMARK SMILES IDX 51 57 52 58 67 60 89 61 54 62 37 63 38 64 47 65 39 66 40 67
REMARK SMILES IDX 46 68 48 69 41 70 42 71 43 72 44 73 45 74 71 75 72 76 81 77
REMARK SMILES IDX 73 78 74 79 80 80 82 81 75 82 76 83 77 84 78 85 79 86 55 87
REMARK SMILES IDX 56 88 65 89 57 90 58 91 64 92 66 93 59 94 60 95 61 96 62 97
REMARK SMILES IDX 63 98
REMARK H PARENT 18 7 3 12 25 29 87 48 53 59
REMARK Flexibility Score: inf
ROOT
ATOM      1  C   UNL A   1      34.051  32.372  28.188  1.00  0.00     0.002 C 
ENDROOT
BRANCH   1   2
ATOM      2  C   UNL A   1      34.611  31.069  27.608  1.00  0.00     0.021 C 
BRANCH   2   3
ATOM      3  C   UNL A   1      33.584  29.986  27.225  1.00  0.00     0.116 C 
BRANCH   3   4
ATOM      4  N   UNL A   1      33.524  29.785  25.778  1.00  0.00    -0.354 N 
ATOM      5  C   UNL A   1      33.280  28.793  24.894  1.00  0.00     0.242 C 
ATOM      6  O   UNL A   1      33.472  29.130  23.710  1.00  0.00    -0.273 OA
ATOM      7  H   UNL A   1      33.720  30.627  25.305  1.00  0.00     0.163 HD
BRANCH   5   8
ATOM      8  C   UNL A   1      32.801  27.326  25.145  1.00  0.00     0.175 C 
BRANCH   8   9
ATOM      9  N   UNL A   1      31.769  26.818  24.240  1.00  0.00    -0.347 N 
ATOM     10  O   UNL A   1      29.590  26.559  23.677  1.00  0.00    -0.279 OA
ATOM     11  C   UNL A   1      30.455  27.168  24.301  1.00  0.00     0.337 C 
ATOM     12  H   UNL A   1      32.043  26.182  23.541  1.00  0.00     0.164 HD
ENDBRANCH   8   9
BRANCH   8  13
ATOM     13  C   UNL A   1      33.762  26.237  25.625  1.00  0.00     0.078 C 
BRANCH  13  14
ATOM     14  C   UNL A   1      33.787  24.786  25.194  1.00  0.00     0.034 A 
ATOM     15  C   UNL A   1      34.998  24.402  24.565  1.00  0.00     0.031 A 
ATOM     16  C   UNL A   1      32.807  23.785  25.307  1.00  0.00     0.272 A 
ATOM     17  C   UNL A   1      35.166  23.143  23.986  1.00  0.00     0.041 A 
ATOM     18  C   UNL A   1      32.949  22.534  24.679  1.00  0.00     0.087 A 
ATOM     19  Cl  UNL A   1      36.667  22.741  23.255  1.00  0.00    -0.084 Cl
ATOM     20  C   UNL A   1      34.126  22.225  23.998  1.00  0.00     0.027 A 
BRANCH  16  21
ATOM     21  N   UNL A   1      31.647  23.911  26.167  1.00  0.00     0.062 N 
ATOM     22  O   UNL A   1      30.532  23.845  25.645  1.00  0.00    -0.258 OA
ATOM     23  O   UNL A   1      31.871  24.089  27.368  1.00  0.00    -0.258 OA
ENDBRANCH  16  21
ENDBRANCH  13  14
ENDBRANCH   8  13
ENDBRANCH   5   8
ENDBRANCH   3   4
ENDBRANCH   2   3
ENDBRANCH   1   2
BRANCH   1  24
ATOM     24  C   UNL A   1      34.972  33.593  28.115  1.00  0.00     0.002 C 
BRANCH  24  25
ATOM     25  C   UNL A   1      36.437  33.375  28.514  1.00  0.00     0.021 C 
BRANCH  25  26
ATOM     26  C   UNL A   1      36.761  33.476  30.007  1.00  0.00     0.116 C 
BRANCH  26  27
ATOM     27  N   UNL A   1      36.256  32.344  30.768  1.00  0.00    -0.352 N 
ATOM     28  C   UNL A   1      36.708  31.052  30.877  1.00  0.00     0.251 C 
ATOM     29  H   UNL A   1      35.451  32.539  31.300  1.00  0.00     0.163 HD
ATOM     30  O   UNL A   1      35.985  30.215  31.417  1.00  0.00    -0.269 OA
BRANCH  28  31
ATOM     31  C   UNL A   1      38.033  30.642  30.354  1.00  0.00     0.039 A 
ATOM     32  C   UNL A   1      39.114  30.588  31.241  1.00  0.00     0.014 A 
ATOM     33  C   UNL A   1      38.243  30.389  28.996  1.00  0.00     0.014 A 
ATOM     34  C   UNL A   1      40.384  30.229  30.778  1.00  0.00     0.010 A 
ATOM     35  C   UNL A   1      39.498  29.966  28.547  1.00  0.00     0.010 A 
ATOM     36  C   UNL A   1      40.583  29.885  29.431  1.00  0.00    -0.014 A 
BRANCH  36  37
ATOM     37  C   UNL A   1      41.918  29.431  28.948  1.00  0.00     0.031 A 
ATOM     38  C   UNL A   1      43.062  30.401  28.817  1.00  0.00     0.074 A 
ATOM     39  C   UNL A   1      42.086  28.142  28.586  1.00  0.00     0.049 A 
ATOM     40  N   UNL A   1      44.282  30.188  28.395  1.00  0.00    -0.248 NA
ATOM     41  C   UNL A   1      42.795  31.801  29.184  1.00  0.00     0.031 C 
ATOM     42  C   UNL A   1      41.042  27.115  28.617  1.00  0.00     0.029 A 
ATOM     43  N   UNL A   1      43.191  27.476  28.121  1.00  0.00    -0.354 N 
ATOM     44  C   UNL A   1      44.924  31.421  28.437  1.00  0.00     0.074 A 
ATOM     45  C   UNL A   1      43.941  32.388  28.876  1.00  0.00     0.031 C 
ATOM     46  C   UNL A   1      41.563  25.945  28.213  1.00  0.00     0.029 A 
ATOM     47  C   UNL A   1      42.967  26.144  27.865  1.00  0.00     0.049 A 
ATOM     48  H   UNL A   1      44.064  27.911  27.980  1.00  0.00     0.167 HD
ATOM     49  C   UNL A   1      46.217  31.717  28.159  1.00  0.00     0.037 A 
ATOM     50  C   UNL A   1      43.795  25.186  27.403  1.00  0.00     0.037 A 
ATOM     51  C   UNL A   1      47.198  30.745  27.744  1.00  0.00     0.049 A 
ATOM     52  C   UNL A   1      45.230  25.536  27.113  1.00  0.00     0.074 A 
ATOM     53  C   UNL A   1      48.548  30.933  27.498  1.00  0.00     0.029 A 
ATOM     54  N   UNL A   1      46.935  29.402  27.511  1.00  0.00    -0.354 N 
ATOM     55  N   UNL A   1      45.833  26.695  27.225  1.00  0.00    -0.248 NA
ATOM     56  C   UNL A   1      46.096  24.447  26.642  1.00  0.00     0.031 C 
ATOM     57  C   UNL A   1      49.090  29.714  27.073  1.00  0.00     0.029 A 
ATOM     58  C   UNL A   1      48.091  28.756  27.103  1.00  0.00     0.049 A 
ATOM     59  H   UNL A   1      46.056  28.972  27.621  1.00  0.00     0.167 HD
ATOM     60  C   UNL A   1      47.155  26.471  26.855  1.00  0.00     0.074 A 
ATOM     61  C   UNL A   1      47.266  25.061  26.540  1.00  0.00     0.031 C 
ATOM     62  C   UNL A   1      48.185  27.352  26.782  1.00  0.00     0.037 A 
BRANCH  49  63
ATOM     63  C   UNL A   1      46.653  33.152  28.301  1.00  0.00     0.058 A 
ATOM     64  C   UNL A   1      46.483  34.080  27.260  1.00  0.00     0.135 A 
ATOM     65  C   UNL A   1      47.212  33.616  29.503  1.00  0.00     0.135 A 
ATOM     66  F   UNL A   1      45.965  33.690  26.085  1.00  0.00    -0.206 F 
ATOM     67  C   UNL A   1      46.881  35.407  27.393  1.00  0.00     0.059 A 
ATOM     68  C   UNL A   1      47.592  34.946  29.669  1.00  0.00     0.059 A 
ATOM     69  F   UNL A   1      47.396  32.775  30.533  1.00  0.00    -0.206 F 
ATOM     70  C   UNL A   1      47.436  35.830  28.602  1.00  0.00     0.060 A 
BRANCH  70  71
ATOM     71  S   UNL A   1      47.946  37.555  28.758  1.00  0.00     0.124 S 
ATOM     72  O   UNL A   1      48.643  37.537  30.041  1.00  0.00    -0.237 OA
ATOM     73  O   UNL A   1      48.790  37.739  27.582  1.00  0.00    -0.237 OA
ATOM     74  O   UNL A   1      46.684  38.287  28.740  1.00  0.00    -0.744 OA
ENDBRANCH  70  71
ENDBRANCH  49  63
BRANCH  50  75
ATOM     75  C   UNL A   1      43.294  23.798  27.214  1.00  0.00     0.058 A 
ATOM     76  C   UNL A   1      43.157  22.925  28.302  1.00  0.00     0.135 A 
ATOM     77  C   UNL A   1      42.927  23.323  25.945  1.00  0.00     0.135 A 
ATOM     78  F   UNL A   1      43.501  23.329  29.534  1.00  0.00    -0.206 F 
ATOM     79  C   UNL A   1      42.686  21.626  28.140  1.00  0.00     0.059 A 
ATOM     80  C   UNL A   1      42.429  22.037  25.761  1.00  0.00     0.059 A 
ATOM     81  F   UNL A   1      43.022  24.126  24.873  1.00  0.00    -0.206 F 
ATOM     82  C   UNL A   1      42.322  21.191  26.864  1.00  0.00     0.060 A 
BRANCH  82  83
ATOM     83  S   UNL A   1      41.659  19.522  26.673  1.00  0.00     0.124 S 
ATOM     84  O   UNL A   1      42.802  18.706  27.061  1.00  0.00    -0.237 OA
ATOM     85  O   UNL A   1      40.533  19.531  27.602  1.00  0.00    -0.237 OA
ATOM     86  O   UNL A   1      41.292  19.469  25.260  1.00  0.00    -0.744 OA
ENDBRANCH  82  83
ENDBRANCH  50  75
BRANCH  62  87
ATOM     87  C   UNL A   1      49.522  26.811  26.359  1.00  0.00     0.058 A 
ATOM     88  C   UNL A   1      50.375  26.163  27.267  1.00  0.00     0.135 A 
ATOM     89  C   UNL A   1      49.948  26.924  25.025  1.00  0.00     0.135 A 
ATOM     90  F   UNL A   1      50.018  26.035  28.554  1.00  0.00    -0.206 F 
ATOM     91  C   UNL A   1      51.618  25.678  26.876  1.00  0.00     0.059 A 
ATOM     92  C   UNL A   1      51.175  26.420  24.606  1.00  0.00     0.059 A 
ATOM     93  F   UNL A   1      49.166  27.524  24.114  1.00  0.00    -0.206 F 
ATOM     94  C   UNL A   1      52.012  25.814  25.543  1.00  0.00     0.060 A 
BRANCH  94  95
ATOM     95  S   UNL A   1      53.626  25.175  25.046  1.00  0.00     0.124 S 
ATOM     96  O   UNL A   1      53.460  23.745  25.286  1.00  0.00    -0.237 OA
ATOM     97  O   UNL A   1      53.706  25.577  23.646  1.00  0.00    -0.237 OA
ATOM     98  O   UNL A   1      54.552  25.859  25.943  1.00  0.00    -0.744 OA
ENDBRANCH  94  95
ENDBRANCH  62  87
ENDBRANCH  36  37
ENDBRANCH  28  31
ENDBRANCH  26  27
ENDBRANCH  25  26
ENDBRANCH  24  25
ENDBRANCH   1  24
TORSDOF 20
ENDMDL
MODEL 3
REMARK VINA RESULT:     -10.5      6.635     11.756
REMARK SMILES O=CN[C@@H](Cc1cc(Cl)ccc1[N+](=O)[O-])C(=O)NCCCCCCNC(=O)c1ccc(-c2c3nc(c(-c4c(F)cc(S(=O)(=O)[O-])cc4F)c4ccc([nH]4)c(-c4c(F)cc(S(=O)(=O)[O-])cc4F)c4nc(c(-c5c(F)cc(S(=O)(=O)[O-])cc5F)c5ccc2[nH]5)C=C4)C=C3)cc1
REMARK SMILES IDX 21 1 20 2 19 3 18 4 16 5 17 6 4 8 3 9 1 10 2 11 5 13 6 14
REMARK SMILES IDX 7 15 12 16 8 17 11 18 9 19 10 20 13 21 14 22 15 23 22 24
REMARK SMILES IDX 23 25 24 26 25 27 26 28 27 30 28 31 29 32 93 33 30 34 92 35
REMARK SMILES IDX 31 36 32 37 33 38 86 39 34 40 91 41 85 42 87 43 35 44 90 45
REMARK SMILES IDX 84 46 83 47 36 49 70 50 49 51 69 52 50 53 53 54 68 55 88 56
REMARK SMILES IDX 51 57 52 58 67 60 89 61 54 62 37 63 38 64 47 65 39 66 40 67
REMARK SMILES IDX 46 68 48 69 41 70 42 71 43 72 44 73 45 74 71 75 72 76 81 77
REMARK SMILES IDX 73 78 74 79 80 80 82 81 75 82 76 83 77 84 78 85 79 86 55 87
REMARK SMILES IDX 56 88 65 89 57 90 58 91 64 92 66 93 59 94 60 95 61 96 62 97
REMARK SMILES IDX 63 98
REMARK H PARENT 18 7 3 12 25 29 87 48 53 59
REMARK Flexibility Score: inf
ROOT
ATOM      1  C   UNL A   1      35.282  22.532  25.300  1.00  0.00     0.002 C 
ENDROOT
BRANCH   1   2
ATOM      2  C   UNL A   1      34.493  22.392  26.606  1.00  0.00     0.021 C 
BRANCH   2   3
ATOM      3  C   UNL A   1      33.219  21.527  26.554  1.00  0.00     0.116 C 
BRANCH   3   4
ATOM      4  N   UNL A   1      32.026  22.300  26.895  1.00  0.00    -0.354 N 
ATOM      5  C   UNL A   1      31.367  23.401  26.471  1.00  0.00     0.242 C 
ATOM      6  O   UNL A   1      30.414  23.719  27.207  1.00  0.00    -0.273 OA
ATOM      7  H   UNL A   1      31.563  21.897  27.665  1.00  0.00     0.163 HD
BRANCH   5   8
ATOM      8  C   UNL A   1      31.627  24.301  25.219  1.00  0.00     0.175 C 
BRANCH   8   9
ATOM      9  N   UNL A   1      32.082  23.614  24.010  1.00  0.00    -0.347 N 
ATOM     10  O   UNL A   1      33.067  23.650  21.971  1.00  0.00    -0.279 OA
ATOM     11  C   UNL A   1      32.890  24.173  23.068  1.00  0.00     0.337 C 
ATOM     12  H   UNL A   1      31.784  22.687  23.869  1.00  0.00     0.164 HD
ENDBRANCH   8   9
BRANCH   8  13
ATOM     13  C   UNL A   1      30.767  25.530  24.920  1.00  0.00     0.078 C 
BRANCH  13  14
ATOM     14  C   UNL A   1      31.202  26.980  24.956  1.00  0.00     0.034 A 
ATOM     15  C   UNL A   1      32.254  27.235  25.871  1.00  0.00     0.031 A 
ATOM     16  C   UNL A   1      30.722  28.093  24.245  1.00  0.00     0.272 A 
ATOM     17  C   UNL A   1      32.706  28.527  26.140  1.00  0.00     0.041 A 
ATOM     18  C   UNL A   1      31.135  29.403  24.550  1.00  0.00     0.087 A 
ATOM     19  Cl  UNL A   1      33.997  28.759  27.249  1.00  0.00    -0.084 Cl
ATOM     20  C   UNL A   1      32.116  29.618  25.517  1.00  0.00     0.027 A 
BRANCH  16  21
ATOM     21  N   UNL A   1      29.870  27.975  23.078  1.00  0.00     0.062 N 
ATOM     22  O   UNL A   1      28.674  27.735  23.256  1.00  0.00    -0.258 OA
ATOM     23  O   UNL A   1      30.421  28.114  21.981  1.00  0.00    -0.258 OA
ENDBRANCH  16  21
ENDBRANCH  13  14
ENDBRANCH   8  13
ENDBRANCH   5   8
ENDBRANCH   3   4
ENDBRANCH   2   3
ENDBRANCH   1   2
BRANCH   1  24
ATOM     24  C   UNL A   1      36.385  23.593  25.289  1.00  0.00     0.002 C 
BRANCH  24  25
ATOM     25  C   UNL A   1      37.766  23.155  25.795  1.00  0.00     0.021 C 
BRANCH  25  26
ATOM     26  C   UNL A   1      38.593  24.214  26.528  1.00  0.00     0.116 C 
BRANCH  26  27
ATOM     27  N   UNL A   1      39.992  24.206  26.134  1.00  0.00    -0.352 N 
ATOM     28  C   UNL A   1      41.036  25.027  26.484  1.00  0.00     0.251 C 
ATOM     29  H   UNL A   1      40.234  23.487  25.507  1.00  0.00     0.163 HD
ATOM     30  O   UNL A   1      42.088  24.951  25.849  1.00  0.00    -0.269 OA
BRANCH  28  31
ATOM     31  C   UNL A   1      40.925  26.001  27.595  1.00  0.00     0.039 A 
ATOM     32  C   UNL A   1      39.909  25.823  28.541  1.00  0.00     0.014 A 
ATOM     33  C   UNL A   1      41.750  27.126  27.674  1.00  0.00     0.014 A 
ATOM     34  C   UNL A   1      39.758  26.736  29.590  1.00  0.00     0.010 A 
ATOM     35  C   UNL A   1      41.640  28.002  28.758  1.00  0.00     0.010 A 
ATOM     36  C   UNL A   1      40.641  27.820  29.726  1.00  0.00    -0.014 A 
BRANCH  36  37
ATOM     37  C   UNL A   1      40.531  28.754  30.882  1.00  0.00     0.031 A 
ATOM     38  C   UNL A   1      39.510  29.862  30.884  1.00  0.00     0.074 A 
ATOM     39  C   UNL A   1      41.386  28.627  31.918  1.00  0.00     0.049 A 
ATOM     40  N   UNL A   1      39.287  30.778  31.791  1.00  0.00    -0.248 NA
ATOM     41  C   UNL A   1      38.643  29.971  29.701  1.00  0.00     0.031 C 
ATOM     42  C   UNL A   1      42.453  27.628  32.013  1.00  0.00     0.029 A 
ATOM     43  N   UNL A   1      41.496  29.339  33.086  1.00  0.00    -0.354 N 
ATOM     44  C   UNL A   1      38.264  31.575  31.288  1.00  0.00     0.074 A 
ATOM     45  C   UNL A   1      37.948  31.065  29.972  1.00  0.00     0.031 C 
ATOM     46  C   UNL A   1      43.092  27.775  33.185  1.00  0.00     0.029 A 
ATOM     47  C   UNL A   1      42.502  28.896  33.911  1.00  0.00     0.049 A 
ATOM     48  H   UNL A   1      40.909  30.098  33.311  1.00  0.00     0.167 HD
ATOM     49  C   UNL A   1      37.632  32.619  31.877  1.00  0.00     0.037 A 
ATOM     50  C   UNL A   1      42.908  29.340  35.117  1.00  0.00     0.037 A 
ATOM     51  C   UNL A   1      37.936  33.108  33.199  1.00  0.00     0.049 A 
ATOM     52  C   UNL A   1      42.183  30.493  35.756  1.00  0.00     0.074 A 
ATOM     53  C   UNL A   1      37.312  34.120  33.908  1.00  0.00     0.029 A 
ATOM     54  N   UNL A   1      38.954  32.623  34.009  1.00  0.00    -0.354 N 
ATOM     55  N   UNL A   1      41.173  31.189  35.291  1.00  0.00    -0.248 NA
ATOM     56  C   UNL A   1      42.646  30.914  37.084  1.00  0.00     0.031 C 
ATOM     57  C   UNL A   1      37.980  34.276  35.129  1.00  0.00     0.029 A 
ATOM     58  C   UNL A   1      38.988  33.330  35.201  1.00  0.00     0.049 A 
ATOM     59  H   UNL A   1      39.561  31.885  33.772  1.00  0.00     0.167 HD
ATOM     60  C   UNL A   1      40.868  32.120  36.279  1.00  0.00     0.074 A 
ATOM     61  C   UNL A   1      41.786  31.881  37.374  1.00  0.00     0.031 C 
ATOM     62  C   UNL A   1      39.915  33.086  36.280  1.00  0.00     0.037 A 
BRANCH  49  63
ATOM     63  C   UNL A   1      36.537  33.303  31.099  1.00  0.00     0.058 A 
ATOM     64  C   UNL A   1      36.825  34.184  30.044  1.00  0.00     0.135 A 
ATOM     65  C   UNL A   1      35.187  33.047  31.386  1.00  0.00     0.135 A 
ATOM     66  F   UNL A   1      38.097  34.475  29.733  1.00  0.00    -0.206 F 
ATOM     67  C   UNL A   1      35.813  34.812  29.322  1.00  0.00     0.059 A 
ATOM     68  C   UNL A   1      34.158  33.643  30.659  1.00  0.00     0.059 A 
ATOM     69  F   UNL A   1      34.853  32.211  32.382  1.00  0.00    -0.206 F 
ATOM     70  C   UNL A   1      34.483  34.535  29.639  1.00  0.00     0.060 A 
BRANCH  70  71
ATOM     71  S   UNL A   1      33.183  35.358  28.693  1.00  0.00     0.124 S 
ATOM     72  O   UNL A   1      32.506  34.220  28.079  1.00  0.00    -0.237 OA
ATOM     73  O   UNL A   1      32.434  36.055  29.733  1.00  0.00    -0.237 OA
ATOM     74  O   UNL A   1      33.922  36.218  27.775  1.00  0.00    -0.744 OA
ENDBRANCH  70  71
ENDBRANCH  49  63
BRANCH  50  75
ATOM     75  C   UNL A   1      44.042  28.672  35.811  1.00  0.00     0.058 A 
ATOM     76  C   UNL A   1      45.363  29.098  35.612  1.00  0.00     0.135 A 
ATOM     77  C   UNL A   1      43.826  27.608  36.702  1.00  0.00     0.135 A 
ATOM     78  F   UNL A   1      45.622  30.106  34.766  1.00  0.00    -0.206 F 
ATOM     79  C   UNL A   1      46.432  28.485  36.258  1.00  0.00     0.059 A 
ATOM     80  C   UNL A   1      44.876  26.997  37.379  1.00  0.00     0.059 A 
ATOM     81  F   UNL A   1      42.578  27.175  36.942  1.00  0.00    -0.206 F 
ATOM     82  C   UNL A   1      46.178  27.436  37.143  1.00  0.00     0.060 A 
BRANCH  82  83
ATOM     83  S   UNL A   1      47.566  26.685  38.020  1.00  0.00     0.124 S 
ATOM     84  O   UNL A   1      48.661  27.574  37.652  1.00  0.00    -0.237 OA
ATOM     85  O   UNL A   1      47.125  26.754  39.409  1.00  0.00    -0.237 OA
ATOM     86  O   UNL A   1      47.627  25.338  37.458  1.00  0.00    -0.744 OA
ENDBRANCH  82  83
ENDBRANCH  50  75
BRANCH  62  87
ATOM     87  C   UNL A   1      39.811  33.946  37.509  1.00  0.00     0.058 A 
ATOM     88  C   UNL A   1      39.006  33.576  38.599  1.00  0.00     0.135 A 
ATOM     89  C   UNL A   1      40.539  35.142  37.608  1.00  0.00     0.135 A 
ATOM     90  F   UNL A   1      38.285  32.445  38.553  1.00  0.00    -0.206 F 
ATOM     91  C   UNL A   1      38.899  34.381  39.729  1.00  0.00     0.059 A 
ATOM     92  C   UNL A   1      40.469  35.948  38.740  1.00  0.00     0.059 A 
ATOM     93  F   UNL A   1      41.332  35.537  36.599  1.00  0.00    -0.206 F 
ATOM     94  C   UNL A   1      39.632  35.568  39.788  1.00  0.00     0.060 A 
BRANCH  94  95
ATOM     95  S   UNL A   1      39.489  36.601  41.262  1.00  0.00     0.124 S 
ATOM     96  O   UNL A   1      38.571  35.817  42.081  1.00  0.00    -0.237 OA
ATOM     97  O   UNL A   1      40.868  36.662  41.737  1.00  0.00    -0.237 OA
ATOM     98  O   UNL A   1      38.954  37.857  40.745  1.00  0.00    -0.744 OA
ENDBRANCH  94  95
ENDBRANCH  62  87
ENDBRANCH  36  37
ENDBRANCH  28  31
ENDBRANCH  26  27
ENDBRANCH  25  26
ENDBRANCH  24  25
ENDBRANCH   1  24
TORSDOF 20
ENDMDL
