MODEL 1
REMARK VINA RESULT:     -11.7      0.000      0.000
REMARK SMILES COC1CCN(c2nc(C(C)C)c(C(=O)NCCCCCCNC(=O)c3ccc(-c4c5nc(c(-c6c(F)cc(S(=O)(=O)[O-])cc6F)c6ccc([nH]6)c(-c6c(F)cc(S(=O)(=O)[O-])cc6F)c6nc(c(-c7c(F)cc(S(=O)(=O)[O-])cc7F)c7ccc4[nH]7)C=C6)C=C5)cc3)s2)CC1
REMARK SMILES IDX 20 1 19 2 18 3 17 4 16 5 14 6 15 7 13 9 7 10 8 11 92 12 9 13
REMARK SMILES IDX 6 14 3 15 4 16 94 17 5 18 93 19 2 20 1 21 10 22 11 23 12 24
REMARK SMILES IDX 21 25 22 26 23 27 24 28 25 30 26 31 27 32 91 33 28 34 90 35
REMARK SMILES IDX 29 36 30 37 31 38 84 39 32 40 89 41 83 42 85 43 33 44 88 45
REMARK SMILES IDX 82 46 81 47 34 49 68 50 47 51 67 52 48 53 51 54 66 55 86 56
REMARK SMILES IDX 49 57 50 58 65 60 87 61 52 62 35 63 36 64 45 65 37 66 38 67
REMARK SMILES IDX 44 68 46 69 39 70 40 71 41 72 42 73 43 74 69 75 70 76 79 77
REMARK SMILES IDX 71 78 72 79 78 80 80 81 73 82 74 83 75 84 76 85 77 86 53 87
REMARK SMILES IDX 54 88 63 89 55 90 56 91 62 92 64 93 57 94 58 95 59 96 60 97
REMARK SMILES IDX 61 98
REMARK H PARENT 16 8 23 29 85 48 51 59
REMARK Flexibility Score: inf
ROOT
ATOM      1  C   UNL A   1      36.118  23.822  25.215  1.00  0.00     0.002 C 
ENDROOT
BRANCH   1   2
ATOM      2  C   UNL A   1      35.392  23.046  24.109  1.00  0.00     0.002 C 
BRANCH   2   3
ATOM      3  C   UNL A   1      33.980  22.575  24.455  1.00  0.00     0.021 C 
BRANCH   3   4
ATOM      4  C   UNL A   1      32.879  23.528  23.994  1.00  0.00     0.116 C 
BRANCH   4   5
ATOM      5  N   UNL A   1      33.326  24.393  22.940  1.00  0.00    -0.351 N 
ATOM      6  C   UNL A   1      33.140  25.702  22.595  1.00  0.00     0.263 C 
ATOM      7  O   UNL A   1      33.828  25.979  21.598  1.00  0.00    -0.268 OA
ATOM      8  H   UNL A   1      33.918  23.927  22.307  1.00  0.00     0.163 HD
BRANCH   6   9
ATOM      9  C   UNL A   1      32.289  26.703  23.249  1.00  0.00     0.117 A 
ATOM     10  C   UNL A   1      30.622  28.554  23.290  1.00  0.00     0.186 A 
ATOM     11  N   UNL A   1      31.033  28.261  24.490  1.00  0.00    -0.224 NA
ATOM     12  S   UNL A   1      31.361  27.632  22.071  1.00  0.00    -0.091 S 
ATOM     13  C   UNL A   1      31.915  27.177  24.514  1.00  0.00     0.069 A 
BRANCH  10  14
ATOM     14  N   UNL A   1      29.710  29.526  23.022  1.00  0.00    -0.348 N 
ATOM     15  C   UNL A   1      27.768  31.563  22.447  1.00  0.00     0.121 C 
ATOM     16  C   UNL A   1      28.153  31.200  23.884  1.00  0.00     0.053 C 
ATOM     17  C   UNL A   1      28.212  30.546  21.392  1.00  0.00     0.053 C 
ATOM     18  C   UNL A   1      29.541  30.585  24.012  1.00  0.00     0.121 C 
ATOM     19  C   UNL A   1      29.596  29.954  21.633  1.00  0.00     0.121 C 
BRANCH  15  20
ATOM     20  O   UNL A   1      28.044  32.919  22.075  1.00  0.00    -0.381 OA
ATOM     21  C   UNL A   1      28.869  33.686  22.931  1.00  0.00     0.195 C 
ENDBRANCH  15  20
ENDBRANCH  10  14
BRANCH  13  22
ATOM     22  C   UNL A   1      32.213  26.776  25.938  1.00  0.00     0.034 C 
ATOM     23  C   UNL A   1      33.673  26.369  26.150  1.00  0.00     0.014 C 
ATOM     24  C   UNL A   1      31.579  27.699  26.983  1.00  0.00     0.014 C 
ENDBRANCH  13  22
ENDBRANCH   6   9
ENDBRANCH   4   5
ENDBRANCH   3   4
ENDBRANCH   2   3
ENDBRANCH   1   2
BRANCH   1  25
ATOM     25  C   UNL A   1      37.433  23.210  25.710  1.00  0.00     0.021 C 
BRANCH  25  26
ATOM     26  C   UNL A   1      38.341  24.157  26.492  1.00  0.00     0.116 C 
BRANCH  26  27
ATOM     27  N   UNL A   1      39.747  23.948  26.183  1.00  0.00    -0.352 N 
ATOM     28  C   UNL A   1      40.851  24.665  26.559  1.00  0.00     0.251 C 
ATOM     29  H   UNL A   1      39.934  23.168  25.613  1.00  0.00     0.163 HD
ATOM     30  O   UNL A   1      41.932  24.436  26.015  1.00  0.00    -0.269 OA
BRANCH  28  31
ATOM     31  C   UNL A   1      40.756  25.711  27.598  1.00  0.00     0.039 A 
ATOM     32  C   UNL A   1      39.718  25.637  28.531  1.00  0.00     0.014 A 
ATOM     33  C   UNL A   1      41.647  26.788  27.627  1.00  0.00     0.014 A 
ATOM     34  C   UNL A   1      39.603  26.615  29.523  1.00  0.00     0.010 A 
ATOM     35  C   UNL A   1      41.567  27.730  28.650  1.00  0.00     0.010 A 
ATOM     36  C   UNL A   1      40.541  27.656  29.605  1.00  0.00    -0.014 A 
BRANCH  36  37
ATOM     37  C   UNL A   1      40.462  28.677  30.680  1.00  0.00     0.031 A 
ATOM     38  C   UNL A   1      41.336  28.563  31.899  1.00  0.00     0.074 A 
ATOM     39  C   UNL A   1      39.556  29.671  30.586  1.00  0.00     0.049 A 
ATOM     40  N   UNL A   1      41.354  29.307  32.975  1.00  0.00    -0.248 NA
ATOM     41  C   UNL A   1      42.298  27.449  31.925  1.00  0.00     0.031 C 
ATOM     42  C   UNL A   1      38.620  29.860  29.474  1.00  0.00     0.029 A 
ATOM     43  N   UNL A   1      39.262  30.700  31.444  1.00  0.00    -0.354 N 
ATOM     44  C   UNL A   1      42.312  28.745  33.810  1.00  0.00     0.074 A 
ATOM     45  C   UNL A   1      42.825  27.572  33.134  1.00  0.00     0.031 C 
ATOM     46  C   UNL A   1      37.865  30.943  29.715  1.00  0.00     0.029 A 
ATOM     47  C   UNL A   1      38.237  31.506  31.009  1.00  0.00     0.049 A 
ATOM     48  H   UNL A   1      39.739  30.847  32.293  1.00  0.00     0.167 HD
ATOM     49  C   UNL A   1      42.737  29.177  35.021  1.00  0.00     0.037 A 
ATOM     50  C   UNL A   1      37.655  32.573  31.591  1.00  0.00     0.037 A 
ATOM     51  C   UNL A   1      42.247  30.364  35.672  1.00  0.00     0.049 A 
ATOM     52  C   UNL A   1      38.160  33.046  32.927  1.00  0.00     0.074 A 
ATOM     53  C   UNL A   1      42.662  30.924  36.867  1.00  0.00     0.029 A 
ATOM     54  N   UNL A   1      41.236  31.177  35.181  1.00  0.00    -0.354 N 
ATOM     55  N   UNL A   1      39.111  32.537  33.674  1.00  0.00    -0.248 NA
ATOM     56  C   UNL A   1      37.520  34.239  33.497  1.00  0.00     0.031 C 
ATOM     57  C   UNL A   1      41.878  32.054  37.118  1.00  0.00     0.029 A 
ATOM     58  C   UNL A   1      41.001  32.222  36.058  1.00  0.00     0.049 A 
ATOM     59  H   UNL A   1      40.755  31.031  34.334  1.00  0.00     0.167 HD
ATOM     60  C   UNL A   1      39.200  33.362  34.789  1.00  0.00     0.074 A 
ATOM     61  C   UNL A   1      38.214  34.409  34.614  1.00  0.00     0.031 C 
ATOM     62  C   UNL A   1      40.023  33.262  35.862  1.00  0.00     0.037 A 
BRANCH  49  63
ATOM     63  C   UNL A   1      43.792  28.367  35.724  1.00  0.00     0.058 A 
ATOM     64  C   UNL A   1      45.156  28.677  35.608  1.00  0.00     0.135 A 
ATOM     65  C   UNL A   1      43.432  27.298  36.560  1.00  0.00     0.135 A 
ATOM     66  F   UNL A   1      45.557  29.680  34.810  1.00  0.00    -0.206 F 
ATOM     67  C   UNL A   1      46.129  27.943  36.279  1.00  0.00     0.059 A 
ATOM     68  C   UNL A   1      44.386  26.566  37.261  1.00  0.00     0.059 A 
ATOM     69  F   UNL A   1      42.141  26.959  36.705  1.00  0.00    -0.206 F 
ATOM     70  C   UNL A   1      45.733  26.888  37.104  1.00  0.00     0.060 A 
BRANCH  70  71
ATOM     71  S   UNL A   1      47.006  25.953  37.979  1.00  0.00     0.124 S 
ATOM     72  O   UNL A   1      47.328  26.859  39.077  1.00  0.00    -0.237 OA
ATOM     73  O   UNL A   1      46.298  24.732  38.351  1.00  0.00    -0.237 OA
ATOM     74  O   UNL A   1      48.054  25.785  36.976  1.00  0.00    -0.744 OA
ENDBRANCH  70  71
ENDBRANCH  49  63
BRANCH  50  75
ATOM     75  C   UNL A   1      36.538  33.276  30.906  1.00  0.00     0.058 A 
ATOM     76  C   UNL A   1      35.212  33.100  31.322  1.00  0.00     0.135 A 
ATOM     77  C   UNL A   1      36.778  34.145  29.830  1.00  0.00     0.135 A 
ATOM     78  F   UNL A   1      34.933  32.276  32.344  1.00  0.00    -0.206 F 
ATOM     79  C   UNL A   1      34.156  33.745  30.685  1.00  0.00     0.059 A 
ATOM     80  C   UNL A   1      35.742  34.819  29.192  1.00  0.00     0.059 A 
ATOM     81  F   UNL A   1      38.033  34.362  29.406  1.00  0.00    -0.206 F 
ATOM     82  C   UNL A   1      34.433  34.602  29.619  1.00  0.00     0.060 A 
BRANCH  82  83
ATOM     83  S   UNL A   1      33.061  35.469  28.824  1.00  0.00     0.124 S 
ATOM     84  O   UNL A   1      32.441  34.394  28.059  1.00  0.00    -0.237 OA
ATOM     85  O   UNL A   1      32.302  35.960  29.969  1.00  0.00    -0.237 OA
ATOM     86  O   UNL A   1      33.731  36.502  28.038  1.00  0.00    -0.744 OA
ENDBRANCH  82  83
ENDBRANCH  50  75
BRANCH  62  87
ATOM     87  C   UNL A   1      39.916  34.328  36.916  1.00  0.00     0.058 A 
ATOM     88  C   UNL A   1      40.678  35.504  36.853  1.00  0.00     0.135 A 
ATOM     89  C   UNL A   1      39.001  34.193  37.973  1.00  0.00     0.135 A 
ATOM     90  F   UNL A   1      41.572  35.677  35.866  1.00  0.00    -0.206 F 
ATOM     91  C   UNL A   1      40.552  36.503  37.812  1.00  0.00     0.059 A 
ATOM     92  C   UNL A   1      38.841  35.189  38.930  1.00  0.00     0.059 A 
ATOM     93  F   UNL A   1      38.241  33.090  38.073  1.00  0.00    -0.206 F 
ATOM     94  C   UNL A   1      39.630  36.337  38.847  1.00  0.00     0.060 A 
BRANCH  94  95
ATOM     95  S   UNL A   1      39.447  37.655  40.066  1.00  0.00     0.124 S 
ATOM     96  O   UNL A   1      40.699  38.385  39.898  1.00  0.00    -0.237 OA
ATOM     97  O   UNL A   1      38.245  38.345  39.605  1.00  0.00    -0.237 OA
ATOM     98  O   UNL A   1      39.302  36.934  41.327  1.00  0.00    -0.744 OA
ENDBRANCH  94  95
ENDBRANCH  62  87
ENDBRANCH  36  37
ENDBRANCH  28  31
ENDBRANCH  26  27
ENDBRANCH  25  26
ENDBRANCH   1  25
TORSDOF 19
ENDMDL
MODEL 2
REMARK VINA RESULT:     -11.6      6.816     12.581
REMARK SMILES COC1CCN(c2nc(C(C)C)c(C(=O)NCCCCCCNC(=O)c3ccc(-c4c5nc(c(-c6c(F)cc(S(=O)(=O)[O-])cc6F)c6ccc([nH]6)c(-c6c(F)cc(S(=O)(=O)[O-])cc6F)c6nc(c(-c7c(F)cc(S(=O)(=O)[O-])cc7F)c7ccc4[nH]7)C=C6)C=C5)cc3)s2)CC1
REMARK SMILES IDX 20 1 19 2 18 3 17 4 16 5 14 6 15 7 13 9 7 10 8 11 92 12 9 13
REMARK SMILES IDX 6 14 3 15 4 16 94 17 5 18 93 19 2 20 1 21 10 22 11 23 12 24
REMARK SMILES IDX 21 25 22 26 23 27 24 28 25 30 26 31 27 32 91 33 28 34 90 35
REMARK SMILES IDX 29 36 30 37 31 38 84 39 32 40 89 41 83 42 85 43 33 44 88 45
REMARK SMILES IDX 82 46 81 47 34 49 68 50 47 51 67 52 48 53 51 54 66 55 86 56
REMARK SMILES IDX 49 57 50 58 65 60 87 61 52 62 35 63 36 64 45 65 37 66 38 67
REMARK SMILES IDX 44 68 46 69 39 70 40 71 41 72 42 73 43 74 69 75 70 76 79 77
REMARK SMILES IDX 71 78 72 79 78 80 80 81 73 82 74 83 75 84 76 85 77 86 53 87
REMARK SMILES IDX 54 88 63 89 55 90 56 91 62 92 64 93 57 94 58 95 59 96 60 97
REMARK SMILES IDX 61 98
REMARK H PARENT 16 8 23 29 85 48 51 59
REMARK Flexibility Score: inf
ROOT
ATOM      1  C   UNL A   1      33.564  28.076  26.778  1.00  0.00     0.002 C 
ENDROOT
BRANCH   1   2
ATOM      2  C   UNL A   1      32.085  27.685  26.895  1.00  0.00     0.002 C 
BRANCH   2   3
ATOM      3  C   UNL A   1      31.302  27.674  25.581  1.00  0.00     0.021 C 
BRANCH   3   4
ATOM      4  C   UNL A   1      31.152  26.286  24.961  1.00  0.00     0.116 C 
BRANCH   4   5
ATOM      5  N   UNL A   1      30.771  25.303  25.934  1.00  0.00    -0.351 N 
ATOM      6  C   UNL A   1      31.176  24.042  26.271  1.00  0.00     0.263 C 
ATOM      7  O   UNL A   1      30.542  23.645  27.264  1.00  0.00    -0.268 OA
ATOM      8  H   UNL A   1      30.032  25.616  26.504  1.00  0.00     0.163 HD
BRANCH   6   9
ATOM      9  C   UNL A   1      32.203  23.214  25.628  1.00  0.00     0.117 A 
ATOM     10  C   UNL A   1      33.131  21.087  24.721  1.00  0.00     0.186 A 
ATOM     11  N   UNL A   1      33.990  22.061  24.616  1.00  0.00    -0.224 NA
ATOM     12  S   UNL A   1      31.675  21.539  25.468  1.00  0.00    -0.091 S 
ATOM     13  C   UNL A   1      33.477  23.288  25.048  1.00  0.00     0.069 A 
BRANCH  10  14
ATOM     14  N   UNL A   1      33.378  19.817  24.303  1.00  0.00    -0.348 N 
ATOM     15  C   UNL A   1      33.899  17.142  23.398  1.00  0.00     0.121 C 
ATOM     16  C   UNL A   1      34.928  17.932  24.212  1.00  0.00     0.053 C 
ATOM     17  C   UNL A   1      32.762  17.987  22.817  1.00  0.00     0.053 C 
ATOM     18  C   UNL A   1      34.318  19.020  25.086  1.00  0.00     0.121 C 
ATOM     19  C   UNL A   1      32.250  19.078  23.749  1.00  0.00     0.121 C 
BRANCH  15  20
ATOM     20  O   UNL A   1      33.444  15.932  24.017  1.00  0.00    -0.381 OA
ATOM     21  C   UNL A   1      33.940  15.619  25.304  1.00  0.00     0.195 C 
ENDBRANCH  15  20
ENDBRANCH  10  14
BRANCH  13  22
ATOM     22  C   UNL A   1      34.449  24.400  24.738  1.00  0.00     0.034 C 
ATOM     23  C   UNL A   1      35.904  24.014  25.009  1.00  0.00     0.014 C 
ATOM     24  C   UNL A   1      34.145  25.133  23.427  1.00  0.00     0.014 C 
ENDBRANCH  13  22
ENDBRANCH   6   9
ENDBRANCH   4   5
ENDBRANCH   3   4
ENDBRANCH   2   3
ENDBRANCH   1   2
BRANCH   1  25
ATOM     25  C   UNL A   1      33.918  29.496  27.230  1.00  0.00     0.021 C 
BRANCH  25  26
ATOM     26  C   UNL A   1      35.341  29.679  27.754  1.00  0.00     0.116 C 
BRANCH  26  27
ATOM     27  N   UNL A   1      35.366  30.300  29.068  1.00  0.00    -0.352 N 
ATOM     28  C   UNL A   1      36.363  30.346  30.007  1.00  0.00     0.251 C 
ATOM     29  H   UNL A   1      34.536  30.761  29.324  1.00  0.00     0.163 HD
ATOM     30  O   UNL A   1      36.103  30.749  31.141  1.00  0.00    -0.269 OA
BRANCH  28  31
ATOM     31  C   UNL A   1      37.735  29.910  29.675  1.00  0.00     0.039 A 
ATOM     32  C   UNL A   1      38.130  29.900  28.334  1.00  0.00     0.014 A 
ATOM     33  C   UNL A   1      38.613  29.463  30.666  1.00  0.00     0.014 A 
ATOM     34  C   UNL A   1      39.421  29.489  27.992  1.00  0.00     0.010 A 
ATOM     35  C   UNL A   1      39.920  29.110  30.331  1.00  0.00     0.010 A 
ATOM     36  C   UNL A   1      40.334  29.114  28.989  1.00  0.00    -0.014 A 
BRANCH  36  37
ATOM     37  C   UNL A   1      41.724  28.720  28.648  1.00  0.00     0.031 A 
ATOM     38  C   UNL A   1      42.816  29.755  28.607  1.00  0.00     0.074 A 
ATOM     39  C   UNL A   1      41.989  27.441  28.314  1.00  0.00     0.049 A 
ATOM     40  N   UNL A   1      44.068  29.621  28.255  1.00  0.00    -0.248 NA
ATOM     41  C   UNL A   1      42.445  31.128  28.986  1.00  0.00     0.031 C 
ATOM     42  C   UNL A   1      41.004  26.358  28.271  1.00  0.00     0.029 A 
ATOM     43  N   UNL A   1      43.160  26.840  27.930  1.00  0.00    -0.354 N 
ATOM     44  C   UNL A   1      44.630  30.888  28.351  1.00  0.00     0.074 A 
ATOM     45  C   UNL A   1      43.571  31.788  28.757  1.00  0.00     0.031 C 
ATOM     46  C   UNL A   1      41.614  25.224  27.893  1.00  0.00     0.029 A 
ATOM     47  C   UNL A   1      43.023  25.504  27.635  1.00  0.00     0.049 A 
ATOM     48  H   UNL A   1      44.018  27.319  27.872  1.00  0.00     0.167 HD
ATOM     49  C   UNL A   1      45.913  31.263  28.138  1.00  0.00     0.037 A 
ATOM     50  C   UNL A   1      43.928  24.607  27.196  1.00  0.00     0.037 A 
ATOM     51  C   UNL A   1      46.969  30.356  27.770  1.00  0.00     0.049 A 
ATOM     52  C   UNL A   1      45.352  25.045  26.988  1.00  0.00     0.074 A 
ATOM     53  C   UNL A   1      48.315  30.626  27.598  1.00  0.00     0.029 A 
ATOM     54  N   UNL A   1      46.798  29.003  27.518  1.00  0.00    -0.354 N 
ATOM     55  N   UNL A   1      45.879  26.237  27.146  1.00  0.00    -0.248 NA
ATOM     56  C   UNL A   1      46.308  24.018  26.551  1.00  0.00     0.031 C 
ATOM     57  C   UNL A   1      48.953  29.445  27.208  1.00  0.00     0.029 A 
ATOM     58  C   UNL A   1      48.011  28.429  27.176  1.00  0.00     0.049 A 
ATOM     59  H   UNL A   1      45.941  28.521  27.574  1.00  0.00     0.167 HD
ATOM     60  C   UNL A   1      47.230  26.097  26.851  1.00  0.00     0.074 A 
ATOM     61  C   UNL A   1      47.443  24.704  26.516  1.00  0.00     0.031 C 
ATOM     62  C   UNL A   1      48.207  27.037  26.855  1.00  0.00     0.037 A 
BRANCH  49  63
ATOM     63  C   UNL A   1      46.255  32.718  28.307  1.00  0.00     0.058 A 
ATOM     64  C   UNL A   1      46.679  33.236  29.541  1.00  0.00     0.135 A 
ATOM     65  C   UNL A   1      46.204  33.595  27.211  1.00  0.00     0.135 A 
ATOM     66  F   UNL A   1      46.732  32.446  30.625  1.00  0.00    -0.206 F 
ATOM     67  C   UNL A   1      47.019  34.577  29.689  1.00  0.00     0.059 A 
ATOM     68  C   UNL A   1      46.564  34.934  27.330  1.00  0.00     0.059 A 
ATOM     69  F   UNL A   1      45.805  33.151  26.009  1.00  0.00    -0.206 F 
ATOM     70  C   UNL A   1      46.959  35.419  28.576  1.00  0.00     0.060 A 
BRANCH  70  71
ATOM     71  S   UNL A   1      47.417  37.153  28.780  1.00  0.00     0.124 S 
ATOM     72  O   UNL A   1      46.107  37.794  28.838  1.00  0.00    -0.237 OA
ATOM     73  O   UNL A   1      48.168  37.134  30.032  1.00  0.00    -0.237 OA
ATOM     74  O   UNL A   1      48.204  37.440  27.585  1.00  0.00    -0.744 OA
ENDBRANCH  70  71
ENDBRANCH  49  63
BRANCH  50  75
ATOM     75  C   UNL A   1      43.518  23.203  26.937  1.00  0.00     0.058 A 
ATOM     76  C   UNL A   1      43.243  22.324  27.994  1.00  0.00     0.135 A 
ATOM     77  C   UNL A   1      43.382  22.715  25.628  1.00  0.00     0.135 A 
ATOM     78  F   UNL A   1      43.363  22.744  29.263  1.00  0.00    -0.206 F 
ATOM     79  C   UNL A   1      42.867  21.004  27.766  1.00  0.00     0.059 A 
ATOM     80  C   UNL A   1      42.985  21.406  25.374  1.00  0.00     0.059 A 
ATOM     81  F   UNL A   1      43.615  23.522  24.581  1.00  0.00    -0.206 F 
ATOM     82  C   UNL A   1      42.741  20.555  26.451  1.00  0.00     0.060 A 
BRANCH  82  83
ATOM     83  S   UNL A   1      42.211  18.852  26.163  1.00  0.00     0.124 S 
ATOM     84  O   UNL A   1      43.132  18.433  25.113  1.00  0.00    -0.237 OA
ATOM     85  O   UNL A   1      42.412  18.240  27.471  1.00  0.00    -0.237 OA
ATOM     86  O   UNL A   1      40.816  19.002  25.758  1.00  0.00    -0.744 OA
ENDBRANCH  82  83
ENDBRANCH  50  75
BRANCH  62  87
ATOM     87  C   UNL A   1      49.600  26.587  26.520  1.00  0.00     0.058 A 
ATOM     88  C   UNL A   1      50.450  26.038  27.491  1.00  0.00     0.135 A 
ATOM     89  C   UNL A   1      50.070  26.658  25.197  1.00  0.00     0.135 A 
ATOM     90  F   UNL A   1      50.050  25.955  28.770  1.00  0.00    -0.206 F 
ATOM     91  C   UNL A   1      51.728  25.592  27.168  1.00  0.00     0.059 A 
ATOM     92  C   UNL A   1      51.334  26.196  24.848  1.00  0.00     0.059 A 
ATOM     93  F   UNL A   1      49.291  27.167  24.229  1.00  0.00    -0.206 F 
ATOM     94  C   UNL A   1      52.160  25.674  25.844  1.00  0.00     0.060 A 
BRANCH  94  95
ATOM     95  S   UNL A   1      53.806  25.058  25.428  1.00  0.00     0.124 S 
ATOM     96  O   UNL A   1      53.554  23.628  25.279  1.00  0.00    -0.237 OA
ATOM     97  O   UNL A   1      54.109  25.780  24.196  1.00  0.00    -0.237 OA
ATOM     98  O   UNL A   1      54.613  25.438  26.584  1.00  0.00    -0.744 OA
ENDBRANCH  94  95
ENDBRANCH  62  87
ENDBRANCH  36  37
ENDBRANCH  28  31
ENDBRANCH  26  27
ENDBRANCH  25  26
ENDBRANCH   1  25
TORSDOF 19
ENDMDL
MODEL 3
REMARK VINA RESULT:     -11.4      4.952     10.780
REMARK SMILES COC1CCN(c2nc(C(C)C)c(C(=O)NCCCCCCNC(=O)c3ccc(-c4c5nc(c(-c6c(F)cc(S(=O)(=O)[O-])cc6F)c6ccc([nH]6)c(-c6c(F)cc(S(=O)(=O)[O-])cc6F)c6nc(c(-c7c(F)cc(S(=O)(=O)[O-])cc7F)c7ccc4[nH]7)C=C6)C=C5)cc3)s2)CC1
REMARK SMILES IDX 20 1 19 2 18 3 17 4 16 5 14 6 15 7 13 9 7 10 8 11 92 12 9 13
REMARK SMILES IDX 6 14 3 15 4 16 94 17 5 18 93 19 2 20 1 21 10 22 11 23 12 24
REMARK SMILES IDX 21 25 22 26 23 27 24 28 25 30 26 31 27 32 91 33 28 34 90 35
REMARK SMILES IDX 29 36 30 37 31 38 84 39 32 40 89 41 83 42 85 43 33 44 88 45
REMARK SMILES IDX 82 46 81 47 34 49 68 50 47 51 67 52 48 53 51 54 66 55 86 56
REMARK SMILES IDX 49 57 50 58 65 60 87 61 52 62 35 63 36 64 45 65 37 66 38 67
REMARK SMILES IDX 44 68 46 69 39 70 40 71 41 72 42 73 43 74 69 75 70 76 79 77
REMARK SMILES IDX 71 78 72 79 78 80 80 81 73 82 74 83 75 84 76 85 77 86 53 87
REMARK SMILES IDX 54 88 63 89 55 90 56 91 62 92 64 93 57 94 58 95 59 96 60 97
REMARK SMILES IDX 61 98
REMARK H PARENT 16 8 23 29 85 48 51 59
REMARK Flexibility Score: inf
ROOT
ATOM      1  C   UNL A   1      31.575  28.700  25.831  1.00  0.00     0.002 C 
ENDROOT
BRANCH   1   2
ATOM      2  C   UNL A   1      31.993  28.878  24.366  1.00  0.00     0.002 C 
BRANCH   2   3
ATOM      3  C   UNL A   1      30.853  29.167  23.389  1.00  0.00     0.021 C 
BRANCH   3   4
ATOM      4  C   UNL A   1      30.649  28.079  22.336  1.00  0.00     0.116 C 
BRANCH   4   5
ATOM      5  N   UNL A   1      31.892  27.494  21.923  1.00  0.00    -0.351 N 
ATOM      6  C   UNL A   1      32.525  26.297  22.105  1.00  0.00     0.263 C 
ATOM      7  O   UNL A   1      33.586  26.276  21.458  1.00  0.00    -0.268 OA
ATOM      8  H   UNL A   1      32.422  28.109  21.368  1.00  0.00     0.163 HD
BRANCH   6   9
ATOM      9  C   UNL A   1      32.089  25.150  22.910  1.00  0.00     0.117 A 
ATOM     10  C   UNL A   1      32.139  22.768  23.641  1.00  0.00     0.186 A 
ATOM     11  N   UNL A   1      31.219  23.438  24.275  1.00  0.00    -0.224 NA
ATOM     12  S   UNL A   1      32.989  23.690  22.496  1.00  0.00    -0.091 S 
ATOM     13  C   UNL A   1      31.210  24.797  23.943  1.00  0.00     0.069 A 
BRANCH  10  14
ATOM     14  N   UNL A   1      32.384  21.447  23.846  1.00  0.00    -0.348 N 
ATOM     15  C   UNL A   1      32.889  18.656  24.300  1.00  0.00     0.121 C 
ATOM     16  C   UNL A   1      32.068  19.142  23.102  1.00  0.00     0.053 C 
ATOM     17  C   UNL A   1      33.103  19.707  25.394  1.00  0.00     0.053 C 
ATOM     18  C   UNL A   1      32.384  20.571  22.679  1.00  0.00     0.121 C 
ATOM     19  C   UNL A   1      33.367  21.113  24.871  1.00  0.00     0.121 C 
BRANCH  15  20
ATOM     20  O   UNL A   1      34.085  17.943  23.961  1.00  0.00    -0.381 OA
ATOM     21  C   UNL A   1      33.948  16.658  23.385  1.00  0.00     0.195 C 
ENDBRANCH  15  20
ENDBRANCH  10  14
BRANCH  13  22
ATOM     22  C   UNL A   1      30.250  25.547  24.834  1.00  0.00     0.034 C 
ATOM     23  C   UNL A   1      28.976  25.982  24.107  1.00  0.00     0.014 C 
ATOM     24  C   UNL A   1      30.091  24.927  26.227  1.00  0.00     0.014 C 
ENDBRANCH  13  22
ENDBRANCH   6   9
ENDBRANCH   4   5
ENDBRANCH   3   4
ENDBRANCH   2   3
ENDBRANCH   1   2
BRANCH   1  25
ATOM     25  C   UNL A   1      32.463  27.778  26.673  1.00  0.00     0.021 C 
BRANCH  25  26
ATOM     26  C   UNL A   1      33.784  28.387  27.137  1.00  0.00     0.116 C 
BRANCH  26  27
ATOM     27  N   UNL A   1      33.646  29.790  27.494  1.00  0.00    -0.352 N 
ATOM     28  C   UNL A   1      34.508  30.624  28.155  1.00  0.00     0.251 C 
ATOM     29  H   UNL A   1      32.799  30.206  27.217  1.00  0.00     0.163 HD
ATOM     30  O   UNL A   1      34.108  31.724  28.538  1.00  0.00    -0.269 OA
BRANCH  28  31
ATOM     31  C   UNL A   1      35.903  30.214  28.421  1.00  0.00     0.039 A 
ATOM     32  C   UNL A   1      36.832  30.284  27.379  1.00  0.00     0.014 A 
ATOM     33  C   UNL A   1      36.287  29.715  29.668  1.00  0.00     0.014 A 
ATOM     34  C   UNL A   1      38.157  29.900  27.602  1.00  0.00     0.010 A 
ATOM     35  C   UNL A   1      37.621  29.388  29.907  1.00  0.00     0.010 A 
ATOM     36  C   UNL A   1      38.568  29.472  28.874  1.00  0.00    -0.014 A 
BRANCH  36  37
ATOM     37  C   UNL A   1      39.981  29.105  29.141  1.00  0.00     0.031 A 
ATOM     38  C   UNL A   1      40.935  30.125  29.703  1.00  0.00     0.074 A 
ATOM     39  C   UNL A   1      40.420  27.872  28.818  1.00  0.00     0.049 A 
ATOM     40  N   UNL A   1      42.219  30.018  29.928  1.00  0.00    -0.248 NA
ATOM     41  C   UNL A   1      40.377  31.447  30.030  1.00  0.00     0.031 C 
ATOM     42  C   UNL A   1      39.601  26.813  28.223  1.00  0.00     0.029 A 
ATOM     43  N   UNL A   1      41.664  27.307  28.927  1.00  0.00    -0.354 N 
ATOM     44  C   UNL A   1      42.626  31.258  30.404  1.00  0.00     0.074 A 
ATOM     45  C   UNL A   1      41.461  32.116  30.397  1.00  0.00     0.031 C 
ATOM     46  C   UNL A   1      40.362  25.725  28.030  1.00  0.00     0.029 A 
ATOM     47  C   UNL A   1      41.728  26.017  28.455  1.00  0.00     0.049 A 
ATOM     48  H   UNL A   1      42.440  27.779  29.308  1.00  0.00     0.167 HD
ATOM     49  C   UNL A   1      43.855  31.641  30.824  1.00  0.00     0.037 A 
ATOM     50  C   UNL A   1      42.771  25.168  28.364  1.00  0.00     0.037 A 
ATOM     51  C   UNL A   1      45.003  30.773  30.861  1.00  0.00     0.049 A 
ATOM     52  C   UNL A   1      44.121  25.611  28.857  1.00  0.00     0.074 A 
ATOM     53  C   UNL A   1      46.274  31.045  31.334  1.00  0.00     0.029 A 
ATOM     54  N   UNL A   1      45.018  29.460  30.411  1.00  0.00    -0.354 N 
ATOM     55  N   UNL A   1      44.473  26.769  29.364  1.00  0.00    -0.248 NA
ATOM     56  C   UNL A   1      45.214  24.632  28.776  1.00  0.00     0.031 C 
ATOM     57  C   UNL A   1      47.068  29.911  31.137  1.00  0.00     0.029 A 
ATOM     58  C   UNL A   1      46.280  28.917  30.578  1.00  0.00     0.049 A 
ATOM     59  H   UNL A   1      44.245  28.986  30.028  1.00  0.00     0.167 HD
ATOM     60  C   UNL A   1      45.821  26.650  29.683  1.00  0.00     0.074 A 
ATOM     61  C   UNL A   1      46.218  25.304  29.323  1.00  0.00     0.031 C 
ATOM     62  C   UNL A   1      46.655  27.571  30.224  1.00  0.00     0.037 A 
BRANCH  49  63
ATOM     63  C   UNL A   1      44.026  33.062  31.288  1.00  0.00     0.058 A 
ATOM     64  C   UNL A   1      43.902  33.414  32.640  1.00  0.00     0.135 A 
ATOM     65  C   UNL A   1      44.366  34.074  30.376  1.00  0.00     0.135 A 
ATOM     66  F   UNL A   1      43.564  32.489  33.553  1.00  0.00    -0.206 F 
ATOM     67  C   UNL A   1      44.085  34.724  33.071  1.00  0.00     0.059 A 
ATOM     68  C   UNL A   1      44.580  35.387  30.788  1.00  0.00     0.059 A 
ATOM     69  F   UNL A   1      44.497  33.791  29.070  1.00  0.00    -0.206 F 
ATOM     70  C   UNL A   1      44.425  35.704  32.136  1.00  0.00     0.060 A 
BRANCH  70  71
ATOM     71  S   UNL A   1      44.674  37.397  32.712  1.00  0.00     0.124 S 
ATOM     72  O   UNL A   1      46.102  37.395  33.012  1.00  0.00    -0.237 OA
ATOM     73  O   UNL A   1      44.272  38.186  31.552  1.00  0.00    -0.237 OA
ATOM     74  O   UNL A   1      43.789  37.496  33.869  1.00  0.00    -0.744 OA
ENDBRANCH  70  71
ENDBRANCH  49  63
BRANCH  50  75
ATOM     75  C   UNL A   1      42.576  23.809  27.795  1.00  0.00     0.058 A 
ATOM     76  C   UNL A   1      42.431  22.692  28.628  1.00  0.00     0.135 A 
ATOM     77  C   UNL A   1      42.521  23.604  26.407  1.00  0.00     0.135 A 
ATOM     78  F   UNL A   1      42.480  22.839  29.961  1.00  0.00    -0.206 F 
ATOM     79  C   UNL A   1      42.257  21.413  28.109  1.00  0.00     0.059 A 
ATOM     80  C   UNL A   1      42.324  22.338  25.864  1.00  0.00     0.059 A 
ATOM     81  F   UNL A   1      42.635  24.644  25.567  1.00  0.00    -0.206 F 
ATOM     82  C   UNL A   1      42.206  21.247  26.724  1.00  0.00     0.060 A 
BRANCH  82  83
ATOM     83  S   UNL A   1      41.936  19.589  26.058  1.00  0.00     0.124 S 
ATOM     84  O   UNL A   1      40.516  19.633  25.732  1.00  0.00    -0.237 OA
ATOM     85  O   UNL A   1      42.852  19.560  24.923  1.00  0.00    -0.237 OA
ATOM     86  O   UNL A   1      42.304  18.719  27.171  1.00  0.00    -0.744 OA
ENDBRANCH  82  83
ENDBRANCH  50  75
BRANCH  62  87
ATOM     87  C   UNL A   1      48.072  27.148  30.491  1.00  0.00     0.058 A 
ATOM     88  C   UNL A   1      49.085  27.323  29.537  1.00  0.00     0.135 A 
ATOM     89  C   UNL A   1      48.429  26.610  31.739  1.00  0.00     0.135 A 
ATOM     90  F   UNL A   1      48.794  27.827  28.327  1.00  0.00    -0.206 F 
ATOM     91  C   UNL A   1      50.401  26.960  29.801  1.00  0.00     0.059 A 
ATOM     92  C   UNL A   1      49.743  26.262  32.034  1.00  0.00     0.059 A 
ATOM     93  F   UNL A   1      47.497  26.431  32.689  1.00  0.00    -0.206 F 
ATOM     94  C   UNL A   1      50.721  26.431  31.053  1.00  0.00     0.060 A 
BRANCH  94  95
ATOM     95  S   UNL A   1      52.439  25.998  31.400  1.00  0.00     0.124 S 
ATOM     96  O   UNL A   1      52.291  24.684  32.017  1.00  0.00    -0.237 OA
ATOM     97  O   UNL A   1      53.040  26.008  30.069  1.00  0.00    -0.237 OA
ATOM     98  O   UNL A   1      52.885  27.066  32.290  1.00  0.00    -0.744 OA
ENDBRANCH  94  95
ENDBRANCH  62  87
ENDBRANCH  36  37
ENDBRANCH  28  31
ENDBRANCH  26  27
ENDBRANCH  25  26
ENDBRANCH   1  25
TORSDOF 19
ENDMDL
