MODEL 1
REMARK VINA RESULT:     -10.4      0.000      0.000
REMARK SMILES COc1cc(/C=C/C(=O)NCCCCCCNC(=O)c2ccc(-c3c4nc(c(-c5c(F)cc(S(=O)(=O)[O-])cc5F)c5ccc([nH]5)c(-c5c(F)cc(S(=O)(=O)[O-])cc5F)c5nc(c(-c6c(F)cc(S(=O)(=O)[O-])cc6F)c6ccc3[nH]6)C=C5)C=C4)cc2)cc(OC)c1O
REMARK SMILES IDX 14 1 13 2 12 3 11 4 10 5 8 6 9 7 7 9 6 10 5 11 3 12 4 13
REMARK SMILES IDX 90 14 87 15 86 16 2 17 1 18 91 19 88 21 89 22 15 23 16 24
REMARK SMILES IDX 17 25 18 26 19 28 20 29 21 30 85 31 22 32 84 33 23 34 24 35
REMARK SMILES IDX 25 36 78 37 26 38 83 39 77 40 79 41 27 42 82 43 76 44 75 45
REMARK SMILES IDX 28 47 62 48 41 49 61 50 42 51 45 52 60 53 80 54 43 55 44 56
REMARK SMILES IDX 59 58 81 59 46 60 29 61 30 62 39 63 31 64 32 65 38 66 40 67
REMARK SMILES IDX 33 68 34 69 35 70 36 71 37 72 63 73 64 74 73 75 65 76 66 77
REMARK SMILES IDX 72 78 74 79 67 80 68 81 69 82 70 83 71 84 47 85 48 86 57 87
REMARK SMILES IDX 49 88 50 89 56 90 58 91 51 92 52 93 53 94 54 95 55 96
REMARK H PARENT 10 8 91 20 17 27 79 46 45 57
REMARK Flexibility Score: inf
ROOT
ATOM      1  C   UNL A   1      31.502  27.507  26.282  1.00  0.00     0.002 C 
ENDROOT
BRANCH   1   2
ATOM      2  C   UNL A   1      30.696  27.057  25.056  1.00  0.00     0.002 C 
BRANCH   2   3
ATOM      3  C   UNL A   1      30.565  28.108  23.943  1.00  0.00     0.021 C 
BRANCH   3   4
ATOM      4  C   UNL A   1      30.679  27.525  22.534  1.00  0.00     0.116 C 
BRANCH   4   5
ATOM      5  N   UNL A   1      32.016  27.739  22.008  1.00  0.00    -0.353 N 
ATOM      6  C   UNL A   1      33.187  27.084  22.211  1.00  0.00     0.243 C 
ATOM      7  O   UNL A   1      34.190  27.443  21.593  1.00  0.00    -0.270 OA
ATOM      8  H   UNL A   1      32.086  28.501  21.387  1.00  0.00     0.163 HD
BRANCH   6   9
ATOM      9  C   UNL A   1      33.279  25.889  23.083  1.00  0.00     0.072 C 
ATOM     10  C   UNL A   1      34.228  25.663  24.003  1.00  0.00     0.014 C 
BRANCH  10  11
ATOM     11  C   UNL A   1      34.304  24.454  24.835  1.00  0.00    -0.018 A 
ATOM     12  C   UNL A   1      35.500  22.564  25.766  1.00  0.00     0.165 A 
ATOM     13  C   UNL A   1      35.420  23.611  24.842  1.00  0.00     0.058 A 
ATOM     14  C   UNL A   1      34.481  22.370  26.711  1.00  0.00     0.200 A 
ATOM     15  C   UNL A   1      33.334  23.167  26.683  1.00  0.00     0.165 A 
ATOM     16  C   UNL A   1      33.263  24.206  25.742  1.00  0.00     0.058 A 
BRANCH  12  17
ATOM     17  O   UNL A   1      36.683  21.866  25.824  1.00  0.00    -0.493 OA
ATOM     18  C   UNL A   1      36.721  20.747  24.934  1.00  0.00     0.278 C 
ENDBRANCH  12  17
BRANCH  14  19
ATOM     19  O   UNL A   1      34.681  21.455  27.710  1.00  0.00    -0.502 OA
ATOM     20  H   UNL A   1      34.244  21.557  28.532  1.00  0.00     0.293 HD
ENDBRANCH  14  19
BRANCH  15  21
ATOM     21  O   UNL A   1      32.245  23.130  27.511  1.00  0.00    -0.493 OA
ATOM     22  C   UNL A   1      31.021  22.626  26.999  1.00  0.00     0.278 C 
ENDBRANCH  15  21
ENDBRANCH  10  11
ENDBRANCH   6   9
ENDBRANCH   4   5
ENDBRANCH   3   4
ENDBRANCH   2   3
ENDBRANCH   1   2
BRANCH   1  23
ATOM     23  C   UNL A   1      32.853  28.152  25.966  1.00  0.00     0.021 C 
BRANCH  23  24
ATOM     24  C   UNL A   1      33.698  28.474  27.195  1.00  0.00     0.116 C 
BRANCH  24  25
ATOM     25  N   UNL A   1      33.582  29.875  27.574  1.00  0.00    -0.352 N 
ATOM     26  C   UNL A   1      34.468  30.658  28.265  1.00  0.00     0.251 C 
ATOM     27  H   UNL A   1      32.750  30.321  27.295  1.00  0.00     0.163 HD
ATOM     28  O   UNL A   1      34.106  31.750  28.711  1.00  0.00    -0.269 OA
BRANCH  26  29
ATOM     29  C   UNL A   1      35.851  30.190  28.484  1.00  0.00     0.039 A 
ATOM     30  C   UNL A   1      36.765  30.242  27.429  1.00  0.00     0.014 A 
ATOM     31  C   UNL A   1      36.242  29.690  29.731  1.00  0.00     0.014 A 
ATOM     32  C   UNL A   1      38.086  29.841  27.640  1.00  0.00     0.010 A 
ATOM     33  C   UNL A   1      37.576  29.362  29.958  1.00  0.00     0.010 A 
ATOM     34  C   UNL A   1      38.509  29.427  28.914  1.00  0.00    -0.014 A 
BRANCH  34  35
ATOM     35  C   UNL A   1      39.924  29.054  29.171  1.00  0.00     0.031 A 
ATOM     36  C   UNL A   1      40.879  30.067  29.744  1.00  0.00     0.074 A 
ATOM     37  C   UNL A   1      40.361  27.825  28.832  1.00  0.00     0.049 A 
ATOM     38  N   UNL A   1      42.161  29.951  29.980  1.00  0.00    -0.248 NA
ATOM     39  C   UNL A   1      40.328  31.392  30.068  1.00  0.00     0.031 C 
ATOM     40  C   UNL A   1      39.541  26.775  28.224  1.00  0.00     0.029 A 
ATOM     41  N   UNL A   1      41.604  27.253  28.939  1.00  0.00    -0.354 N 
ATOM     42  C   UNL A   1      42.569  31.186  30.468  1.00  0.00     0.074 A 
ATOM     43  C   UNL A   1      41.413  32.055  30.441  1.00  0.00     0.031 C 
ATOM     44  C   UNL A   1      40.296  25.681  28.034  1.00  0.00     0.029 A 
ATOM     45  C   UNL A   1      41.662  25.963  28.467  1.00  0.00     0.049 A 
ATOM     46  H   UNL A   1      42.381  27.723  29.318  1.00  0.00     0.167 HD
ATOM     47  C   UNL A   1      43.792  31.556  30.921  1.00  0.00     0.037 A 
ATOM     48  C   UNL A   1      42.698  25.107  28.384  1.00  0.00     0.037 A 
ATOM     49  C   UNL A   1      44.931  30.677  30.965  1.00  0.00     0.049 A 
ATOM     50  C   UNL A   1      44.049  25.544  28.884  1.00  0.00     0.074 A 
ATOM     51  C   UNL A   1      46.197  30.935  31.462  1.00  0.00     0.029 A 
ATOM     52  N   UNL A   1      44.946  29.373  30.491  1.00  0.00    -0.354 N 
ATOM     53  N   UNL A   1      44.400  26.693  29.410  1.00  0.00    -0.248 NA
ATOM     54  C   UNL A   1      45.142  24.567  28.786  1.00  0.00     0.031 C 
ATOM     55  C   UNL A   1      46.990  29.806  31.244  1.00  0.00     0.029 A 
ATOM     56  C   UNL A   1      46.206  28.823  30.660  1.00  0.00     0.049 A 
ATOM     57  H   UNL A   1      44.176  28.908  30.093  1.00  0.00     0.167 HD
ATOM     58  C   UNL A   1      45.749  26.569  29.726  1.00  0.00     0.074 A 
ATOM     59  C   UNL A   1      46.145  25.229  29.348  1.00  0.00     0.031 C 
ATOM     60  C   UNL A   1      46.584  27.483  30.281  1.00  0.00     0.037 A 
BRANCH  47  61
ATOM     61  C   UNL A   1      43.958  32.970  31.408  1.00  0.00     0.058 A 
ATOM     62  C   UNL A   1      43.719  33.323  32.747  1.00  0.00     0.135 A 
ATOM     63  C   UNL A   1      44.400  33.979  30.537  1.00  0.00     0.135 A 
ATOM     64  F   UNL A   1      43.282  32.403  33.621  1.00  0.00    -0.206 F 
ATOM     65  C   UNL A   1      43.881  34.630  33.195  1.00  0.00     0.059 A 
ATOM     66  C   UNL A   1      44.597  35.287  30.971  1.00  0.00     0.059 A 
ATOM     67  F   UNL A   1      44.644  33.699  29.247  1.00  0.00    -0.206 F 
ATOM     68  C   UNL A   1      44.320  35.606  32.299  1.00  0.00     0.060 A 
BRANCH  68  69
ATOM     69  S   UNL A   1      44.529  37.294  32.901  1.00  0.00     0.124 S 
ATOM     70  O   UNL A   1      43.754  37.261  34.137  1.00  0.00    -0.237 OA
ATOM     71  O   UNL A   1      45.976  37.391  33.063  1.00  0.00    -0.237 OA
ATOM     72  O   UNL A   1      43.965  38.110  31.829  1.00  0.00    -0.744 OA
ENDBRANCH  68  69
ENDBRANCH  47  61
BRANCH  48  73
ATOM     73  C   UNL A   1      42.495  23.745  27.818  1.00  0.00     0.058 A 
ATOM     74  C   UNL A   1      42.382  23.548  26.434  1.00  0.00     0.135 A 
ATOM     75  C   UNL A   1      42.422  22.615  28.646  1.00  0.00     0.135 A 
ATOM     76  F   UNL A   1      42.440  24.598  25.600  1.00  0.00    -0.206 F 
ATOM     77  C   UNL A   1      42.187  22.283  25.891  1.00  0.00     0.059 A 
ATOM     78  C   UNL A   1      42.254  21.336  28.126  1.00  0.00     0.059 A 
ATOM     79  F   UNL A   1      42.540  22.747  29.977  1.00  0.00    -0.206 F 
ATOM     80  C   UNL A   1      42.128  21.181  26.746  1.00  0.00     0.060 A 
BRANCH  80  81
ATOM     81  S   UNL A   1      41.921  19.537  26.027  1.00  0.00     0.124 S 
ATOM     82  O   UNL A   1      40.490  19.516  25.749  1.00  0.00    -0.237 OA
ATOM     83  O   UNL A   1      42.798  19.600  24.862  1.00  0.00    -0.237 OA
ATOM     84  O   UNL A   1      42.370  18.646  27.093  1.00  0.00    -0.744 OA
ENDBRANCH  80  81
ENDBRANCH  48  73
BRANCH  60  85
ATOM     85  C   UNL A   1      48.004  27.061  30.538  1.00  0.00     0.058 A 
ATOM     86  C   UNL A   1      49.028  27.315  29.613  1.00  0.00     0.135 A 
ATOM     87  C   UNL A   1      48.354  26.449  31.753  1.00  0.00     0.135 A 
ATOM     88  F   UNL A   1      48.747  27.891  28.434  1.00  0.00    -0.206 F 
ATOM     89  C   UNL A   1      50.347  26.961  29.876  1.00  0.00     0.059 A 
ATOM     90  C   UNL A   1      49.672  26.114  32.049  1.00  0.00     0.059 A 
ATOM     91  F   UNL A   1      47.414  26.192  32.677  1.00  0.00    -0.206 F 
ATOM     92  C   UNL A   1      50.660  26.366  31.100  1.00  0.00     0.060 A 
BRANCH  92  93
ATOM     93  S   UNL A   1      52.383  25.954  31.445  1.00  0.00     0.124 S 
ATOM     94  O   UNL A   1      52.254  24.634  32.053  1.00  0.00    -0.237 OA
ATOM     95  O   UNL A   1      52.984  25.982  30.115  1.00  0.00    -0.237 OA
ATOM     96  O   UNL A   1      52.815  27.019  32.344  1.00  0.00    -0.744 OA
ENDBRANCH  92  93
ENDBRANCH  60  85
ENDBRANCH  34  35
ENDBRANCH  26  29
ENDBRANCH  24  25
ENDBRANCH  23  24
ENDBRANCH   1  23
TORSDOF 20
ENDMDL
MODEL 2
REMARK VINA RESULT:     -10.0      3.091      9.249
REMARK SMILES COc1cc(/C=C/C(=O)NCCCCCCNC(=O)c2ccc(-c3c4nc(c(-c5c(F)cc(S(=O)(=O)[O-])cc5F)c5ccc([nH]5)c(-c5c(F)cc(S(=O)(=O)[O-])cc5F)c5nc(c(-c6c(F)cc(S(=O)(=O)[O-])cc6F)c6ccc3[nH]6)C=C5)C=C4)cc2)cc(OC)c1O
REMARK SMILES IDX 14 1 13 2 12 3 11 4 10 5 8 6 9 7 7 9 6 10 5 11 3 12 4 13
REMARK SMILES IDX 90 14 87 15 86 16 2 17 1 18 91 19 88 21 89 22 15 23 16 24
REMARK SMILES IDX 17 25 18 26 19 28 20 29 21 30 85 31 22 32 84 33 23 34 24 35
REMARK SMILES IDX 25 36 78 37 26 38 83 39 77 40 79 41 27 42 82 43 76 44 75 45
REMARK SMILES IDX 28 47 62 48 41 49 61 50 42 51 45 52 60 53 80 54 43 55 44 56
REMARK SMILES IDX 59 58 81 59 46 60 29 61 30 62 39 63 31 64 32 65 38 66 40 67
REMARK SMILES IDX 33 68 34 69 35 70 36 71 37 72 63 73 64 74 73 75 65 76 66 77
REMARK SMILES IDX 72 78 74 79 67 80 68 81 69 82 70 83 71 84 47 85 48 86 57 87
REMARK SMILES IDX 49 88 50 89 56 90 58 91 51 92 52 93 53 94 54 95 55 96
REMARK H PARENT 10 8 91 20 17 27 79 46 45 57
REMARK Flexibility Score: inf
ROOT
ATOM      1  C   UNL A   1      34.917  22.750  24.481  1.00  0.00     0.002 C 
ENDROOT
BRANCH   1   2
ATOM      2  C   UNL A   1      34.758  21.231  24.631  1.00  0.00     0.002 C 
BRANCH   2   3
ATOM      3  C   UNL A   1      33.895  20.782  25.819  1.00  0.00     0.021 C 
BRANCH   3   4
ATOM      4  C   UNL A   1      33.849  21.799  26.961  1.00  0.00     0.116 C 
BRANCH   4   5
ATOM      5  N   UNL A   1      32.472  22.078  27.332  1.00  0.00    -0.353 N 
ATOM      6  C   UNL A   1      31.643  23.109  27.031  1.00  0.00     0.243 C 
ATOM      7  O   UNL A   1      30.482  23.082  27.439  1.00  0.00    -0.270 OA
ATOM      8  H   UNL A   1      32.065  21.391  27.908  1.00  0.00     0.163 HD
BRANCH   6   9
ATOM      9  C   UNL A   1      32.061  24.224  26.148  1.00  0.00     0.072 C 
ATOM     10  C   UNL A   1      33.022  25.118  26.419  1.00  0.00     0.014 C 
BRANCH  10  11
ATOM     11  C   UNL A   1      33.396  26.228  25.530  1.00  0.00    -0.018 A 
ATOM     12  C   UNL A   1      33.784  27.180  23.337  1.00  0.00     0.165 A 
ATOM     13  C   UNL A   1      33.583  26.063  24.154  1.00  0.00     0.058 A 
ATOM     14  C   UNL A   1      33.769  28.473  23.883  1.00  0.00     0.200 A 
ATOM     15  C   UNL A   1      33.638  28.653  25.262  1.00  0.00     0.165 A 
ATOM     16  C   UNL A   1      33.450  27.521  26.071  1.00  0.00     0.058 A 
BRANCH  12  17
ATOM     17  O   UNL A   1      33.811  26.968  21.978  1.00  0.00    -0.493 OA
ATOM     18  C   UNL A   1      32.889  25.964  21.547  1.00  0.00     0.278 C 
ENDBRANCH  12  17
BRANCH  14  19
ATOM     19  O   UNL A   1      33.786  29.543  23.029  1.00  0.00    -0.502 OA
ATOM     20  H   UNL A   1      33.118  30.197  23.085  1.00  0.00     0.293 HD
ENDBRANCH  14  19
BRANCH  15  21
ATOM     21  O   UNL A   1      33.603  29.821  25.973  1.00  0.00    -0.493 OA
ATOM     22  C   UNL A   1      34.178  29.844  27.271  1.00  0.00     0.278 C 
ENDBRANCH  15  21
ENDBRANCH  10  11
ENDBRANCH   6   9
ENDBRANCH   4   5
ENDBRANCH   3   4
ENDBRANCH   2   3
ENDBRANCH   1   2
BRANCH   1  23
ATOM     23  C   UNL A   1      36.364  23.249  24.453  1.00  0.00     0.021 C 
BRANCH  23  24
ATOM     24  C   UNL A   1      36.986  23.448  25.831  1.00  0.00     0.116 C 
BRANCH  24  25
ATOM     25  N   UNL A   1      37.981  22.426  26.124  1.00  0.00    -0.352 N 
ATOM     26  C   UNL A   1      39.288  22.577  26.505  1.00  0.00     0.251 C 
ATOM     27  H   UNL A   1      37.670  21.496  26.034  1.00  0.00     0.163 HD
ATOM     28  O   UNL A   1      40.053  21.611  26.473  1.00  0.00    -0.269 OA
BRANCH  26  29
ATOM     29  C   UNL A   1      39.780  23.899  26.943  1.00  0.00     0.039 A 
ATOM     30  C   UNL A   1      40.200  24.067  28.264  1.00  0.00     0.014 A 
ATOM     31  C   UNL A   1      39.817  24.974  26.049  1.00  0.00     0.014 A 
ATOM     32  C   UNL A   1      40.708  25.302  28.675  1.00  0.00     0.010 A 
ATOM     33  C   UNL A   1      40.391  26.180  26.441  1.00  0.00     0.010 A 
ATOM     34  C   UNL A   1      40.835  26.359  27.759  1.00  0.00    -0.014 A 
BRANCH  34  35
ATOM     35  C   UNL A   1      41.427  27.660  28.163  1.00  0.00     0.031 A 
ATOM     36  C   UNL A   1      42.913  27.878  28.057  1.00  0.00     0.074 A 
ATOM     37  C   UNL A   1      40.635  28.620  28.681  1.00  0.00     0.049 A 
ATOM     38  N   UNL A   1      43.621  28.918  28.417  1.00  0.00    -0.248 NA
ATOM     39  C   UNL A   1      43.709  26.773  27.500  1.00  0.00     0.031 C 
ATOM     40  C   UNL A   1      39.188  28.506  28.878  1.00  0.00     0.029 A 
ATOM     41  N   UNL A   1      40.935  29.876  29.146  1.00  0.00    -0.354 N 
ATOM     42  C   UNL A   1      44.943  28.588  28.141  1.00  0.00     0.074 A 
ATOM     43  C   UNL A   1      44.945  27.233  27.637  1.00  0.00     0.031 C 
ATOM     44  C   UNL A   1      38.724  29.652  29.402  1.00  0.00     0.029 A 
ATOM     45  C   UNL A   1      39.842  30.566  29.616  1.00  0.00     0.049 A 
ATOM     46  H   UNL A   1      41.846  30.247  29.144  1.00  0.00     0.167 HD
ATOM     47  C   UNL A   1      46.052  29.356  28.272  1.00  0.00     0.037 A 
ATOM     48  C   UNL A   1      39.752  31.793  30.164  1.00  0.00     0.037 A 
ATOM     49  C   UNL A   1      46.038  30.713  28.753  1.00  0.00     0.049 A 
ATOM     50  C   UNL A   1      40.999  32.623  30.309  1.00  0.00     0.074 A 
ATOM     51  C   UNL A   1      47.097  31.596  28.865  1.00  0.00     0.029 A 
ATOM     52  N   UNL A   1      44.910  31.382  29.205  1.00  0.00    -0.354 N 
ATOM     53  N   UNL A   1      42.232  32.322  29.975  1.00  0.00    -0.248 NA
ATOM     54  C   UNL A   1      40.844  33.960  30.899  1.00  0.00     0.031 C 
ATOM     55  C   UNL A   1      46.620  32.781  29.432  1.00  0.00     0.029 A 
ATOM     56  C   UNL A   1      45.253  32.657  29.623  1.00  0.00     0.049 A 
ATOM     57  H   UNL A   1      44.001  31.006  29.227  1.00  0.00     0.167 HD
ATOM     58  C   UNL A   1      42.994  33.441  30.293  1.00  0.00     0.074 A 
ATOM     59  C   UNL A   1      42.082  34.430  30.830  1.00  0.00     0.031 C 
ATOM     60  C   UNL A   1      44.330  33.633  30.152  1.00  0.00     0.037 A 
BRANCH  47  61
ATOM     61  C   UNL A   1      47.373  28.747  27.886  1.00  0.00     0.058 A 
ATOM     62  C   UNL A   1      47.829  28.750  26.557  1.00  0.00     0.135 A 
ATOM     63  C   UNL A   1      48.214  28.185  28.862  1.00  0.00     0.135 A 
ATOM     64  F   UNL A   1      47.061  29.261  25.581  1.00  0.00    -0.206 F 
ATOM     65  C   UNL A   1      49.054  28.193  26.205  1.00  0.00     0.059 A 
ATOM     66  C   UNL A   1      49.456  27.648  28.536  1.00  0.00     0.059 A 
ATOM     67  F   UNL A   1      47.830  28.155  30.148  1.00  0.00    -0.206 F 
ATOM     68  C   UNL A   1      49.861  27.643  27.203  1.00  0.00     0.060 A 
BRANCH  68  69
ATOM     69  S   UNL A   1      51.449  26.929  26.728  1.00  0.00     0.124 S 
ATOM     70  O   UNL A   1      52.330  28.088  26.827  1.00  0.00    -0.237 OA
ATOM     71  O   UNL A   1      51.643  25.898  27.742  1.00  0.00    -0.237 OA
ATOM     72  O   UNL A   1      51.210  26.437  25.375  1.00  0.00    -0.744 OA
ENDBRANCH  68  69
ENDBRANCH  47  61
BRANCH  48  73
ATOM     73  C   UNL A   1      38.429  32.316  30.603  1.00  0.00     0.058 A 
ATOM     74  C   UNL A   1      37.943  32.058  31.893  1.00  0.00     0.135 A 
ATOM     75  C   UNL A   1      37.632  33.093  29.749  1.00  0.00     0.135 A 
ATOM     76  F   UNL A   1      38.665  31.316  32.747  1.00  0.00    -0.206 F 
ATOM     77  C   UNL A   1      36.707  32.537  32.316  1.00  0.00     0.059 A 
ATOM     78  C   UNL A   1      36.405  33.605  30.157  1.00  0.00     0.059 A 
ATOM     79  F   UNL A   1      38.059  33.382  28.509  1.00  0.00    -0.206 F 
ATOM     80  C   UNL A   1      35.946  33.313  31.440  1.00  0.00     0.060 A 
BRANCH  80  81
ATOM     81  S   UNL A   1      34.364  33.967  32.016  1.00  0.00     0.124 S 
ATOM     82  O   UNL A   1      33.767  32.789  32.635  1.00  0.00    -0.237 OA
ATOM     83  O   UNL A   1      34.784  35.026  32.928  1.00  0.00    -0.237 OA
ATOM     84  O   UNL A   1      33.724  34.426  30.786  1.00  0.00    -0.744 OA
ENDBRANCH  80  81
ENDBRANCH  48  73
BRANCH  60  85
ATOM     85  C   UNL A   1      44.886  34.969  30.559  1.00  0.00     0.058 A 
ATOM     86  C   UNL A   1      45.388  35.197  31.850  1.00  0.00     0.135 A 
ATOM     87  C   UNL A   1      44.977  36.015  29.626  1.00  0.00     0.135 A 
ATOM     88  F   UNL A   1      45.320  34.233  32.781  1.00  0.00    -0.206 F 
ATOM     89  C   UNL A   1      45.942  36.422  32.207  1.00  0.00     0.059 A 
ATOM     90  C   UNL A   1      45.554  37.238  29.953  1.00  0.00     0.059 A 
ATOM     91  F   UNL A   1      44.521  35.847  28.374  1.00  0.00    -0.206 F 
ATOM     92  C   UNL A   1      46.025  37.435  31.250  1.00  0.00     0.060 A 
BRANCH  92  93
ATOM     93  S   UNL A   1      46.788  39.003  31.715  1.00  0.00     0.124 S 
ATOM     94  O   UNL A   1      45.780  39.567  32.607  1.00  0.00    -0.237 OA
ATOM     95  O   UNL A   1      48.027  38.570  32.353  1.00  0.00    -0.237 OA
ATOM     96  O   UNL A   1      46.955  39.693  30.440  1.00  0.00    -0.744 OA
ENDBRANCH  92  93
ENDBRANCH  60  85
ENDBRANCH  34  35
ENDBRANCH  26  29
ENDBRANCH  24  25
ENDBRANCH  23  24
ENDBRANCH   1  23
TORSDOF 20
ENDMDL
MODEL 3
REMARK VINA RESULT:     -10.0      4.727     10.546
REMARK SMILES COc1cc(/C=C/C(=O)NCCCCCCNC(=O)c2ccc(-c3c4nc(c(-c5c(F)cc(S(=O)(=O)[O-])cc5F)c5ccc([nH]5)c(-c5c(F)cc(S(=O)(=O)[O-])cc5F)c5nc(c(-c6c(F)cc(S(=O)(=O)[O-])cc6F)c6ccc3[nH]6)C=C5)C=C4)cc2)cc(OC)c1O
REMARK SMILES IDX 14 1 13 2 12 3 11 4 10 5 8 6 9 7 7 9 6 10 5 11 3 12 4 13
REMARK SMILES IDX 90 14 87 15 86 16 2 17 1 18 91 19 88 21 89 22 15 23 16 24
REMARK SMILES IDX 17 25 18 26 19 28 20 29 21 30 85 31 22 32 84 33 23 34 24 35
REMARK SMILES IDX 25 36 78 37 26 38 83 39 77 40 79 41 27 42 82 43 76 44 75 45
REMARK SMILES IDX 28 47 62 48 41 49 61 50 42 51 45 52 60 53 80 54 43 55 44 56
REMARK SMILES IDX 59 58 81 59 46 60 29 61 30 62 39 63 31 64 32 65 38 66 40 67
REMARK SMILES IDX 33 68 34 69 35 70 36 71 37 72 63 73 64 74 73 75 65 76 66 77
REMARK SMILES IDX 72 78 74 79 67 80 68 81 69 82 70 83 71 84 47 85 48 86 57 87
REMARK SMILES IDX 49 88 50 89 56 90 58 91 51 92 52 93 53 94 54 95 55 96
REMARK H PARENT 10 8 91 20 17 27 79 46 45 57
REMARK Flexibility Score: inf
ROOT
ATOM      1  C   UNL A   1      40.249  21.635  26.299  1.00  0.00     0.002 C 
ENDROOT
BRANCH   1   2
ATOM      2  C   UNL A   1      38.766  21.989  26.135  1.00  0.00     0.002 C 
BRANCH   2   3
ATOM      3  C   UNL A   1      38.442  23.488  26.229  1.00  0.00     0.021 C 
BRANCH   3   4
ATOM      4  C   UNL A   1      37.116  23.871  25.568  1.00  0.00     0.116 C 
BRANCH   4   5
ATOM      5  N   UNL A   1      36.029  23.089  26.130  1.00  0.00    -0.353 N 
ATOM      6  C   UNL A   1      34.732  23.393  26.388  1.00  0.00     0.243 C 
ATOM      7  O   UNL A   1      33.988  22.517  26.831  1.00  0.00    -0.270 OA
ATOM      8  H   UNL A   1      36.280  22.166  26.368  1.00  0.00     0.163 HD
BRANCH   6   9
ATOM      9  C   UNL A   1      34.156  24.720  26.067  1.00  0.00     0.072 C 
ATOM     10  C   UNL A   1      32.851  25.027  26.069  1.00  0.00     0.014 C 
BRANCH  10  11
ATOM     11  C   UNL A   1      32.310  26.349  25.721  1.00  0.00    -0.018 A 
ATOM     12  C   UNL A   1      32.471  28.762  25.582  1.00  0.00     0.165 A 
ATOM     13  C   UNL A   1      32.949  27.543  26.072  1.00  0.00     0.058 A 
ATOM     14  C   UNL A   1      31.371  28.797  24.711  1.00  0.00     0.200 A 
ATOM     15  C   UNL A   1      30.688  27.621  24.394  1.00  0.00     0.165 A 
ATOM     16  C   UNL A   1      31.171  26.406  24.904  1.00  0.00     0.058 A 
BRANCH  12  17
ATOM     17  O   UNL A   1      33.228  29.882  25.839  1.00  0.00    -0.493 OA
ATOM     18  C   UNL A   1      33.202  30.276  27.213  1.00  0.00     0.278 C 
ENDBRANCH  12  17
BRANCH  14  19
ATOM     19  O   UNL A   1      31.050  29.985  24.111  1.00  0.00    -0.502 OA
ATOM     20  H   UNL A   1      30.438  30.565  24.519  1.00  0.00     0.293 HD
ENDBRANCH  14  19
BRANCH  15  21
ATOM     21  O   UNL A   1      29.605  27.456  23.574  1.00  0.00    -0.493 OA
ATOM     22  C   UNL A   1      28.625  26.492  23.930  1.00  0.00     0.278 C 
ENDBRANCH  15  21
ENDBRANCH  10  11
ENDBRANCH   6   9
ENDBRANCH   4   5
ENDBRANCH   3   4
ENDBRANCH   2   3
ENDBRANCH   1   2
BRANCH   1  23
ATOM     23  C   UNL A   1      40.793  21.770  27.724  1.00  0.00     0.021 C 
BRANCH  23  24
ATOM     24  C   UNL A   1      41.822  22.883  27.900  1.00  0.00     0.116 C 
BRANCH  24  25
ATOM     25  N   UNL A   1      42.124  23.540  26.637  1.00  0.00    -0.352 N 
ATOM     26  C   UNL A   1      41.981  24.859  26.294  1.00  0.00     0.251 C 
ATOM     27  H   UNL A   1      42.480  22.954  25.930  1.00  0.00     0.163 HD
ATOM     28  O   UNL A   1      42.054  25.197  25.110  1.00  0.00    -0.269 OA
BRANCH  26  29
ATOM     29  C   UNL A   1      41.731  25.869  27.340  1.00  0.00     0.039 A 
ATOM     30  C   UNL A   1      40.623  25.724  28.179  1.00  0.00     0.014 A 
ATOM     31  C   UNL A   1      42.586  26.966  27.487  1.00  0.00     0.014 A 
ATOM     32  C   UNL A   1      40.404  26.652  29.199  1.00  0.00     0.010 A 
ATOM     33  C   UNL A   1      42.407  27.847  28.550  1.00  0.00     0.010 A 
ATOM     34  C   UNL A   1      41.311  27.704  29.412  1.00  0.00    -0.014 A 
BRANCH  34  35
ATOM     35  C   UNL A   1      41.125  28.665  30.529  1.00  0.00     0.031 A 
ATOM     36  C   UNL A   1      41.995  28.575  31.754  1.00  0.00     0.074 A 
ATOM     37  C   UNL A   1      40.135  29.577  30.465  1.00  0.00     0.049 A 
ATOM     38  N   UNL A   1      41.946  29.281  32.855  1.00  0.00    -0.248 NA
ATOM     39  C   UNL A   1      43.039  27.538  31.754  1.00  0.00     0.031 C 
ATOM     40  C   UNL A   1      39.196  29.728  29.351  1.00  0.00     0.029 A 
ATOM     41  N   UNL A   1      39.745  30.543  31.359  1.00  0.00    -0.354 N 
ATOM     42  C   UNL A   1      42.940  28.768  33.679  1.00  0.00     0.074 A 
ATOM     43  C   UNL A   1      43.540  27.656  32.975  1.00  0.00     0.031 C 
ATOM     44  C   UNL A   1      38.355  30.741  29.618  1.00  0.00     0.029 A 
ATOM     45  C   UNL A   1      38.667  31.284  30.937  1.00  0.00     0.049 A 
ATOM     46  H   UNL A   1      40.195  30.690  32.222  1.00  0.00     0.167 HD
ATOM     47  C   UNL A   1      43.335  29.201  34.900  1.00  0.00     0.037 A 
ATOM     48  C   UNL A   1      37.999  32.283  31.546  1.00  0.00     0.037 A 
ATOM     49  C   UNL A   1      42.747  30.324  35.583  1.00  0.00     0.049 A 
ATOM     50  C   UNL A   1      38.449  32.740  32.908  1.00  0.00     0.074 A 
ATOM     51  C   UNL A   1      43.114  30.882  36.795  1.00  0.00     0.029 A 
ATOM     52  N   UNL A   1      41.667  31.059  35.117  1.00  0.00    -0.354 N 
ATOM     53  N   UNL A   1      39.440  32.290  33.641  1.00  0.00    -0.248 NA
ATOM     54  C   UNL A   1      37.697  33.843  33.521  1.00  0.00     0.031 C 
ATOM     55  C   UNL A   1      42.225  31.920  37.086  1.00  0.00     0.029 A 
ATOM     56  C   UNL A   1      41.337  32.047  36.029  1.00  0.00     0.049 A 
ATOM     57  H   UNL A   1      41.202  30.901  34.263  1.00  0.00     0.167 HD
ATOM     58  C   UNL A   1      39.444  33.071  34.793  1.00  0.00     0.074 A 
ATOM     59  C   UNL A   1      38.368  34.030  34.650  1.00  0.00     0.031 C 
ATOM     60  C   UNL A   1      40.264  32.999  35.871  1.00  0.00     0.037 A 
BRANCH  47  61
ATOM     61  C   UNL A   1      44.458  28.461  35.576  1.00  0.00     0.058 A 
ATOM     62  C   UNL A   1      45.802  28.813  35.373  1.00  0.00     0.135 A 
ATOM     63  C   UNL A   1      44.187  27.409  36.467  1.00  0.00     0.135 A 
ATOM     64  F   UNL A   1      46.121  29.801  34.521  1.00  0.00    -0.206 F 
ATOM     65  C   UNL A   1      46.837  28.131  36.004  1.00  0.00     0.059 A 
ATOM     66  C   UNL A   1      45.205  26.733  37.132  1.00  0.00     0.059 A 
ATOM     67  F   UNL A   1      42.920  27.030  36.699  1.00  0.00    -0.206 F 
ATOM     68  C   UNL A   1      46.529  27.091  36.882  1.00  0.00     0.060 A 
BRANCH  68  69
ATOM     69  S   UNL A   1      47.884  26.221  37.696  1.00  0.00     0.124 S 
ATOM     70  O   UNL A   1      49.036  26.709  36.944  1.00  0.00    -0.237 OA
ATOM     71  O   UNL A   1      47.779  26.696  39.071  1.00  0.00    -0.237 OA
ATOM     72  O   UNL A   1      47.555  24.813  37.494  1.00  0.00    -0.744 OA
ENDBRANCH  68  69
ENDBRANCH  47  61
BRANCH  48  73
ATOM     73  C   UNL A   1      36.843  32.928  30.865  1.00  0.00     0.058 A 
ATOM     74  C   UNL A   1      35.525  32.623  31.237  1.00  0.00     0.135 A 
ATOM     75  C   UNL A   1      37.032  33.869  29.843  1.00  0.00     0.135 A 
ATOM     76  F   UNL A   1      35.292  31.725  32.206  1.00  0.00    -0.206 F 
ATOM     77  C   UNL A   1      34.435  33.214  30.607  1.00  0.00     0.059 A 
ATOM     78  C   UNL A   1      35.958  34.494  29.216  1.00  0.00     0.059 A 
ATOM     79  F   UNL A   1      38.273  34.209  29.461  1.00  0.00    -0.206 F 
ATOM     80  C   UNL A   1      34.662  34.152  29.599  1.00  0.00     0.060 A 
BRANCH  80  81
ATOM     81  S   UNL A   1      33.240  34.948  28.820  1.00  0.00     0.124 S 
ATOM     82  O   UNL A   1      32.359  35.159  29.963  1.00  0.00    -0.237 OA
ATOM     83  O   UNL A   1      33.838  36.148  28.244  1.00  0.00    -0.237 OA
ATOM     84  O   UNL A   1      32.789  33.955  27.850  1.00  0.00    -0.744 OA
ENDBRANCH  80  81
ENDBRANCH  48  73
BRANCH  60  85
ATOM     85  C   UNL A   1      40.052  34.000  36.972  1.00  0.00     0.058 A 
ATOM     86  C   UNL A   1      40.633  35.277  36.930  1.00  0.00     0.135 A 
ATOM     87  C   UNL A   1      39.205  33.700  38.052  1.00  0.00     0.135 A 
ATOM     88  F   UNL A   1      41.456  35.613  35.924  1.00  0.00    -0.206 F 
ATOM     89  C   UNL A   1      40.398  36.215  37.930  1.00  0.00     0.059 A 
ATOM     90  C   UNL A   1      38.932  34.633  39.048  1.00  0.00     0.059 A 
ATOM     91  F   UNL A   1      38.616  32.497  38.135  1.00  0.00    -0.206 F 
ATOM     92  C   UNL A   1      39.541  35.885  38.983  1.00  0.00     0.060 A 
BRANCH  92  93
ATOM     93  S   UNL A   1      39.209  37.128  40.249  1.00  0.00     0.124 S 
ATOM     94  O   UNL A   1      40.559  37.478  40.678  1.00  0.00    -0.237 OA
ATOM     95  O   UNL A   1      38.496  38.156  39.497  1.00  0.00    -0.237 OA
ATOM     96  O   UNL A   1      38.405  36.407  41.232  1.00  0.00    -0.744 OA
ENDBRANCH  92  93
ENDBRANCH  60  85
ENDBRANCH  34  35
ENDBRANCH  26  29
ENDBRANCH  24  25
ENDBRANCH  23  24
ENDBRANCH   1  23
TORSDOF 20
ENDMDL
