MODEL 1
REMARK VINA RESULT:      -9.8      0.000      0.000
REMARK SMILES CCCC[C@H](C(=O)NCCCCCCNC(=O)c1ccc(-c2c3nc(c(-c4c(F)cc(S(=O)(=O)[O-])cc4F)c4ccc([nH]4)c(-c4c(F)cc(S(=O)(=O)[O-])cc4F)c4nc(c(-c5c(F)cc(S(=O)(=O)[O-])cc5F)c5ccc2[nH]5)C=C4)C=C3)cc1)c1ccnn1C
REMARK SMILES IDX 11 1 10 2 9 3 8 4 6 5 7 6 5 8 4 9 3 10 2 11 1 12 84 13 85 14
REMARK SMILES IDX 88 15 86 16 87 17 89 18 12 19 13 20 14 21 15 22 16 23 17 25
REMARK SMILES IDX 18 26 19 27 83 28 20 29 82 30 21 31 22 32 23 33 76 34 24 35
REMARK SMILES IDX 81 36 75 37 77 38 25 39 80 40 74 41 73 42 26 44 60 45 39 46
REMARK SMILES IDX 59 47 40 48 43 49 58 50 78 51 41 52 42 53 57 55 79 56 44 57
REMARK SMILES IDX 27 58 28 59 37 60 29 61 30 62 36 63 38 64 31 65 32 66 33 67
REMARK SMILES IDX 34 68 35 69 61 70 62 71 71 72 63 73 64 74 70 75 72 76 65 77
REMARK SMILES IDX 66 78 67 79 68 80 69 81 45 82 46 83 55 84 47 85 48 86 54 87
REMARK SMILES IDX 56 88 49 89 50 90 51 91 52 92 53 93
REMARK H PARENT 8 7 15 24 77 43 43 54
REMARK Flexibility Score: inf
ROOT
ATOM      1  C   UNL A   1      31.330  27.558  24.566  1.00  0.00     0.002 C 
ENDROOT
BRANCH   1   2
ATOM      2  C   UNL A   1      31.618  26.162  24.004  1.00  0.00     0.021 C 
BRANCH   2   3
ATOM      3  C   UNL A   1      30.451  25.193  24.090  1.00  0.00     0.116 C 
BRANCH   3   4
ATOM      4  N   UNL A   1      30.326  24.528  25.357  1.00  0.00    -0.356 N 
ATOM      5  C   UNL A   1      31.295  23.900  26.075  1.00  0.00     0.229 C 
ATOM      6  O   UNL A   1      31.046  23.716  27.275  1.00  0.00    -0.274 OA
ATOM      7  H   UNL A   1      29.425  24.526  25.756  1.00  0.00     0.163 HD
BRANCH   5   8
ATOM      8  C   UNL A   1      32.582  23.319  25.466  1.00  0.00     0.127 C 
BRANCH   8   9
ATOM      9  C   UNL A   1      33.881  23.806  26.145  1.00  0.00     0.020 C 
BRANCH   9  10
ATOM     10  C   UNL A   1      35.232  23.110  25.937  1.00  0.00     0.001 C 
BRANCH  10  11
ATOM     11  C   UNL A   1      36.271  23.838  25.084  1.00  0.00    -0.003 C 
ATOM     12  C   UNL A   1      36.645  23.092  23.813  1.00  0.00     0.004 C 
ENDBRANCH  10  11
ENDBRANCH   9  10
ENDBRANCH   8   9
BRANCH   8  13
ATOM     13  C   UNL A   1      32.529  21.889  24.962  1.00  0.00     0.050 A 
ATOM     14  C   UNL A   1      32.488  20.653  25.589  1.00  0.00     0.046 A 
ATOM     15  N   UNL A   1      32.489  21.568  23.615  1.00  0.00    -0.272 N 
ATOM     16  C   UNL A   1      32.455  19.688  24.572  1.00  0.00     0.135 A 
ATOM     17  N   UNL A   1      32.450  20.245  23.369  1.00  0.00    -0.182 NA
ATOM     18  C   UNL A   1      32.486  22.432  22.457  1.00  0.00     0.174 C 
ENDBRANCH   8  13
ENDBRANCH   5   8
ENDBRANCH   3   4
ENDBRANCH   2   3
ENDBRANCH   1   2
BRANCH   1  19
ATOM     19  C   UNL A   1      31.652  27.777  26.051  1.00  0.00     0.002 C 
BRANCH  19  20
ATOM     20  C   UNL A   1      33.083  27.459  26.498  1.00  0.00     0.021 C 
BRANCH  20  21
ATOM     21  C   UNL A   1      34.146  28.468  26.084  1.00  0.00     0.116 C 
BRANCH  21  22
ATOM     22  N   UNL A   1      33.808  29.824  26.477  1.00  0.00    -0.352 N 
ATOM     23  C   UNL A   1      34.413  30.648  27.386  1.00  0.00     0.251 C 
ATOM     24  H   UNL A   1      33.026  30.208  26.019  1.00  0.00     0.163 HD
ATOM     25  O   UNL A   1      33.867  31.715  27.684  1.00  0.00    -0.269 OA
BRANCH  23  26
ATOM     26  C   UNL A   1      35.693  30.272  28.022  1.00  0.00     0.039 A 
ATOM     27  C   UNL A   1      35.660  29.674  29.285  1.00  0.00     0.014 A 
ATOM     28  C   UNL A   1      36.923  30.545  27.413  1.00  0.00     0.014 A 
ATOM     29  C   UNL A   1      36.852  29.325  29.923  1.00  0.00     0.010 A 
ATOM     30  C   UNL A   1      38.108  30.132  28.019  1.00  0.00     0.010 A 
ATOM     31  C   UNL A   1      38.087  29.536  29.288  1.00  0.00    -0.014 A 
BRANCH  31  32
ATOM     32  C   UNL A   1      39.362  29.180  29.960  1.00  0.00     0.031 A 
ATOM     33  C   UNL A   1      39.805  29.940  31.182  1.00  0.00     0.074 A 
ATOM     34  C   UNL A   1      40.136  28.200  29.454  1.00  0.00     0.049 A 
ATOM     35  N   UNL A   1      40.905  29.815  31.880  1.00  0.00    -0.248 NA
ATOM     36  C   UNL A   1      38.904  30.997  31.671  1.00  0.00     0.031 C 
ATOM     37  C   UNL A   1      39.833  27.418  28.253  1.00  0.00     0.029 A 
ATOM     38  N   UNL A   1      41.338  27.697  29.882  1.00  0.00    -0.354 N 
ATOM     39  C   UNL A   1      40.834  30.783  32.877  1.00  0.00     0.074 A 
ATOM     40  C   UNL A   1      39.610  31.522  32.660  1.00  0.00     0.031 C 
ATOM     41  C   UNL A   1      40.812  26.519  28.054  1.00  0.00     0.029 A 
ATOM     42  C   UNL A   1      41.826  26.681  29.093  1.00  0.00     0.049 A 
ATOM     43  H   UNL A   1      41.809  28.031  30.679  1.00  0.00     0.167 HD
ATOM     44  C   UNL A   1      41.697  31.016  33.896  1.00  0.00     0.037 A 
ATOM     45  C   UNL A   1      42.961  25.963  29.194  1.00  0.00     0.037 A 
ATOM     46  C   UNL A   1      42.897  30.256  34.123  1.00  0.00     0.049 A 
ATOM     47  C   UNL A   1      43.897  26.234  30.342  1.00  0.00     0.074 A 
ATOM     48  C   UNL A   1      43.819  30.387  35.148  1.00  0.00     0.029 A 
ATOM     49  N   UNL A   1      43.339  29.214  33.320  1.00  0.00    -0.354 N 
ATOM     50  N   UNL A   1      43.793  27.124  31.300  1.00  0.00    -0.248 NA
ATOM     51  C   UNL A   1      45.099  25.393  30.431  1.00  0.00     0.031 C 
ATOM     52  C   UNL A   1      44.835  29.445  34.946  1.00  0.00     0.029 A 
ATOM     53  C   UNL A   1      44.521  28.698  33.822  1.00  0.00     0.049 A 
ATOM     54  H   UNL A   1      42.879  28.890  32.512  1.00  0.00     0.167 HD
ATOM     55  C   UNL A   1      44.893  26.926  32.126  1.00  0.00     0.074 A 
ATOM     56  C   UNL A   1      45.648  25.827  31.557  1.00  0.00     0.031 C 
ATOM     57  C   UNL A   1      45.247  27.590  33.254  1.00  0.00     0.037 A 
BRANCH  44  58
ATOM     58  C   UNL A   1      41.366  32.133  34.848  1.00  0.00     0.058 A 
ATOM     59  C   UNL A   1      41.886  33.426  34.673  1.00  0.00     0.135 A 
ATOM     60  C   UNL A   1      40.493  31.921  35.926  1.00  0.00     0.135 A 
ATOM     61  F   UNL A   1      42.739  33.682  33.668  1.00  0.00    -0.206 F 
ATOM     62  C   UNL A   1      41.575  34.460  35.550  1.00  0.00     0.059 A 
ATOM     63  C   UNL A   1      40.146  32.948  36.799  1.00  0.00     0.059 A 
ATOM     64  F   UNL A   1      39.966  30.704  36.141  1.00  0.00    -0.206 F 
ATOM     65  C   UNL A   1      40.704  34.211  36.611  1.00  0.00     0.060 A 
BRANCH  65  66
ATOM     66  S   UNL A   1      40.306  35.566  37.736  1.00  0.00     0.124 S 
ATOM     67  O   UNL A   1      41.514  35.629  38.553  1.00  0.00    -0.237 OA
ATOM     68  O   UNL A   1      40.102  36.684  36.820  1.00  0.00    -0.237 OA
ATOM     69  O   UNL A   1      39.107  35.096  38.424  1.00  0.00    -0.744 OA
ENDBRANCH  65  66
ENDBRANCH  44  58
BRANCH  45  70
ATOM     70  C   UNL A   1      43.262  24.898  28.202  1.00  0.00     0.058 A 
ATOM     71  C   UNL A   1      43.927  25.197  27.003  1.00  0.00     0.135 A 
ATOM     72  C   UNL A   1      42.891  23.564  28.428  1.00  0.00     0.135 A 
ATOM     73  F   UNL A   1      44.299  26.459  26.740  1.00  0.00    -0.206 F 
ATOM     74  C   UNL A   1      44.190  24.218  26.051  1.00  0.00     0.059 A 
ATOM     75  C   UNL A   1      43.166  22.562  27.502  1.00  0.00     0.059 A 
ATOM     76  F   UNL A   1      42.270  23.222  29.567  1.00  0.00    -0.206 F 
ATOM     77  C   UNL A   1      43.804  22.902  26.309  1.00  0.00     0.060 A 
BRANCH  77  78
ATOM     78  S   UNL A   1      44.177  21.631  25.081  1.00  0.00     0.124 S 
ATOM     79  O   UNL A   1      45.544  21.274  25.438  1.00  0.00    -0.237 OA
ATOM     80  O   UNL A   1      43.158  20.623  25.363  1.00  0.00    -0.237 OA
ATOM     81  O   UNL A   1      44.016  22.335  23.813  1.00  0.00    -0.744 OA
ENDBRANCH  77  78
ENDBRANCH  45  70
BRANCH  57  82
ATOM     82  C   UNL A   1      46.473  27.111  33.982  1.00  0.00     0.058 A 
ATOM     83  C   UNL A   1      47.747  27.633  33.710  1.00  0.00     0.135 A 
ATOM     84  C   UNL A   1      46.361  26.145  34.994  1.00  0.00     0.135 A 
ATOM     85  F   UNL A   1      47.910  28.555  32.748  1.00  0.00    -0.206 F 
ATOM     86  C   UNL A   1      48.873  27.192  34.399  1.00  0.00     0.059 A 
ATOM     87  C   UNL A   1      47.468  25.710  35.714  1.00  0.00     0.059 A 
ATOM     88  F   UNL A   1      45.162  25.623  35.301  1.00  0.00    -0.206 F 
ATOM     89  C   UNL A   1      48.723  26.229  35.398  1.00  0.00     0.060 A 
BRANCH  89  90
ATOM     90  S   UNL A   1      50.187  25.681  36.302  1.00  0.00     0.124 S 
ATOM     91  O   UNL A   1      49.596  25.166  37.532  1.00  0.00    -0.237 OA
ATOM     92  O   UNL A   1      50.754  24.680  35.403  1.00  0.00    -0.237 OA
ATOM     93  O   UNL A   1      50.974  26.902  36.446  1.00  0.00    -0.744 OA
ENDBRANCH  89  90
ENDBRANCH  57  82
ENDBRANCH  31  32
ENDBRANCH  23  26
ENDBRANCH  21  22
ENDBRANCH  20  21
ENDBRANCH  19  20
ENDBRANCH   1  19
TORSDOF 20
ENDMDL
MODEL 2
REMARK VINA RESULT:      -9.8      3.338      9.454
REMARK SMILES CCCC[C@H](C(=O)NCCCCCCNC(=O)c1ccc(-c2c3nc(c(-c4c(F)cc(S(=O)(=O)[O-])cc4F)c4ccc([nH]4)c(-c4c(F)cc(S(=O)(=O)[O-])cc4F)c4nc(c(-c5c(F)cc(S(=O)(=O)[O-])cc5F)c5ccc2[nH]5)C=C4)C=C3)cc1)c1ccnn1C
REMARK SMILES IDX 11 1 10 2 9 3 8 4 6 5 7 6 5 8 4 9 3 10 2 11 1 12 84 13 85 14
REMARK SMILES IDX 88 15 86 16 87 17 89 18 12 19 13 20 14 21 15 22 16 23 17 25
REMARK SMILES IDX 18 26 19 27 83 28 20 29 82 30 21 31 22 32 23 33 76 34 24 35
REMARK SMILES IDX 81 36 75 37 77 38 25 39 80 40 74 41 73 42 26 44 60 45 39 46
REMARK SMILES IDX 59 47 40 48 43 49 58 50 78 51 41 52 42 53 57 55 79 56 44 57
REMARK SMILES IDX 27 58 28 59 37 60 29 61 30 62 36 63 38 64 31 65 32 66 33 67
REMARK SMILES IDX 34 68 35 69 61 70 62 71 71 72 63 73 64 74 70 75 72 76 65 77
REMARK SMILES IDX 66 78 67 79 68 80 69 81 45 82 46 83 55 84 47 85 48 86 54 87
REMARK SMILES IDX 56 88 49 89 50 90 51 91 52 92 53 93
REMARK H PARENT 8 7 15 24 77 43 43 54
REMARK Flexibility Score: inf
ROOT
ATOM      1  C   UNL A   1      38.971  22.243  26.466  1.00  0.00     0.002 C 
ENDROOT
BRANCH   1   2
ATOM      2  C   UNL A   1      38.129  21.448  25.464  1.00  0.00     0.021 C 
BRANCH   2   3
ATOM      3  C   UNL A   1      36.769  22.054  25.160  1.00  0.00     0.116 C 
BRANCH   3   4
ATOM      4  N   UNL A   1      35.892  22.140  26.294  1.00  0.00    -0.356 N 
ATOM      5  C   UNL A   1      34.657  21.592  26.444  1.00  0.00     0.229 C 
ATOM      6  O   UNL A   1      34.246  21.495  27.609  1.00  0.00    -0.274 OA
ATOM      7  H   UNL A   1      36.227  22.663  27.058  1.00  0.00     0.163 HD
BRANCH   5   8
ATOM      8  C   UNL A   1      33.731  21.213  25.275  1.00  0.00     0.127 C 
BRANCH   8   9
ATOM      9  C   UNL A   1      33.323  19.723  25.246  1.00  0.00     0.020 C 
BRANCH   9  10
ATOM     10  C   UNL A   1      34.186  18.645  24.579  1.00  0.00     0.001 C 
BRANCH  10  11
ATOM     11  C   UNL A   1      33.473  17.390  24.076  1.00  0.00    -0.003 C 
ATOM     12  C   UNL A   1      34.146  16.752  22.870  1.00  0.00     0.004 C 
ENDBRANCH  10  11
ENDBRANCH   9  10
ENDBRANCH   8   9
BRANCH   8  13
ATOM     13  C   UNL A   1      32.710  22.245  24.835  1.00  0.00     0.050 A 
ATOM     14  C   UNL A   1      31.442  22.588  25.278  1.00  0.00     0.046 A 
ATOM     15  N   UNL A   1      32.938  23.130  23.794  1.00  0.00    -0.272 N 
ATOM     16  C   UNL A   1      30.997  23.630  24.453  1.00  0.00     0.135 A 
ATOM     17  N   UNL A   1      31.910  23.965  23.551  1.00  0.00    -0.182 NA
ATOM     18  C   UNL A   1      34.096  23.282  22.943  1.00  0.00     0.174 C 
ENDBRANCH   8  13
ENDBRANCH   5   8
ENDBRANCH   3   4
ENDBRANCH   2   3
ENDBRANCH   1   2
BRANCH   1  19
ATOM     19  C   UNL A   1      40.493  22.070  26.369  1.00  0.00     0.002 C 
BRANCH  19  20
ATOM     20  C   UNL A   1      41.294  22.296  27.657  1.00  0.00     0.021 C 
BRANCH  20  21
ATOM     21  C   UNL A   1      42.453  23.280  27.552  1.00  0.00     0.116 C 
BRANCH  21  22
ATOM     22  N   UNL A   1      42.404  24.068  26.334  1.00  0.00    -0.352 N 
ATOM     23  C   UNL A   1      42.072  25.382  26.155  1.00  0.00     0.251 C 
ATOM     24  H   UNL A   1      42.648  23.582  25.513  1.00  0.00     0.163 HD
ATOM     25  O   UNL A   1      41.944  25.818  25.007  1.00  0.00    -0.269 OA
BRANCH  23  26
ATOM     26  C   UNL A   1      41.851  26.277  27.312  1.00  0.00     0.039 A 
ATOM     27  C   UNL A   1      40.737  26.052  28.125  1.00  0.00     0.014 A 
ATOM     28  C   UNL A   1      42.699  27.359  27.574  1.00  0.00     0.014 A 
ATOM     29  C   UNL A   1      40.487  26.891  29.214  1.00  0.00     0.010 A 
ATOM     30  C   UNL A   1      42.489  28.151  28.702  1.00  0.00     0.010 A 
ATOM     31  C   UNL A   1      41.371  27.938  29.521  1.00  0.00    -0.014 A 
BRANCH  31  32
ATOM     32  C   UNL A   1      41.111  28.843  30.669  1.00  0.00     0.031 A 
ATOM     33  C   UNL A   1      41.957  28.744  31.911  1.00  0.00     0.074 A 
ATOM     34  C   UNL A   1      40.095  29.728  30.610  1.00  0.00     0.049 A 
ATOM     35  N   UNL A   1      41.858  29.407  33.035  1.00  0.00    -0.248 NA
ATOM     36  C   UNL A   1      43.044  27.751  31.897  1.00  0.00     0.031 C 
ATOM     37  C   UNL A   1      39.181  29.891  29.477  1.00  0.00     0.029 A 
ATOM     38  N   UNL A   1      39.658  30.652  31.524  1.00  0.00    -0.354 N 
ATOM     39  C   UNL A   1      42.856  28.903  33.863  1.00  0.00     0.074 A 
ATOM     40  C   UNL A   1      43.514  27.843  33.132  1.00  0.00     0.031 C 
ATOM     41  C   UNL A   1      38.307  30.872  29.755  1.00  0.00     0.029 A 
ATOM     42  C   UNL A   1      38.577  31.386  31.095  1.00  0.00     0.049 A 
ATOM     43  H   UNL A   1      40.078  30.778  32.405  1.00  0.00     0.167 HD
ATOM     44  C   UNL A   1      43.209  29.306  35.107  1.00  0.00     0.037 A 
ATOM     45  C   UNL A   1      37.882  32.361  31.713  1.00  0.00     0.037 A 
ATOM     46  C   UNL A   1      42.570  30.383  35.816  1.00  0.00     0.049 A 
ATOM     47  C   UNL A   1      38.302  32.798  33.091  1.00  0.00     0.074 A 
ATOM     48  C   UNL A   1      42.877  30.895  37.065  1.00  0.00     0.029 A 
ATOM     49  N   UNL A   1      41.500  31.123  35.334  1.00  0.00    -0.354 N 
ATOM     50  N   UNL A   1      39.276  32.340  33.841  1.00  0.00    -0.248 NA
ATOM     51  C   UNL A   1      37.538  33.894  33.701  1.00  0.00     0.031 C 
ATOM     52  C   UNL A   1      41.971  31.923  37.352  1.00  0.00     0.029 A 
ATOM     53  C   UNL A   1      41.131  32.082  36.262  1.00  0.00     0.049 A 
ATOM     54  H   UNL A   1      41.066  30.986  34.461  1.00  0.00     0.167 HD
ATOM     55  C   UNL A   1      39.265  33.116  34.994  1.00  0.00     0.074 A 
ATOM     56  C   UNL A   1      38.192  34.077  34.840  1.00  0.00     0.031 C 
ATOM     57  C   UNL A   1      40.072  33.043  36.082  1.00  0.00     0.037 A 
BRANCH  44  58
ATOM     58  C   UNL A   1      44.347  28.584  35.777  1.00  0.00     0.058 A 
ATOM     59  C   UNL A   1      45.678  29.000  35.613  1.00  0.00     0.135 A 
ATOM     60  C   UNL A   1      44.104  27.488  36.618  1.00  0.00     0.135 A 
ATOM     61  F   UNL A   1      45.971  30.033  34.806  1.00  0.00    -0.206 F 
ATOM     62  C   UNL A   1      46.730  28.337  36.236  1.00  0.00     0.059 A 
ATOM     63  C   UNL A   1      45.138  26.826  37.274  1.00  0.00     0.059 A 
ATOM     64  F   UNL A   1      42.850  27.047  36.810  1.00  0.00    -0.206 F 
ATOM     65  C   UNL A   1      46.450  27.249  37.066  1.00  0.00     0.060 A 
BRANCH  65  66
ATOM     66  S   UNL A   1      47.825  26.404  37.872  1.00  0.00     0.124 S 
ATOM     67  O   UNL A   1      48.869  27.424  37.815  1.00  0.00    -0.237 OA
ATOM     68  O   UNL A   1      47.287  26.124  39.200  1.00  0.00    -0.237 OA
ATOM     69  O   UNL A   1      48.046  25.233  37.029  1.00  0.00    -0.744 OA
ENDBRANCH  65  66
ENDBRANCH  44  58
BRANCH  45  70
ATOM     70  C   UNL A   1      36.738  33.013  31.024  1.00  0.00     0.058 A 
ATOM     71  C   UNL A   1      36.951  33.920  29.974  1.00  0.00     0.135 A 
ATOM     72  C   UNL A   1      35.412  32.749  31.398  1.00  0.00     0.135 A 
ATOM     73  F   UNL A   1      38.202  34.209  29.582  1.00  0.00    -0.206 F 
ATOM     74  C   UNL A   1      35.894  34.562  29.338  1.00  0.00     0.059 A 
ATOM     75  C   UNL A   1      34.336  33.358  30.760  1.00  0.00     0.059 A 
ATOM     76  F   UNL A   1      35.153  31.875  32.382  1.00  0.00    -0.206 F 
ATOM     77  C   UNL A   1      34.588  34.275  29.740  1.00  0.00     0.060 A 
BRANCH  77  78
ATOM     78  S   UNL A   1      33.220  35.090  28.887  1.00  0.00     0.124 S 
ATOM     79  O   UNL A   1      32.271  35.283  29.977  1.00  0.00    -0.237 OA
ATOM     80  O   UNL A   1      33.856  36.299  28.371  1.00  0.00    -0.237 OA
ATOM     81  O   UNL A   1      32.830  34.115  27.874  1.00  0.00    -0.744 OA
ENDBRANCH  77  78
ENDBRANCH  45  70
BRANCH  57  82
ATOM     82  C   UNL A   1      39.865  34.065  37.166  1.00  0.00     0.058 A 
ATOM     83  C   UNL A   1      38.980  33.844  38.232  1.00  0.00     0.135 A 
ATOM     84  C   UNL A   1      40.595  35.264  37.155  1.00  0.00     0.135 A 
ATOM     85  F   UNL A   1      38.255  32.716  38.288  1.00  0.00    -0.206 F 
ATOM     86  C   UNL A   1      38.806  34.791  39.237  1.00  0.00     0.059 A 
ATOM     87  C   UNL A   1      40.457  36.212  38.163  1.00  0.00     0.059 A 
ATOM     88  F   UNL A   1      41.463  35.518  36.162  1.00  0.00    -0.206 F 
ATOM     89  C   UNL A   1      39.548  35.973  39.193  1.00  0.00     0.060 A 
BRANCH  89  90
ATOM     90  S   UNL A   1      39.331  37.184  40.514  1.00  0.00     0.124 S 
ATOM     91  O   UNL A   1      39.000  36.326  41.646  1.00  0.00    -0.237 OA
ATOM     92  O   UNL A   1      40.640  37.828  40.566  1.00  0.00    -0.237 OA
ATOM     93  O   UNL A   1      38.244  38.028  40.025  1.00  0.00    -0.744 OA
ENDBRANCH  89  90
ENDBRANCH  57  82
ENDBRANCH  31  32
ENDBRANCH  23  26
ENDBRANCH  21  22
ENDBRANCH  20  21
ENDBRANCH  19  20
ENDBRANCH   1  19
TORSDOF 20
ENDMDL
MODEL 3
REMARK VINA RESULT:      -9.8      5.200      6.945
REMARK SMILES CCCC[C@H](C(=O)NCCCCCCNC(=O)c1ccc(-c2c3nc(c(-c4c(F)cc(S(=O)(=O)[O-])cc4F)c4ccc([nH]4)c(-c4c(F)cc(S(=O)(=O)[O-])cc4F)c4nc(c(-c5c(F)cc(S(=O)(=O)[O-])cc5F)c5ccc2[nH]5)C=C4)C=C3)cc1)c1ccnn1C
REMARK SMILES IDX 11 1 10 2 9 3 8 4 6 5 7 6 5 8 4 9 3 10 2 11 1 12 84 13 85 14
REMARK SMILES IDX 88 15 86 16 87 17 89 18 12 19 13 20 14 21 15 22 16 23 17 25
REMARK SMILES IDX 18 26 19 27 83 28 20 29 82 30 21 31 22 32 23 33 76 34 24 35
REMARK SMILES IDX 81 36 75 37 77 38 25 39 80 40 74 41 73 42 26 44 60 45 39 46
REMARK SMILES IDX 59 47 40 48 43 49 58 50 78 51 41 52 42 53 57 55 79 56 44 57
REMARK SMILES IDX 27 58 28 59 37 60 29 61 30 62 36 63 38 64 31 65 32 66 33 67
REMARK SMILES IDX 34 68 35 69 61 70 62 71 71 72 63 73 64 74 70 75 72 76 65 77
REMARK SMILES IDX 66 78 67 79 68 80 69 81 45 82 46 83 55 84 47 85 48 86 54 87
REMARK SMILES IDX 56 88 49 89 50 90 51 91 52 92 53 93
REMARK H PARENT 8 7 15 24 77 43 43 54
REMARK Flexibility Score: inf
ROOT
ATOM      1  C   UNL A   1      34.707  31.048  27.660  1.00  0.00     0.002 C 
ENDROOT
BRANCH   1   2
ATOM      2  C   UNL A   1      33.336  30.583  27.160  1.00  0.00     0.021 C 
BRANCH   2   3
ATOM      3  C   UNL A   1      33.347  29.252  26.427  1.00  0.00     0.116 C 
BRANCH   3   4
ATOM      4  N   UNL A   1      33.843  29.321  25.081  1.00  0.00    -0.356 N 
ATOM      5  C   UNL A   1      33.313  28.763  23.961  1.00  0.00     0.229 C 
ATOM      6  O   UNL A   1      33.698  29.240  22.884  1.00  0.00    -0.274 OA
ATOM      7  H   UNL A   1      34.673  29.836  24.954  1.00  0.00     0.163 HD
BRANCH   5   8
ATOM      8  C   UNL A   1      32.387  27.534  23.963  1.00  0.00     0.127 C 
BRANCH   8   9
ATOM      9  C   UNL A   1      30.908  27.855  24.271  1.00  0.00     0.020 C 
BRANCH   9  10
ATOM     10  C   UNL A   1      29.824  27.870  23.187  1.00  0.00     0.001 C 
BRANCH  10  11
ATOM     11  C   UNL A   1      29.634  29.170  22.405  1.00  0.00    -0.003 C 
ATOM     12  C   UNL A   1      29.055  30.302  23.240  1.00  0.00     0.004 C 
ENDBRANCH  10  11
ENDBRANCH   9  10
ENDBRANCH   8   9
BRANCH   8  13
ATOM     13  C   UNL A   1      32.689  26.436  22.961  1.00  0.00     0.050 A 
ATOM     14  C   UNL A   1      32.294  26.195  21.654  1.00  0.00     0.046 A 
ATOM     15  N   UNL A   1      33.537  25.377  23.241  1.00  0.00    -0.272 N 
ATOM     16  C   UNL A   1      32.911  24.999  21.262  1.00  0.00     0.135 A 
ATOM     17  N   UNL A   1      33.673  24.502  22.226  1.00  0.00    -0.182 NA
ATOM     18  C   UNL A   1      34.281  25.078  24.443  1.00  0.00     0.174 C 
ENDBRANCH   8  13
ENDBRANCH   5   8
ENDBRANCH   3   4
ENDBRANCH   2   3
ENDBRANCH   1   2
BRANCH   1  19
ATOM     19  C   UNL A   1      34.784  32.476  28.216  1.00  0.00     0.002 C 
BRANCH  19  20
ATOM     20  C   UNL A   1      36.167  33.138  28.220  1.00  0.00     0.021 C 
BRANCH  20  21
ATOM     21  C   UNL A   1      36.860  33.217  29.575  1.00  0.00     0.116 C 
BRANCH  21  22
ATOM     22  N   UNL A   1      36.356  32.233  30.515  1.00  0.00    -0.352 N 
ATOM     23  C   UNL A   1      36.868  31.013  30.863  1.00  0.00     0.251 C 
ATOM     24  H   UNL A   1      35.519  32.481  30.970  1.00  0.00     0.163 HD
ATOM     25  O   UNL A   1      36.194  30.260  31.574  1.00  0.00    -0.269 OA
BRANCH  23  26
ATOM     26  C   UNL A   1      38.202  30.583  30.392  1.00  0.00     0.039 A 
ATOM     27  C   UNL A   1      38.369  30.299  29.033  1.00  0.00     0.014 A 
ATOM     28  C   UNL A   1      39.272  30.411  31.276  1.00  0.00     0.014 A 
ATOM     29  C   UNL A   1      39.610  29.871  28.557  1.00  0.00     0.010 A 
ATOM     30  C   UNL A   1      40.528  30.052  30.789  1.00  0.00     0.010 A 
ATOM     31  C   UNL A   1      40.705  29.760  29.429  1.00  0.00    -0.014 A 
BRANCH  31  32
ATOM     32  C   UNL A   1      42.027  29.295  28.938  1.00  0.00     0.031 A 
ATOM     33  C   UNL A   1      43.175  30.266  28.836  1.00  0.00     0.074 A 
ATOM     34  C   UNL A   1      42.187  28.014  28.551  1.00  0.00     0.049 A 
ATOM     35  N   UNL A   1      44.387  30.069  28.386  1.00  0.00    -0.248 NA
ATOM     36  C   UNL A   1      42.918  31.647  29.276  1.00  0.00     0.031 C 
ATOM     37  C   UNL A   1      41.140  26.989  28.566  1.00  0.00     0.029 A 
ATOM     38  N   UNL A   1      43.288  27.356  28.065  1.00  0.00    -0.354 N 
ATOM     39  C   UNL A   1      45.030  31.299  28.475  1.00  0.00     0.074 A 
ATOM     40  C   UNL A   1      44.058  32.248  28.971  1.00  0.00     0.031 C 
ATOM     41  C   UNL A   1      41.656  25.827  28.132  1.00  0.00     0.029 A 
ATOM     42  C   UNL A   1      43.058  26.030  27.779  1.00  0.00     0.049 A 
ATOM     43  H   UNL A   1      44.161  27.791  27.934  1.00  0.00     0.167 HD
ATOM     44  C   UNL A   1      46.321  31.604  28.196  1.00  0.00     0.037 A 
ATOM     45  C   UNL A   1      43.885  25.087  27.287  1.00  0.00     0.037 A 
ATOM     46  C   UNL A   1      47.291  30.647  27.733  1.00  0.00     0.049 A 
ATOM     47  C   UNL A   1      45.317  25.448  26.996  1.00  0.00     0.074 A 
ATOM     48  C   UNL A   1      48.634  30.846  27.457  1.00  0.00     0.029 A 
ATOM     49  N   UNL A   1      47.027  29.308  27.487  1.00  0.00    -0.354 N 
ATOM     50  N   UNL A   1      45.919  26.606  27.128  1.00  0.00    -0.248 NA
ATOM     51  C   UNL A   1      46.186  24.371  26.502  1.00  0.00     0.031 C 
ATOM     52  C   UNL A   1      49.173  29.633  27.013  1.00  0.00     0.029 A 
ATOM     53  C   UNL A   1      48.179  28.669  27.057  1.00  0.00     0.049 A 
ATOM     54  H   UNL A   1      46.150  28.875  27.600  1.00  0.00     0.167 HD
ATOM     55  C   UNL A   1      47.245  26.389  26.770  1.00  0.00     0.074 A 
ATOM     56  C   UNL A   1      47.358  24.986  26.422  1.00  0.00     0.031 C 
ATOM     57  C   UNL A   1      48.276  27.268  26.735  1.00  0.00     0.037 A 
BRANCH  44  58
ATOM     58  C   UNL A   1      46.759  33.029  28.395  1.00  0.00     0.058 A 
ATOM     59  C   UNL A   1      46.674  33.975  27.361  1.00  0.00     0.135 A 
ATOM     60  C   UNL A   1      47.237  33.464  29.641  1.00  0.00     0.135 A 
ATOM     61  F   UNL A   1      46.239  33.610  26.144  1.00  0.00    -0.206 F 
ATOM     62  C   UNL A   1      47.073  35.295  27.546  1.00  0.00     0.059 A 
ATOM     63  C   UNL A   1      47.616  34.787  29.857  1.00  0.00     0.059 A 
ATOM     64  F   UNL A   1      47.341  32.602  30.666  1.00  0.00    -0.206 F 
ATOM     65  C   UNL A   1      47.544  35.691  28.799  1.00  0.00     0.060 A 
BRANCH  65  66
ATOM     66  S   UNL A   1      48.053  37.408  29.025  1.00  0.00     0.124 S 
ATOM     67  O   UNL A   1      49.305  37.247  29.760  1.00  0.00    -0.237 OA
ATOM     68  O   UNL A   1      48.183  37.880  27.650  1.00  0.00    -0.237 OA
ATOM     69  O   UNL A   1      46.951  37.992  29.784  1.00  0.00    -0.744 OA
ENDBRANCH  65  66
ENDBRANCH  44  58
BRANCH  45  70
ATOM     70  C   UNL A   1      43.390  23.702  27.069  1.00  0.00     0.058 A 
ATOM     71  C   UNL A   1      43.069  23.246  25.781  1.00  0.00     0.135 A 
ATOM     72  C   UNL A   1      43.225  22.808  28.138  1.00  0.00     0.135 A 
ATOM     73  F   UNL A   1      43.205  24.065  24.726  1.00  0.00    -0.206 F 
ATOM     74  C   UNL A   1      42.577  21.964  25.563  1.00  0.00     0.059 A 
ATOM     75  C   UNL A   1      42.759  21.512  27.942  1.00  0.00     0.059 A 
ATOM     76  F   UNL A   1      43.537  23.188  29.386  1.00  0.00    -0.206 F 
ATOM     77  C   UNL A   1      42.424  21.103  26.651  1.00  0.00     0.060 A 
BRANCH  77  78
ATOM     78  S   UNL A   1      41.813  19.429  26.355  1.00  0.00     0.124 S 
ATOM     79  O   UNL A   1      42.222  18.749  27.578  1.00  0.00    -0.237 OA
ATOM     80  O   UNL A   1      40.379  19.649  26.194  1.00  0.00    -0.237 OA
ATOM     81  O   UNL A   1      42.517  19.027  25.141  1.00  0.00    -0.744 OA
ENDBRANCH  77  78
ENDBRANCH  45  70
BRANCH  57  82
ATOM     82  C   UNL A   1      49.630  26.730  26.362  1.00  0.00     0.058 A 
ATOM     83  C   UNL A   1      50.106  26.771  25.042  1.00  0.00     0.135 A 
ATOM     84  C   UNL A   1      50.478  26.204  27.350  1.00  0.00     0.135 A 
ATOM     85  F   UNL A   1      49.333  27.259  24.059  1.00  0.00    -0.206 F 
ATOM     86  C   UNL A   1      51.366  26.282  24.711  1.00  0.00     0.059 A 
ATOM     87  C   UNL A   1      51.751  25.735  27.046  1.00  0.00     0.059 A 
ATOM     88  F   UNL A   1      50.074  26.154  28.630  1.00  0.00    -0.206 F 
ATOM     89  C   UNL A   1      52.181  25.765  25.720  1.00  0.00     0.060 A 
BRANCH  89  90
ATOM     90  S   UNL A   1      53.823  25.155  25.282  1.00  0.00     0.124 S 
ATOM     91  O   UNL A   1      53.997  25.716  23.947  1.00  0.00    -0.237 OA
ATOM     92  O   UNL A   1      54.661  25.733  26.328  1.00  0.00    -0.237 OA
ATOM     93  O   UNL A   1      53.672  23.703  25.340  1.00  0.00    -0.744 OA
ENDBRANCH  89  90
ENDBRANCH  57  82
ENDBRANCH  31  32
ENDBRANCH  23  26
ENDBRANCH  21  22
ENDBRANCH  20  21
ENDBRANCH  19  20
ENDBRANCH   1  19
TORSDOF 20
ENDMDL
