MODEL 1
REMARK VINA RESULT:     -11.6      0.000      0.000
REMARK SMILES O=C(NCCCCCCNC(=O)c1ccccc1/C=C1/SC(=S)N(C2CCCC2)C1=O)c1ccc(-c2c3nc(c(-c4c(F)cc(S(=O)(=O)[O-])cc4F)c4ccc([nH]4)c(-c4c(F)cc(S(=O)(=O)[O-])cc4F)c4nc(c(-c5c(F)cc(S(=O)(=O)[O-])cc5F)c5ccc2[nH]5)C=C4)C=C3)cc1
REMARK SMILES IDX 6 1 5 2 4 3 3 4 1 5 2 6 32 8 33 9 97 10 34 11 96 12 35 13
REMARK SMILES IDX 36 14 37 15 90 16 38 17 95 18 89 19 91 20 39 21 94 22 88 23
REMARK SMILES IDX 87 24 40 26 74 27 53 28 73 29 54 30 57 31 72 32 92 33 55 34
REMARK SMILES IDX 56 35 71 37 93 38 58 39 41 40 42 41 51 42 43 43 44 44 50 45
REMARK SMILES IDX 52 46 45 47 46 48 47 49 48 50 49 51 75 52 76 53 85 54 77 55
REMARK SMILES IDX 78 56 84 57 86 58 79 59 80 60 81 61 82 62 83 63 59 64 60 65
REMARK SMILES IDX 69 66 61 67 62 68 68 69 70 70 63 71 64 72 65 73 66 74 67 75
REMARK SMILES IDX 7 76 8 77 9 78 10 79 11 80 12 82 13 83 14 84 18 85 15 86
REMARK SMILES IDX 17 87 16 88 19 89 20 90 21 91 30 92 22 93 24 94 31 95 23 96
REMARK SMILES IDX 25 97 26 98 29 99 27 100 28 101
REMARK H PARENT 3 7 91 25 57 36 10 81
REMARK Flexibility Score: inf
ROOT
ATOM      1  C   UNL A   1      34.320  32.884  28.022  1.00  0.00     0.002 C 
ENDROOT
BRANCH   1   2
ATOM      2  C   UNL A   1      33.261  33.988  28.068  1.00  0.00     0.021 C 
BRANCH   2   3
ATOM      3  C   UNL A   1      33.728  35.307  28.676  1.00  0.00     0.116 C 
BRANCH   3   4
ATOM      4  N   UNL A   1      32.885  35.739  29.777  1.00  0.00    -0.352 N 
ATOM      5  O   UNL A   1      32.052  35.733  31.870  1.00  0.00    -0.269 OA
ATOM      6  C   UNL A   1      32.955  35.404  31.105  1.00  0.00     0.251 C 
ATOM      7  H   UNL A   1      32.160  36.359  29.536  1.00  0.00     0.163 HD
BRANCH   6   8
ATOM      8  C   UNL A   1      34.109  34.629  31.608  1.00  0.00     0.039 A 
ATOM      9  C   UNL A   1      33.987  33.265  31.898  1.00  0.00     0.014 A 
ATOM     10  C   UNL A   1      35.334  35.278  31.777  1.00  0.00     0.014 A 
ATOM     11  C   UNL A   1      35.059  32.578  32.461  1.00  0.00     0.010 A 
ATOM     12  C   UNL A   1      36.427  34.569  32.275  1.00  0.00     0.010 A 
ATOM     13  C   UNL A   1      36.292  33.220  32.643  1.00  0.00    -0.014 A 
BRANCH  13  14
ATOM     14  C   UNL A   1      37.463  32.471  33.165  1.00  0.00     0.031 A 
ATOM     15  C   UNL A   1      38.092  32.850  34.474  1.00  0.00     0.074 A 
ATOM     16  C   UNL A   1      37.988  31.479  32.421  1.00  0.00     0.049 A 
ATOM     17  N   UNL A   1      39.183  32.390  35.030  1.00  0.00    -0.248 NA
ATOM     18  C   UNL A   1      37.410  33.894  35.256  1.00  0.00     0.031 C 
ATOM     19  C   UNL A   1      37.462  31.024  31.132  1.00  0.00     0.029 A 
ATOM     20  N   UNL A   1      39.092  30.690  32.627  1.00  0.00    -0.354 N 
ATOM     21  C   UNL A   1      39.337  33.104  36.213  1.00  0.00     0.074 A 
ATOM     22  C   UNL A   1      38.238  34.043  36.282  1.00  0.00     0.031 C 
ATOM     23  C   UNL A   1      38.241  30.040  30.662  1.00  0.00     0.029 A 
ATOM     24  C   UNL A   1      39.357  29.839  31.581  1.00  0.00     0.049 A 
ATOM     25  H   UNL A   1      39.639  30.729  33.445  1.00  0.00     0.167 HD
ATOM     26  C   UNL A   1      40.308  32.982  37.152  1.00  0.00     0.037 A 
ATOM     27  C   UNL A   1      40.402  29.018  31.362  1.00  0.00     0.037 A 
ATOM     28  C   UNL A   1      41.398  32.044  37.063  1.00  0.00     0.049 A 
ATOM     29  C   UNL A   1      41.489  28.925  32.392  1.00  0.00     0.074 A 
ATOM     30  C   UNL A   1      42.413  31.816  37.974  1.00  0.00     0.029 A 
ATOM     31  N   UNL A   1      41.626  31.191  35.991  1.00  0.00    -0.354 N 
ATOM     32  N   UNL A   1      41.604  29.579  33.524  1.00  0.00    -0.248 NA
ATOM     33  C   UNL A   1      42.586  27.987  32.123  1.00  0.00     0.031 C 
ATOM     34  C   UNL A   1      43.286  30.868  37.429  1.00  0.00     0.029 A 
ATOM     35  C   UNL A   1      42.779  30.455  36.207  1.00  0.00     0.049 A 
ATOM     36  H   UNL A   1      41.051  31.119  35.194  1.00  0.00     0.167 HD
ATOM     37  C   UNL A   1      42.768  29.108  34.118  1.00  0.00     0.074 A 
ATOM     38  C   UNL A   1      43.325  28.119  33.218  1.00  0.00     0.031 C 
ATOM     39  C   UNL A   1      43.316  29.460  35.307  1.00  0.00     0.037 A 
BRANCH  26  40
ATOM     40  C   UNL A   1      40.254  33.917  38.331  1.00  0.00     0.058 A 
ATOM     41  C   UNL A   1      39.468  33.645  39.464  1.00  0.00     0.135 A 
ATOM     42  C   UNL A   1      41.002  35.106  38.329  1.00  0.00     0.135 A 
ATOM     43  F   UNL A   1      38.726  32.528  39.520  1.00  0.00    -0.206 F 
ATOM     44  C   UNL A   1      39.383  34.543  40.523  1.00  0.00     0.059 A 
ATOM     45  C   UNL A   1      40.957  36.004  39.392  1.00  0.00     0.059 A 
ATOM     46  F   UNL A   1      41.779  35.415  37.279  1.00  0.00    -0.206 F 
ATOM     47  C   UNL A   1      40.123  35.725  40.473  1.00  0.00     0.060 A 
BRANCH  47  48
ATOM     48  S   UNL A   1      39.961  36.903  41.832  1.00  0.00     0.124 S 
ATOM     49  O   UNL A   1      41.360  37.180  42.143  1.00  0.00    -0.237 OA
ATOM     50  O   UNL A   1      39.223  37.998  41.210  1.00  0.00    -0.237 OA
ATOM     51  O   UNL A   1      39.229  36.153  42.848  1.00  0.00    -0.744 OA
ENDBRANCH  47  48
ENDBRANCH  26  40
BRANCH  27  52
ATOM     52  C   UNL A   1      40.447  28.235  30.099  1.00  0.00     0.058 A 
ATOM     53  C   UNL A   1      41.355  28.556  29.082  1.00  0.00     0.135 A 
ATOM     54  C   UNL A   1      39.644  27.095  29.926  1.00  0.00     0.135 A 
ATOM     55  F   UNL A   1      42.139  29.639  29.200  1.00  0.00    -0.206 F 
ATOM     56  C   UNL A   1      41.475  27.770  27.941  1.00  0.00     0.059 A 
ATOM     57  C   UNL A   1      39.764  26.279  28.808  1.00  0.00     0.059 A 
ATOM     58  F   UNL A   1      38.773  26.736  30.882  1.00  0.00    -0.206 F 
ATOM     59  C   UNL A   1      40.685  26.625  27.820  1.00  0.00     0.060 A 
BRANCH  59  60
ATOM     60  S   UNL A   1      40.926  25.558  26.382  1.00  0.00     0.124 S 
ATOM     61  O   UNL A   1      39.611  24.942  26.250  1.00  0.00    -0.237 OA
ATOM     62  O   UNL A   1      41.288  26.520  25.346  1.00  0.00    -0.237 OA
ATOM     63  O   UNL A   1      42.003  24.666  26.802  1.00  0.00    -0.744 OA
ENDBRANCH  59  60
ENDBRANCH  27  52
BRANCH  39  64
ATOM     64  C   UNL A   1      44.558  28.736  35.749  1.00  0.00     0.058 A 
ATOM     65  C   UNL A   1      45.843  29.221  35.463  1.00  0.00     0.135 A 
ATOM     66  C   UNL A   1      44.453  27.595  36.561  1.00  0.00     0.135 A 
ATOM     67  F   UNL A   1      46.000  30.300  34.681  1.00  0.00    -0.206 F 
ATOM     68  C   UNL A   1      46.982  28.602  35.971  1.00  0.00     0.059 A 
ATOM     69  C   UNL A   1      45.575  26.976  37.102  1.00  0.00     0.059 A 
ATOM     70  F   UNL A   1      43.245  27.094  36.868  1.00  0.00    -0.206 F 
ATOM     71  C   UNL A   1      46.836  27.487  36.801  1.00  0.00     0.060 A 
BRANCH  71  72
ATOM     72  S   UNL A   1      48.315  26.746  37.524  1.00  0.00     0.124 S 
ATOM     73  O   UNL A   1      49.366  27.289  36.670  1.00  0.00    -0.237 OA
ATOM     74  O   UNL A   1      48.281  27.255  38.892  1.00  0.00    -0.237 OA
ATOM     75  O   UNL A   1      48.077  25.312  37.391  1.00  0.00    -0.744 OA
ENDBRANCH  71  72
ENDBRANCH  39  64
ENDBRANCH  13  14
ENDBRANCH   6   8
ENDBRANCH   3   4
ENDBRANCH   2   3
ENDBRANCH   1   2
BRANCH   1  76
ATOM     76  C   UNL A   1      33.784  31.462  27.832  1.00  0.00     0.002 C 
BRANCH  76  77
ATOM     77  C   UNL A   1      34.819  30.404  27.431  1.00  0.00     0.021 C 
BRANCH  77  78
ATOM     78  C   UNL A   1      34.235  29.075  26.962  1.00  0.00     0.116 C 
BRANCH  78  79
ATOM     79  N   UNL A   1      33.136  28.635  27.801  1.00  0.00    -0.352 N 
ATOM     80  C   UNL A   1      31.856  28.298  27.446  1.00  0.00     0.251 C 
ATOM     81  H   UNL A   1      33.340  28.570  28.762  1.00  0.00     0.163 HD
ATOM     82  O   UNL A   1      31.030  28.072  28.328  1.00  0.00    -0.269 OA
BRANCH  80  83
ATOM     83  C   UNL A   1      31.456  28.234  26.019  1.00  0.00     0.047 A 
ATOM     84  C   UNL A   1      31.489  29.446  25.315  1.00  0.00     0.014 A 
ATOM     85  C   UNL A   1      31.009  27.054  25.385  1.00  0.00    -0.012 A 
ATOM     86  C   UNL A   1      31.138  29.483  23.966  1.00  0.00     0.001 A 
ATOM     87  C   UNL A   1      30.683  27.106  24.022  1.00  0.00     0.009 A 
ATOM     88  C   UNL A   1      30.747  28.312  23.319  1.00  0.00     0.001 A 
BRANCH  85  89
ATOM     89  C   UNL A   1      30.896  25.753  26.063  1.00  0.00     0.030 C 
ATOM     90  C   UNL A   1      31.844  24.807  26.094  1.00  0.00     0.081 C 
ATOM     91  S   UNL A   1      31.554  23.205  26.635  1.00  0.00    -0.054 SA
ATOM     92  C   UNL A   1      33.243  24.923  25.608  1.00  0.00     0.266 C 
ATOM     93  C   UNL A   1      33.072  22.609  25.954  1.00  0.00     0.148 C 
ATOM     94  N   UNL A   1      33.810  23.664  25.450  1.00  0.00    -0.290 N 
ATOM     95  O   UNL A   1      33.812  25.995  25.457  1.00  0.00    -0.268 OA
ATOM     96  S   UNL A   1      33.420  20.977  26.002  1.00  0.00    -0.052 S 
BRANCH  94  97
ATOM     97  C   UNL A   1      35.163  23.623  24.881  1.00  0.00     0.092 C 
ATOM     98  C   UNL A   1      36.188  22.872  25.725  1.00  0.00     0.025 C 
ATOM     99  C   UNL A   1      35.315  23.039  23.476  1.00  0.00     0.025 C 
ATOM    100  C   UNL A   1      37.377  22.742  24.785  1.00  0.00     0.002 C 
ATOM    101  C   UNL A   1      36.789  22.637  23.378  1.00  0.00     0.002 C 
ENDBRANCH  94  97
ENDBRANCH  85  89
ENDBRANCH  80  83
ENDBRANCH  78  79
ENDBRANCH  77  78
ENDBRANCH  76  77
ENDBRANCH   1  76
TORSDOF 18
ENDMDL
MODEL 2
REMARK VINA RESULT:     -11.4      6.670     12.288
REMARK SMILES O=C(NCCCCCCNC(=O)c1ccccc1/C=C1/SC(=S)N(C2CCCC2)C1=O)c1ccc(-c2c3nc(c(-c4c(F)cc(S(=O)(=O)[O-])cc4F)c4ccc([nH]4)c(-c4c(F)cc(S(=O)(=O)[O-])cc4F)c4nc(c(-c5c(F)cc(S(=O)(=O)[O-])cc5F)c5ccc2[nH]5)C=C4)C=C3)cc1
REMARK SMILES IDX 6 1 5 2 4 3 3 4 1 5 2 6 32 8 33 9 97 10 34 11 96 12 35 13
REMARK SMILES IDX 36 14 37 15 90 16 38 17 95 18 89 19 91 20 39 21 94 22 88 23
REMARK SMILES IDX 87 24 40 26 74 27 53 28 73 29 54 30 57 31 72 32 92 33 55 34
REMARK SMILES IDX 56 35 71 37 93 38 58 39 41 40 42 41 51 42 43 43 44 44 50 45
REMARK SMILES IDX 52 46 45 47 46 48 47 49 48 50 49 51 75 52 76 53 85 54 77 55
REMARK SMILES IDX 78 56 84 57 86 58 79 59 80 60 81 61 82 62 83 63 59 64 60 65
REMARK SMILES IDX 69 66 61 67 62 68 68 69 70 70 63 71 64 72 65 73 66 74 67 75
REMARK SMILES IDX 7 76 8 77 9 78 10 79 11 80 12 82 13 83 14 84 18 85 15 86
REMARK SMILES IDX 17 87 16 88 19 89 20 90 21 91 30 92 22 93 24 94 31 95 23 96
REMARK SMILES IDX 25 97 26 98 29 99 27 100 28 101
REMARK H PARENT 3 7 91 25 57 36 10 81
REMARK Flexibility Score: inf
ROOT
ATOM      1  C   UNL A   1      38.671  21.182  25.491  1.00  0.00     0.002 C 
ENDROOT
BRANCH   1   2
ATOM      2  C   UNL A   1      39.345  19.809  25.510  1.00  0.00     0.021 C 
BRANCH   2   3
ATOM      3  C   UNL A   1      40.373  19.607  26.618  1.00  0.00     0.116 C 
BRANCH   3   4
ATOM      4  N   UNL A   1      41.520  18.835  26.177  1.00  0.00    -0.352 N 
ATOM      5  O   UNL A   1      43.562  18.486  25.290  1.00  0.00    -0.269 OA
ATOM      6  C   UNL A   1      42.764  19.271  25.798  1.00  0.00     0.251 C 
ATOM      7  H   UNL A   1      41.386  17.861  26.144  1.00  0.00     0.163 HD
BRANCH   6   8
ATOM      8  C   UNL A   1      43.134  20.690  25.983  1.00  0.00     0.039 A 
ATOM      9  C   UNL A   1      43.477  21.492  24.888  1.00  0.00     0.014 A 
ATOM     10  C   UNL A   1      43.123  21.226  27.272  1.00  0.00     0.014 A 
ATOM     11  C   UNL A   1      43.914  22.798  25.095  1.00  0.00     0.010 A 
ATOM     12  C   UNL A   1      43.494  22.557  27.469  1.00  0.00     0.010 A 
ATOM     13  C   UNL A   1      43.915  23.346  26.386  1.00  0.00    -0.014 A 
BRANCH  13  14
ATOM     14  C   UNL A   1      44.300  24.762  26.603  1.00  0.00     0.031 A 
ATOM     15  C   UNL A   1      45.728  25.200  26.448  1.00  0.00     0.074 A 
ATOM     16  C   UNL A   1      43.360  25.643  26.996  1.00  0.00     0.049 A 
ATOM     17  N   UNL A   1      46.268  26.362  26.708  1.00  0.00    -0.248 NA
ATOM     18  C   UNL A   1      46.675  24.193  25.944  1.00  0.00     0.031 C 
ATOM     19  C   UNL A   1      41.941  25.331  27.181  1.00  0.00     0.029 A 
ATOM     20  N   UNL A   1      43.455  26.969  27.332  1.00  0.00    -0.354 N 
ATOM     21  C   UNL A   1      47.623  26.223  26.428  1.00  0.00     0.074 A 
ATOM     22  C   UNL A   1      47.823  24.855  25.998  1.00  0.00     0.031 C 
ATOM     23  C   UNL A   1      41.300  26.432  27.598  1.00  0.00     0.029 A 
ATOM     24  C   UNL A   1      42.270  27.508  27.772  1.00  0.00     0.049 A 
ATOM     25  H   UNL A   1      44.291  27.486  27.262  1.00  0.00     0.167 HD
ATOM     26  C   UNL A   1      48.604  27.154  26.521  1.00  0.00     0.037 A 
ATOM     27  C   UNL A   1      41.998  28.717  28.300  1.00  0.00     0.037 A 
ATOM     28  C   UNL A   1      48.386  28.510  26.957  1.00  0.00     0.049 A 
ATOM     29  C   UNL A   1      43.104  29.722  28.435  1.00  0.00     0.074 A 
ATOM     30  C   UNL A   1      49.304  29.540  27.054  1.00  0.00     0.029 A 
ATOM     31  N   UNL A   1      47.168  29.019  27.386  1.00  0.00    -0.354 N 
ATOM     32  N   UNL A   1      44.374  29.590  28.131  1.00  0.00    -0.248 NA
ATOM     33  C   UNL A   1      42.748  31.038  28.979  1.00  0.00     0.031 C 
ATOM     34  C   UNL A   1      48.654  30.654  27.596  1.00  0.00     0.029 A 
ATOM     35  C   UNL A   1      47.316  30.341  27.773  1.00  0.00     0.049 A 
ATOM     36  H   UNL A   1      46.322  28.515  27.411  1.00  0.00     0.167 HD
ATOM     37  C   UNL A   1      44.963  30.815  28.417  1.00  0.00     0.074 A 
ATOM     38  C   UNL A   1      43.912  31.674  28.923  1.00  0.00     0.031 C 
ATOM     39  C   UNL A   1      46.256  31.192  28.263  1.00  0.00     0.037 A 
BRANCH  26  40
ATOM     40  C   UNL A   1      50.007  26.719  26.187  1.00  0.00     0.058 A 
ATOM     41  C   UNL A   1      50.540  26.849  24.893  1.00  0.00     0.135 A 
ATOM     42  C   UNL A   1      50.834  26.164  27.178  1.00  0.00     0.135 A 
ATOM     43  F   UNL A   1      49.795  27.365  23.904  1.00  0.00    -0.206 F 
ATOM     44  C   UNL A   1      51.818  26.393  24.584  1.00  0.00     0.059 A 
ATOM     45  C   UNL A   1      52.127  25.731  26.898  1.00  0.00     0.059 A 
ATOM     46  F   UNL A   1      50.383  26.023  28.435  1.00  0.00    -0.206 F 
ATOM     47  C   UNL A   1      52.599  25.825  25.591  1.00  0.00     0.060 A 
BRANCH  47  48
ATOM     48  S   UNL A   1      54.235  25.191  25.160  1.00  0.00     0.124 S 
ATOM     49  O   UNL A   1      54.989  25.490  26.374  1.00  0.00    -0.237 OA
ATOM     50  O   UNL A   1      53.967  23.778  24.914  1.00  0.00    -0.237 OA
ATOM     51  O   UNL A   1      54.604  25.972  23.983  1.00  0.00    -0.744 OA
ENDBRANCH  47  48
ENDBRANCH  26  40
BRANCH  27  52
ATOM     52  C   UNL A   1      40.609  29.013  28.738  1.00  0.00     0.058 A 
ATOM     53  C   UNL A   1      40.278  29.071  30.099  1.00  0.00     0.135 A 
ATOM     54  C   UNL A   1      39.609  29.334  27.805  1.00  0.00     0.135 A 
ATOM     55  F   UNL A   1      41.198  28.769  31.027  1.00  0.00    -0.206 F 
ATOM     56  C   UNL A   1      39.008  29.447  30.521  1.00  0.00     0.059 A 
ATOM     57  C   UNL A   1      38.341  29.737  28.203  1.00  0.00     0.059 A 
ATOM     58  F   UNL A   1      39.884  29.311  26.492  1.00  0.00    -0.206 F 
ATOM     59  C   UNL A   1      38.049  29.792  29.565  1.00  0.00     0.060 A 
BRANCH  59  60
ATOM     60  S   UNL A   1      36.437  30.376  30.132  1.00  0.00     0.124 S 
ATOM     61  O   UNL A   1      35.694  30.449  28.879  1.00  0.00    -0.237 OA
ATOM     62  O   UNL A   1      36.035  29.318  31.052  1.00  0.00    -0.237 OA
ATOM     63  O   UNL A   1      36.745  31.658  30.760  1.00  0.00    -0.744 OA
ENDBRANCH  59  60
ENDBRANCH  27  52
BRANCH  39  64
ATOM     64  C   UNL A   1      46.615  32.616  28.588  1.00  0.00     0.058 A 
ATOM     65  C   UNL A   1      47.111  32.990  29.846  1.00  0.00     0.135 A 
ATOM     66  C   UNL A   1      46.560  33.599  27.585  1.00  0.00     0.135 A 
ATOM     67  F   UNL A   1      47.172  32.093  30.842  1.00  0.00    -0.206 F 
ATOM     68  C   UNL A   1      47.543  34.289  30.098  1.00  0.00     0.059 A 
ATOM     69  C   UNL A   1      47.011  34.896  27.807  1.00  0.00     0.059 A 
ATOM     70  F   UNL A   1      46.099  33.290  26.363  1.00  0.00    -0.206 F 
ATOM     71  C   UNL A   1      47.502  35.231  29.067  1.00  0.00     0.060 A 
BRANCH  71  72
ATOM     72  S   UNL A   1      48.146  36.888  29.382  1.00  0.00     0.124 S 
ATOM     73  O   UNL A   1      47.012  37.724  29.001  1.00  0.00    -0.237 OA
ATOM     74  O   UNL A   1      48.447  36.838  30.809  1.00  0.00    -0.237 OA
ATOM     75  O   UNL A   1      49.310  36.973  28.506  1.00  0.00    -0.744 OA
ENDBRANCH  71  72
ENDBRANCH  39  64
ENDBRANCH  13  14
ENDBRANCH   6   8
ENDBRANCH   3   4
ENDBRANCH   2   3
ENDBRANCH   1   2
BRANCH   1  76
ATOM     76  C   UNL A   1      39.314  22.247  26.384  1.00  0.00     0.002 C 
BRANCH  76  77
ATOM     77  C   UNL A   1      38.533  23.558  26.534  1.00  0.00     0.021 C 
BRANCH  77  78
ATOM     78  C   UNL A   1      37.153  23.563  25.883  1.00  0.00     0.116 C 
BRANCH  78  79
ATOM     79  N   UNL A   1      37.232  23.585  24.435  1.00  0.00    -0.352 N 
ATOM     80  C   UNL A   1      36.433  22.958  23.514  1.00  0.00     0.251 C 
ATOM     81  H   UNL A   1      37.963  24.127  24.061  1.00  0.00     0.163 HD
ATOM     82  O   UNL A   1      36.744  22.998  22.326  1.00  0.00    -0.269 OA
BRANCH  80  83
ATOM     83  C   UNL A   1      35.223  22.214  23.941  1.00  0.00     0.047 A 
ATOM     84  C   UNL A   1      35.441  21.115  24.784  1.00  0.00     0.014 A 
ATOM     85  C   UNL A   1      33.917  22.528  23.503  1.00  0.00    -0.012 A 
ATOM     86  C   UNL A   1      34.363  20.359  25.244  1.00  0.00     0.001 A 
ATOM     87  C   UNL A   1      32.844  21.771  23.994  1.00  0.00     0.009 A 
ATOM     88  C   UNL A   1      33.066  20.695  24.858  1.00  0.00     0.001 A 
BRANCH  85  89
ATOM     89  C   UNL A   1      33.606  23.631  22.580  1.00  0.00     0.030 C 
ATOM     90  C   UNL A   1      33.348  24.895  22.939  1.00  0.00     0.081 C 
ATOM     91  S   UNL A   1      32.702  26.063  21.861  1.00  0.00    -0.054 SA
ATOM     92  C   UNL A   1      33.478  25.487  24.295  1.00  0.00     0.266 C 
ATOM     93  C   UNL A   1      32.297  27.175  23.173  1.00  0.00     0.148 C 
ATOM     94  N   UNL A   1      32.778  26.685  24.373  1.00  0.00    -0.290 N 
ATOM     95  O   UNL A   1      34.180  25.003  25.171  1.00  0.00    -0.268 OA
ATOM     96  S   UNL A   1      31.459  28.581  22.843  1.00  0.00    -0.052 S 
BRANCH  94  97
ATOM     97  C   UNL A   1      32.739  27.335  25.689  1.00  0.00     0.092 C 
ATOM     98  C   UNL A   1      33.732  28.479  25.866  1.00  0.00     0.025 C 
ATOM     99  C   UNL A   1      31.398  27.911  26.147  1.00  0.00     0.025 C 
ATOM    100  C   UNL A   1      33.279  29.129  27.164  1.00  0.00     0.002 C 
ATOM    101  C   UNL A   1      31.762  28.942  27.219  1.00  0.00     0.002 C 
ENDBRANCH  94  97
ENDBRANCH  85  89
ENDBRANCH  80  83
ENDBRANCH  78  79
ENDBRANCH  77  78
ENDBRANCH  76  77
ENDBRANCH   1  76
TORSDOF 18
ENDMDL
MODEL 3
REMARK VINA RESULT:     -11.4      2.610      9.491
REMARK SMILES O=C(NCCCCCCNC(=O)c1ccccc1/C=C1/SC(=S)N(C2CCCC2)C1=O)c1ccc(-c2c3nc(c(-c4c(F)cc(S(=O)(=O)[O-])cc4F)c4ccc([nH]4)c(-c4c(F)cc(S(=O)(=O)[O-])cc4F)c4nc(c(-c5c(F)cc(S(=O)(=O)[O-])cc5F)c5ccc2[nH]5)C=C4)C=C3)cc1
REMARK SMILES IDX 6 1 5 2 4 3 3 4 1 5 2 6 32 8 33 9 97 10 34 11 96 12 35 13
REMARK SMILES IDX 36 14 37 15 90 16 38 17 95 18 89 19 91 20 39 21 94 22 88 23
REMARK SMILES IDX 87 24 40 26 74 27 53 28 73 29 54 30 57 31 72 32 92 33 55 34
REMARK SMILES IDX 56 35 71 37 93 38 58 39 41 40 42 41 51 42 43 43 44 44 50 45
REMARK SMILES IDX 52 46 45 47 46 48 47 49 48 50 49 51 75 52 76 53 85 54 77 55
REMARK SMILES IDX 78 56 84 57 86 58 79 59 80 60 81 61 82 62 83 63 59 64 60 65
REMARK SMILES IDX 69 66 61 67 62 68 68 69 70 70 63 71 64 72 65 73 66 74 67 75
REMARK SMILES IDX 7 76 8 77 9 78 10 79 11 80 12 82 13 83 14 84 18 85 15 86
REMARK SMILES IDX 17 87 16 88 19 89 20 90 21 91 30 92 22 93 24 94 31 95 23 96
REMARK SMILES IDX 25 97 26 98 29 99 27 100 28 101
REMARK H PARENT 3 7 91 25 57 36 10 81
REMARK Flexibility Score: inf
ROOT
ATOM      1  C   UNL A   1      40.099  25.893  27.046  1.00  0.00     0.002 C 
ENDROOT
BRANCH   1   2
ATOM      2  C   UNL A   1      40.883  25.498  25.792  1.00  0.00     0.021 C 
BRANCH   2   3
ATOM      3  C   UNL A   1      41.944  26.500  25.351  1.00  0.00     0.116 C 
BRANCH   3   4
ATOM      4  N   UNL A   1      43.293  26.006  25.558  1.00  0.00    -0.352 N 
ATOM      5  O   UNL A   1      45.317  25.864  26.538  1.00  0.00    -0.269 OA
ATOM      6  C   UNL A   1      44.144  26.226  26.611  1.00  0.00     0.251 C 
ATOM      7  H   UNL A   1      43.648  25.433  24.841  1.00  0.00     0.163 HD
BRANCH   6   8
ATOM      8  C   UNL A   1      43.654  26.916  27.822  1.00  0.00     0.039 A 
ATOM      9  C   UNL A   1      42.998  26.209  28.836  1.00  0.00     0.014 A 
ATOM     10  C   UNL A   1      43.869  28.291  27.946  1.00  0.00     0.014 A 
ATOM     11  C   UNL A   1      42.461  26.895  29.923  1.00  0.00     0.010 A 
ATOM     12  C   UNL A   1      43.391  28.964  29.071  1.00  0.00     0.010 A 
ATOM     13  C   UNL A   1      42.663  28.276  30.056  1.00  0.00    -0.014 A 
BRANCH  13  14
ATOM     14  C   UNL A   1      42.165  28.999  31.253  1.00  0.00     0.031 A 
ATOM     15  C   UNL A   1      40.910  29.819  31.184  1.00  0.00     0.074 A 
ATOM     16  C   UNL A   1      42.884  28.953  32.390  1.00  0.00     0.049 A 
ATOM     17  N   UNL A   1      40.388  30.608  32.087  1.00  0.00    -0.248 NA
ATOM     18  C   UNL A   1      40.147  29.754  29.927  1.00  0.00     0.031 C 
ATOM     19  C   UNL A   1      44.121  28.190  32.574  1.00  0.00     0.029 A 
ATOM     20  N   UNL A   1      42.696  29.577  33.598  1.00  0.00    -0.354 N 
ATOM     21  C   UNL A   1      39.251  31.156  31.504  1.00  0.00     0.074 A 
ATOM     22  C   UNL A   1      39.173  30.624  30.160  1.00  0.00     0.031 C 
ATOM     23  C   UNL A   1      44.580  28.391  33.817  1.00  0.00     0.029 A 
ATOM     24  C   UNL A   1      43.710  29.346  34.496  1.00  0.00     0.049 A 
ATOM     25  H   UNL A   1      41.910  30.134  33.802  1.00  0.00     0.167 HD
ATOM     26  C   UNL A   1      38.358  32.020  32.045  1.00  0.00     0.037 A 
ATOM     27  C   UNL A   1      43.942  29.874  35.713  1.00  0.00     0.037 A 
ATOM     28  C   UNL A   1      38.456  32.543  33.384  1.00  0.00     0.049 A 
ATOM     29  C   UNL A   1      42.965  30.861  36.280  1.00  0.00     0.074 A 
ATOM     30  C   UNL A   1      37.587  33.397  34.040  1.00  0.00     0.029 A 
ATOM     31  N   UNL A   1      39.494  32.276  34.266  1.00  0.00    -0.354 N 
ATOM     32  N   UNL A   1      41.874  31.343  35.732  1.00  0.00    -0.248 NA
ATOM     33  C   UNL A   1      43.242  31.378  37.626  1.00  0.00     0.031 C 
ATOM     34  C   UNL A   1      38.128  33.692  35.295  1.00  0.00     0.029 A 
ATOM     35  C   UNL A   1      39.301  32.969  35.450  1.00  0.00     0.049 A 
ATOM     36  H   UNL A   1      40.256  31.682  34.078  1.00  0.00     0.167 HD
ATOM     37  C   UNL A   1      41.317  32.194  36.679  1.00  0.00     0.074 A 
ATOM     38  C   UNL A   1      42.195  32.166  37.831  1.00  0.00     0.031 C 
ATOM     39  C   UNL A   1      40.176  32.922  36.599  1.00  0.00     0.037 A 
BRANCH  26  40
ATOM     40  C   UNL A   1      37.225  32.486  31.168  1.00  0.00     0.058 A 
ATOM     41  C   UNL A   1      36.004  31.794  31.096  1.00  0.00     0.135 A 
ATOM     42  C   UNL A   1      37.362  33.646  30.386  1.00  0.00     0.135 A 
ATOM     43  F   UNL A   1      35.817  30.676  31.815  1.00  0.00    -0.206 F 
ATOM     44  C   UNL A   1      34.985  32.203  30.241  1.00  0.00     0.059 A 
ATOM     45  C   UNL A   1      36.344  34.091  29.548  1.00  0.00     0.059 A 
ATOM     46  F   UNL A   1      38.502  34.354  30.421  1.00  0.00    -0.206 F 
ATOM     47  C   UNL A   1      35.169  33.346  29.463  1.00  0.00     0.060 A 
BRANCH  47  48
ATOM     48  S   UNL A   1      33.858  33.833  28.321  1.00  0.00     0.124 S 
ATOM     49  O   UNL A   1      34.578  34.727  27.419  1.00  0.00    -0.237 OA
ATOM     50  O   UNL A   1      33.450  32.553  27.750  1.00  0.00    -0.237 OA
ATOM     51  O   UNL A   1      32.872  34.474  29.186  1.00  0.00    -0.744 OA
ENDBRANCH  47  48
ENDBRANCH  26  40
BRANCH  27  52
ATOM     52  C   UNL A   1      45.165  29.465  36.452  1.00  0.00     0.058 A 
ATOM     53  C   UNL A   1      45.171  28.323  37.263  1.00  0.00     0.135 A 
ATOM     54  C   UNL A   1      46.375  30.159  36.287  1.00  0.00     0.135 A 
ATOM     55  F   UNL A   1      44.038  27.630  37.455  1.00  0.00    -0.206 F 
ATOM     56  C   UNL A   1      46.335  27.875  37.878  1.00  0.00     0.059 A 
ATOM     57  C   UNL A   1      47.557  29.716  36.869  1.00  0.00     0.059 A 
ATOM     58  F   UNL A   1      46.424  31.248  35.504  1.00  0.00    -0.206 F 
ATOM     59  C   UNL A   1      47.527  28.571  37.663  1.00  0.00     0.060 A 
BRANCH  59  60
ATOM     60  S   UNL A   1      49.050  27.919  38.383  1.00  0.00     0.124 S 
ATOM     61  O   UNL A   1      48.649  26.562  38.737  1.00  0.00    -0.237 OA
ATOM     62  O   UNL A   1      49.989  28.040  37.273  1.00  0.00    -0.237 OA
ATOM     63  O   UNL A   1      49.301  28.816  39.507  1.00  0.00    -0.744 OA
ENDBRANCH  59  60
ENDBRANCH  27  52
BRANCH  39  64
ATOM     64  C   UNL A   1      39.763  33.714  37.808  1.00  0.00     0.058 A 
ATOM     65  C   UNL A   1      38.863  33.208  38.757  1.00  0.00     0.135 A 
ATOM     66  C   UNL A   1      40.364  34.957  38.070  1.00  0.00     0.135 A 
ATOM     67  F   UNL A   1      38.252  32.032  38.550  1.00  0.00    -0.206 F 
ATOM     68  C   UNL A   1      38.574  33.905  39.928  1.00  0.00     0.059 A 
ATOM     69  C   UNL A   1      40.111  35.659  39.244  1.00  0.00     0.059 A 
ATOM     70  F   UNL A   1      41.236  35.482  37.195  1.00  0.00    -0.206 F 
ATOM     71  C   UNL A   1      39.215  35.124  40.167  1.00  0.00     0.060 A 
BRANCH  71  72
ATOM     72  S   UNL A   1      38.898  35.976  41.727  1.00  0.00     0.124 S 
ATOM     73  O   UNL A   1      40.047  35.566  42.527  1.00  0.00    -0.237 OA
ATOM     74  O   UNL A   1      38.878  37.377  41.318  1.00  0.00    -0.237 OA
ATOM     75  O   UNL A   1      37.611  35.436  42.155  1.00  0.00    -0.744 OA
ENDBRANCH  71  72
ENDBRANCH  39  64
ENDBRANCH  13  14
ENDBRANCH   6   8
ENDBRANCH   3   4
ENDBRANCH   2   3
ENDBRANCH   1   2
BRANCH   1  76
ATOM     76  C   UNL A   1      38.933  24.971  27.415  1.00  0.00     0.002 C 
BRANCH  76  77
ATOM     77  C   UNL A   1      38.776  23.712  26.553  1.00  0.00     0.021 C 
BRANCH  77  78
ATOM     78  C   UNL A   1      37.401  23.533  25.917  1.00  0.00     0.116 C 
BRANCH  78  79
ATOM     79  N   UNL A   1      37.467  23.512  24.469  1.00  0.00    -0.352 N 
ATOM     80  C   UNL A   1      36.639  22.888  23.572  1.00  0.00     0.251 C 
ATOM     81  H   UNL A   1      38.213  24.018  24.073  1.00  0.00     0.163 HD
ATOM     82  O   UNL A   1      36.941  22.884  22.381  1.00  0.00    -0.269 OA
BRANCH  80  83
ATOM     83  C   UNL A   1      35.409  22.197  24.029  1.00  0.00     0.047 A 
ATOM     84  C   UNL A   1      35.600  21.078  24.853  1.00  0.00     0.014 A 
ATOM     85  C   UNL A   1      34.107  22.578  23.638  1.00  0.00    -0.012 A 
ATOM     86  C   UNL A   1      34.502  20.369  25.338  1.00  0.00     0.001 A 
ATOM     87  C   UNL A   1      33.014  21.868  24.155  1.00  0.00     0.009 A 
ATOM     88  C   UNL A   1      33.212  20.771  24.999  1.00  0.00     0.001 A 
BRANCH  85  89
ATOM     89  C   UNL A   1      33.820  23.707  22.738  1.00  0.00     0.030 C 
ATOM     90  C   UNL A   1      33.542  24.958  23.125  1.00  0.00     0.081 C 
ATOM     91  S   UNL A   1      32.925  26.155  22.061  1.00  0.00    -0.054 SA
ATOM     92  C   UNL A   1      33.622  25.510  24.502  1.00  0.00     0.266 C 
ATOM     93  C   UNL A   1      32.469  27.225  23.391  1.00  0.00     0.148 C 
ATOM     94  N   UNL A   1      32.911  26.702  24.592  1.00  0.00    -0.290 N 
ATOM     95  O   UNL A   1      34.296  25.004  25.387  1.00  0.00    -0.268 OA
ATOM     96  S   UNL A   1      31.633  28.635  23.074  1.00  0.00    -0.052 S 
BRANCH  94  97
ATOM     97  C   UNL A   1      32.823  27.311  25.924  1.00  0.00     0.092 C 
ATOM     98  C   UNL A   1      33.310  28.754  26.000  1.00  0.00     0.025 C 
ATOM     99  C   UNL A   1      31.450  27.331  26.597  1.00  0.00     0.025 C 
ATOM    100  C   UNL A   1      32.842  29.204  27.375  1.00  0.00     0.002 C 
ATOM    101  C   UNL A   1      31.544  28.442  27.645  1.00  0.00     0.002 C 
ENDBRANCH  94  97
ENDBRANCH  85  89
ENDBRANCH  80  83
ENDBRANCH  78  79
ENDBRANCH  77  78
ENDBRANCH  76  77
ENDBRANCH   1  76
TORSDOF 18
ENDMDL
