MODEL 1
REMARK VINA RESULT:     -10.5      0.000      0.000
REMARK SMILES COc1ccc(-c2ccc(C(=O)NCc3ccc(C(=O)NCCCCCCNC(=O)c4ccc(-c5c6nc(c(-c7c(F)cc(S(=O)(=O)[O-])cc7F)c7ccc([nH]7)c(-c7c(F)cc(S(=O)(=O)[O-])cc7F)c7nc(c(-c8c(F)cc(S(=O)(=O)[O-])cc8F)c8ccc5[nH]8)C=C7)C=C6)cc4)cc3)o2)c([N+](=O)[O-])c1
REMARK SMILES IDX 23 1 22 2 21 3 19 4 20 5 18 7 15 8 16 9 98 10 17 11 97 12
REMARK SMILES IDX 14 13 13 14 11 15 12 16 10 18 7 19 8 20 99 21 9 22 6 23 3 24
REMARK SMILES IDX 4 25 104 26 5 27 100 28 2 29 1 30 101 31 102 32 103 33 24 34
REMARK SMILES IDX 25 35 26 36 27 37 28 38 29 39 30 41 31 42 32 43 96 44 33 45
REMARK SMILES IDX 95 46 34 47 35 48 36 49 89 50 37 51 94 52 88 53 90 54 38 55
REMARK SMILES IDX 93 56 87 57 86 58 39 60 73 61 52 62 72 63 53 64 56 65 71 66
REMARK SMILES IDX 91 67 54 68 55 69 70 71 92 72 57 73 40 74 41 75 50 76 42 77
REMARK SMILES IDX 43 78 49 79 51 80 44 81 45 82 46 83 47 84 48 85 74 86 75 87
REMARK SMILES IDX 84 88 76 89 77 90 83 91 85 92 78 93 79 94 80 95 81 96 82 97
REMARK SMILES IDX 58 98 59 99 68 100 60 101 61 102 67 103 69 104 62 105 63 106
REMARK SMILES IDX 64 107 65 108 66 109
REMARK H PARENT 21 6 13 17 28 40 90 59 56 70
REMARK Flexibility Score: inf
ROOT
ATOM      1  C   UNL A   1      42.170  18.543  26.192  1.00  0.00     0.021 C 
ENDROOT
BRANCH   1   2
ATOM      2  C   UNL A   1      43.664  18.709  26.477  1.00  0.00     0.116 C 
BRANCH   2   3
ATOM      3  N   UNL A   1      44.425  18.482  25.263  1.00  0.00    -0.352 N 
ATOM      4  C   UNL A   1      45.008  19.331  24.359  1.00  0.00     0.251 C 
ATOM      5  O   UNL A   1      45.590  18.830  23.396  1.00  0.00    -0.269 OA
ATOM      6  H   UNL A   1      44.546  17.530  25.044  1.00  0.00     0.163 HD
BRANCH   4   7
ATOM      7  C   UNL A   1      45.034  20.808  24.527  1.00  0.00     0.039 A 
ATOM      8  C   UNL A   1      45.299  23.596  24.932  1.00  0.00    -0.029 A 
ATOM      9  C   UNL A   1      46.424  22.802  24.681  1.00  0.00     0.006 A 
ATOM     10  C   UNL A   1      44.038  22.983  24.921  1.00  0.00     0.006 A 
ATOM     11  C   UNL A   1      46.291  21.425  24.480  1.00  0.00     0.014 A 
ATOM     12  C   UNL A   1      43.904  21.608  24.695  1.00  0.00     0.014 A 
BRANCH   8  13
ATOM     13  C   UNL A   1      45.464  25.067  25.224  1.00  0.00     0.152 C 
BRANCH  13  14
ATOM     14  N   UNL A   1      46.825  25.395  25.572  1.00  0.00    -0.345 N 
ATOM     15  C   UNL A   1      47.383  25.936  26.702  1.00  0.00     0.287 C 
ATOM     16  O   UNL A   1      48.620  25.979  26.703  1.00  0.00    -0.266 OA
ATOM     17  H   UNL A   1      47.477  25.191  24.864  1.00  0.00     0.164 HD
BRANCH  15  18
ATOM     18  C   UNL A   1      46.582  26.427  27.810  1.00  0.00     0.192 A 
ATOM     19  C   UNL A   1      45.739  26.225  29.848  1.00  0.00     0.142 A 
ATOM     20  C   UNL A   1      45.294  27.435  29.372  1.00  0.00     0.052 A 
ATOM     21  O   UNL A   1      46.536  25.624  28.930  1.00  0.00    -0.451 OA
ATOM     22  C   UNL A   1      45.836  27.565  28.070  1.00  0.00     0.057 A 
BRANCH  19  23
ATOM     23  C   UNL A   1      45.527  25.494  31.082  1.00  0.00     0.095 A 
ATOM     24  C   UNL A   1      45.022  24.269  33.583  1.00  0.00     0.125 A 
ATOM     25  C   UNL A   1      45.905  25.347  33.481  1.00  0.00     0.047 A 
ATOM     26  C   UNL A   1      44.393  23.791  32.437  1.00  0.00     0.132 A 
ATOM     27  C   UNL A   1      46.165  25.947  32.245  1.00  0.00     0.023 A 
ATOM     28  C   UNL A   1      44.653  24.401  31.196  1.00  0.00     0.284 A 
BRANCH  24  29
ATOM     29  O   UNL A   1      44.830  23.801  34.851  1.00  0.00    -0.497 OA
ATOM     30  C   UNL A   1      43.512  23.388  35.187  1.00  0.00     0.278 C 
ENDBRANCH  24  29
BRANCH  28  31
ATOM     31  N   UNL A   1      43.976  23.847  30.024  1.00  0.00     0.063 N 
ATOM     32  O   UNL A   1      43.275  24.601  29.337  1.00  0.00    -0.258 OA
ATOM     33  O   UNL A   1      44.186  22.653  29.765  1.00  0.00    -0.258 OA
ENDBRANCH  28  31
ENDBRANCH  19  23
ENDBRANCH  15  18
ENDBRANCH  13  14
ENDBRANCH   8  13
ENDBRANCH   4   7
ENDBRANCH   2   3
ENDBRANCH   1   2
BRANCH   1  34
ATOM     34  C   UNL A   1      41.414  19.881  26.134  1.00  0.00     0.002 C 
BRANCH  34  35
ATOM     35  C   UNL A   1      41.049  20.472  27.500  1.00  0.00     0.002 C 
BRANCH  35  36
ATOM     36  C   UNL A   1      41.670  21.839  27.798  1.00  0.00     0.021 C 
BRANCH  36  37
ATOM     37  C   UNL A   1      40.724  23.015  27.584  1.00  0.00     0.116 C 
BRANCH  37  38
ATOM     38  N   UNL A   1      41.059  23.758  26.381  1.00  0.00    -0.352 N 
ATOM     39  C   UNL A   1      41.041  25.112  26.166  1.00  0.00     0.251 C 
ATOM     40  H   UNL A   1      41.338  23.211  25.611  1.00  0.00     0.163 HD
ATOM     41  O   UNL A   1      41.114  25.548  25.021  1.00  0.00    -0.269 OA
BRANCH  39  42
ATOM     42  C   UNL A   1      40.929  26.040  27.311  1.00  0.00     0.039 A 
ATOM     43  C   UNL A   1      39.918  25.837  28.252  1.00  0.00     0.014 A 
ATOM     44  C   UNL A   1      41.794  27.133  27.434  1.00  0.00     0.014 A 
ATOM     45  C   UNL A   1      39.790  26.715  29.331  1.00  0.00     0.010 A 
ATOM     46  C   UNL A   1      41.713  27.961  28.549  1.00  0.00     0.010 A 
ATOM     47  C   UNL A   1      40.695  27.776  29.496  1.00  0.00    -0.014 A 
BRANCH  47  48
ATOM     48  C   UNL A   1      40.559  28.733  30.623  1.00  0.00     0.031 A 
ATOM     49  C   UNL A   1      41.442  28.590  31.835  1.00  0.00     0.074 A 
ATOM     50  C   UNL A   1      39.619  29.697  30.577  1.00  0.00     0.049 A 
ATOM     51  N   UNL A   1      41.443  29.285  32.943  1.00  0.00    -0.248 NA
ATOM     52  C   UNL A   1      42.435  27.503  31.811  1.00  0.00     0.031 C 
ATOM     53  C   UNL A   1      38.675  29.907  29.477  1.00  0.00     0.029 A 
ATOM     54  N   UNL A   1      39.296  30.675  31.482  1.00  0.00    -0.354 N 
ATOM     55  C   UNL A   1      42.421  28.711  33.749  1.00  0.00     0.074 A 
ATOM     56  C   UNL A   1      42.949  27.575  33.028  1.00  0.00     0.031 C 
ATOM     57  C   UNL A   1      37.896  30.963  29.761  1.00  0.00     0.029 A 
ATOM     58  C   UNL A   1      38.260  31.484  31.076  1.00  0.00     0.049 A 
ATOM     59  H   UNL A   1      39.762  30.789  32.342  1.00  0.00     0.167 HD
ATOM     60  C   UNL A   1      42.857  29.110  34.968  1.00  0.00     0.037 A 
ATOM     61  C   UNL A   1      37.670  32.524  31.696  1.00  0.00     0.037 A 
ATOM     62  C   UNL A   1      42.347  30.262  35.664  1.00  0.00     0.049 A 
ATOM     63  C   UNL A   1      38.180  32.959  33.043  1.00  0.00     0.074 A 
ATOM     64  C   UNL A   1      42.757  30.785  36.878  1.00  0.00     0.029 A 
ATOM     65  N   UNL A   1      41.319  31.074  35.205  1.00  0.00    -0.354 N 
ATOM     66  N   UNL A   1      39.144  32.439  33.767  1.00  0.00    -0.248 NA
ATOM     67  C   UNL A   1      37.533  34.126  33.655  1.00  0.00     0.031 C 
ATOM     68  C   UNL A   1      41.948  31.888  37.173  1.00  0.00     0.029 A 
ATOM     69  C   UNL A   1      41.071  32.084  36.120  1.00  0.00     0.049 A 
ATOM     70  H   UNL A   1      40.838  30.949  34.357  1.00  0.00     0.167 HD
ATOM     71  C   UNL A   1      39.241  33.237  34.901  1.00  0.00     0.074 A 
ATOM     72  C   UNL A   1      38.243  34.278  34.764  1.00  0.00     0.031 C 
ATOM     73  C   UNL A   1      40.081  33.121  35.959  1.00  0.00     0.037 A 
BRANCH  60  74
ATOM     74  C   UNL A   1      43.942  28.298  35.621  1.00  0.00     0.058 A 
ATOM     75  C   UNL A   1      43.647  27.213  36.464  1.00  0.00     0.135 A 
ATOM     76  C   UNL A   1      45.295  28.589  35.382  1.00  0.00     0.135 A 
ATOM     77  F   UNL A   1      42.371  26.899  36.740  1.00  0.00    -0.206 F 
ATOM     78  C   UNL A   1      44.652  26.468  37.071  1.00  0.00     0.059 A 
ATOM     79  C   UNL A   1      46.317  27.837  35.955  1.00  0.00     0.059 A 
ATOM     80  F   UNL A   1      45.636  29.615  34.586  1.00  0.00    -0.206 F 
ATOM     81  C   UNL A   1      45.984  26.788  36.811  1.00  0.00     0.060 A 
BRANCH  81  82
ATOM     82  S   UNL A   1      47.277  25.810  37.607  1.00  0.00     0.124 S 
ATOM     83  O   UNL A   1      47.229  26.320  38.973  1.00  0.00    -0.237 OA
ATOM     84  O   UNL A   1      46.793  24.445  37.422  1.00  0.00    -0.237 OA
ATOM     85  O   UNL A   1      48.478  26.153  36.851  1.00  0.00    -0.744 OA
ENDBRANCH  81  82
ENDBRANCH  60  74
BRANCH  61  86
ATOM     86  C   UNL A   1      36.551  33.247  31.032  1.00  0.00     0.058 A 
ATOM     87  C   UNL A   1      36.776  34.038  29.896  1.00  0.00     0.135 A 
ATOM     88  C   UNL A   1      35.236  33.151  31.512  1.00  0.00     0.135 A 
ATOM     89  F   UNL A   1      38.017  34.165  29.402  1.00  0.00    -0.206 F 
ATOM     90  C   UNL A   1      35.742  34.725  29.270  1.00  0.00     0.059 A 
ATOM     91  C   UNL A   1      34.180  33.807  30.887  1.00  0.00     0.059 A 
ATOM     92  F   UNL A   1      34.964  32.391  32.584  1.00  0.00    -0.206 F 
ATOM     93  C   UNL A   1      34.446  34.602  29.772  1.00  0.00     0.060 A 
BRANCH  93  94
ATOM     94  S   UNL A   1      33.102  35.462  28.925  1.00  0.00     0.124 S 
ATOM     95  O   UNL A   1      32.534  34.394  28.113  1.00  0.00    -0.237 OA
ATOM     96  O   UNL A   1      32.283  35.923  30.042  1.00  0.00    -0.237 OA
ATOM     97  O   UNL A   1      33.793  36.518  28.189  1.00  0.00    -0.744 OA
ENDBRANCH  93  94
ENDBRANCH  61  86
BRANCH  73  98
ATOM     98  C   UNL A   1      39.995  34.171  37.032  1.00  0.00     0.058 A 
ATOM     99  C   UNL A   1      40.728  35.365  36.961  1.00  0.00     0.135 A 
ATOM    100  C   UNL A   1      39.123  33.999  38.121  1.00  0.00     0.135 A 
ATOM    101  F   UNL A   1      41.579  35.577  35.944  1.00  0.00    -0.206 F 
ATOM    102  C   UNL A   1      40.621  36.342  37.946  1.00  0.00     0.059 A 
ATOM    103  C   UNL A   1      38.979  34.976  39.101  1.00  0.00     0.059 A 
ATOM    104  F   UNL A   1      38.390  32.880  38.230  1.00  0.00    -0.206 F 
ATOM    105  C   UNL A   1      39.742  36.139  39.011  1.00  0.00     0.060 A 
BRANCH 105 106
ATOM    106  S   UNL A   1      39.589  37.426  40.267  1.00  0.00     0.124 S 
ATOM    107  O   UNL A   1      39.722  36.654  41.497  1.00  0.00    -0.237 OA
ATOM    108  O   UNL A   1      40.709  38.307  39.948  1.00  0.00    -0.237 OA
ATOM    109  O   UNL A   1      38.267  37.989  40.018  1.00  0.00    -0.744 OA
ENDBRANCH 105 106
ENDBRANCH  73  98
ENDBRANCH  47  48
ENDBRANCH  39  42
ENDBRANCH  37  38
ENDBRANCH  36  37
ENDBRANCH  35  36
ENDBRANCH  34  35
ENDBRANCH   1  34
TORSDOF 22
ENDMDL
MODEL 2
REMARK VINA RESULT:     -10.4      3.491      5.228
REMARK SMILES COc1ccc(-c2ccc(C(=O)NCc3ccc(C(=O)NCCCCCCNC(=O)c4ccc(-c5c6nc(c(-c7c(F)cc(S(=O)(=O)[O-])cc7F)c7ccc([nH]7)c(-c7c(F)cc(S(=O)(=O)[O-])cc7F)c7nc(c(-c8c(F)cc(S(=O)(=O)[O-])cc8F)c8ccc5[nH]8)C=C7)C=C6)cc4)cc3)o2)c([N+](=O)[O-])c1
REMARK SMILES IDX 23 1 22 2 21 3 19 4 20 5 18 7 15 8 16 9 98 10 17 11 97 12
REMARK SMILES IDX 14 13 13 14 11 15 12 16 10 18 7 19 8 20 99 21 9 22 6 23 3 24
REMARK SMILES IDX 4 25 104 26 5 27 100 28 2 29 1 30 101 31 102 32 103 33 24 34
REMARK SMILES IDX 25 35 26 36 27 37 28 38 29 39 30 41 31 42 32 43 96 44 33 45
REMARK SMILES IDX 95 46 34 47 35 48 36 49 89 50 37 51 94 52 88 53 90 54 38 55
REMARK SMILES IDX 93 56 87 57 86 58 39 60 73 61 52 62 72 63 53 64 56 65 71 66
REMARK SMILES IDX 91 67 54 68 55 69 70 71 92 72 57 73 40 74 41 75 50 76 42 77
REMARK SMILES IDX 43 78 49 79 51 80 44 81 45 82 46 83 47 84 48 85 74 86 75 87
REMARK SMILES IDX 84 88 76 89 77 90 83 91 85 92 78 93 79 94 80 95 81 96 82 97
REMARK SMILES IDX 58 98 59 99 68 100 60 101 61 102 67 103 69 104 62 105 63 106
REMARK SMILES IDX 64 107 65 108 66 109
REMARK H PARENT 21 6 13 17 28 40 90 59 56 70
REMARK Flexibility Score: inf
ROOT
ATOM      1  C   UNL A   1      44.518  18.875  25.540  1.00  0.00     0.021 C 
ENDROOT
BRANCH   1   2
ATOM      2  C   UNL A   1      45.470  19.988  25.101  1.00  0.00     0.116 C 
BRANCH   2   3
ATOM      3  N   UNL A   1      44.881  20.736  24.007  1.00  0.00    -0.352 N 
ATOM      4  C   UNL A   1      44.708  22.077  23.784  1.00  0.00     0.251 C 
ATOM      5  O   UNL A   1      44.148  22.418  22.741  1.00  0.00    -0.269 OA
ATOM      6  H   UNL A   1      44.538  20.169  23.279  1.00  0.00     0.163 HD
BRANCH   4   7
ATOM      7  C   UNL A   1      45.226  23.129  24.699  1.00  0.00     0.039 A 
ATOM      8  C   UNL A   1      45.991  25.198  26.471  1.00  0.00    -0.029 A 
ATOM      9  C   UNL A   1      44.733  24.594  26.581  1.00  0.00     0.006 A 
ATOM     10  C   UNL A   1      46.878  24.713  25.499  1.00  0.00     0.006 A 
ATOM     11  C   UNL A   1      44.358  23.570  25.706  1.00  0.00     0.014 A 
ATOM     12  C   UNL A   1      46.509  23.671  24.639  1.00  0.00     0.014 A 
BRANCH   8  13
ATOM     13  C   UNL A   1      46.355  26.353  27.371  1.00  0.00     0.152 C 
BRANCH  13  14
ATOM     14  N   UNL A   1      47.156  27.337  26.683  1.00  0.00    -0.345 N 
ATOM     15  C   UNL A   1      46.917  28.642  26.338  1.00  0.00     0.287 C 
ATOM     16  O   UNL A   1      47.883  29.235  25.843  1.00  0.00    -0.266 OA
ATOM     17  H   UNL A   1      48.042  27.007  26.410  1.00  0.00     0.164 HD
BRANCH  15  18
ATOM     18  C   UNL A   1      45.625  29.277  26.533  1.00  0.00     0.192 A 
ATOM     19  C   UNL A   1      44.326  31.068  26.628  1.00  0.00     0.142 A 
ATOM     20  C   UNL A   1      43.505  29.993  26.865  1.00  0.00     0.052 A 
ATOM     21  O   UNL A   1      45.596  30.649  26.400  1.00  0.00    -0.451 OA
ATOM     22  C   UNL A   1      44.335  28.846  26.801  1.00  0.00     0.057 A 
BRANCH  19  23
ATOM     23  C   UNL A   1      44.112  32.502  26.584  1.00  0.00     0.095 A 
ATOM     24  C   UNL A   1      43.473  35.254  26.416  1.00  0.00     0.125 A 
ATOM     25  C   UNL A   1      43.474  34.450  25.274  1.00  0.00     0.047 A 
ATOM     26  C   UNL A   1      43.799  34.691  27.647  1.00  0.00     0.132 A 
ATOM     27  C   UNL A   1      43.800  33.093  25.351  1.00  0.00     0.023 A 
ATOM     28  C   UNL A   1      44.122  33.323  27.722  1.00  0.00     0.284 A 
BRANCH  24  29
ATOM     29  O   UNL A   1      43.101  36.551  26.207  1.00  0.00    -0.497 OA
ATOM     30  C   UNL A   1      42.338  37.170  27.234  1.00  0.00     0.278 C 
ENDBRANCH  24  29
BRANCH  28  31
ATOM     31  N   UNL A   1      44.470  32.790  29.038  1.00  0.00     0.063 N 
ATOM     32  O   UNL A   1      43.567  32.324  29.744  1.00  0.00    -0.258 OA
ATOM     33  O   UNL A   1      45.671  32.797  29.348  1.00  0.00    -0.258 OA
ENDBRANCH  28  31
ENDBRANCH  19  23
ENDBRANCH  15  18
ENDBRANCH  13  14
ENDBRANCH   8  13
ENDBRANCH   4   7
ENDBRANCH   2   3
ENDBRANCH   1   2
BRANCH   1  34
ATOM     34  C   UNL A   1      43.036  19.255  25.395  1.00  0.00     0.002 C 
BRANCH  34  35
ATOM     35  C   UNL A   1      42.475  20.104  26.543  1.00  0.00     0.002 C 
BRANCH  35  36
ATOM     36  C   UNL A   1      41.804  21.410  26.109  1.00  0.00     0.021 C 
BRANCH  36  37
ATOM     37  C   UNL A   1      40.490  21.704  26.825  1.00  0.00     0.116 C 
BRANCH  37  38
ATOM     38  N   UNL A   1      39.466  22.154  25.897  1.00  0.00    -0.352 N 
ATOM     39  C   UNL A   1      38.778  23.340  25.875  1.00  0.00     0.251 C 
ATOM     40  H   UNL A   1      39.234  21.517  25.183  1.00  0.00     0.163 HD
ATOM     41  O   UNL A   1      37.778  23.451  25.172  1.00  0.00    -0.269 OA
BRANCH  39  42
ATOM     42  C   UNL A   1      39.238  24.477  26.700  1.00  0.00     0.039 A 
ATOM     43  C   UNL A   1      38.798  24.578  28.022  1.00  0.00     0.014 A 
ATOM     44  C   UNL A   1      40.069  25.464  26.159  1.00  0.00     0.014 A 
ATOM     45  C   UNL A   1      39.212  25.655  28.809  1.00  0.00     0.010 A 
ATOM     46  C   UNL A   1      40.541  26.494  26.967  1.00  0.00     0.010 A 
ATOM     47  C   UNL A   1      40.098  26.614  28.291  1.00  0.00    -0.014 A 
BRANCH  47  48
ATOM     48  C   UNL A   1      40.529  27.779  29.106  1.00  0.00     0.031 A 
ATOM     49  C   UNL A   1      41.873  27.760  29.784  1.00  0.00     0.074 A 
ATOM     50  C   UNL A   1      39.699  28.827  29.271  1.00  0.00     0.049 A 
ATOM     51  N   UNL A   1      42.410  28.648  30.580  1.00  0.00    -0.248 NA
ATOM     52  C   UNL A   1      42.713  26.570  29.563  1.00  0.00     0.031 C 
ATOM     53  C   UNL A   1      38.355  28.941  28.701  1.00  0.00     0.029 A 
ATOM     54  N   UNL A   1      39.862  29.994  29.974  1.00  0.00    -0.354 N 
ATOM     55  C   UNL A   1      43.638  28.119  30.964  1.00  0.00     0.074 A 
ATOM     56  C   UNL A   1      43.740  26.809  30.364  1.00  0.00     0.031 C 
ATOM     57  C   UNL A   1      37.825  30.123  29.057  1.00  0.00     0.029 A 
ATOM     58  C   UNL A   1      38.774  30.835  29.907  1.00  0.00     0.049 A 
ATOM     59  H   UNL A   1      40.679  30.210  30.478  1.00  0.00     0.167 HD
ATOM     60  C   UNL A   1      44.604  28.686  31.727  1.00  0.00     0.037 A 
ATOM     61  C   UNL A   1      38.568  32.041  30.470  1.00  0.00     0.037 A 
ATOM     62  C   UNL A   1      44.507  30.005  32.293  1.00  0.00     0.049 A 
ATOM     63  C   UNL A   1      39.661  32.657  31.302  1.00  0.00     0.074 A 
ATOM     64  C   UNL A   1      45.451  30.694  33.035  1.00  0.00     0.029 A 
ATOM     65  N   UNL A   1      43.403  30.838  32.178  1.00  0.00    -0.354 N 
ATOM     66  N   UNL A   1      40.839  32.168  31.609  1.00  0.00    -0.248 NA
ATOM     67  C   UNL A   1      39.403  33.993  31.855  1.00  0.00     0.031 C 
ATOM     68  C   UNL A   1      44.901  31.928  33.403  1.00  0.00     0.029 A 
ATOM     69  C   UNL A   1      43.636  32.028  32.847  1.00  0.00     0.049 A 
ATOM     70  H   UNL A   1      42.577  30.615  31.693  1.00  0.00     0.167 HD
ATOM     71  C   UNL A   1      41.475  33.149  32.361  1.00  0.00     0.074 A 
ATOM     72  C   UNL A   1      40.554  34.262  32.455  1.00  0.00     0.031 C 
ATOM     73  C   UNL A   1      42.711  33.132  32.919  1.00  0.00     0.037 A 
BRANCH  60  74
ATOM     74  C   UNL A   1      45.850  27.883  31.985  1.00  0.00     0.058 A 
ATOM     75  C   UNL A   1      46.921  27.868  31.076  1.00  0.00     0.135 A 
ATOM     76  C   UNL A   1      45.989  27.139  33.168  1.00  0.00     0.135 A 
ATOM     77  F   UNL A   1      46.837  28.548  29.920  1.00  0.00    -0.206 F 
ATOM     78  C   UNL A   1      48.069  27.119  31.314  1.00  0.00     0.059 A 
ATOM     79  C   UNL A   1      47.142  26.408  33.441  1.00  0.00     0.059 A 
ATOM     80  F   UNL A   1      44.997  27.116  34.072  1.00  0.00    -0.206 F 
ATOM     81  C   UNL A   1      48.169  26.392  32.500  1.00  0.00     0.060 A 
BRANCH  81  82
ATOM     82  S   UNL A   1      49.666  25.427  32.794  1.00  0.00     0.124 S 
ATOM     83  O   UNL A   1      50.129  25.183  31.431  1.00  0.00    -0.237 OA
ATOM     84  O   UNL A   1      50.480  26.346  33.584  1.00  0.00    -0.237 OA
ATOM     85  O   UNL A   1      49.179  24.252  33.512  1.00  0.00    -0.744 OA
ENDBRANCH  81  82
ENDBRANCH  60  74
BRANCH  61  86
ATOM     86  C   UNL A   1      37.286  32.759  30.239  1.00  0.00     0.058 A 
ATOM     87  C   UNL A   1      36.199  32.598  31.111  1.00  0.00     0.135 A 
ATOM     88  C   UNL A   1      37.126  33.630  29.150  1.00  0.00     0.135 A 
ATOM     89  F   UNL A   1      36.302  31.772  32.164  1.00  0.00    -0.206 F 
ATOM     90  C   UNL A   1      34.993  33.256  30.902  1.00  0.00     0.059 A 
ATOM     91  C   UNL A   1      35.937  34.322  28.935  1.00  0.00     0.059 A 
ATOM     92  F   UNL A   1      38.142  33.836  28.297  1.00  0.00    -0.206 F 
ATOM     93  C   UNL A   1      34.872  34.119  29.812  1.00  0.00     0.060 A 
BRANCH  93  94
ATOM     94  S   UNL A   1      33.316  35.004  29.575  1.00  0.00     0.124 S 
ATOM     95  O   UNL A   1      32.739  34.948  30.912  1.00  0.00    -0.237 OA
ATOM     96  O   UNL A   1      33.774  36.316  29.129  1.00  0.00    -0.237 OA
ATOM     97  O   UNL A   1      32.631  34.210  28.558  1.00  0.00    -0.744 OA
ENDBRANCH  93  94
ENDBRANCH  61  86
BRANCH  73  98
ATOM     98  C   UNL A   1      43.162  34.370  33.643  1.00  0.00     0.058 A 
ATOM     99  C   UNL A   1      43.867  35.394  32.992  1.00  0.00     0.135 A 
ATOM    100  C   UNL A   1      42.836  34.556  34.997  1.00  0.00     0.135 A 
ATOM    101  F   UNL A   1      44.208  35.264  31.700  1.00  0.00    -0.206 F 
ATOM    102  C   UNL A   1      44.258  36.548  33.664  1.00  0.00     0.059 A 
ATOM    103  C   UNL A   1      43.191  35.715  35.681  1.00  0.00     0.059 A 
ATOM    104  F   UNL A   1      42.152  33.613  35.664  1.00  0.00    -0.206 F 
ATOM    105  C   UNL A   1      43.912  36.699  35.009  1.00  0.00     0.060 A 
BRANCH 105 106
ATOM    106  S   UNL A   1      44.398  38.214  35.862  1.00  0.00     0.124 S 
ATOM    107  O   UNL A   1      43.675  38.085  37.123  1.00  0.00    -0.237 OA
ATOM    108  O   UNL A   1      45.849  38.073  35.946  1.00  0.00    -0.237 OA
ATOM    109  O   UNL A   1      43.928  39.271  34.973  1.00  0.00    -0.744 OA
ENDBRANCH 105 106
ENDBRANCH  73  98
ENDBRANCH  47  48
ENDBRANCH  39  42
ENDBRANCH  37  38
ENDBRANCH  36  37
ENDBRANCH  35  36
ENDBRANCH  34  35
ENDBRANCH   1  34
TORSDOF 22
ENDMDL
MODEL 3
REMARK VINA RESULT:      -9.7      3.297      8.937
REMARK SMILES COc1ccc(-c2ccc(C(=O)NCc3ccc(C(=O)NCCCCCCNC(=O)c4ccc(-c5c6nc(c(-c7c(F)cc(S(=O)(=O)[O-])cc7F)c7ccc([nH]7)c(-c7c(F)cc(S(=O)(=O)[O-])cc7F)c7nc(c(-c8c(F)cc(S(=O)(=O)[O-])cc8F)c8ccc5[nH]8)C=C7)C=C6)cc4)cc3)o2)c([N+](=O)[O-])c1
REMARK SMILES IDX 23 1 22 2 21 3 19 4 20 5 18 7 15 8 16 9 98 10 17 11 97 12
REMARK SMILES IDX 14 13 13 14 11 15 12 16 10 18 7 19 8 20 99 21 9 22 6 23 3 24
REMARK SMILES IDX 4 25 104 26 5 27 100 28 2 29 1 30 101 31 102 32 103 33 24 34
REMARK SMILES IDX 25 35 26 36 27 37 28 38 29 39 30 41 31 42 32 43 96 44 33 45
REMARK SMILES IDX 95 46 34 47 35 48 36 49 89 50 37 51 94 52 88 53 90 54 38 55
REMARK SMILES IDX 93 56 87 57 86 58 39 60 73 61 52 62 72 63 53 64 56 65 71 66
REMARK SMILES IDX 91 67 54 68 55 69 70 71 92 72 57 73 40 74 41 75 50 76 42 77
REMARK SMILES IDX 43 78 49 79 51 80 44 81 45 82 46 83 47 84 48 85 74 86 75 87
REMARK SMILES IDX 84 88 76 89 77 90 83 91 85 92 78 93 79 94 80 95 81 96 82 97
REMARK SMILES IDX 58 98 59 99 68 100 60 101 61 102 67 103 69 104 62 105 63 106
REMARK SMILES IDX 64 107 65 108 66 109
REMARK H PARENT 21 6 13 17 28 40 90 59 56 70
REMARK Flexibility Score: inf
ROOT
ATOM      1  C   UNL A   1      43.241  18.613  25.985  1.00  0.00     0.021 C 
ENDROOT
BRANCH   1   2
ATOM      2  C   UNL A   1      43.827  18.752  24.579  1.00  0.00     0.116 C 
BRANCH   2   3
ATOM      3  N   UNL A   1      45.275  18.815  24.653  1.00  0.00    -0.352 N 
ATOM      4  C   UNL A   1      46.151  19.847  24.856  1.00  0.00     0.251 C 
ATOM      5  O   UNL A   1      47.355  19.587  24.854  1.00  0.00    -0.269 OA
ATOM      6  H   UNL A   1      45.715  17.942  24.534  1.00  0.00     0.163 HD
BRANCH   4   7
ATOM      7  C   UNL A   1      45.717  21.239  25.151  1.00  0.00     0.039 A 
ATOM      8  C   UNL A   1      45.061  23.960  25.568  1.00  0.00    -0.029 A 
ATOM      9  C   UNL A   1      45.646  23.544  24.366  1.00  0.00     0.006 A 
ATOM     10  C   UNL A   1      44.760  22.987  26.533  1.00  0.00     0.006 A 
ATOM     11  C   UNL A   1      45.967  22.199  24.161  1.00  0.00     0.014 A 
ATOM     12  C   UNL A   1      45.061  21.636  26.315  1.00  0.00     0.014 A 
BRANCH   8  13
ATOM     13  C   UNL A   1      44.790  25.425  25.808  1.00  0.00     0.152 C 
BRANCH  13  14
ATOM     14  N   UNL A   1      45.427  26.257  24.816  1.00  0.00    -0.345 N 
ATOM     15  C   UNL A   1      45.825  27.569  24.831  1.00  0.00     0.287 C 
ATOM     16  O   UNL A   1      46.450  27.935  23.829  1.00  0.00    -0.266 OA
ATOM     17  H   UNL A   1      45.611  25.794  23.968  1.00  0.00     0.164 HD
BRANCH  15  18
ATOM     18  C   UNL A   1      45.529  28.462  25.938  1.00  0.00     0.192 A 
ATOM     19  C   UNL A   1      45.344  30.487  26.816  1.00  0.00     0.142 A 
ATOM     20  C   UNL A   1      44.994  29.609  27.813  1.00  0.00     0.052 A 
ATOM     21  O   UNL A   1      45.639  29.811  25.677  1.00  0.00    -0.451 OA
ATOM     22  C   UNL A   1      45.109  28.314  27.251  1.00  0.00     0.057 A 
BRANCH  19  23
ATOM     23  C   UNL A   1      45.461  31.931  26.747  1.00  0.00     0.095 A 
ATOM     24  C   UNL A   1      45.549  34.759  26.807  1.00  0.00     0.125 A 
ATOM     25  C   UNL A   1      44.338  34.086  26.629  1.00  0.00     0.047 A 
ATOM     26  C   UNL A   1      46.724  34.025  26.947  1.00  0.00     0.132 A 
ATOM     27  C   UNL A   1      44.293  32.688  26.588  1.00  0.00     0.023 A 
ATOM     28  C   UNL A   1      46.674  32.619  26.911  1.00  0.00     0.284 A 
BRANCH  24  29
ATOM     29  O   UNL A   1      45.448  36.119  26.865  1.00  0.00    -0.497 OA
ATOM     30  C   UNL A   1      46.174  36.770  27.900  1.00  0.00     0.278 C 
ENDBRANCH  24  29
BRANCH  28  31
ATOM     31  N   UNL A   1      47.940  31.902  27.048  1.00  0.00     0.063 N 
ATOM     32  O   UNL A   1      47.962  30.872  27.734  1.00  0.00    -0.258 OA
ATOM     33  O   UNL A   1      48.912  32.351  26.424  1.00  0.00    -0.258 OA
ENDBRANCH  28  31
ENDBRANCH  19  23
ENDBRANCH  15  18
ENDBRANCH  13  14
ENDBRANCH   8  13
ENDBRANCH   4   7
ENDBRANCH   2   3
ENDBRANCH   1   2
BRANCH   1  34
ATOM     34  C   UNL A   1      41.942  19.411  26.179  1.00  0.00     0.002 C 
BRANCH  34  35
ATOM     35  C   UNL A   1      41.735  19.967  27.593  1.00  0.00     0.002 C 
BRANCH  35  36
ATOM     36  C   UNL A   1      41.020  21.319  27.655  1.00  0.00     0.021 C 
BRANCH  36  37
ATOM     37  C   UNL A   1      41.189  22.173  26.404  1.00  0.00     0.116 C 
BRANCH  37  38
ATOM     38  N   UNL A   1      39.909  22.468  25.781  1.00  0.00    -0.352 N 
ATOM     39  C   UNL A   1      39.021  23.474  26.062  1.00  0.00     0.251 C 
ATOM     40  H   UNL A   1      39.642  21.858  25.056  1.00  0.00     0.163 HD
ATOM     41  O   UNL A   1      37.882  23.425  25.607  1.00  0.00    -0.269 OA
BRANCH  39  42
ATOM     42  C   UNL A   1      39.436  24.610  26.912  1.00  0.00     0.039 A 
ATOM     43  C   UNL A   1      40.276  25.588  26.373  1.00  0.00     0.014 A 
ATOM     44  C   UNL A   1      39.032  24.690  28.249  1.00  0.00     0.014 A 
ATOM     45  C   UNL A   1      40.688  26.659  27.168  1.00  0.00     0.010 A 
ATOM     46  C   UNL A   1      39.383  25.796  29.016  1.00  0.00     0.010 A 
ATOM     47  C   UNL A   1      40.234  26.779  28.492  1.00  0.00    -0.014 A 
BRANCH  47  48
ATOM     48  C   UNL A   1      40.684  27.899  29.359  1.00  0.00     0.031 A 
ATOM     49  C   UNL A   1      39.795  29.099  29.548  1.00  0.00     0.074 A 
ATOM     50  C   UNL A   1      41.900  27.856  29.936  1.00  0.00     0.049 A 
ATOM     51  N   UNL A   1      40.024  30.200  30.217  1.00  0.00    -0.248 NA
ATOM     52  C   UNL A   1      38.487  29.073  28.872  1.00  0.00     0.031 C 
ATOM     53  C   UNL A   1      42.868  26.766  29.790  1.00  0.00     0.029 A 
ATOM     54  N   UNL A   1      42.533  28.755  30.755  1.00  0.00    -0.354 N 
ATOM     55  C   UNL A   1      38.900  30.998  30.029  1.00  0.00     0.074 A 
ATOM     56  C   UNL A   1      38.018  30.282  29.136  1.00  0.00     0.031 C 
ATOM     57  C   UNL A   1      43.963  27.050  30.515  1.00  0.00     0.029 A 
ATOM     58  C   UNL A   1      43.790  28.354  31.148  1.00  0.00     0.049 A 
ATOM     59  H   UNL A   1      42.128  29.607  31.036  1.00  0.00     0.167 HD
ATOM     60  C   UNL A   1      38.618  32.207  30.573  1.00  0.00     0.037 A 
ATOM     61  C   UNL A   1      44.698  28.972  31.928  1.00  0.00     0.037 A 
ATOM     62  C   UNL A   1      39.489  32.897  31.487  1.00  0.00     0.049 A 
ATOM     63  C   UNL A   1      44.358  30.307  32.533  1.00  0.00     0.074 A 
ATOM     64  C   UNL A   1      39.275  34.101  32.137  1.00  0.00     0.029 A 
ATOM     65  N   UNL A   1      40.739  32.445  31.885  1.00  0.00    -0.354 N 
ATOM     66  N   UNL A   1      43.267  31.023  32.390  1.00  0.00    -0.248 NA
ATOM     67  C   UNL A   1      45.364  30.915  33.412  1.00  0.00     0.031 C 
ATOM     68  C   UNL A   1      40.413  34.396  32.895  1.00  0.00     0.029 A 
ATOM     69  C   UNL A   1      41.314  33.352  32.759  1.00  0.00     0.049 A 
ATOM     70  H   UNL A   1      41.156  31.605  31.588  1.00  0.00     0.167 HD
ATOM     71  C   UNL A   1      43.442  32.147  33.188  1.00  0.00     0.074 A 
ATOM     72  C   UNL A   1      44.740  32.013  33.816  1.00  0.00     0.031 C 
ATOM     73  C   UNL A   1      42.603  33.195  33.386  1.00  0.00     0.037 A 
BRANCH  60  74
ATOM     74  C   UNL A   1      37.313  32.853  30.197  1.00  0.00     0.058 A 
ATOM     75  C   UNL A   1      37.212  33.733  29.106  1.00  0.00     0.135 A 
ATOM     76  C   UNL A   1      36.141  32.570  30.917  1.00  0.00     0.135 A 
ATOM     77  F   UNL A   1      38.303  34.053  28.391  1.00  0.00    -0.206 F 
ATOM     78  C   UNL A   1      36.004  34.335  28.764  1.00  0.00     0.059 A 
ATOM     79  C   UNL A   1      34.917  33.137  30.573  1.00  0.00     0.059 A 
ATOM     80  F   UNL A   1      36.179  31.738  31.969  1.00  0.00    -0.206 F 
ATOM     81  C   UNL A   1      34.863  34.030  29.505  1.00  0.00     0.060 A 
BRANCH  81  82
ATOM     82  S   UNL A   1      33.304  34.818  29.048  1.00  0.00     0.124 S 
ATOM     83  O   UNL A   1      32.760  33.856  28.094  1.00  0.00    -0.237 OA
ATOM     84  O   UNL A   1      32.609  34.903  30.329  1.00  0.00    -0.237 OA
ATOM     85  O   UNL A   1      33.722  36.097  28.481  1.00  0.00    -0.744 OA
ENDBRANCH  81  82
ENDBRANCH  60  74
BRANCH  61  86
ATOM     86  C   UNL A   1      46.004  28.316  32.209  1.00  0.00     0.058 A 
ATOM     87  C   UNL A   1      47.136  28.598  31.430  1.00  0.00     0.135 A 
ATOM     88  C   UNL A   1      46.149  27.405  33.266  1.00  0.00     0.135 A 
ATOM     89  F   UNL A   1      47.046  29.459  30.404  1.00  0.00    -0.206 F 
ATOM     90  C   UNL A   1      48.361  27.987  31.675  1.00  0.00     0.059 A 
ATOM     91  C   UNL A   1      47.371  26.801  33.549  1.00  0.00     0.059 A 
ATOM     92  F   UNL A   1      45.102  27.115  34.054  1.00  0.00    -0.206 F 
ATOM     93  C   UNL A   1      48.469  27.091  32.739  1.00  0.00     0.060 A 
BRANCH  93  94
ATOM     94  S   UNL A   1      50.074  26.336  33.078  1.00  0.00     0.124 S 
ATOM     95  O   UNL A   1      50.870  26.822  31.957  1.00  0.00    -0.237 OA
ATOM     96  O   UNL A   1      50.405  26.893  34.386  1.00  0.00    -0.237 OA
ATOM     97  O   UNL A   1      49.780  24.906  33.072  1.00  0.00    -0.744 OA
ENDBRANCH  93  94
ENDBRANCH  61  86
BRANCH  73  98
ATOM     98  C   UNL A   1      43.039  34.258  34.357  1.00  0.00     0.058 A 
ATOM     99  C   UNL A   1      43.771  35.382  33.946  1.00  0.00     0.135 A 
ATOM    100  C   UNL A   1      42.672  34.172  35.710  1.00  0.00     0.135 A 
ATOM    101  F   UNL A   1      44.152  35.509  32.665  1.00  0.00    -0.206 F 
ATOM    102  C   UNL A   1      44.147  36.373  34.848  1.00  0.00     0.059 A 
ATOM    103  C   UNL A   1      43.011  35.165  36.623  1.00  0.00     0.059 A 
ATOM    104  F   UNL A   1      41.961  33.123  36.153  1.00  0.00    -0.206 F 
ATOM    105  C   UNL A   1      43.760  36.256  36.184  1.00  0.00     0.060 A 
BRANCH 105 106
ATOM    106  S   UNL A   1      44.228  37.562  37.338  1.00  0.00     0.124 S 
ATOM    107  O   UNL A   1      44.117  38.750  36.499  1.00  0.00    -0.237 OA
ATOM    108  O   UNL A   1      43.218  37.430  38.385  1.00  0.00    -0.237 OA
ATOM    109  O   UNL A   1      45.584  37.197  37.734  1.00  0.00    -0.744 OA
ENDBRANCH 105 106
ENDBRANCH  73  98
ENDBRANCH  47  48
ENDBRANCH  39  42
ENDBRANCH  37  38
ENDBRANCH  36  37
ENDBRANCH  35  36
ENDBRANCH  34  35
ENDBRANCH   1  34
TORSDOF 22
ENDMDL
