MODEL 1
REMARK VINA RESULT:     -12.6      0.000      0.000
REMARK SMILES CN1C(=O)C[C@@H](C(=O)NCCCCCCNC(=O)c2ccc(-c3c4nc(c(-c5c(F)cc(S(=O)(=O)[O-])cc5F)c5ccc([nH]5)c(-c5c(F)cc(S(=O)(=O)[O-])cc5F)c5nc(c(-c6c(F)cc(S(=O)(=O)[O-])cc6F)c6ccc3[nH]6)C=C5)C=C4)cc2)C12CCN(c1ccc(Cl)cn1)CC2
REMARK SMILES IDX 13 1 12 2 11 3 10 4 9 5 7 6 8 7 6 9 1 10 2 11 3 12 85 13
REMARK SMILES IDX 4 14 5 15 86 16 97 17 87 18 96 19 88 20 89 21 90 22 95 23
REMARK SMILES IDX 91 24 94 25 92 26 93 27 14 28 15 29 16 30 17 31 18 33 19 34
REMARK SMILES IDX 20 35 84 36 21 37 83 38 22 39 23 40 24 41 77 42 25 43 82 44
REMARK SMILES IDX 76 45 78 46 26 47 81 48 75 49 74 50 27 52 61 53 40 54 60 55
REMARK SMILES IDX 41 56 44 57 59 58 79 59 42 60 43 61 58 63 80 64 45 65 28 66
REMARK SMILES IDX 29 67 38 68 30 69 31 70 37 71 39 72 32 73 33 74 34 75 35 76
REMARK SMILES IDX 36 77 62 78 63 79 72 80 64 81 65 82 71 83 73 84 66 85 67 86
REMARK SMILES IDX 68 87 69 88 70 89 46 90 47 91 56 92 48 93 49 94 55 95 57 96
REMARK SMILES IDX 50 97 51 98 52 99 53 100 54 101
REMARK H PARENT 9 8 16 32 78 51 44 62
REMARK Flexibility Score: inf
ROOT
ATOM      1  C   UNL A   1      37.975  23.654  26.070  1.00  0.00     0.002 C 
ENDROOT
BRANCH   1   2
ATOM      2  C   UNL A   1      37.047  23.174  24.955  1.00  0.00     0.002 C 
BRANCH   2   3
ATOM      3  C   UNL A   1      36.959  21.656  24.819  1.00  0.00     0.021 C 
BRANCH   3   4
ATOM      4  C   UNL A   1      35.602  21.062  25.198  1.00  0.00     0.116 C 
BRANCH   4   5
ATOM      5  N   UNL A   1      35.120  21.541  26.480  1.00  0.00    -0.356 N 
ATOM      6  C   UNL A   1      33.912  21.981  26.905  1.00  0.00     0.226 C 
ATOM      7  O   UNL A   1      33.843  22.317  28.094  1.00  0.00    -0.275 OA
ATOM      8  H   UNL A   1      35.810  21.547  27.182  1.00  0.00     0.163 HD
BRANCH   6   9
ATOM      9  C   UNL A   1      32.657  22.100  26.036  1.00  0.00     0.113 C 
ATOM     10  C   UNL A   1      33.147  22.786  22.381  1.00  0.00     0.147 C 
ATOM     11  N   UNL A   1      32.810  22.290  23.704  1.00  0.00    -0.339 N 
ATOM     12  C   UNL A   1      32.518  20.955  23.937  1.00  0.00     0.223 C 
ATOM     13  C   UNL A   1      32.625  23.144  24.890  1.00  0.00     0.058 C 
ATOM     14  O   UNL A   1      32.501  20.056  23.110  1.00  0.00    -0.275 OA
ATOM     15  C   UNL A   1      32.253  20.768  25.403  1.00  0.00     0.116 C 
ATOM     16  C   UNL A   1      33.696  24.246  25.007  1.00  0.00     0.051 C 
ATOM     17  C   UNL A   1      31.217  23.818  24.806  1.00  0.00     0.051 C 
ATOM     18  C   UNL A   1      33.409  25.220  26.134  1.00  0.00     0.120 C 
ATOM     19  C   UNL A   1      30.978  24.902  25.874  1.00  0.00     0.120 C 
ATOM     20  N   UNL A   1      32.116  25.800  25.848  1.00  0.00    -0.356 N 
BRANCH  20  21
ATOM     21  C   UNL A   1      31.967  27.163  25.922  1.00  0.00     0.128 A 
ATOM     22  C   UNL A   1      31.950  27.781  27.177  1.00  0.00     0.048 A 
ATOM     23  N   UNL A   1      31.841  27.880  24.788  1.00  0.00    -0.238 NA
ATOM     24  C   UNL A   1      31.776  29.158  27.283  1.00  0.00     0.026 A 
ATOM     25  C   UNL A   1      31.641  29.217  24.913  1.00  0.00     0.134 A 
ATOM     26  C   UNL A   1      31.603  29.891  26.123  1.00  0.00     0.059 A 
ATOM     27  Cl  UNL A   1      31.352  31.586  26.191  1.00  0.00    -0.083 Cl
ENDBRANCH  20  21
ENDBRANCH   6   9
ENDBRANCH   4   5
ENDBRANCH   3   4
ENDBRANCH   2   3
ENDBRANCH   1   2
BRANCH   1  28
ATOM     28  C   UNL A   1      39.020  22.627  26.517  1.00  0.00     0.021 C 
BRANCH  28  29
ATOM     29  C   UNL A   1      40.295  23.230  27.096  1.00  0.00     0.116 C 
BRANCH  29  30
ATOM     30  N   UNL A   1      41.082  23.904  26.077  1.00  0.00    -0.352 N 
ATOM     31  C   UNL A   1      41.483  25.214  26.029  1.00  0.00     0.251 C 
ATOM     32  H   UNL A   1      41.365  23.344  25.319  1.00  0.00     0.163 HD
ATOM     33  O   UNL A   1      41.935  25.681  24.987  1.00  0.00    -0.269 OA
BRANCH  31  34
ATOM     34  C   UNL A   1      41.356  26.058  27.234  1.00  0.00     0.039 A 
ATOM     35  C   UNL A   1      42.328  27.025  27.490  1.00  0.00     0.014 A 
ATOM     36  C   UNL A   1      40.274  25.893  28.106  1.00  0.00     0.014 A 
ATOM     37  C   UNL A   1      42.191  27.860  28.599  1.00  0.00     0.010 A 
ATOM     38  C   UNL A   1      40.100  26.778  29.166  1.00  0.00     0.010 A 
ATOM     39  C   UNL A   1      41.061  27.764  29.429  1.00  0.00    -0.014 A 
BRANCH  39  40
ATOM     40  C   UNL A   1      40.875  28.687  30.578  1.00  0.00     0.031 A 
ATOM     41  C   UNL A   1      41.734  28.549  31.805  1.00  0.00     0.074 A 
ATOM     42  C   UNL A   1      39.903  29.619  30.530  1.00  0.00     0.049 A 
ATOM     43  N   UNL A   1      41.695  29.232  32.921  1.00  0.00    -0.248 NA
ATOM     44  C   UNL A   1      42.756  27.488  31.789  1.00  0.00     0.031 C 
ATOM     45  C   UNL A   1      38.978  29.819  29.412  1.00  0.00     0.029 A 
ATOM     46  N   UNL A   1      39.526  30.569  31.445  1.00  0.00    -0.354 N 
ATOM     47  C   UNL A   1      42.679  28.684  33.736  1.00  0.00     0.074 A 
ATOM     48  C   UNL A   1      43.255  27.571  33.013  1.00  0.00     0.031 C 
ATOM     49  C   UNL A   1      38.164  30.849  29.692  1.00  0.00     0.029 A 
ATOM     50  C   UNL A   1      38.477  31.354  31.025  1.00  0.00     0.049 A 
ATOM     51  H   UNL A   1      39.966  30.681  32.318  1.00  0.00     0.167 HD
ATOM     52  C   UNL A   1      43.083  29.088  34.964  1.00  0.00     0.037 A 
ATOM     53  C   UNL A   1      37.836  32.363  31.647  1.00  0.00     0.037 A 
ATOM     54  C   UNL A   1      42.512  30.207  35.669  1.00  0.00     0.049 A 
ATOM     55  C   UNL A   1      38.288  32.779  33.021  1.00  0.00     0.074 A 
ATOM     56  C   UNL A   1      42.879  30.725  36.899  1.00  0.00     0.029 A 
ATOM     57  N   UNL A   1      41.453  30.977  35.213  1.00  0.00    -0.354 N 
ATOM     58  N   UNL A   1      39.260  32.287  33.753  1.00  0.00    -0.248 NA
ATOM     59  C   UNL A   1      37.563  33.890  33.650  1.00  0.00     0.031 C 
ATOM     60  C   UNL A   1      42.007  31.774  37.210  1.00  0.00     0.029 A 
ATOM     61  C   UNL A   1      41.137  31.951  36.147  1.00  0.00     0.049 A 
ATOM     62  H   UNL A   1      40.993  30.850  34.352  1.00  0.00     0.167 HD
ATOM     63  C   UNL A   1      39.282  33.049  34.916  1.00  0.00     0.074 A 
ATOM     64  C   UNL A   1      38.236  34.042  34.783  1.00  0.00     0.031 C 
ATOM     65  C   UNL A   1      40.096  32.938  35.996  1.00  0.00     0.037 A 
BRANCH  52  66
ATOM     66  C   UNL A   1      44.199  28.321  35.622  1.00  0.00     0.058 A 
ATOM     67  C   UNL A   1      43.945  27.241  36.483  1.00  0.00     0.135 A 
ATOM     68  C   UNL A   1      45.541  28.642  35.358  1.00  0.00     0.135 A 
ATOM     69  F   UNL A   1      42.682  26.898  36.786  1.00  0.00    -0.206 F 
ATOM     70  C   UNL A   1      44.978  26.528  37.082  1.00  0.00     0.059 A 
ATOM     71  C   UNL A   1      46.591  27.922  35.921  1.00  0.00     0.059 A 
ATOM     72  F   UNL A   1      45.844  29.665  34.543  1.00  0.00    -0.206 F 
ATOM     73  C   UNL A   1      46.299  26.875  36.793  1.00  0.00     0.060 A 
BRANCH  73  74
ATOM     74  S   UNL A   1      47.626  25.932  37.572  1.00  0.00     0.124 S 
ATOM     75  O   UNL A   1      47.151  24.563  37.397  1.00  0.00    -0.237 OA
ATOM     76  O   UNL A   1      48.787  26.307  36.772  1.00  0.00    -0.237 OA
ATOM     77  O   UNL A   1      47.630  26.421  38.947  1.00  0.00    -0.744 OA
ENDBRANCH  73  74
ENDBRANCH  52  66
BRANCH  53  78
ATOM     78  C   UNL A   1      36.713  33.064  30.967  1.00  0.00     0.058 A 
ATOM     79  C   UNL A   1      36.955  33.965  29.918  1.00  0.00     0.135 A 
ATOM     80  C   UNL A   1      35.379  32.842  31.341  1.00  0.00     0.135 A 
ATOM     81  F   UNL A   1      38.214  34.215  29.526  1.00  0.00    -0.206 F 
ATOM     82  C   UNL A   1      35.917  34.636  29.279  1.00  0.00     0.059 A 
ATOM     83  C   UNL A   1      34.322  33.479  30.698  1.00  0.00     0.059 A 
ATOM     84  F   UNL A   1      35.092  31.978  32.327  1.00  0.00    -0.206 F 
ATOM     85  C   UNL A   1      34.603  34.383  29.675  1.00  0.00     0.060 A 
BRANCH  85  86
ATOM     86  S   UNL A   1      33.262  35.228  28.809  1.00  0.00     0.124 S 
ATOM     87  O   UNL A   1      32.473  35.744  29.920  1.00  0.00    -0.237 OA
ATOM     88  O   UNL A   1      33.987  36.222  28.023  1.00  0.00    -0.237 OA
ATOM     89  O   UNL A   1      32.638  34.161  28.033  1.00  0.00    -0.744 OA
ENDBRANCH  85  86
ENDBRANCH  53  78
BRANCH  65  90
ATOM     90  C   UNL A   1      39.916  33.940  37.106  1.00  0.00     0.058 A 
ATOM     91  C   UNL A   1      40.517  35.208  37.065  1.00  0.00     0.135 A 
ATOM     92  C   UNL A   1      39.090  33.642  38.201  1.00  0.00     0.135 A 
ATOM     93  F   UNL A   1      41.321  35.542  36.043  1.00  0.00    -0.206 F 
ATOM     94  C   UNL A   1      40.328  36.134  38.085  1.00  0.00     0.059 A 
ATOM     95  C   UNL A   1      38.860  34.565  39.216  1.00  0.00     0.059 A 
ATOM     96  F   UNL A   1      38.480  32.448  38.285  1.00  0.00    -0.206 F 
ATOM     97  C   UNL A   1      39.495  35.804  39.157  1.00  0.00     0.060 A 
BRANCH  97  98
ATOM     98  S   UNL A   1      39.235  37.027  40.458  1.00  0.00     0.124 S 
ATOM     99  O   UNL A   1      40.606  37.373  40.815  1.00  0.00    -0.237 OA
ATOM    100  O   UNL A   1      38.478  38.066  39.763  1.00  0.00    -0.237 OA
ATOM    101  O   UNL A   1      38.488  36.291  41.474  1.00  0.00    -0.744 OA
ENDBRANCH  97  98
ENDBRANCH  65  90
ENDBRANCH  39  40
ENDBRANCH  31  34
ENDBRANCH  29  30
ENDBRANCH  28  29
ENDBRANCH   1  28
TORSDOF 17
ENDMDL
MODEL 2
REMARK VINA RESULT:     -12.6      6.430     11.876
REMARK SMILES CN1C(=O)C[C@@H](C(=O)NCCCCCCNC(=O)c2ccc(-c3c4nc(c(-c5c(F)cc(S(=O)(=O)[O-])cc5F)c5ccc([nH]5)c(-c5c(F)cc(S(=O)(=O)[O-])cc5F)c5nc(c(-c6c(F)cc(S(=O)(=O)[O-])cc6F)c6ccc3[nH]6)C=C5)C=C4)cc2)C12CCN(c1ccc(Cl)cn1)CC2
REMARK SMILES IDX 13 1 12 2 11 3 10 4 9 5 7 6 8 7 6 9 1 10 2 11 3 12 85 13
REMARK SMILES IDX 4 14 5 15 86 16 97 17 87 18 96 19 88 20 89 21 90 22 95 23
REMARK SMILES IDX 91 24 94 25 92 26 93 27 14 28 15 29 16 30 17 31 18 33 19 34
REMARK SMILES IDX 20 35 84 36 21 37 83 38 22 39 23 40 24 41 77 42 25 43 82 44
REMARK SMILES IDX 76 45 78 46 26 47 81 48 75 49 74 50 27 52 61 53 40 54 60 55
REMARK SMILES IDX 41 56 44 57 59 58 79 59 42 60 43 61 58 63 80 64 45 65 28 66
REMARK SMILES IDX 29 67 38 68 30 69 31 70 37 71 39 72 32 73 33 74 34 75 35 76
REMARK SMILES IDX 36 77 62 78 63 79 72 80 64 81 65 82 71 83 73 84 66 85 67 86
REMARK SMILES IDX 68 87 69 88 70 89 46 90 47 91 56 92 48 93 49 94 55 95 57 96
REMARK SMILES IDX 50 97 51 98 52 99 53 100 54 101
REMARK H PARENT 9 8 16 32 78 51 44 62
REMARK Flexibility Score: inf
ROOT
ATOM      1  C   UNL A   1      34.549  29.529  27.304  1.00  0.00     0.002 C 
ENDROOT
BRANCH   1   2
ATOM      2  C   UNL A   1      33.170  28.915  27.066  1.00  0.00     0.002 C 
BRANCH   2   3
ATOM      3  C   UNL A   1      32.128  29.895  26.533  1.00  0.00     0.021 C 
BRANCH   3   4
ATOM      4  C   UNL A   1      31.726  29.663  25.076  1.00  0.00     0.116 C 
BRANCH   4   5
ATOM      5  N   UNL A   1      32.868  29.444  24.208  1.00  0.00    -0.356 N 
ATOM      6  C   UNL A   1      33.115  28.555  23.218  1.00  0.00     0.226 C 
ATOM      7  O   UNL A   1      34.218  28.652  22.664  1.00  0.00    -0.275 OA
ATOM      8  H   UNL A   1      33.611  30.069  24.372  1.00  0.00     0.163 HD
BRANCH   6   9
ATOM      9  C   UNL A   1      32.156  27.456  22.753  1.00  0.00     0.113 C 
ATOM     10  C   UNL A   1      29.840  25.991  25.315  1.00  0.00     0.147 C 
ATOM     11  N   UNL A   1      30.494  26.615  24.178  1.00  0.00    -0.339 N 
ATOM     12  C   UNL A   1      29.840  27.527  23.363  1.00  0.00     0.223 C 
ATOM     13  C   UNL A   1      31.845  26.270  23.703  1.00  0.00     0.058 C 
ATOM     14  O   UNL A   1      28.686  27.912  23.476  1.00  0.00    -0.275 OA
ATOM     15  C   UNL A   1      30.800  28.010  22.313  1.00  0.00     0.116 C 
ATOM     16  C   UNL A   1      32.857  26.096  24.852  1.00  0.00     0.051 C 
ATOM     17  C   UNL A   1      31.764  24.934  22.896  1.00  0.00     0.051 C 
ATOM     18  C   UNL A   1      34.201  25.584  24.371  1.00  0.00     0.120 C 
ATOM     19  C   UNL A   1      33.138  24.346  22.522  1.00  0.00     0.120 C 
ATOM     20  N   UNL A   1      33.944  24.315  23.728  1.00  0.00    -0.356 N 
BRANCH  20  21
ATOM     21  C   UNL A   1      34.728  23.234  24.050  1.00  0.00     0.128 A 
ATOM     22  C   UNL A   1      36.098  23.277  23.768  1.00  0.00     0.048 A 
ATOM     23  N   UNL A   1      34.167  22.155  24.629  1.00  0.00    -0.238 NA
ATOM     24  C   UNL A   1      36.912  22.187  24.062  1.00  0.00     0.026 A 
ATOM     25  C   UNL A   1      34.971  21.090  24.877  1.00  0.00     0.134 A 
ATOM     26  C   UNL A   1      36.332  21.061  24.616  1.00  0.00     0.059 A 
ATOM     27  Cl  UNL A   1      37.277  19.675  24.969  1.00  0.00    -0.083 Cl
ENDBRANCH  20  21
ENDBRANCH   6   9
ENDBRANCH   4   5
ENDBRANCH   3   4
ENDBRANCH   2   3
ENDBRANCH   1   2
BRANCH   1  28
ATOM     28  C   UNL A   1      34.534  31.027  27.623  1.00  0.00     0.021 C 
BRANCH  28  29
ATOM     29  C   UNL A   1      35.761  31.527  28.378  1.00  0.00     0.116 C 
BRANCH  29  30
ATOM     30  N   UNL A   1      35.613  31.358  29.814  1.00  0.00    -0.352 N 
ATOM     31  C   UNL A   1      36.399  30.644  30.681  1.00  0.00     0.251 C 
ATOM     32  H   UNL A   1      34.844  31.820  30.220  1.00  0.00     0.163 HD
ATOM     33  O   UNL A   1      36.003  30.407  31.818  1.00  0.00    -0.269 OA
BRANCH  31  34
ATOM     34  C   UNL A   1      37.718  30.154  30.230  1.00  0.00     0.039 A 
ATOM     35  C   UNL A   1      37.989  30.104  28.863  1.00  0.00     0.014 A 
ATOM     36  C   UNL A   1      38.682  29.749  31.160  1.00  0.00     0.014 A 
ATOM     37  C   UNL A   1      39.249  29.689  28.428  1.00  0.00     0.010 A 
ATOM     38  C   UNL A   1      39.960  29.411  30.726  1.00  0.00     0.010 A 
ATOM     39  C   UNL A   1      40.254  29.368  29.356  1.00  0.00    -0.014 A 
BRANCH  39  40
ATOM     40  C   UNL A   1      41.616  28.982  28.906  1.00  0.00     0.031 A 
ATOM     41  C   UNL A   1      42.715  30.007  28.858  1.00  0.00     0.074 A 
ATOM     42  C   UNL A   1      41.847  27.718  28.501  1.00  0.00     0.049 A 
ATOM     43  N   UNL A   1      43.954  29.871  28.457  1.00  0.00    -0.248 NA
ATOM     44  C   UNL A   1      42.374  31.372  29.292  1.00  0.00     0.031 C 
ATOM     45  C   UNL A   1      40.849  26.646  28.461  1.00  0.00     0.029 A 
ATOM     46  N   UNL A   1      42.992  27.119  28.040  1.00  0.00    -0.354 N 
ATOM     47  C   UNL A   1      44.536  31.127  28.588  1.00  0.00     0.074 A 
ATOM     48  C   UNL A   1      43.499  32.027  29.043  1.00  0.00     0.031 C 
ATOM     49  C   UNL A   1      41.432  25.515  28.034  1.00  0.00     0.029 A 
ATOM     50  C   UNL A   1      42.833  25.789  27.727  1.00  0.00     0.049 A 
ATOM     51  H   UNL A   1      43.849  27.595  27.945  1.00  0.00     0.167 HD
ATOM     52  C   UNL A   1      45.822  31.490  28.373  1.00  0.00     0.037 A 
ATOM     53  C   UNL A   1      43.714  24.893  27.241  1.00  0.00     0.037 A 
ATOM     54  C   UNL A   1      46.851  30.583  27.934  1.00  0.00     0.049 A 
ATOM     55  C   UNL A   1      45.132  25.327  26.988  1.00  0.00     0.074 A 
ATOM     56  C   UNL A   1      48.194  30.841  27.728  1.00  0.00     0.029 A 
ATOM     57  N   UNL A   1      46.651  29.245  27.627  1.00  0.00    -0.354 N 
ATOM     58  N   UNL A   1      45.680  26.505  27.173  1.00  0.00    -0.248 NA
ATOM     59  C   UNL A   1      46.055  24.310  26.467  1.00  0.00     0.031 C 
ATOM     60  C   UNL A   1      48.796  29.674  27.246  1.00  0.00     0.029 A 
ATOM     61  C   UNL A   1      47.842  28.671  27.210  1.00  0.00     0.049 A 
ATOM     62  H   UNL A   1      45.790  28.772  27.694  1.00  0.00     0.167 HD
ATOM     63  C   UNL A   1      47.017  26.362  26.821  1.00  0.00     0.074 A 
ATOM     64  C   UNL A   1      47.198  24.980  26.425  1.00  0.00     0.031 C 
ATOM     65  C   UNL A   1      48.007  27.290  26.826  1.00  0.00     0.037 A 
BRANCH  52  66
ATOM     66  C   UNL A   1      46.193  32.930  28.616  1.00  0.00     0.058 A 
ATOM     67  C   UNL A   1      46.063  33.904  27.614  1.00  0.00     0.135 A 
ATOM     68  C   UNL A   1      46.648  33.348  29.878  1.00  0.00     0.135 A 
ATOM     69  F   UNL A   1      45.649  33.560  26.383  1.00  0.00    -0.206 F 
ATOM     70  C   UNL A   1      46.397  35.235  27.843  1.00  0.00     0.059 A 
ATOM     71  C   UNL A   1      46.958  34.680  30.140  1.00  0.00     0.059 A 
ATOM     72  F   UNL A   1      46.793  32.459  30.873  1.00  0.00    -0.206 F 
ATOM     73  C   UNL A   1      46.842  35.614  29.111  1.00  0.00     0.060 A 
BRANCH  73  74
ATOM     74  S   UNL A   1      47.262  37.346  29.393  1.00  0.00     0.124 S 
ATOM     75  O   UNL A   1      47.836  37.719  28.104  1.00  0.00    -0.237 OA
ATOM     76  O   UNL A   1      45.964  37.936  29.702  1.00  0.00    -0.237 OA
ATOM     77  O   UNL A   1      48.205  37.292  30.505  1.00  0.00    -0.744 OA
ENDBRANCH  73  74
ENDBRANCH  52  66
BRANCH  53  78
ATOM     78  C   UNL A   1      43.285  23.491  26.982  1.00  0.00     0.058 A 
ATOM     79  C   UNL A   1      43.023  23.046  25.678  1.00  0.00     0.135 A 
ATOM     80  C   UNL A   1      43.140  22.567  28.028  1.00  0.00     0.135 A 
ATOM     81  F   UNL A   1      43.143  23.893  24.643  1.00  0.00    -0.206 F 
ATOM     82  C   UNL A   1      42.611  21.742  25.420  1.00  0.00     0.059 A 
ATOM     83  C   UNL A   1      42.758  21.250  27.794  1.00  0.00     0.059 A 
ATOM     84  F   UNL A   1      43.394  22.936  29.293  1.00  0.00    -0.206 F 
ATOM     85  C   UNL A   1      42.486  20.850  26.486  1.00  0.00     0.060 A 
BRANCH  85  86
ATOM     86  S   UNL A   1      41.992  19.148  26.135  1.00  0.00     0.124 S 
ATOM     87  O   UNL A   1      42.813  18.839  24.970  1.00  0.00    -0.237 OA
ATOM     88  O   UNL A   1      42.354  18.465  27.372  1.00  0.00    -0.237 OA
ATOM     89  O   UNL A   1      40.558  19.259  25.885  1.00  0.00    -0.744 OA
ENDBRANCH  85  86
ENDBRANCH  53  78
BRANCH  65  90
ATOM     90  C   UNL A   1      49.386  26.835  26.429  1.00  0.00     0.058 A 
ATOM     91  C   UNL A   1      50.256  26.219  27.343  1.00  0.00     0.135 A 
ATOM     92  C   UNL A   1      49.823  26.975  25.102  1.00  0.00     0.135 A 
ATOM     93  F   UNL A   1      49.890  26.065  28.625  1.00  0.00    -0.206 F 
ATOM     94  C   UNL A   1      51.520  25.783  26.961  1.00  0.00     0.059 A 
ATOM     95  C   UNL A   1      51.070  26.516  24.691  1.00  0.00     0.059 A 
ATOM     96  F   UNL A   1      49.027  27.546  24.183  1.00  0.00    -0.206 F 
ATOM     97  C   UNL A   1      51.918  25.934  25.630  1.00  0.00     0.060 A 
BRANCH  97  98
ATOM     98  S   UNL A   1      53.550  25.337  25.143  1.00  0.00     0.124 S 
ATOM     99  O   UNL A   1      53.444  23.913  25.441  1.00  0.00    -0.237 OA
ATOM    100  O   UNL A   1      53.600  25.686  23.726  1.00  0.00    -0.237 OA
ATOM    101  O   UNL A   1      54.460  26.092  26.000  1.00  0.00    -0.744 OA
ENDBRANCH  97  98
ENDBRANCH  65  90
ENDBRANCH  39  40
ENDBRANCH  31  34
ENDBRANCH  29  30
ENDBRANCH  28  29
ENDBRANCH   1  28
TORSDOF 17
ENDMDL
MODEL 3
REMARK VINA RESULT:     -12.3      5.305     12.389
REMARK SMILES CN1C(=O)C[C@@H](C(=O)NCCCCCCNC(=O)c2ccc(-c3c4nc(c(-c5c(F)cc(S(=O)(=O)[O-])cc5F)c5ccc([nH]5)c(-c5c(F)cc(S(=O)(=O)[O-])cc5F)c5nc(c(-c6c(F)cc(S(=O)(=O)[O-])cc6F)c6ccc3[nH]6)C=C5)C=C4)cc2)C12CCN(c1ccc(Cl)cn1)CC2
REMARK SMILES IDX 13 1 12 2 11 3 10 4 9 5 7 6 8 7 6 9 1 10 2 11 3 12 85 13
REMARK SMILES IDX 4 14 5 15 86 16 97 17 87 18 96 19 88 20 89 21 90 22 95 23
REMARK SMILES IDX 91 24 94 25 92 26 93 27 14 28 15 29 16 30 17 31 18 33 19 34
REMARK SMILES IDX 20 35 84 36 21 37 83 38 22 39 23 40 24 41 77 42 25 43 82 44
REMARK SMILES IDX 76 45 78 46 26 47 81 48 75 49 74 50 27 52 61 53 40 54 60 55
REMARK SMILES IDX 41 56 44 57 59 58 79 59 42 60 43 61 58 63 80 64 45 65 28 66
REMARK SMILES IDX 29 67 38 68 30 69 31 70 37 71 39 72 32 73 33 74 34 75 35 76
REMARK SMILES IDX 36 77 62 78 63 79 72 80 64 81 65 82 71 83 73 84 66 85 67 86
REMARK SMILES IDX 68 87 69 88 70 89 46 90 47 91 56 92 48 93 49 94 55 95 57 96
REMARK SMILES IDX 50 97 51 98 52 99 53 100 54 101
REMARK H PARENT 9 8 16 32 78 51 44 62
REMARK Flexibility Score: inf
ROOT
ATOM      1  C   UNL A   1      35.799  32.435  31.071  1.00  0.00     0.002 C 
ENDROOT
BRANCH   1   2
ATOM      2  C   UNL A   1      37.121  32.725  30.360  1.00  0.00     0.002 C 
BRANCH   2   3
ATOM      3  C   UNL A   1      37.664  34.133  30.592  1.00  0.00     0.021 C 
BRANCH   3   4
ATOM      4  C   UNL A   1      39.116  34.182  31.071  1.00  0.00     0.116 C 
BRANCH   4   5
ATOM      5  N   UNL A   1      39.261  34.853  32.349  1.00  0.00    -0.356 N 
ATOM      6  C   UNL A   1      38.819  34.564  33.596  1.00  0.00     0.226 C 
ATOM      7  O   UNL A   1      39.137  35.366  34.483  1.00  0.00    -0.275 OA
ATOM      8  H   UNL A   1      39.787  35.683  32.300  1.00  0.00     0.163 HD
BRANCH   6   9
ATOM      9  C   UNL A   1      37.965  33.352  33.976  1.00  0.00     0.113 C 
ATOM     10  C   UNL A   1      38.172  32.136  37.518  1.00  0.00     0.147 C 
ATOM     11  N   UNL A   1      37.809  32.626  36.200  1.00  0.00    -0.339 N 
ATOM     12  C   UNL A   1      36.657  33.366  35.982  1.00  0.00     0.223 C 
ATOM     13  C   UNL A   1      38.537  32.300  34.962  1.00  0.00     0.058 C 
ATOM     14  O   UNL A   1      35.828  33.691  36.819  1.00  0.00    -0.275 OA
ATOM     15  C   UNL A   1      36.597  33.750  34.531  1.00  0.00     0.116 C 
ATOM     16  C   UNL A   1      40.068  32.360  35.134  1.00  0.00     0.051 C 
ATOM     17  C   UNL A   1      38.137  30.858  34.512  1.00  0.00     0.051 C 
ATOM     18  C   UNL A   1      40.811  31.867  33.908  1.00  0.00     0.120 C 
ATOM     19  C   UNL A   1      38.984  30.309  33.349  1.00  0.00     0.120 C 
ATOM     20  N   UNL A   1      40.379  30.504  33.693  1.00  0.00    -0.356 N 
BRANCH  20  21
ATOM     21  C   UNL A   1      41.325  29.533  33.471  1.00  0.00     0.128 A 
ATOM     22  C   UNL A   1      42.600  29.682  34.030  1.00  0.00     0.048 A 
ATOM     23  N   UNL A   1      41.011  28.457  32.724  1.00  0.00    -0.238 NA
ATOM     24  C   UNL A   1      43.585  28.726  33.802  1.00  0.00     0.026 A 
ATOM     25  C   UNL A   1      41.995  27.553  32.487  1.00  0.00     0.134 A 
ATOM     26  C   UNL A   1      43.279  27.642  32.999  1.00  0.00     0.059 A 
ATOM     27  Cl  UNL A   1      44.461  26.449  32.656  1.00  0.00    -0.083 Cl
ENDBRANCH  20  21
ENDBRANCH   6   9
ENDBRANCH   4   5
ENDBRANCH   3   4
ENDBRANCH   2   3
ENDBRANCH   1   2
BRANCH   1  28
ATOM     28  C   UNL A   1      34.549  32.721  30.235  1.00  0.00     0.021 C 
BRANCH  28  29
ATOM     29  C   UNL A   1      34.695  32.415  28.749  1.00  0.00     0.116 C 
BRANCH  29  30
ATOM     30  N   UNL A   1      34.044  31.166  28.390  1.00  0.00    -0.352 N 
ATOM     31  C   UNL A   1      34.615  29.961  28.071  1.00  0.00     0.251 C 
ATOM     32  H   UNL A   1      33.060  31.189  28.376  1.00  0.00     0.163 HD
ATOM     33  O   UNL A   1      33.935  29.075  27.560  1.00  0.00    -0.269 OA
BRANCH  31  34
ATOM     34  C   UNL A   1      36.052  29.745  28.334  1.00  0.00     0.039 A 
ATOM     35  C   UNL A   1      36.447  29.268  29.583  1.00  0.00     0.014 A 
ATOM     36  C   UNL A   1      37.004  30.013  27.343  1.00  0.00     0.014 A 
ATOM     37  C   UNL A   1      37.797  29.014  29.826  1.00  0.00     0.010 A 
ATOM     38  C   UNL A   1      38.338  29.685  27.562  1.00  0.00     0.010 A 
ATOM     39  C   UNL A   1      38.751  29.191  28.808  1.00  0.00    -0.014 A 
BRANCH  39  40
ATOM     40  C   UNL A   1      40.182  28.868  29.036  1.00  0.00     0.031 A 
ATOM     41  C   UNL A   1      41.106  29.900  29.622  1.00  0.00     0.074 A 
ATOM     42  C   UNL A   1      40.656  27.660  28.673  1.00  0.00     0.049 A 
ATOM     43  N   UNL A   1      42.391  29.818  29.858  1.00  0.00    -0.248 NA
ATOM     44  C   UNL A   1      40.516  31.205  29.967  1.00  0.00     0.031 C 
ATOM     45  C   UNL A   1      39.865  26.593  28.053  1.00  0.00     0.029 A 
ATOM     46  N   UNL A   1      41.916  27.125  28.766  1.00  0.00    -0.354 N 
ATOM     47  C   UNL A   1      42.762  31.056  30.373  1.00  0.00     0.074 A 
ATOM     48  C   UNL A   1      41.581  31.891  30.356  1.00  0.00     0.031 C 
ATOM     49  C   UNL A   1      40.649  25.522  27.853  1.00  0.00     0.029 A 
ATOM     50  C   UNL A   1      42.007  25.839  28.288  1.00  0.00     0.049 A 
ATOM     51  H   UNL A   1      42.682  27.615  29.141  1.00  0.00     0.167 HD
ATOM     52  C   UNL A   1      43.970  31.450  30.841  1.00  0.00     0.037 A 
ATOM     53  C   UNL A   1      43.065  25.010  28.203  1.00  0.00     0.037 A 
ATOM     54  C   UNL A   1      45.136  30.605  30.867  1.00  0.00     0.049 A 
ATOM     55  C   UNL A   1      44.403  25.479  28.709  1.00  0.00     0.074 A 
ATOM     56  C   UNL A   1      46.396  30.895  31.361  1.00  0.00     0.029 A 
ATOM     57  N   UNL A   1      45.189  29.309  30.375  1.00  0.00    -0.354 N 
ATOM     58  N   UNL A   1      44.722  26.633  29.247  1.00  0.00    -0.248 NA
ATOM     59  C   UNL A   1      45.522  24.534  28.603  1.00  0.00     0.031 C 
ATOM     60  C   UNL A   1      47.225  29.794  31.119  1.00  0.00     0.029 A 
ATOM     61  C   UNL A   1      46.466  28.795  30.531  1.00  0.00     0.049 A 
ATOM     62  H   UNL A   1      44.431  28.827  29.973  1.00  0.00     0.167 HD
ATOM     63  C   UNL A   1      46.071  26.540  29.572  1.00  0.00     0.074 A 
ATOM     64  C   UNL A   1      46.502  25.213  29.182  1.00  0.00     0.031 C 
ATOM     65  C   UNL A   1      46.879  27.468  30.144  1.00  0.00     0.037 A 
BRANCH  52  66
ATOM     66  C   UNL A   1      44.091  32.855  31.371  1.00  0.00     0.058 A 
ATOM     67  C   UNL A   1      44.132  33.123  32.749  1.00  0.00     0.135 A 
ATOM     68  C   UNL A   1      44.207  33.944  30.491  1.00  0.00     0.135 A 
ATOM     69  F   UNL A   1      44.008  32.123  33.638  1.00  0.00    -0.206 F 
ATOM     70  C   UNL A   1      44.253  34.420  33.236  1.00  0.00     0.059 A 
ATOM     71  C   UNL A   1      44.362  35.247  30.955  1.00  0.00     0.059 A 
ATOM     72  F   UNL A   1      44.173  33.747  29.164  1.00  0.00    -0.206 F 
ATOM     73  C   UNL A   1      44.370  35.476  32.330  1.00  0.00     0.060 A 
BRANCH  73  74
ATOM     74  S   UNL A   1      44.536  37.151  32.981  1.00  0.00     0.124 S 
ATOM     75  O   UNL A   1      44.827  37.907  31.766  1.00  0.00    -0.237 OA
ATOM     76  O   UNL A   1      43.225  37.387  33.575  1.00  0.00    -0.237 OA
ATOM     77  O   UNL A   1      45.641  37.041  33.928  1.00  0.00    -0.744 OA
ENDBRANCH  73  74
ENDBRANCH  52  66
BRANCH  53  78
ATOM     78  C   UNL A   1      42.899  23.644  27.636  1.00  0.00     0.058 A 
ATOM     79  C   UNL A   1      42.588  22.553  28.463  1.00  0.00     0.135 A 
ATOM     80  C   UNL A   1      43.036  23.401  26.261  1.00  0.00     0.135 A 
ATOM     81  F   UNL A   1      42.451  22.732  29.786  1.00  0.00    -0.206 F 
ATOM     82  C   UNL A   1      42.439  21.268  27.950  1.00  0.00     0.059 A 
ATOM     83  C   UNL A   1      42.863  22.131  25.720  1.00  0.00     0.059 A 
ATOM     84  F   UNL A   1      43.317  24.412  25.424  1.00  0.00    -0.206 F 
ATOM     85  C   UNL A   1      42.575  21.068  26.576  1.00  0.00     0.060 A 
BRANCH  85  86
ATOM     86  S   UNL A   1      42.338  19.403  25.917  1.00  0.00     0.124 S 
ATOM     87  O   UNL A   1      43.139  19.451  24.700  1.00  0.00    -0.237 OA
ATOM     88  O   UNL A   1      42.863  18.572  26.996  1.00  0.00    -0.237 OA
ATOM     89  O   UNL A   1      40.893  19.323  25.721  1.00  0.00    -0.744 OA
ENDBRANCH  85  86
ENDBRANCH  53  78
BRANCH  65  90
ATOM     90  C   UNL A   1      48.305  27.070  30.419  1.00  0.00     0.058 A 
ATOM     91  C   UNL A   1      49.345  27.373  29.526  1.00  0.00     0.135 A 
ATOM     92  C   UNL A   1      48.639  26.420  31.618  1.00  0.00     0.135 A 
ATOM     93  F   UNL A   1      49.080  27.989  28.364  1.00  0.00    -0.206 F 
ATOM     94  C   UNL A   1      50.662  27.019  29.800  1.00  0.00     0.059 A 
ATOM     95  C   UNL A   1      49.954  26.086  31.927  1.00  0.00     0.059 A 
ATOM     96  F   UNL A   1      47.685  26.117  32.514  1.00  0.00    -0.206 F 
ATOM     97  C   UNL A   1      50.957  26.377  31.005  1.00  0.00     0.060 A 
BRANCH  97  98
ATOM     98  S   UNL A   1      52.675  25.951  31.359  1.00  0.00     0.124 S 
ATOM     99  O   UNL A   1      53.278  26.034  30.034  1.00  0.00    -0.237 OA
ATOM    100  O   UNL A   1      53.067  26.995  32.302  1.00  0.00    -0.237 OA
ATOM    101  O   UNL A   1      52.584  24.608  31.925  1.00  0.00    -0.744 OA
ENDBRANCH  97  98
ENDBRANCH  65  90
ENDBRANCH  39  40
ENDBRANCH  31  34
ENDBRANCH  29  30
ENDBRANCH  28  29
ENDBRANCH   1  28
TORSDOF 17
ENDMDL
