MODEL 1
REMARK VINA RESULT:     -12.8      0.000      0.000
REMARK SMILES Cc1ccc(C(=O)NCCCCCCNC(=O)c2ccc(-c3c4nc(c(-c5c(F)cc(S(=O)(=O)[O-])cc5F)c5ccc([nH]5)c(-c5c(F)cc(S(=O)(=O)[O-])cc5F)c5nc(c(-c6c(F)cc(S(=O)(=O)[O-])cc6F)c6ccc3[nH]6)C=C5)C=C4)cc2)cc1S(=O)(=O)N(CC1CC1)C(C)C
REMARK SMILES IDX 11 1 10 2 9 3 8 4 6 5 7 6 5 8 1 9 2 10 3 11 85 12 4 13 84 14
REMARK SMILES IDX 86 15 87 16 88 17 89 18 90 19 91 20 92 21 93 22 94 23 95 24
REMARK SMILES IDX 96 25 12 26 13 27 14 28 15 29 16 30 17 32 18 33 19 34 83 35
REMARK SMILES IDX 20 36 82 37 21 38 22 39 23 40 76 41 24 42 81 43 75 44 77 45
REMARK SMILES IDX 25 46 80 47 74 48 73 49 26 51 60 52 39 53 59 54 40 55 43 56
REMARK SMILES IDX 58 57 78 58 41 59 42 60 57 62 79 63 44 64 27 65 28 66 37 67
REMARK SMILES IDX 29 68 30 69 36 70 38 71 31 72 32 73 33 74 34 75 35 76 61 77
REMARK SMILES IDX 62 78 71 79 63 80 64 81 70 82 72 83 65 84 66 85 67 86 68 87
REMARK SMILES IDX 69 88 45 89 46 90 55 91 47 92 48 93 54 94 56 95 49 96 50 97
REMARK SMILES IDX 51 98 52 99 53 100
REMARK H PARENT 8 7 15 31 77 50 43 61
REMARK Flexibility Score: inf
ROOT
ATOM      1  C   UNL A   1      32.142  29.195  24.887  1.00  0.00     0.002 C 
ENDROOT
BRANCH   1   2
ATOM      2  C   UNL A   1      33.387  28.957  24.018  1.00  0.00     0.021 C 
BRANCH   2   3
ATOM      3  C   UNL A   1      33.123  28.979  22.510  1.00  0.00     0.116 C 
BRANCH   3   4
ATOM      4  N   UNL A   1      31.709  29.182  22.236  1.00  0.00    -0.352 N 
ATOM      5  C   UNL A   1      30.603  28.377  22.345  1.00  0.00     0.251 C 
ATOM      6  O   UNL A   1      29.504  28.875  22.090  1.00  0.00    -0.269 OA
ATOM      7  H   UNL A   1      31.502  30.085  21.902  1.00  0.00     0.163 HD
BRANCH   5   8
ATOM      8  C   UNL A   1      30.647  26.970  22.840  1.00  0.00     0.041 A 
ATOM      9  C   UNL A   1      30.910  23.230  25.019  1.00  0.00     0.046 C 
ATOM     10  C   UNL A   1      30.824  24.455  24.156  1.00  0.00    -0.031 A 
ATOM     11  C   UNL A   1      29.836  25.393  24.505  1.00  0.00     0.005 A 
ATOM     12  C   UNL A   1      31.644  24.745  23.049  1.00  0.00     0.086 A 
ATOM     13  C   UNL A   1      29.769  26.640  23.879  1.00  0.00     0.014 A 
ATOM     14  C   UNL A   1      31.510  25.981  22.369  1.00  0.00     0.035 A 
BRANCH  12  15
ATOM     15  S   UNL A   1      33.132  23.830  22.626  1.00  0.00     0.243 S 
ATOM     16  O   UNL A   1      32.718  22.614  21.961  1.00  0.00    -0.207 OA
ATOM     17  O   UNL A   1      33.912  24.812  21.898  1.00  0.00    -0.207 OA
BRANCH  15  18
ATOM     18  N   UNL A   1      33.959  23.403  24.041  1.00  0.00    -0.195 NA
BRANCH  18  19
ATOM     19  C   UNL A   1      34.449  22.019  24.264  1.00  0.00     0.106 C 
BRANCH  19  20
ATOM     20  C   UNL A   1      33.550  21.030  24.939  1.00  0.00     0.004 C 
ATOM     21  C   UNL A   1      32.701  19.965  24.285  1.00  0.00     0.005 C 
ATOM     22  C   UNL A   1      33.993  19.578  24.930  1.00  0.00     0.005 C 
ENDBRANCH  19  20
ENDBRANCH  18  19
BRANCH  18  23
ATOM     23  C   UNL A   1      34.787  24.443  24.766  1.00  0.00     0.067 C 
ATOM     24  C   UNL A   1      33.960  25.313  25.704  1.00  0.00     0.025 C 
ATOM     25  C   UNL A   1      35.996  23.888  25.517  1.00  0.00     0.025 C 
ENDBRANCH  18  23
ENDBRANCH  15  18
ENDBRANCH  12  15
ENDBRANCH   5   8
ENDBRANCH   3   4
ENDBRANCH   2   3
ENDBRANCH   1   2
BRANCH   1  26
ATOM     26  C   UNL A   1      32.262  28.822  26.374  1.00  0.00     0.002 C 
BRANCH  26  27
ATOM     27  C   UNL A   1      32.903  29.873  27.283  1.00  0.00     0.021 C 
BRANCH  27  28
ATOM     28  C   UNL A   1      34.414  29.706  27.427  1.00  0.00     0.116 C 
BRANCH  28  29
ATOM     29  N   UNL A   1      35.089  30.938  27.810  1.00  0.00    -0.352 N 
ATOM     30  C   UNL A   1      36.346  31.077  28.374  1.00  0.00     0.251 C 
ATOM     31  H   UNL A   1      34.593  31.773  27.647  1.00  0.00     0.163 HD
ATOM     32  O   UNL A   1      36.751  32.130  28.828  1.00  0.00    -0.269 OA
BRANCH  30  33
ATOM     33  C   UNL A   1      37.234  29.900  28.294  1.00  0.00     0.039 A 
ATOM     34  C   UNL A   1      37.377  29.126  29.451  1.00  0.00     0.014 A 
ATOM     35  C   UNL A   1      38.095  29.752  27.209  1.00  0.00     0.014 A 
ATOM     36  C   UNL A   1      38.494  28.306  29.588  1.00  0.00     0.010 A 
ATOM     37  C   UNL A   1      39.240  28.998  27.379  1.00  0.00     0.010 A 
ATOM     38  C   UNL A   1      39.461  28.310  28.581  1.00  0.00    -0.014 A 
BRANCH  38  39
ATOM     39  C   UNL A   1      40.775  27.700  28.737  1.00  0.00     0.031 A 
ATOM     40  C   UNL A   1      41.003  26.289  28.361  1.00  0.00     0.074 A 
ATOM     41  C   UNL A   1      41.820  28.436  29.178  1.00  0.00     0.049 A 
ATOM     42  N   UNL A   1      41.926  25.550  28.881  1.00  0.00    -0.248 NA
ATOM     43  C   UNL A   1      40.183  25.587  27.379  1.00  0.00     0.031 C 
ATOM     44  C   UNL A   1      43.234  28.078  29.109  1.00  0.00     0.029 A 
ATOM     45  N   UNL A   1      41.791  29.584  29.970  1.00  0.00    -0.354 N 
ATOM     46  C   UNL A   1      42.016  24.413  28.115  1.00  0.00     0.074 A 
ATOM     47  C   UNL A   1      40.864  24.444  27.243  1.00  0.00     0.031 C 
ATOM     48  C   UNL A   1      43.913  28.807  30.006  1.00  0.00     0.029 A 
ATOM     49  C   UNL A   1      42.941  29.555  30.780  1.00  0.00     0.049 A 
ATOM     50  H   UNL A   1      41.097  30.282  29.963  1.00  0.00     0.167 HD
ATOM     51  C   UNL A   1      43.130  23.634  28.174  1.00  0.00     0.037 A 
ATOM     52  C   UNL A   1      42.856  29.541  32.142  1.00  0.00     0.037 A 
ATOM     53  C   UNL A   1      44.115  24.147  29.120  1.00  0.00     0.049 A 
ATOM     54  C   UNL A   1      43.491  28.330  32.789  1.00  0.00     0.074 A 
ATOM     55  C   UNL A   1      45.259  24.913  28.960  1.00  0.00     0.029 A 
ATOM     56  N   UNL A   1      43.826  24.160  30.481  1.00  0.00    -0.354 N 
ATOM     57  N   UNL A   1      43.792  27.231  32.156  1.00  0.00    -0.248 NA
ATOM     58  C   UNL A   1      43.836  28.262  34.205  1.00  0.00     0.031 C 
ATOM     59  C   UNL A   1      45.655  25.396  30.230  1.00  0.00     0.029 A 
ATOM     60  C   UNL A   1      44.754  24.923  31.166  1.00  0.00     0.049 A 
ATOM     61  H   UNL A   1      43.067  23.692  30.898  1.00  0.00     0.167 HD
ATOM     62  C   UNL A   1      44.333  26.316  33.032  1.00  0.00     0.074 A 
ATOM     63  C   UNL A   1      44.365  27.028  34.295  1.00  0.00     0.031 C 
ATOM     64  C   UNL A   1      44.698  25.062  32.617  1.00  0.00     0.037 A 
BRANCH  51  65
ATOM     65  C   UNL A   1      43.403  22.600  27.111  1.00  0.00     0.058 A 
ATOM     66  C   UNL A   1      42.754  21.349  27.117  1.00  0.00     0.135 A 
ATOM     67  C   UNL A   1      44.368  22.776  26.100  1.00  0.00     0.135 A 
ATOM     68  F   UNL A   1      41.779  21.065  27.989  1.00  0.00    -0.206 F 
ATOM     69  C   UNL A   1      43.107  20.313  26.254  1.00  0.00     0.059 A 
ATOM     70  C   UNL A   1      44.772  21.738  25.253  1.00  0.00     0.059 A 
ATOM     71  F   UNL A   1      44.964  23.967  25.924  1.00  0.00    -0.206 F 
ATOM     72  C   UNL A   1      44.142  20.502  25.348  1.00  0.00     0.060 A 
BRANCH  72  73
ATOM     73  S   UNL A   1      44.678  19.099  24.349  1.00  0.00     0.124 S 
ATOM     74  O   UNL A   1      43.619  18.123  24.591  1.00  0.00    -0.237 OA
ATOM     75  O   UNL A   1      44.714  19.676  23.011  1.00  0.00    -0.237 OA
ATOM     76  O   UNL A   1      45.976  18.752  24.922  1.00  0.00    -0.744 OA
ENDBRANCH  72  73
ENDBRANCH  51  65
BRANCH  52  77
ATOM     77  C   UNL A   1      41.686  30.300  32.662  1.00  0.00     0.058 A 
ATOM     78  C   UNL A   1      40.627  29.561  33.227  1.00  0.00     0.135 A 
ATOM     79  C   UNL A   1      41.785  31.655  33.002  1.00  0.00     0.135 A 
ATOM     80  F   UNL A   1      40.481  28.260  32.926  1.00  0.00    -0.206 F 
ATOM     81  C   UNL A   1      39.800  30.098  34.206  1.00  0.00     0.059 A 
ATOM     82  C   UNL A   1      40.958  32.219  33.976  1.00  0.00     0.059 A 
ATOM     83  F   UNL A   1      42.771  32.410  32.494  1.00  0.00    -0.206 F 
ATOM     84  C   UNL A   1      40.014  31.413  34.617  1.00  0.00     0.060 A 
BRANCH  84  85
ATOM     85  S   UNL A   1      39.157  31.980  36.107  1.00  0.00     0.124 S 
ATOM     86  O   UNL A   1      39.060  33.416  35.869  1.00  0.00    -0.237 OA
ATOM     87  O   UNL A   1      37.897  31.242  36.029  1.00  0.00    -0.237 OA
ATOM     88  O   UNL A   1      40.054  31.576  37.182  1.00  0.00    -0.744 OA
ENDBRANCH  84  85
ENDBRANCH  52  77
BRANCH  64  89
ATOM     89  C   UNL A   1      45.144  23.870  33.461  1.00  0.00     0.058 A 
ATOM     90  C   UNL A   1      46.431  23.684  33.992  1.00  0.00     0.135 A 
ATOM     91  C   UNL A   1      44.195  22.887  33.864  1.00  0.00     0.135 A 
ATOM     92  F   UNL A   1      47.409  24.575  33.798  1.00  0.00    -0.206 F 
ATOM     93  C   UNL A   1      46.767  22.590  34.801  1.00  0.00     0.059 A 
ATOM     94  C   UNL A   1      44.494  21.824  34.715  1.00  0.00     0.059 A 
ATOM     95  F   UNL A   1      42.917  22.927  33.460  1.00  0.00    -0.206 F 
ATOM     96  C   UNL A   1      45.792  21.667  35.162  1.00  0.00     0.060 A 
BRANCH  96  97
ATOM     97  S   UNL A   1      46.205  20.312  36.276  1.00  0.00     0.124 S 
ATOM     98  O   UNL A   1      47.616  20.102  35.970  1.00  0.00    -0.237 OA
ATOM     99  O   UNL A   1      45.921  20.881  37.590  1.00  0.00    -0.237 OA
ATOM    100  O   UNL A   1      45.303  19.244  35.857  1.00  0.00    -0.744 OA
ENDBRANCH  96  97
ENDBRANCH  64  89
ENDBRANCH  38  39
ENDBRANCH  30  33
ENDBRANCH  28  29
ENDBRANCH  27  28
ENDBRANCH  26  27
ENDBRANCH   1  26
TORSDOF 21
ENDMDL
MODEL 2
REMARK VINA RESULT:     -12.7      1.181      2.267
REMARK SMILES Cc1ccc(C(=O)NCCCCCCNC(=O)c2ccc(-c3c4nc(c(-c5c(F)cc(S(=O)(=O)[O-])cc5F)c5ccc([nH]5)c(-c5c(F)cc(S(=O)(=O)[O-])cc5F)c5nc(c(-c6c(F)cc(S(=O)(=O)[O-])cc6F)c6ccc3[nH]6)C=C5)C=C4)cc2)cc1S(=O)(=O)N(CC1CC1)C(C)C
REMARK SMILES IDX 11 1 10 2 9 3 8 4 6 5 7 6 5 8 1 9 2 10 3 11 85 12 4 13 84 14
REMARK SMILES IDX 86 15 87 16 88 17 89 18 90 19 91 20 92 21 93 22 94 23 95 24
REMARK SMILES IDX 96 25 12 26 13 27 14 28 15 29 16 30 17 32 18 33 19 34 83 35
REMARK SMILES IDX 20 36 82 37 21 38 22 39 23 40 76 41 24 42 81 43 75 44 77 45
REMARK SMILES IDX 25 46 80 47 74 48 73 49 26 51 60 52 39 53 59 54 40 55 43 56
REMARK SMILES IDX 58 57 78 58 41 59 42 60 57 62 79 63 44 64 27 65 28 66 37 67
REMARK SMILES IDX 29 68 30 69 36 70 38 71 31 72 32 73 33 74 34 75 35 76 61 77
REMARK SMILES IDX 62 78 71 79 63 80 64 81 70 82 72 83 65 84 66 85 67 86 68 87
REMARK SMILES IDX 69 88 45 89 46 90 55 91 47 92 48 93 54 94 56 95 49 96 50 97
REMARK SMILES IDX 51 98 52 99 53 100
REMARK H PARENT 8 7 15 31 77 50 43 61
REMARK Flexibility Score: inf
ROOT
ATOM      1  C   UNL A   1      31.380  30.008  25.055  1.00  0.00     0.002 C 
ENDROOT
BRANCH   1   2
ATOM      2  C   UNL A   1      30.481  29.126  24.175  1.00  0.00     0.021 C 
BRANCH   2   3
ATOM      3  C   UNL A   1      31.060  28.806  22.794  1.00  0.00     0.116 C 
BRANCH   3   4
ATOM      4  N   UNL A   1      32.482  29.109  22.748  1.00  0.00    -0.352 N 
ATOM      5  C   UNL A   1      33.608  28.331  22.652  1.00  0.00     0.251 C 
ATOM      6  O   UNL A   1      34.696  28.905  22.568  1.00  0.00    -0.269 OA
ATOM      7  H   UNL A   1      32.677  30.073  22.794  1.00  0.00     0.163 HD
BRANCH   5   8
ATOM      8  C   UNL A   1      33.582  26.842  22.555  1.00  0.00     0.041 A 
ATOM      9  C   UNL A   1      32.680  22.611  22.256  1.00  0.00     0.046 C 
ATOM     10  C   UNL A   1      33.114  24.042  22.385  1.00  0.00    -0.031 A 
ATOM     11  C   UNL A   1      32.684  24.916  21.370  1.00  0.00     0.005 A 
ATOM     12  C   UNL A   1      33.894  24.578  23.427  1.00  0.00     0.086 A 
ATOM     13  C   UNL A   1      32.888  26.295  21.469  1.00  0.00     0.014 A 
ATOM     14  C   UNL A   1      34.164  25.968  23.472  1.00  0.00     0.035 A 
BRANCH  12  15
ATOM     15  S   UNL A   1      34.289  23.703  24.947  1.00  0.00     0.243 S 
ATOM     16  O   UNL A   1      34.864  22.428  24.577  1.00  0.00    -0.207 OA
ATOM     17  O   UNL A   1      35.097  24.668  25.668  1.00  0.00    -0.207 OA
BRANCH  15  18
ATOM     18  N   UNL A   1      32.867  23.407  25.819  1.00  0.00    -0.195 NA
BRANCH  18  19
ATOM     19  C   UNL A   1      32.138  24.503  26.506  1.00  0.00     0.106 C 
BRANCH  19  20
ATOM     20  C   UNL A   1      31.569  25.621  25.689  1.00  0.00     0.004 C 
ATOM     21  C   UNL A   1      30.542  25.521  24.585  1.00  0.00     0.005 C 
ATOM     22  C   UNL A   1      30.117  25.990  25.940  1.00  0.00     0.005 C 
ENDBRANCH  19  20
ENDBRANCH  18  19
BRANCH  18  23
ATOM     23  C   UNL A   1      31.959  22.269  25.404  1.00  0.00     0.067 C 
ATOM     24  C   UNL A   1      32.606  20.900  25.576  1.00  0.00     0.025 C 
ATOM     25  C   UNL A   1      30.584  22.271  26.069  1.00  0.00     0.025 C 
ENDBRANCH  18  23
ENDBRANCH  15  18
ENDBRANCH  12  15
ENDBRANCH   5   8
ENDBRANCH   3   4
ENDBRANCH   2   3
ENDBRANCH   1   2
BRANCH   1  26
ATOM     26  C   UNL A   1      32.107  29.305  26.214  1.00  0.00     0.002 C 
BRANCH  26  27
ATOM     27  C   UNL A   1      33.632  29.428  26.227  1.00  0.00     0.021 C 
BRANCH  27  28
ATOM     28  C   UNL A   1      34.216  29.549  27.632  1.00  0.00     0.116 C 
BRANCH  28  29
ATOM     29  N   UNL A   1      34.876  30.826  27.867  1.00  0.00    -0.352 N 
ATOM     30  C   UNL A   1      36.163  31.044  28.330  1.00  0.00     0.251 C 
ATOM     31  H   UNL A   1      34.343  31.631  27.673  1.00  0.00     0.163 HD
ATOM     32  O   UNL A   1      36.563  32.141  28.669  1.00  0.00    -0.269 OA
BRANCH  30  33
ATOM     33  C   UNL A   1      37.080  29.889  28.282  1.00  0.00     0.039 A 
ATOM     34  C   UNL A   1      37.242  29.151  29.461  1.00  0.00     0.014 A 
ATOM     35  C   UNL A   1      37.946  29.732  27.203  1.00  0.00     0.014 A 
ATOM     36  C   UNL A   1      38.380  28.364  29.621  1.00  0.00     0.010 A 
ATOM     37  C   UNL A   1      39.110  29.012  27.394  1.00  0.00     0.010 A 
ATOM     38  C   UNL A   1      39.347  28.364  28.614  1.00  0.00    -0.014 A 
BRANCH  38  39
ATOM     39  C   UNL A   1      40.676  27.793  28.788  1.00  0.00     0.031 A 
ATOM     40  C   UNL A   1      40.960  26.401  28.382  1.00  0.00     0.074 A 
ATOM     41  C   UNL A   1      41.686  28.550  29.274  1.00  0.00     0.049 A 
ATOM     42  N   UNL A   1      41.893  25.678  28.905  1.00  0.00    -0.248 NA
ATOM     43  C   UNL A   1      40.187  25.699  27.362  1.00  0.00     0.031 C 
ATOM     44  C   UNL A   1      43.112  28.239  29.231  1.00  0.00     0.029 A 
ATOM     45  N   UNL A   1      41.600  29.675  30.094  1.00  0.00    -0.354 N 
ATOM     46  C   UNL A   1      42.038  24.565  28.113  1.00  0.00     0.074 A 
ATOM     47  C   UNL A   1      40.908  24.582  27.214  1.00  0.00     0.031 C 
ATOM     48  C   UNL A   1      43.744  28.966  30.163  1.00  0.00     0.029 A 
ATOM     49  C   UNL A   1      42.730  29.662  30.932  1.00  0.00     0.049 A 
ATOM     50  H   UNL A   1      40.884  30.351  30.088  1.00  0.00     0.167 HD
ATOM     51  C   UNL A   1      43.176  23.821  28.180  1.00  0.00     0.037 A 
ATOM     52  C   UNL A   1      42.612  29.609  32.290  1.00  0.00     0.037 A 
ATOM     53  C   UNL A   1      44.120  24.340  29.163  1.00  0.00     0.049 A 
ATOM     54  C   UNL A   1      43.270  28.402  32.922  1.00  0.00     0.074 A 
ATOM     55  C   UNL A   1      45.242  25.146  29.052  1.00  0.00     0.029 A 
ATOM     56  N   UNL A   1      43.798  24.308  30.517  1.00  0.00    -0.354 N 
ATOM     57  N   UNL A   1      43.623  27.330  32.269  1.00  0.00    -0.248 NA
ATOM     58  C   UNL A   1      43.583  28.308  34.343  1.00  0.00     0.031 C 
ATOM     59  C   UNL A   1      45.591  25.608  30.343  1.00  0.00     0.029 A 
ATOM     60  C   UNL A   1      44.684  25.082  31.244  1.00  0.00     0.049 A 
ATOM     61  H   UNL A   1      43.045  23.804  30.902  1.00  0.00     0.167 HD
ATOM     62  C   UNL A   1      44.172  26.411  33.134  1.00  0.00     0.074 A 
ATOM     63  C   UNL A   1      44.150  27.090  34.416  1.00  0.00     0.031 C 
ATOM     64  C   UNL A   1      44.588  25.180  32.696  1.00  0.00     0.037 A 
BRANCH  51  65
ATOM     65  C   UNL A   1      43.508  22.825  27.098  1.00  0.00     0.058 A 
ATOM     66  C   UNL A   1      42.830  21.594  26.998  1.00  0.00     0.135 A 
ATOM     67  C   UNL A   1      44.556  23.016  26.176  1.00  0.00     0.135 A 
ATOM     68  F   UNL A   1      41.782  21.301  27.776  1.00  0.00    -0.206 F 
ATOM     69  C   UNL A   1      43.227  20.585  26.121  1.00  0.00     0.059 A 
ATOM     70  C   UNL A   1      45.001  22.003  25.319  1.00  0.00     0.059 A 
ATOM     71  F   UNL A   1      45.193  24.195  26.100  1.00  0.00    -0.206 F 
ATOM     72  C   UNL A   1      44.335  20.783  25.309  1.00  0.00     0.060 A 
BRANCH  72  73
ATOM     73  S   UNL A   1      44.915  19.408  24.296  1.00  0.00     0.124 S 
ATOM     74  O   UNL A   1      44.255  18.263  24.917  1.00  0.00    -0.237 OA
ATOM     75  O   UNL A   1      44.428  19.779  22.973  1.00  0.00    -0.237 OA
ATOM     76  O   UNL A   1      46.365  19.448  24.468  1.00  0.00    -0.744 OA
ENDBRANCH  72  73
ENDBRANCH  51  65
BRANCH  52  77
ATOM     77  C   UNL A   1      41.406  30.316  32.801  1.00  0.00     0.058 A 
ATOM     78  C   UNL A   1      40.262  29.540  33.076  1.00  0.00     0.135 A 
ATOM     79  C   UNL A   1      41.497  31.575  33.407  1.00  0.00     0.135 A 
ATOM     80  F   UNL A   1      40.121  28.329  32.512  1.00  0.00    -0.206 F 
ATOM     81  C   UNL A   1      39.329  29.925  34.031  1.00  0.00     0.059 A 
ATOM     82  C   UNL A   1      40.565  31.986  34.363  1.00  0.00     0.059 A 
ATOM     83  F   UNL A   1      42.562  32.359  33.181  1.00  0.00    -0.206 F 
ATOM     84  C   UNL A   1      39.524  31.124  34.714  1.00  0.00     0.060 A 
BRANCH  84  85
ATOM     85  S   UNL A   1      38.495  31.443  36.168  1.00  0.00     0.124 S 
ATOM     86  O   UNL A   1      38.129  30.092  36.579  1.00  0.00    -0.237 OA
ATOM     87  O   UNL A   1      39.430  32.139  37.051  1.00  0.00    -0.237 OA
ATOM     88  O   UNL A   1      37.410  32.258  35.637  1.00  0.00    -0.744 OA
ENDBRANCH  84  85
ENDBRANCH  52  77
BRANCH  64  89
ATOM     89  C   UNL A   1      45.052  23.981  33.520  1.00  0.00     0.058 A 
ATOM     90  C   UNL A   1      44.300  22.820  33.765  1.00  0.00     0.135 A 
ATOM     91  C   UNL A   1      46.385  23.933  34.020  1.00  0.00     0.135 A 
ATOM     92  F   UNL A   1      43.068  22.660  33.270  1.00  0.00    -0.206 F 
ATOM     93  C   UNL A   1      44.801  21.731  34.491  1.00  0.00     0.059 A 
ATOM     94  C   UNL A   1      46.921  22.838  34.694  1.00  0.00     0.059 A 
ATOM     95  F   UNL A   1      47.241  24.953  33.858  1.00  0.00    -0.206 F 
ATOM     96  C   UNL A   1      46.114  21.745  34.948  1.00  0.00     0.060 A 
BRANCH  96  97
ATOM     97  S   UNL A   1      46.784  20.307  35.803  1.00  0.00     0.124 S 
ATOM     98  O   UNL A   1      45.806  19.280  35.459  1.00  0.00    -0.237 OA
ATOM     99  O   UNL A   1      48.100  20.157  35.191  1.00  0.00    -0.237 OA
ATOM    100  O   UNL A   1      46.797  20.723  37.202  1.00  0.00    -0.744 OA
ENDBRANCH  96  97
ENDBRANCH  64  89
ENDBRANCH  38  39
ENDBRANCH  30  33
ENDBRANCH  28  29
ENDBRANCH  27  28
ENDBRANCH  26  27
ENDBRANCH   1  26
TORSDOF 21
ENDMDL
MODEL 3
REMARK VINA RESULT:     -12.2      1.503      2.389
REMARK SMILES Cc1ccc(C(=O)NCCCCCCNC(=O)c2ccc(-c3c4nc(c(-c5c(F)cc(S(=O)(=O)[O-])cc5F)c5ccc([nH]5)c(-c5c(F)cc(S(=O)(=O)[O-])cc5F)c5nc(c(-c6c(F)cc(S(=O)(=O)[O-])cc6F)c6ccc3[nH]6)C=C5)C=C4)cc2)cc1S(=O)(=O)N(CC1CC1)C(C)C
REMARK SMILES IDX 11 1 10 2 9 3 8 4 6 5 7 6 5 8 1 9 2 10 3 11 85 12 4 13 84 14
REMARK SMILES IDX 86 15 87 16 88 17 89 18 90 19 91 20 92 21 93 22 94 23 95 24
REMARK SMILES IDX 96 25 12 26 13 27 14 28 15 29 16 30 17 32 18 33 19 34 83 35
REMARK SMILES IDX 20 36 82 37 21 38 22 39 23 40 76 41 24 42 81 43 75 44 77 45
REMARK SMILES IDX 25 46 80 47 74 48 73 49 26 51 60 52 39 53 59 54 40 55 43 56
REMARK SMILES IDX 58 57 78 58 41 59 42 60 57 62 79 63 44 64 27 65 28 66 37 67
REMARK SMILES IDX 29 68 30 69 36 70 38 71 31 72 32 73 33 74 34 75 35 76 61 77
REMARK SMILES IDX 62 78 71 79 63 80 64 81 70 82 72 83 65 84 66 85 67 86 68 87
REMARK SMILES IDX 69 88 45 89 46 90 55 91 47 92 48 93 54 94 56 95 49 96 50 97
REMARK SMILES IDX 51 98 52 99 53 100
REMARK H PARENT 8 7 15 31 77 50 43 61
REMARK Flexibility Score: inf
ROOT
ATOM      1  C   UNL A   1      32.262  29.341  27.164  1.00  0.00     0.002 C 
ENDROOT
BRANCH   1   2
ATOM      2  C   UNL A   1      31.438  29.496  25.875  1.00  0.00     0.021 C 
BRANCH   2   3
ATOM      3  C   UNL A   1      32.239  29.311  24.584  1.00  0.00     0.116 C 
BRANCH   3   4
ATOM      4  N   UNL A   1      31.358  29.283  23.428  1.00  0.00    -0.352 N 
ATOM      5  C   UNL A   1      30.670  28.281  22.792  1.00  0.00     0.251 C 
ATOM      6  O   UNL A   1      29.936  28.597  21.852  1.00  0.00    -0.269 OA
ATOM      7  H   UNL A   1      31.227  30.168  23.016  1.00  0.00     0.163 HD
BRANCH   5   8
ATOM      8  C   UNL A   1      30.690  26.854  23.228  1.00  0.00     0.041 A 
ATOM      9  C   UNL A   1      31.016  23.017  25.221  1.00  0.00     0.046 C 
ATOM     10  C   UNL A   1      30.887  24.280  24.421  1.00  0.00    -0.031 A 
ATOM     11  C   UNL A   1      30.027  25.263  24.944  1.00  0.00     0.005 A 
ATOM     12  C   UNL A   1      31.554  24.565  23.214  1.00  0.00     0.086 A 
ATOM     13  C   UNL A   1      29.954  26.537  24.375  1.00  0.00     0.014 A 
ATOM     14  C   UNL A   1      31.406  25.834  22.602  1.00  0.00     0.035 A 
BRANCH  12  15
ATOM     15  S   UNL A   1      32.898  23.578  22.544  1.00  0.00     0.243 S 
ATOM     16  O   UNL A   1      32.396  22.236  22.351  1.00  0.00    -0.207 OA
ATOM     17  O   UNL A   1      33.320  24.355  21.395  1.00  0.00    -0.207 OA
BRANCH  15  18
ATOM     18  N   UNL A   1      34.167  23.510  23.665  1.00  0.00    -0.195 NA
BRANCH  18  19
ATOM     19  C   UNL A   1      33.998  24.001  25.056  1.00  0.00     0.106 C 
BRANCH  19  20
ATOM     20  C   UNL A   1      34.482  25.373  25.406  1.00  0.00     0.004 C 
ATOM     21  C   UNL A   1      34.039  26.686  24.801  1.00  0.00     0.005 C 
ATOM     22  C   UNL A   1      33.512  26.282  26.141  1.00  0.00     0.005 C 
ENDBRANCH  19  20
ENDBRANCH  18  19
BRANCH  18  23
ATOM     23  C   UNL A   1      35.208  22.417  23.551  1.00  0.00     0.067 C 
ATOM     24  C   UNL A   1      36.593  22.948  23.205  1.00  0.00     0.025 C 
ATOM     25  C   UNL A   1      35.303  21.494  24.765  1.00  0.00     0.025 C 
ENDBRANCH  18  23
ENDBRANCH  15  18
ENDBRANCH  12  15
ENDBRANCH   5   8
ENDBRANCH   3   4
ENDBRANCH   2   3
ENDBRANCH   1   2
BRANCH   1  26
ATOM     26  C   UNL A   1      33.553  30.173  27.256  1.00  0.00     0.002 C 
BRANCH  26  27
ATOM     27  C   UNL A   1      33.372  31.686  27.392  1.00  0.00     0.021 C 
BRANCH  27  28
ATOM     28  C   UNL A   1      34.631  32.404  27.869  1.00  0.00     0.116 C 
BRANCH  28  29
ATOM     29  N   UNL A   1      34.643  32.640  29.306  1.00  0.00    -0.352 N 
ATOM     30  C   UNL A   1      35.319  31.921  30.278  1.00  0.00     0.251 C 
ATOM     31  H   UNL A   1      34.107  33.401  29.624  1.00  0.00     0.163 HD
ATOM     32  O   UNL A   1      35.123  32.079  31.468  1.00  0.00    -0.269 OA
BRANCH  30  33
ATOM     33  C   UNL A   1      36.390  31.023  29.804  1.00  0.00     0.039 A 
ATOM     34  C   UNL A   1      36.478  29.760  30.402  1.00  0.00     0.014 A 
ATOM     35  C   UNL A   1      37.420  31.526  29.013  1.00  0.00     0.014 A 
ATOM     36  C   UNL A   1      37.681  29.061  30.341  1.00  0.00     0.010 A 
ATOM     37  C   UNL A   1      38.633  30.866  29.018  1.00  0.00     0.010 A 
ATOM     38  C   UNL A   1      38.777  29.657  29.715  1.00  0.00    -0.014 A 
BRANCH  38  39
ATOM     39  C   UNL A   1      40.134  29.136  29.821  1.00  0.00     0.031 A 
ATOM     40  C   UNL A   1      40.479  27.811  29.264  1.00  0.00     0.074 A 
ATOM     41  C   UNL A   1      41.110  29.884  30.381  1.00  0.00     0.049 A 
ATOM     42  N   UNL A   1      41.451  27.081  29.702  1.00  0.00    -0.248 NA
ATOM     43  C   UNL A   1      39.731  27.186  28.177  1.00  0.00     0.031 C 
ATOM     44  C   UNL A   1      42.549  29.649  30.299  1.00  0.00     0.029 A 
ATOM     45  N   UNL A   1      40.979  30.908  31.319  1.00  0.00    -0.354 N 
ATOM     46  C   UNL A   1      41.642  26.070  28.794  1.00  0.00     0.074 A 
ATOM     47  C   UNL A   1      40.503  26.129  27.906  1.00  0.00     0.031 C 
ATOM     48  C   UNL A   1      43.155  30.300  31.302  1.00  0.00     0.029 A 
ATOM     49  C   UNL A   1      42.116  30.859  32.145  1.00  0.00     0.049 A 
ATOM     50  H   UNL A   1      40.231  31.545  31.389  1.00  0.00     0.167 HD
ATOM     51  C   UNL A   1      42.815  25.378  28.775  1.00  0.00     0.037 A 
ATOM     52  C   UNL A   1      42.014  30.654  33.491  1.00  0.00     0.037 A 
ATOM     53  C   UNL A   1      43.742  25.833  29.805  1.00  0.00     0.049 A 
ATOM     54  C   UNL A   1      42.734  29.420  33.985  1.00  0.00     0.074 A 
ATOM     55  C   UNL A   1      44.823  26.700  29.777  1.00  0.00     0.029 A 
ATOM     56  N   UNL A   1      43.434  25.640  31.148  1.00  0.00    -0.354 N 
ATOM     57  N   UNL A   1      43.132  28.443  33.218  1.00  0.00    -0.248 NA
ATOM     58  C   UNL A   1      43.065  29.188  35.387  1.00  0.00     0.031 C 
ATOM     59  C   UNL A   1      45.161  27.036  31.108  1.00  0.00     0.029 A 
ATOM     60  C   UNL A   1      44.289  26.373  31.951  1.00  0.00     0.049 A 
ATOM     61  H   UNL A   1      42.710  25.061  31.480  1.00  0.00     0.167 HD
ATOM     62  C   UNL A   1      43.732  27.463  33.976  1.00  0.00     0.074 A 
ATOM     63  C   UNL A   1      43.689  27.998  35.324  1.00  0.00     0.031 C 
ATOM     64  C   UNL A   1      44.202  26.308  33.406  1.00  0.00     0.037 A 
BRANCH  51  65
ATOM     65  C   UNL A   1      43.184  24.523  27.590  1.00  0.00     0.058 A 
ATOM     66  C   UNL A   1      42.906  23.141  27.565  1.00  0.00     0.135 A 
ATOM     67  C   UNL A   1      43.892  25.018  26.477  1.00  0.00     0.135 A 
ATOM     68  F   UNL A   1      42.195  22.547  28.530  1.00  0.00    -0.206 F 
ATOM     69  C   UNL A   1      43.384  22.295  26.565  1.00  0.00     0.059 A 
ATOM     70  C   UNL A   1      44.421  24.183  25.487  1.00  0.00     0.059 A 
ATOM     71  F   UNL A   1      44.108  26.335  26.337  1.00  0.00    -0.206 F 
ATOM     72  C   UNL A   1      44.171  22.817  25.548  1.00  0.00     0.060 A 
BRANCH  72  73
ATOM     73  S   UNL A   1      44.900  21.677  24.354  1.00  0.00     0.124 S 
ATOM     74  O   UNL A   1      44.567  22.307  23.079  1.00  0.00    -0.237 OA
ATOM     75  O   UNL A   1      46.309  21.708  24.727  1.00  0.00    -0.237 OA
ATOM     76  O   UNL A   1      44.205  20.420  24.618  1.00  0.00    -0.744 OA
ENDBRANCH  72  73
ENDBRANCH  51  65
BRANCH  52  77
ATOM     77  C   UNL A   1      40.780  31.242  34.079  1.00  0.00     0.058 A 
ATOM     78  C   UNL A   1      39.708  30.370  34.355  1.00  0.00     0.135 A 
ATOM     79  C   UNL A   1      40.802  32.474  34.747  1.00  0.00     0.135 A 
ATOM     80  F   UNL A   1      39.633  29.181  33.734  1.00  0.00    -0.206 F 
ATOM     81  C   UNL A   1      38.787  30.636  35.362  1.00  0.00     0.059 A 
ATOM     82  C   UNL A   1      39.881  32.766  35.756  1.00  0.00     0.059 A 
ATOM     83  F   UNL A   1      41.796  33.346  34.523  1.00  0.00    -0.206 F 
ATOM     84  C   UNL A   1      38.920  31.812  36.098  1.00  0.00     0.060 A 
BRANCH  84  85
ATOM     85  S   UNL A   1      37.929  31.981  37.602  1.00  0.00     0.124 S 
ATOM     86  O   UNL A   1      38.938  32.359  38.586  1.00  0.00    -0.237 OA
ATOM     87  O   UNL A   1      36.989  33.036  37.227  1.00  0.00    -0.237 OA
ATOM     88  O   UNL A   1      37.349  30.655  37.770  1.00  0.00    -0.744 OA
ENDBRANCH  84  85
ENDBRANCH  52  77
BRANCH  64  89
ATOM     89  C   UNL A   1      44.731  25.052  34.093  1.00  0.00     0.058 A 
ATOM     90  C   UNL A   1      43.941  24.069  34.714  1.00  0.00     0.135 A 
ATOM     91  C   UNL A   1      46.120  24.742  34.042  1.00  0.00     0.135 A 
ATOM     92  F   UNL A   1      42.608  24.154  34.749  1.00  0.00    -0.206 F 
ATOM     93  C   UNL A   1      44.484  22.910  35.287  1.00  0.00     0.059 A 
ATOM     94  C   UNL A   1      46.673  23.570  34.555  1.00  0.00     0.059 A 
ATOM     95  F   UNL A   1      47.010  25.567  33.470  1.00  0.00    -0.206 F 
ATOM     96  C   UNL A   1      45.850  22.666  35.199  1.00  0.00     0.060 A 
BRANCH  96  97
ATOM     97  S   UNL A   1      46.533  21.134  35.858  1.00  0.00     0.124 S 
ATOM     98  O   UNL A   1      46.144  20.175  34.829  1.00  0.00    -0.237 OA
ATOM     99  O   UNL A   1      47.960  21.429  35.938  1.00  0.00    -0.237 OA
ATOM    100  O   UNL A   1      45.858  20.990  37.144  1.00  0.00    -0.744 OA
ENDBRANCH  96  97
ENDBRANCH  64  89
ENDBRANCH  38  39
ENDBRANCH  30  33
ENDBRANCH  28  29
ENDBRANCH  27  28
ENDBRANCH  26  27
ENDBRANCH   1  26
TORSDOF 21
ENDMDL
