MODEL 1
REMARK VINA RESULT:     -12.8      0.000      0.000
REMARK SMILES C[C@H](C(=O)NCCCCCCNC(=O)c1ccc(-c2c3nc(c(-c4c(F)cc(S(=O)(=O)[O-])cc4F)c4ccc([nH]4)c(-c4c(F)cc(S(=O)(=O)[O-])cc4F)c4nc(c(-c5c(F)cc(S(=O)(=O)[O-])cc5F)c5ccc2[nH]5)C=C4)C=C3)cc1)c1ccc2c3cc(Cl)ccc3n(C(=O)c3cocn3)c2c1
REMARK SMILES IDX 8 1 7 2 6 3 5 4 3 5 4 6 2 8 1 9 81 10 82 11 101 12 83 13
REMARK SMILES IDX 100 14 84 15 92 16 85 17 91 18 86 19 90 20 87 21 89 22 88 23
REMARK SMILES IDX 93 24 94 25 95 26 96 27 99 28 97 29 98 30 9 31 10 32 11 33
REMARK SMILES IDX 12 34 13 35 14 37 15 38 16 39 80 40 17 41 79 42 18 43 19 44
REMARK SMILES IDX 20 45 73 46 21 47 78 48 72 49 74 50 22 51 77 52 71 53 70 54
REMARK SMILES IDX 23 56 57 57 36 58 56 59 37 60 40 61 55 62 75 63 38 64 39 65
REMARK SMILES IDX 54 67 76 68 41 69 24 70 25 71 34 72 26 73 27 74 33 75 35 76
REMARK SMILES IDX 28 77 29 78 30 79 31 80 32 81 58 82 59 83 68 84 60 85 61 86
REMARK SMILES IDX 67 87 69 88 62 89 63 90 64 91 65 92 66 93 42 94 43 95 52 96
REMARK SMILES IDX 44 97 45 98 51 99 53 100 46 101 47 102 48 103 49 104 50 105
REMARK H PARENT 5 7 12 36 74 55 40 66
REMARK Flexibility Score: inf
ROOT
ATOM      1  C   UNL A   1      36.770  21.176  24.365  1.00  0.00     0.002 C 
ENDROOT
BRANCH   1   2
ATOM      2  C   UNL A   1      35.670  20.322  25.005  1.00  0.00     0.021 C 
BRANCH   2   3
ATOM      3  C   UNL A   1      34.504  21.126  25.591  1.00  0.00     0.116 C 
BRANCH   3   4
ATOM      4  N   UNL A   1      33.320  21.028  24.753  1.00  0.00    -0.356 N 
ATOM      5  C   UNL A   1      32.842  21.869  23.787  1.00  0.00     0.227 C 
ATOM      6  O   UNL A   1      31.749  21.579  23.290  1.00  0.00    -0.274 OA
ATOM      7  H   UNL A   1      32.773  20.224  24.906  1.00  0.00     0.163 HD
BRANCH   5   8
ATOM      8  C   UNL A   1      33.671  23.066  23.285  1.00  0.00     0.105 C 
ATOM      9  C   UNL A   1      33.260  23.459  21.862  1.00  0.00     0.023 C 
BRANCH   8  10
ATOM     10  C   UNL A   1      33.625  24.284  24.197  1.00  0.00    -0.034 A 
ATOM     11  C   UNL A   1      34.681  24.614  25.042  1.00  0.00     0.005 A 
ATOM     12  C   UNL A   1      32.504  25.132  24.123  1.00  0.00     0.032 A 
ATOM     13  C   UNL A   1      34.689  25.841  25.715  1.00  0.00     0.011 A 
ATOM     14  C   UNL A   1      32.518  26.376  24.786  1.00  0.00     0.058 A 
ATOM     15  C   UNL A   1      33.620  26.751  25.550  1.00  0.00     0.008 A 
ATOM     16  N   UNL A   1      31.593  27.439  24.780  1.00  0.00    -0.274 N 
ATOM     17  C   UNL A   1      33.387  28.073  26.013  1.00  0.00     0.009 A 
ATOM     18  C   UNL A   1      32.104  28.459  25.600  1.00  0.00     0.057 A 
ATOM     19  C   UNL A   1      34.172  28.961  26.780  1.00  0.00     0.031 A 
ATOM     20  C   UNL A   1      31.553  29.675  26.058  1.00  0.00     0.029 A 
ATOM     21  C   UNL A   1      33.648  30.194  27.157  1.00  0.00     0.041 A 
ATOM     22  C   UNL A   1      32.349  30.541  26.819  1.00  0.00     0.023 A 
ATOM     23  Cl  UNL A   1      34.617  31.279  28.077  1.00  0.00    -0.084 Cl
BRANCH  16  24
ATOM     24  C   UNL A   1      30.364  27.424  24.050  1.00  0.00     0.284 C 
ATOM     25  O   UNL A   1      29.655  26.432  24.213  1.00  0.00    -0.266 OA
BRANCH  24  26
ATOM     26  C   UNL A   1      29.910  28.460  23.127  1.00  0.00     0.167 A 
ATOM     27  C   UNL A   1      30.640  29.217  22.236  1.00  0.00     0.231 A 
ATOM     28  N   UNL A   1      28.561  28.733  22.932  1.00  0.00    -0.211 NA
ATOM     29  O   UNL A   1      29.775  29.982  21.510  1.00  0.00    -0.451 OA
ATOM     30  C   UNL A   1      28.547  29.622  21.967  1.00  0.00     0.308 A 
ENDBRANCH  24  26
ENDBRANCH  16  24
ENDBRANCH   8  10
ENDBRANCH   5   8
ENDBRANCH   3   4
ENDBRANCH   2   3
ENDBRANCH   1   2
BRANCH   1  31
ATOM     31  C   UNL A   1      37.708  21.878  25.352  1.00  0.00     0.002 C 
BRANCH  31  32
ATOM     32  C   UNL A   1      37.585  23.404  25.408  1.00  0.00     0.021 C 
BRANCH  32  33
ATOM     33  C   UNL A   1      38.447  24.090  26.468  1.00  0.00     0.116 C 
BRANCH  33  34
ATOM     34  N   UNL A   1      39.853  23.736  26.348  1.00  0.00    -0.352 N 
ATOM     35  C   UNL A   1      40.968  24.411  26.785  1.00  0.00     0.251 C 
ATOM     36  H   UNL A   1      40.034  22.886  25.884  1.00  0.00     0.163 HD
ATOM     37  O   UNL A   1      42.085  24.047  26.427  1.00  0.00    -0.269 OA
BRANCH  35  38
ATOM     38  C   UNL A   1      40.824  25.589  27.668  1.00  0.00     0.039 A 
ATOM     39  C   UNL A   1      39.756  25.632  28.571  1.00  0.00     0.014 A 
ATOM     40  C   UNL A   1      41.734  26.647  27.607  1.00  0.00     0.014 A 
ATOM     41  C   UNL A   1      39.651  26.697  29.470  1.00  0.00     0.010 A 
ATOM     42  C   UNL A   1      41.656  27.683  28.537  1.00  0.00     0.010 A 
ATOM     43  C   UNL A   1      40.626  27.707  29.490  1.00  0.00    -0.014 A 
BRANCH  43  44
ATOM     44  C   UNL A   1      40.626  28.763  30.537  1.00  0.00     0.031 A 
ATOM     45  C   UNL A   1      41.512  28.640  31.745  1.00  0.00     0.074 A 
ATOM     46  C   UNL A   1      39.741  29.776  30.447  1.00  0.00     0.049 A 
ATOM     47  N   UNL A   1      41.552  29.392  32.814  1.00  0.00    -0.248 NA
ATOM     48  C   UNL A   1      42.462  27.516  31.765  1.00  0.00     0.031 C 
ATOM     49  C   UNL A   1      38.788  29.973  29.351  1.00  0.00     0.029 A 
ATOM     50  N   UNL A   1      39.474  30.814  31.305  1.00  0.00    -0.354 N 
ATOM     51  C   UNL A   1      42.508  28.820  33.646  1.00  0.00     0.074 A 
ATOM     52  C   UNL A   1      43.011  27.646  32.966  1.00  0.00     0.031 C 
ATOM     53  C   UNL A   1      38.037  31.056  29.608  1.00  0.00     0.029 A 
ATOM     54  C   UNL A   1      38.428  31.610  30.900  1.00  0.00     0.049 A 
ATOM     55  H   UNL A   1      39.984  30.974  32.132  1.00  0.00     0.167 HD
ATOM     56  C   UNL A   1      42.932  29.246  34.860  1.00  0.00     0.037 A 
ATOM     57  C   UNL A   1      37.830  32.651  31.511  1.00  0.00     0.037 A 
ATOM     58  C   UNL A   1      42.464  30.443  35.509  1.00  0.00     0.049 A 
ATOM     59  C   UNL A   1      38.327  33.105  32.856  1.00  0.00     0.074 A 
ATOM     60  C   UNL A   1      42.928  31.022  36.678  1.00  0.00     0.029 A 
ATOM     61  N   UNL A   1      41.423  31.237  35.055  1.00  0.00    -0.354 N 
ATOM     62  N   UNL A   1      39.301  32.610  33.580  1.00  0.00    -0.248 NA
ATOM     63  C   UNL A   1      37.642  34.253  33.469  1.00  0.00     0.031 C 
ATOM     64  C   UNL A   1      42.138  32.142  36.955  1.00  0.00     0.029 A 
ATOM     65  C   UNL A   1      41.203  32.279  35.941  1.00  0.00     0.049 A 
ATOM     66  H   UNL A   1      40.915  31.083  34.226  1.00  0.00     0.167 HD
ATOM     67  C   UNL A   1      39.352  33.389  34.729  1.00  0.00     0.074 A 
ATOM     68  C   UNL A   1      38.323  34.401  34.597  1.00  0.00     0.031 C 
ATOM     69  C   UNL A   1      40.173  33.274  35.800  1.00  0.00     0.037 A 
BRANCH  56  70
ATOM     70  C   UNL A   1      43.964  28.425  35.576  1.00  0.00     0.058 A 
ATOM     71  C   UNL A   1      45.337  28.655  35.400  1.00  0.00     0.135 A 
ATOM     72  C   UNL A   1      43.574  27.463  36.522  1.00  0.00     0.135 A 
ATOM     73  F   UNL A   1      45.761  29.556  34.500  1.00  0.00    -0.206 F 
ATOM     74  C   UNL A   1      46.289  27.955  36.134  1.00  0.00     0.059 A 
ATOM     75  C   UNL A   1      44.508  26.765  37.280  1.00  0.00     0.059 A 
ATOM     76  F   UNL A   1      42.272  27.206  36.726  1.00  0.00    -0.206 F 
ATOM     77  C   UNL A   1      45.865  27.015  37.074  1.00  0.00     0.060 A 
BRANCH  77  78
ATOM     78  S   UNL A   1      47.112  26.146  38.050  1.00  0.00     0.124 S 
ATOM     79  O   UNL A   1      46.463  26.078  39.356  1.00  0.00    -0.237 OA
ATOM     80  O   UNL A   1      47.237  24.877  37.339  1.00  0.00    -0.237 OA
ATOM     81  O   UNL A   1      48.276  27.022  37.972  1.00  0.00    -0.744 OA
ENDBRANCH  77  78
ENDBRANCH  56  70
BRANCH  57  82
ATOM     82  C   UNL A   1      36.669  33.324  30.871  1.00  0.00     0.058 A 
ATOM     83  C   UNL A   1      36.847  34.194  29.785  1.00  0.00     0.135 A 
ATOM     84  C   UNL A   1      35.364  33.120  31.343  1.00  0.00     0.135 A 
ATOM     85  F   UNL A   1      38.078  34.425  29.305  1.00  0.00    -0.206 F 
ATOM     86  C   UNL A   1      35.772  34.859  29.204  1.00  0.00     0.059 A 
ATOM     87  C   UNL A   1      34.272  33.756  30.764  1.00  0.00     0.059 A 
ATOM     88  F   UNL A   1      35.142  32.284  32.369  1.00  0.00    -0.206 F 
ATOM     89  C   UNL A   1      34.488  34.637  29.705  1.00  0.00     0.060 A 
BRANCH  89  90
ATOM     90  S   UNL A   1      33.092  35.484  28.933  1.00  0.00     0.124 S 
ATOM     91  O   UNL A   1      33.771  36.504  28.143  1.00  0.00    -0.237 OA
ATOM     92  O   UNL A   1      32.454  34.409  28.180  1.00  0.00    -0.237 OA
ATOM     93  O   UNL A   1      32.329  35.973  30.078  1.00  0.00    -0.744 OA
ENDBRANCH  89  90
ENDBRANCH  57  82
BRANCH  69  94
ATOM     94  C   UNL A   1      39.998  34.261  36.917  1.00  0.00     0.058 A 
ATOM     95  C   UNL A   1      40.541  35.552  36.837  1.00  0.00     0.135 A 
ATOM     96  C   UNL A   1      39.228  33.939  38.045  1.00  0.00     0.135 A 
ATOM     97  F   UNL A   1      41.294  35.904  35.782  1.00  0.00    -0.206 F 
ATOM     98  C   UNL A   1      40.332  36.490  37.842  1.00  0.00     0.059 A 
ATOM     99  C   UNL A   1      38.989  34.867  39.053  1.00  0.00     0.059 A 
ATOM    100  F   UNL A   1      38.684  32.717  38.165  1.00  0.00    -0.206 F 
ATOM    101  C   UNL A   1      39.550  36.140  38.945  1.00  0.00     0.060 A 
BRANCH 101 102
ATOM    102  S   UNL A   1      39.240  37.383  40.217  1.00  0.00     0.124 S 
ATOM    103  O   UNL A   1      40.592  37.843  40.513  1.00  0.00    -0.237 OA
ATOM    104  O   UNL A   1      38.383  38.338  39.520  1.00  0.00    -0.237 OA
ATOM    105  O   UNL A   1      38.586  36.624  41.279  1.00  0.00    -0.744 OA
ENDBRANCH 101 102
ENDBRANCH  69  94
ENDBRANCH  43  44
ENDBRANCH  35  38
ENDBRANCH  33  34
ENDBRANCH  32  33
ENDBRANCH  31  32
ENDBRANCH   1  31
TORSDOF 19
ENDMDL
MODEL 2
REMARK VINA RESULT:     -11.5      6.030      8.041
REMARK SMILES C[C@H](C(=O)NCCCCCCNC(=O)c1ccc(-c2c3nc(c(-c4c(F)cc(S(=O)(=O)[O-])cc4F)c4ccc([nH]4)c(-c4c(F)cc(S(=O)(=O)[O-])cc4F)c4nc(c(-c5c(F)cc(S(=O)(=O)[O-])cc5F)c5ccc2[nH]5)C=C4)C=C3)cc1)c1ccc2c3cc(Cl)ccc3n(C(=O)c3cocn3)c2c1
REMARK SMILES IDX 8 1 7 2 6 3 5 4 3 5 4 6 2 8 1 9 81 10 82 11 101 12 83 13
REMARK SMILES IDX 100 14 84 15 92 16 85 17 91 18 86 19 90 20 87 21 89 22 88 23
REMARK SMILES IDX 93 24 94 25 95 26 96 27 99 28 97 29 98 30 9 31 10 32 11 33
REMARK SMILES IDX 12 34 13 35 14 37 15 38 16 39 80 40 17 41 79 42 18 43 19 44
REMARK SMILES IDX 20 45 73 46 21 47 78 48 72 49 74 50 22 51 77 52 71 53 70 54
REMARK SMILES IDX 23 56 57 57 36 58 56 59 37 60 40 61 55 62 75 63 38 64 39 65
REMARK SMILES IDX 54 67 76 68 41 69 24 70 25 71 34 72 26 73 27 74 33 75 35 76
REMARK SMILES IDX 28 77 29 78 30 79 31 80 32 81 58 82 59 83 68 84 60 85 61 86
REMARK SMILES IDX 67 87 69 88 62 89 63 90 64 91 65 92 66 93 42 94 43 95 52 96
REMARK SMILES IDX 44 97 45 98 51 99 53 100 46 101 47 102 48 103 49 104 50 105
REMARK H PARENT 5 7 12 36 74 55 40 66
REMARK Flexibility Score: inf
ROOT
ATOM      1  C   UNL A   1      36.154  21.288  24.249  1.00  0.00     0.002 C 
ENDROOT
BRANCH   1   2
ATOM      2  C   UNL A   1      35.154  20.403  25.002  1.00  0.00     0.021 C 
BRANCH   2   3
ATOM      3  C   UNL A   1      33.900  21.138  25.489  1.00  0.00     0.116 C 
BRANCH   3   4
ATOM      4  N   UNL A   1      32.835  21.080  24.501  1.00  0.00    -0.356 N 
ATOM      5  C   UNL A   1      32.552  21.904  23.448  1.00  0.00     0.227 C 
ATOM      6  O   UNL A   1      31.518  21.664  22.817  1.00  0.00    -0.274 OA
ATOM      7  H   UNL A   1      32.216  20.322  24.607  1.00  0.00     0.163 HD
BRANCH   5   8
ATOM      8  C   UNL A   1      33.524  23.020  23.020  1.00  0.00     0.105 C 
ATOM      9  C   UNL A   1      33.239  23.476  21.586  1.00  0.00     0.023 C 
BRANCH   8  10
ATOM     10  C   UNL A   1      33.548  24.221  23.955  1.00  0.00    -0.034 A 
ATOM     11  C   UNL A   1      34.667  24.539  24.721  1.00  0.00     0.005 A 
ATOM     12  C   UNL A   1      32.423  25.066  23.985  1.00  0.00     0.032 A 
ATOM     13  C   UNL A   1      34.725  25.753  25.413  1.00  0.00     0.011 A 
ATOM     14  C   UNL A   1      32.487  26.298  24.668  1.00  0.00     0.058 A 
ATOM     15  C   UNL A   1      33.644  26.662  25.350  1.00  0.00     0.008 A 
ATOM     16  N   UNL A   1      31.561  27.357  24.755  1.00  0.00    -0.274 N 
ATOM     17  C   UNL A   1      33.445  27.975  25.854  1.00  0.00     0.009 A 
ATOM     18  C   UNL A   1      32.134  28.363  25.551  1.00  0.00     0.057 A 
ATOM     19  C   UNL A   1      34.287  28.851  26.574  1.00  0.00     0.031 A 
ATOM     20  C   UNL A   1      31.618  29.569  26.074  1.00  0.00     0.029 A 
ATOM     21  C   UNL A   1      33.792  30.076  27.013  1.00  0.00     0.041 A 
ATOM     22  C   UNL A   1      32.469  30.424  26.785  1.00  0.00     0.023 A 
ATOM     23  Cl  UNL A   1      34.828  31.147  27.874  1.00  0.00    -0.084 Cl
BRANCH  16  24
ATOM     24  C   UNL A   1      30.278  27.351  24.123  1.00  0.00     0.284 C 
ATOM     25  O   UNL A   1      29.521  26.441  24.456  1.00  0.00    -0.266 OA
BRANCH  24  26
ATOM     26  C   UNL A   1      29.821  28.305  23.117  1.00  0.00     0.167 A 
ATOM     27  C   UNL A   1      28.535  28.668  22.777  1.00  0.00     0.231 A 
ATOM     28  N   UNL A   1      30.706  29.119  22.420  1.00  0.00    -0.211 NA
ATOM     29  O   UNL A   1      28.600  29.671  21.857  1.00  0.00    -0.451 OA
ATOM     30  C   UNL A   1      29.931  29.904  21.708  1.00  0.00     0.308 A 
ENDBRANCH  24  26
ENDBRANCH  16  24
ENDBRANCH   8  10
ENDBRANCH   5   8
ENDBRANCH   3   4
ENDBRANCH   2   3
ENDBRANCH   1   2
BRANCH   1  31
ATOM     31  C   UNL A   1      37.461  21.577  24.996  1.00  0.00     0.002 C 
BRANCH  31  32
ATOM     32  C   UNL A   1      38.372  20.366  25.220  1.00  0.00     0.021 C 
BRANCH  32  33
ATOM     33  C   UNL A   1      39.512  20.584  26.216  1.00  0.00     0.116 C 
BRANCH  33  34
ATOM     34  N   UNL A   1      40.496  19.513  26.170  1.00  0.00    -0.352 N 
ATOM     35  C   UNL A   1      41.868  19.583  26.142  1.00  0.00     0.251 C 
ATOM     36  H   UNL A   1      40.123  18.602  26.158  1.00  0.00     0.163 HD
ATOM     37  O   UNL A   1      42.530  18.573  25.916  1.00  0.00    -0.269 OA
BRANCH  35  38
ATOM     38  C   UNL A   1      42.550  20.878  26.360  1.00  0.00     0.039 A 
ATOM     39  C   UNL A   1      43.003  21.601  25.252  1.00  0.00     0.014 A 
ATOM     40  C   UNL A   1      42.746  21.377  27.651  1.00  0.00     0.014 A 
ATOM     41  C   UNL A   1      43.574  22.863  25.433  1.00  0.00     0.010 A 
ATOM     42  C   UNL A   1      43.272  22.656  27.827  1.00  0.00     0.010 A 
ATOM     43  C   UNL A   1      43.672  23.419  26.719  1.00  0.00    -0.014 A 
BRANCH  43  44
ATOM     44  C   UNL A   1      44.128  24.819  26.925  1.00  0.00     0.031 A 
ATOM     45  C   UNL A   1      45.561  25.200  26.683  1.00  0.00     0.074 A 
ATOM     46  C   UNL A   1      43.266  25.720  27.440  1.00  0.00     0.049 A 
ATOM     47  N   UNL A   1      46.164  26.334  26.932  1.00  0.00    -0.248 NA
ATOM     48  C   UNL A   1      46.438  24.168  26.106  1.00  0.00     0.031 C 
ATOM     49  C   UNL A   1      41.863  25.456  27.772  1.00  0.00     0.029 A 
ATOM     50  N   UNL A   1      43.449  27.030  27.806  1.00  0.00    -0.354 N 
ATOM     51  C   UNL A   1      47.492  26.146  26.570  1.00  0.00     0.074 A 
ATOM     52  C   UNL A   1      47.613  24.782  26.101  1.00  0.00     0.031 C 
ATOM     53  C   UNL A   1      41.318  26.564  28.300  1.00  0.00     0.029 A 
ATOM     54  C   UNL A   1      42.338  27.605  28.378  1.00  0.00     0.049 A 
ATOM     55  H   UNL A   1      44.297  27.514  27.671  1.00  0.00     0.167 HD
ATOM     56  C   UNL A   1      48.511  27.037  26.614  1.00  0.00     0.037 A 
ATOM     57  C   UNL A   1      42.164  28.821  28.930  1.00  0.00     0.037 A 
ATOM     58  C   UNL A   1      48.374  28.407  27.033  1.00  0.00     0.049 A 
ATOM     59  C   UNL A   1      43.313  29.790  28.960  1.00  0.00     0.074 A 
ATOM     60  C   UNL A   1      49.321  29.416  26.990  1.00  0.00     0.029 A 
ATOM     61  N   UNL A   1      47.227  28.958  27.580  1.00  0.00    -0.354 N 
ATOM     62  N   UNL A   1      44.537  29.626  28.519  1.00  0.00    -0.248 NA
ATOM     63  C   UNL A   1      43.061  31.107  29.565  1.00  0.00     0.031 C 
ATOM     64  C   UNL A   1      48.760  30.567  27.552  1.00  0.00     0.029 A 
ATOM     65  C   UNL A   1      47.453  30.283  27.915  1.00  0.00     0.049 A 
ATOM     66  H   UNL A   1      46.377  28.480  27.712  1.00  0.00     0.167 HD
ATOM     67  C   UNL A   1      45.198  30.819  28.786  1.00  0.00     0.074 A 
ATOM     68  C   UNL A   1      44.236  31.704  29.409  1.00  0.00     0.031 C 
ATOM     69  C   UNL A   1      46.488  31.150  28.541  1.00  0.00     0.037 A 
BRANCH  56  70
ATOM     70  C   UNL A   1      49.875  26.573  26.191  1.00  0.00     0.058 A 
ATOM     71  C   UNL A   1      50.340  26.758  24.881  1.00  0.00     0.135 A 
ATOM     72  C   UNL A   1      50.762  26.025  27.132  1.00  0.00     0.135 A 
ATOM     73  F   UNL A   1      49.527  27.268  23.941  1.00  0.00    -0.206 F 
ATOM     74  C   UNL A   1      51.636  26.411  24.515  1.00  0.00     0.059 A 
ATOM     75  C   UNL A   1      52.068  25.687  26.794  1.00  0.00     0.059 A 
ATOM     76  F   UNL A   1      50.364  25.826  28.399  1.00  0.00    -0.206 F 
ATOM     77  C   UNL A   1      52.494  25.880  25.480  1.00  0.00     0.060 A 
BRANCH  77  78
ATOM     78  S   UNL A   1      54.188  25.475  25.000  1.00  0.00     0.124 S 
ATOM     79  O   UNL A   1      54.293  26.149  23.710  1.00  0.00    -0.237 OA
ATOM     80  O   UNL A   1      54.969  26.061  26.086  1.00  0.00    -0.237 OA
ATOM     81  O   UNL A   1      54.188  24.017  24.950  1.00  0.00    -0.744 OA
ENDBRANCH  77  78
ENDBRANCH  56  70
BRANCH  57  82
ATOM     82  C   UNL A   1      40.855  29.186  29.531  1.00  0.00     0.058 A 
ATOM     83  C   UNL A   1      39.781  29.600  28.729  1.00  0.00     0.135 A 
ATOM     84  C   UNL A   1      40.658  29.143  30.919  1.00  0.00     0.135 A 
ATOM     85  F   UNL A   1      39.925  29.663  27.396  1.00  0.00    -0.206 F 
ATOM     86  C   UNL A   1      38.564  29.981  29.283  1.00  0.00     0.059 A 
ATOM     87  C   UNL A   1      39.444  29.498  31.496  1.00  0.00     0.059 A 
ATOM     88  F   UNL A   1      41.651  28.739  31.728  1.00  0.00    -0.206 F 
ATOM     89  C   UNL A   1      38.407  29.932  30.670  1.00  0.00     0.060 A 
BRANCH  89  90
ATOM     90  S   UNL A   1      36.819  30.406  31.386  1.00  0.00     0.124 S 
ATOM     91  O   UNL A   1      37.140  30.444  32.808  1.00  0.00    -0.237 OA
ATOM     92  O   UNL A   1      36.563  31.694  30.751  1.00  0.00    -0.237 OA
ATOM     93  O   UNL A   1      35.933  29.324  30.966  1.00  0.00    -0.744 OA
ENDBRANCH  89  90
ENDBRANCH  57  82
BRANCH  69  94
ATOM     94  C   UNL A   1      46.942  32.522  28.946  1.00  0.00     0.058 A 
ATOM     95  C   UNL A   1      47.533  32.751  30.197  1.00  0.00     0.135 A 
ATOM     96  C   UNL A   1      46.846  33.602  28.056  1.00  0.00     0.135 A 
ATOM     97  F   UNL A   1      47.637  31.751  31.089  1.00  0.00    -0.206 F 
ATOM     98  C   UNL A   1      48.008  34.007  30.556  1.00  0.00     0.059 A 
ATOM     99  C   UNL A   1      47.333  34.863  28.384  1.00  0.00     0.059 A 
ATOM    100  F   UNL A   1      46.292  33.432  26.844  1.00  0.00    -0.206 F 
ATOM    101  C   UNL A   1      47.908  35.057  29.640  1.00  0.00     0.060 A 
BRANCH 101 102
ATOM    102  S   UNL A   1      48.579  36.670  30.094  1.00  0.00     0.124 S 
ATOM    103  O   UNL A   1      50.005  36.472  29.859  1.00  0.00    -0.237 OA
ATOM    104  O   UNL A   1      47.900  37.566  29.162  1.00  0.00    -0.237 OA
ATOM    105  O   UNL A   1      48.187  36.819  31.492  1.00  0.00    -0.744 OA
ENDBRANCH 101 102
ENDBRANCH  69  94
ENDBRANCH  43  44
ENDBRANCH  35  38
ENDBRANCH  33  34
ENDBRANCH  32  33
ENDBRANCH  31  32
ENDBRANCH   1  31
TORSDOF 19
ENDMDL
MODEL 3
REMARK VINA RESULT:     -11.5      5.061     11.618
REMARK SMILES C[C@H](C(=O)NCCCCCCNC(=O)c1ccc(-c2c3nc(c(-c4c(F)cc(S(=O)(=O)[O-])cc4F)c4ccc([nH]4)c(-c4c(F)cc(S(=O)(=O)[O-])cc4F)c4nc(c(-c5c(F)cc(S(=O)(=O)[O-])cc5F)c5ccc2[nH]5)C=C4)C=C3)cc1)c1ccc2c3cc(Cl)ccc3n(C(=O)c3cocn3)c2c1
REMARK SMILES IDX 8 1 7 2 6 3 5 4 3 5 4 6 2 8 1 9 81 10 82 11 101 12 83 13
REMARK SMILES IDX 100 14 84 15 92 16 85 17 91 18 86 19 90 20 87 21 89 22 88 23
REMARK SMILES IDX 93 24 94 25 95 26 96 27 99 28 97 29 98 30 9 31 10 32 11 33
REMARK SMILES IDX 12 34 13 35 14 37 15 38 16 39 80 40 17 41 79 42 18 43 19 44
REMARK SMILES IDX 20 45 73 46 21 47 78 48 72 49 74 50 22 51 77 52 71 53 70 54
REMARK SMILES IDX 23 56 57 57 36 58 56 59 37 60 40 61 55 62 75 63 38 64 39 65
REMARK SMILES IDX 54 67 76 68 41 69 24 70 25 71 34 72 26 73 27 74 33 75 35 76
REMARK SMILES IDX 28 77 29 78 30 79 31 80 32 81 58 82 59 83 68 84 60 85 61 86
REMARK SMILES IDX 67 87 69 88 62 89 63 90 64 91 65 92 66 93 42 94 43 95 52 96
REMARK SMILES IDX 44 97 45 98 51 99 53 100 46 101 47 102 48 103 49 104 50 105
REMARK H PARENT 5 7 12 36 74 55 40 66
REMARK Flexibility Score: inf
ROOT
ATOM      1  C   UNL A   1      44.073  23.457  26.971  1.00  0.00     0.002 C 
ENDROOT
BRANCH   1   2
ATOM      2  C   UNL A   1      44.834  24.784  26.877  1.00  0.00     0.021 C 
BRANCH   2   3
ATOM      3  C   UNL A   1      44.173  25.830  25.971  1.00  0.00     0.116 C 
BRANCH   3   4
ATOM      4  N   UNL A   1      45.093  26.300  24.948  1.00  0.00    -0.356 N 
ATOM      5  C   UNL A   1      46.026  27.298  24.982  1.00  0.00     0.227 C 
ATOM      6  O   UNL A   1      46.614  27.544  23.924  1.00  0.00    -0.274 OA
ATOM      7  H   UNL A   1      45.034  25.820  24.091  1.00  0.00     0.163 HD
BRANCH   5   8
ATOM      8  C   UNL A   1      46.385  28.016  26.296  1.00  0.00     0.105 C 
ATOM      9  C   UNL A   1      47.891  28.279  26.384  1.00  0.00     0.023 C 
BRANCH   8  10
ATOM     10  C   UNL A   1      45.614  29.307  26.534  1.00  0.00    -0.034 A 
ATOM     11  C   UNL A   1      44.296  29.309  26.981  1.00  0.00     0.005 A 
ATOM     12  C   UNL A   1      46.289  30.529  26.358  1.00  0.00     0.032 A 
ATOM     13  C   UNL A   1      43.687  30.505  27.377  1.00  0.00     0.011 A 
ATOM     14  C   UNL A   1      45.684  31.733  26.773  1.00  0.00     0.058 A 
ATOM     15  C   UNL A   1      44.403  31.723  27.316  1.00  0.00     0.008 A 
ATOM     16  N   UNL A   1      46.179  33.052  26.815  1.00  0.00    -0.274 N 
ATOM     17  C   UNL A   1      44.100  33.051  27.719  1.00  0.00     0.009 A 
ATOM     18  C   UNL A   1      45.166  33.875  27.335  1.00  0.00     0.057 A 
ATOM     19  C   UNL A   1      42.976  33.613  28.361  1.00  0.00     0.031 A 
ATOM     20  C   UNL A   1      45.059  35.275  27.475  1.00  0.00     0.029 A 
ATOM     21  C   UNL A   1      42.918  34.988  28.570  1.00  0.00     0.041 A 
ATOM     22  C   UNL A   1      43.936  35.813  28.116  1.00  0.00     0.023 A 
ATOM     23  Cl  UNL A   1      41.553  35.665  29.370  1.00  0.00    -0.084 Cl
BRANCH  16  24
ATOM     24  C   UNL A   1      47.491  33.427  26.386  1.00  0.00     0.284 C 
ATOM     25  O   UNL A   1      47.545  34.151  25.394  1.00  0.00    -0.266 OA
BRANCH  24  26
ATOM     26  C   UNL A   1      48.742  33.002  27.007  1.00  0.00     0.167 A 
ATOM     27  C   UNL A   1      49.110  33.026  28.336  1.00  0.00     0.231 A 
ATOM     28  N   UNL A   1      49.737  32.351  26.288  1.00  0.00    -0.211 NA
ATOM     29  O   UNL A   1      50.331  32.430  28.455  1.00  0.00    -0.451 OA
ATOM     30  C   UNL A   1      50.634  32.032  27.191  1.00  0.00     0.308 A 
ENDBRANCH  24  26
ENDBRANCH  16  24
ENDBRANCH   8  10
ENDBRANCH   5   8
ENDBRANCH   3   4
ENDBRANCH   2   3
ENDBRANCH   1   2
BRANCH   1  31
ATOM     31  C   UNL A   1      43.376  23.011  25.682  1.00  0.00     0.002 C 
BRANCH  31  32
ATOM     32  C   UNL A   1      42.466  21.786  25.815  1.00  0.00     0.021 C 
BRANCH  32  33
ATOM     33  C   UNL A   1      41.248  21.973  26.720  1.00  0.00     0.116 C 
BRANCH  33  34
ATOM     34  N   UNL A   1      40.017  22.132  25.961  1.00  0.00    -0.352 N 
ATOM     35  C   UNL A   1      39.084  23.140  26.004  1.00  0.00     0.251 C 
ATOM     36  H   UNL A   1      39.823  21.410  25.320  1.00  0.00     0.163 HD
ATOM     37  O   UNL A   1      38.010  23.009  25.421  1.00  0.00    -0.269 OA
BRANCH  35  38
ATOM     38  C   UNL A   1      39.359  24.375  26.771  1.00  0.00     0.039 A 
ATOM     39  C   UNL A   1      38.828  24.506  28.059  1.00  0.00     0.014 A 
ATOM     40  C   UNL A   1      40.135  25.401  26.225  1.00  0.00     0.014 A 
ATOM     41  C   UNL A   1      39.146  25.627  28.830  1.00  0.00     0.010 A 
ATOM     42  C   UNL A   1      40.491  26.495  27.012  1.00  0.00     0.010 A 
ATOM     43  C   UNL A   1      40.016  26.609  28.328  1.00  0.00    -0.014 A 
BRANCH  43  44
ATOM     44  C   UNL A   1      40.496  27.728  29.181  1.00  0.00     0.031 A 
ATOM     45  C   UNL A   1      39.621  28.922  29.439  1.00  0.00     0.074 A 
ATOM     46  C   UNL A   1      41.768  27.711  29.630  1.00  0.00     0.049 A 
ATOM     47  N   UNL A   1      39.918  30.042  30.046  1.00  0.00    -0.248 NA
ATOM     48  C   UNL A   1      38.241  28.861  28.930  1.00  0.00     0.031 C 
ATOM     49  C   UNL A   1      42.734  26.633  29.398  1.00  0.00     0.029 A 
ATOM     50  N   UNL A   1      42.479  28.640  30.348  1.00  0.00    -0.354 N 
ATOM     51  C   UNL A   1      38.774  30.829  29.971  1.00  0.00     0.074 A 
ATOM     52  C   UNL A   1      37.784  30.067  29.241  1.00  0.00     0.031 C 
ATOM     53  C   UNL A   1      43.910  26.968  29.952  1.00  0.00     0.029 A 
ATOM     54  C   UNL A   1      43.796  28.295  30.547  1.00  0.00     0.049 A 
ATOM     55  H   UNL A   1      42.084  29.476  30.687  1.00  0.00     0.167 HD
ATOM     56  C   UNL A   1      38.570  32.069  30.477  1.00  0.00     0.037 A 
ATOM     57  C   UNL A   1      44.806  28.979  31.119  1.00  0.00     0.037 A 
ATOM     58  C   UNL A   1      39.542  32.802  31.246  1.00  0.00     0.049 A 
ATOM     59  C   UNL A   1      44.547  30.351  31.676  1.00  0.00     0.074 A 
ATOM     60  C   UNL A   1      39.380  34.008  31.906  1.00  0.00     0.029 A 
ATOM     61  N   UNL A   1      40.855  32.407  31.449  1.00  0.00    -0.354 N 
ATOM     62  N   UNL A   1      43.430  31.037  31.683  1.00  0.00    -0.248 NA
ATOM     63  C   UNL A   1      45.684  31.045  32.299  1.00  0.00     0.031 C 
ATOM     64  C   UNL A   1      40.608  34.365  32.472  1.00  0.00     0.029 A 
ATOM     65  C   UNL A   1      41.525  33.365  32.191  1.00  0.00     0.049 A 
ATOM     66  H   UNL A   1      41.251  31.570  31.115  1.00  0.00     0.167 HD
ATOM     67  C   UNL A   1      43.727  32.238  32.316  1.00  0.00     0.074 A 
ATOM     68  C   UNL A   1      45.124  32.180  32.695  1.00  0.00     0.031 C 
ATOM     69  C   UNL A   1      42.917  33.296  32.556  1.00  0.00     0.037 A 
BRANCH  56  70
ATOM     70  C   UNL A   1      37.242  32.724  30.230  1.00  0.00     0.058 A 
ATOM     71  C   UNL A   1      36.154  32.524  31.091  1.00  0.00     0.135 A 
ATOM     72  C   UNL A   1      37.087  33.636  29.174  1.00  0.00     0.135 A 
ATOM     73  F   UNL A   1      36.248  31.653  32.109  1.00  0.00    -0.206 F 
ATOM     74  C   UNL A   1      34.953  33.203  30.912  1.00  0.00     0.059 A 
ATOM     75  C   UNL A   1      35.902  34.340  28.987  1.00  0.00     0.059 A 
ATOM     76  F   UNL A   1      38.099  33.861  28.321  1.00  0.00    -0.206 F 
ATOM     77  C   UNL A   1      34.838  34.112  29.859  1.00  0.00     0.060 A 
BRANCH  77  78
ATOM     78  S   UNL A   1      33.288  35.019  29.666  1.00  0.00     0.124 S 
ATOM     79  O   UNL A   1      32.568  34.166  28.726  1.00  0.00    -0.237 OA
ATOM     80  O   UNL A   1      32.766  35.039  31.030  1.00  0.00    -0.237 OA
ATOM     81  O   UNL A   1      33.713  36.313  29.143  1.00  0.00    -0.744 OA
ENDBRANCH  77  78
ENDBRANCH  56  70
BRANCH  57  82
ATOM     82  C   UNL A   1      46.169  28.390  31.170  1.00  0.00     0.058 A 
ATOM     83  C   UNL A   1      46.504  27.422  32.128  1.00  0.00     0.135 A 
ATOM     84  C   UNL A   1      47.166  28.796  30.270  1.00  0.00     0.135 A 
ATOM     85  F   UNL A   1      45.585  27.009  33.014  1.00  0.00    -0.206 F 
ATOM     86  C   UNL A   1      47.788  26.894  32.209  1.00  0.00     0.059 A 
ATOM     87  C   UNL A   1      48.451  28.266  30.317  1.00  0.00     0.059 A 
ATOM     88  F   UNL A   1      46.889  29.708  29.324  1.00  0.00    -0.206 F 
ATOM     89  C   UNL A   1      48.757  27.326  31.301  1.00  0.00     0.060 A 
BRANCH  89  90
ATOM     90  S   UNL A   1      50.416  26.621  31.394  1.00  0.00     0.124 S 
ATOM     91  O   UNL A   1      50.121  25.216  31.650  1.00  0.00    -0.237 OA
ATOM     92  O   UNL A   1      50.960  26.931  30.076  1.00  0.00    -0.237 OA
ATOM     93  O   UNL A   1      51.024  27.353  32.501  1.00  0.00    -0.744 OA
ENDBRANCH  89  90
ENDBRANCH  57  82
BRANCH  69  94
ATOM     94  C   UNL A   1      43.513  34.481  33.259  1.00  0.00     0.058 A 
ATOM     95  C   UNL A   1      44.199  35.477  32.548  1.00  0.00     0.135 A 
ATOM     96  C   UNL A   1      43.342  34.656  34.641  1.00  0.00     0.135 A 
ATOM     97  F   UNL A   1      44.397  35.349  31.226  1.00  0.00    -0.206 F 
ATOM     98  C   UNL A   1      44.702  36.606  33.185  1.00  0.00     0.059 A 
ATOM     99  C   UNL A   1      43.819  35.787  35.296  1.00  0.00     0.059 A 
ATOM    100  F   UNL A   1      42.688  33.732  35.364  1.00  0.00    -0.206 F 
ATOM    101  C   UNL A   1      44.503  36.755  34.559  1.00  0.00     0.060 A 
BRANCH 101 102
ATOM    102  S   UNL A   1      45.112  38.250  35.366  1.00  0.00     0.124 S 
ATOM    103  O   UNL A   1      44.170  38.393  36.471  1.00  0.00    -0.237 OA
ATOM    104  O   UNL A   1      46.473  37.874  35.738  1.00  0.00    -0.237 OA
ATOM    105  O   UNL A   1      45.014  39.264  34.320  1.00  0.00    -0.744 OA
ENDBRANCH 101 102
ENDBRANCH  69  94
ENDBRANCH  43  44
ENDBRANCH  35  38
ENDBRANCH  33  34
ENDBRANCH  32  33
ENDBRANCH  31  32
ENDBRANCH   1  31
TORSDOF 19
ENDMDL
