MODEL 1
REMARK VINA RESULT:     -10.2      0.000      0.000
REMARK SMILES O=C(COCCNC(=O)Nc1cccc(F)c1)NCCCCCCNC(=O)c1ccc(-c2c3nc(c(-c4c(F)cc(S(=O)(=O)[O-])cc4F)c4ccc([nH]4)c(-c4c(F)cc(S(=O)(=O)[O-])cc4F)c4nc(c(-c5c(F)cc(S(=O)(=O)[O-])cc5F)c5ccc2[nH]5)C=C4)C=C3)cc1
REMARK SMILES IDX 20 1 19 2 18 3 1 4 2 5 3 7 4 8 5 9 6 10 7 11 8 12 9 14 10 15
REMARK SMILES IDX 11 17 12 18 17 19 13 20 15 21 14 22 16 23 21 24 22 25 23 26
REMARK SMILES IDX 24 27 25 28 26 29 27 31 28 32 29 33 93 34 30 35 92 36 31 37
REMARK SMILES IDX 32 38 33 39 86 40 34 41 91 42 85 43 87 44 35 45 90 46 84 47
REMARK SMILES IDX 83 48 36 50 70 51 49 52 69 53 50 54 53 55 68 56 88 57 51 58
REMARK SMILES IDX 52 59 67 61 89 62 54 63 37 64 38 65 47 66 39 67 40 68 46 69
REMARK SMILES IDX 48 70 41 71 42 72 43 73 44 74 45 75 71 76 72 77 81 78 73 79
REMARK SMILES IDX 74 80 80 81 82 82 75 83 76 84 77 85 78 86 79 87 55 88 56 89
REMARK SMILES IDX 65 90 57 91 58 92 64 93 66 94 59 95 60 96 61 97 62 98 63 99
REMARK H PARENT 18 6 7 13 10 16 25 30 87 49 53 60
REMARK Flexibility Score: inf
ROOT
ATOM      1  C   UNL A   1      32.789  26.465  23.305  1.00  0.00     0.021 C 
ENDROOT
BRANCH   1   2
ATOM      2  C   UNL A   1      31.978  25.814  22.189  1.00  0.00     0.116 C 
BRANCH   2   3
ATOM      3  N   UNL A   1      32.097  24.376  22.246  1.00  0.00    -0.354 N 
ATOM      4  O   UNL A   1      30.663  24.052  24.019  1.00  0.00    -0.272 OA
ATOM      5  C   UNL A   1      31.430  23.608  23.174  1.00  0.00     0.245 C 
ATOM      6  H   UNL A   1      32.681  23.927  21.594  1.00  0.00     0.163 HD
BRANCH   5   7
ATOM      7  C   UNL A   1      31.784  22.122  23.080  1.00  0.00     0.260 C 
BRANCH   7   8
ATOM      8  O   UNL A   1      32.963  21.706  23.752  1.00  0.00    -0.370 OA
BRANCH   8   9
ATOM      9  C   UNL A   1      32.931  20.377  24.272  1.00  0.00     0.182 C 
BRANCH   9  10
ATOM     10  C   UNL A   1      33.549  20.212  25.660  1.00  0.00     0.146 C 
BRANCH  10  11
ATOM     11  N   UNL A   1      32.991  21.052  26.719  1.00  0.00    -0.336 N 
ATOM     12  C   UNL A   1      33.444  22.106  27.429  1.00  0.00     0.319 C 
ATOM     13  H   UNL A   1      32.076  20.789  26.971  1.00  0.00     0.165 HD
ATOM     14  O   UNL A   1      32.779  22.475  28.400  1.00  0.00    -0.249 OA
ATOM     15  N   UNL A   1      34.628  22.708  27.188  1.00  0.00    -0.308 N 
ATOM     16  H   UNL A   1      35.016  23.172  27.963  1.00  0.00     0.171 HD
BRANCH  15  17
ATOM     17  C   UNL A   1      35.396  22.783  26.025  1.00  0.00     0.045 A 
ATOM     18  C   UNL A   1      35.182  23.770  25.054  1.00  0.00     0.026 A 
ATOM     19  C   UNL A   1      36.358  21.797  25.820  1.00  0.00     0.065 A 
ATOM     20  C   UNL A   1      35.803  23.668  23.808  1.00  0.00     0.005 A 
ATOM     21  C   UNL A   1      36.962  21.702  24.573  1.00  0.00     0.125 A 
ATOM     22  C   UNL A   1      36.672  22.608  23.557  1.00  0.00     0.039 A 
ATOM     23  F   UNL A   1      37.799  20.685  24.327  1.00  0.00    -0.207 F 
ENDBRANCH  15  17
ENDBRANCH  10  11
ENDBRANCH   9  10
ENDBRANCH   8   9
ENDBRANCH   7   8
ENDBRANCH   5   7
ENDBRANCH   2   3
ENDBRANCH   1   2
BRANCH   1  24
ATOM     24  C   UNL A   1      31.977  27.432  24.178  1.00  0.00     0.002 C 
BRANCH  24  25
ATOM     25  C   UNL A   1      32.779  28.581  24.797  1.00  0.00     0.002 C 
BRANCH  25  26
ATOM     26  C   UNL A   1      33.911  28.149  25.731  1.00  0.00     0.021 C 
BRANCH  26  27
ATOM     27  C   UNL A   1      33.622  28.339  27.217  1.00  0.00     0.116 C 
BRANCH  27  28
ATOM     28  N   UNL A   1      33.472  29.740  27.577  1.00  0.00    -0.352 N 
ATOM     29  C   UNL A   1      34.367  30.583  28.190  1.00  0.00     0.251 C 
ATOM     30  H   UNL A   1      32.604  30.142  27.348  1.00  0.00     0.163 HD
ATOM     31  O   UNL A   1      34.002  31.688  28.572  1.00  0.00    -0.269 OA
BRANCH  29  32
ATOM     32  C   UNL A   1      35.763  30.142  28.412  1.00  0.00     0.039 A 
ATOM     33  C   UNL A   1      36.657  30.177  27.340  1.00  0.00     0.014 A 
ATOM     34  C   UNL A   1      36.190  29.697  29.667  1.00  0.00     0.014 A 
ATOM     35  C   UNL A   1      37.995  29.829  27.543  1.00  0.00     0.010 A 
ATOM     36  C   UNL A   1      37.538  29.423  29.886  1.00  0.00     0.010 A 
ATOM     37  C   UNL A   1      38.456  29.488  28.827  1.00  0.00    -0.014 A 
BRANCH  37  38
ATOM     38  C   UNL A   1      39.898  29.228  29.075  1.00  0.00     0.031 A 
ATOM     39  C   UNL A   1      40.505  27.892  28.750  1.00  0.00     0.074 A 
ATOM     40  C   UNL A   1      40.653  30.193  29.638  1.00  0.00     0.049 A 
ATOM     41  N   UNL A   1      41.738  27.487  28.913  1.00  0.00    -0.248 NA
ATOM     42  C   UNL A   1      39.607  26.870  28.190  1.00  0.00     0.031 C 
ATOM     43  C   UNL A   1      40.167  31.514  30.042  1.00  0.00     0.029 A 
ATOM     44  N   UNL A   1      41.986  30.216  29.964  1.00  0.00    -0.354 N 
ATOM     45  C   UNL A   1      41.766  26.167  28.476  1.00  0.00     0.074 A 
ATOM     46  C   UNL A   1      40.411  25.821  28.100  1.00  0.00     0.031 C 
ATOM     47  C   UNL A   1      41.195  32.232  30.522  1.00  0.00     0.029 A 
ATOM     48  C   UNL A   1      42.402  31.412  30.501  1.00  0.00     0.049 A 
ATOM     49  H   UNL A   1      42.587  29.449  29.826  1.00  0.00     0.167 HD
ATOM     50  C   UNL A   1      42.826  25.331  28.371  1.00  0.00     0.037 A 
ATOM     51  C   UNL A   1      43.618  31.807  30.927  1.00  0.00     0.037 A 
ATOM     52  C   UNL A   1      44.173  25.687  28.740  1.00  0.00     0.049 A 
ATOM     53  C   UNL A   1      44.776  30.856  30.825  1.00  0.00     0.074 A 
ATOM     54  C   UNL A   1      45.323  24.927  28.626  1.00  0.00     0.029 A 
ATOM     55  N   UNL A   1      44.551  26.901  29.299  1.00  0.00    -0.354 N 
ATOM     56  N   UNL A   1      44.795  29.632  30.355  1.00  0.00    -0.248 NA
ATOM     57  C   UNL A   1      46.077  31.336  31.310  1.00  0.00     0.031 C 
ATOM     58  C   UNL A   1      46.387  25.660  29.163  1.00  0.00     0.029 A 
ATOM     59  C   UNL A   1      45.911  26.899  29.563  1.00  0.00     0.049 A 
ATOM     60  H   UNL A   1      43.941  27.652  29.481  1.00  0.00     0.167 HD
ATOM     61  C   UNL A   1      46.111  29.199  30.475  1.00  0.00     0.074 A 
ATOM     62  C   UNL A   1      46.861  30.300  31.044  1.00  0.00     0.031 C 
ATOM     63  C   UNL A   1      46.646  27.997  30.145  1.00  0.00     0.037 A 
BRANCH  50  64
ATOM     64  C   UNL A   1      42.575  23.951  27.827  1.00  0.00     0.058 A 
ATOM     65  C   UNL A   1      42.465  22.848  28.688  1.00  0.00     0.135 A 
ATOM     66  C   UNL A   1      42.485  23.709  26.445  1.00  0.00     0.135 A 
ATOM     67  F   UNL A   1      42.541  23.017  30.018  1.00  0.00    -0.206 F 
ATOM     68  C   UNL A   1      42.279  21.557  28.201  1.00  0.00     0.059 A 
ATOM     69  C   UNL A   1      42.269  22.431  25.937  1.00  0.00     0.059 A 
ATOM     70  F   UNL A   1      42.565  24.729  25.576  1.00  0.00    -0.206 F 
ATOM     71  C   UNL A   1      42.178  21.360  26.824  1.00  0.00     0.060 A 
BRANCH  71  72
ATOM     72  S   UNL A   1      41.880  19.688  26.210  1.00  0.00     0.124 S 
ATOM     73  O   UNL A   1      42.264  18.874  27.357  1.00  0.00    -0.237 OA
ATOM     74  O   UNL A   1      40.452  19.725  25.904  1.00  0.00    -0.237 OA
ATOM     75  O   UNL A   1      42.758  19.593  25.047  1.00  0.00    -0.744 OA
ENDBRANCH  71  72
ENDBRANCH  50  64
BRANCH  51  76
ATOM     76  C   UNL A   1      43.792  33.189  31.449  1.00  0.00     0.058 A 
ATOM     77  C   UNL A   1      43.636  33.479  32.814  1.00  0.00     0.135 A 
ATOM     78  C   UNL A   1      44.044  34.259  30.577  1.00  0.00     0.135 A 
ATOM     79  F   UNL A   1      43.383  32.492  33.688  1.00  0.00    -0.206 F 
ATOM     80  C   UNL A   1      43.683  34.785  33.289  1.00  0.00     0.059 A 
ATOM     81  C   UNL A   1      44.121  35.572  31.034  1.00  0.00     0.059 A 
ATOM     82  F   UNL A   1      44.214  34.028  29.267  1.00  0.00    -0.206 F 
ATOM     83  C   UNL A   1      43.914  35.825  32.389  1.00  0.00     0.060 A 
BRANCH  83  84
ATOM     84  S   UNL A   1      43.915  37.517  33.020  1.00  0.00     0.124 S 
ATOM     85  O   UNL A   1      42.775  37.488  33.932  1.00  0.00    -0.237 OA
ATOM     86  O   UNL A   1      45.229  37.609  33.647  1.00  0.00    -0.237 OA
ATOM     87  O   UNL A   1      43.736  38.327  31.819  1.00  0.00    -0.744 OA
ENDBRANCH  83  84
ENDBRANCH  51  76
BRANCH  63  88
ATOM     88  C   UNL A   1      48.116  27.797  30.392  1.00  0.00     0.058 A 
ATOM     89  C   UNL A   1      49.045  27.951  29.350  1.00  0.00     0.135 A 
ATOM     90  C   UNL A   1      48.600  27.385  31.644  1.00  0.00     0.135 A 
ATOM     91  F   UNL A   1      48.637  28.339  28.132  1.00  0.00    -0.206 F 
ATOM     92  C   UNL A   1      50.397  27.687  29.535  1.00  0.00     0.059 A 
ATOM     93  C   UNL A   1      49.954  27.142  31.860  1.00  0.00     0.059 A 
ATOM     94  F   UNL A   1      47.757  27.234  32.677  1.00  0.00    -0.206 F 
ATOM     95  C   UNL A   1      50.843  27.280  30.794  1.00  0.00     0.060 A 
BRANCH  95  96
ATOM     96  S   UNL A   1      52.604  26.957  31.020  1.00  0.00     0.124 S 
ATOM     97  O   UNL A   1      53.176  27.554  29.817  1.00  0.00    -0.237 OA
ATOM     98  O   UNL A   1      52.888  27.654  32.271  1.00  0.00    -0.237 OA
ATOM     99  O   UNL A   1      52.677  25.501  31.093  1.00  0.00    -0.744 OA
ENDBRANCH  95  96
ENDBRANCH  63  88
ENDBRANCH  37  38
ENDBRANCH  29  32
ENDBRANCH  27  28
ENDBRANCH  26  27
ENDBRANCH  25  26
ENDBRANCH  24  25
ENDBRANCH   1  24
TORSDOF 21
ENDMDL
MODEL 2
REMARK VINA RESULT:     -10.2      4.773      9.800
REMARK SMILES O=C(COCCNC(=O)Nc1cccc(F)c1)NCCCCCCNC(=O)c1ccc(-c2c3nc(c(-c4c(F)cc(S(=O)(=O)[O-])cc4F)c4ccc([nH]4)c(-c4c(F)cc(S(=O)(=O)[O-])cc4F)c4nc(c(-c5c(F)cc(S(=O)(=O)[O-])cc5F)c5ccc2[nH]5)C=C4)C=C3)cc1
REMARK SMILES IDX 20 1 19 2 18 3 1 4 2 5 3 7 4 8 5 9 6 10 7 11 8 12 9 14 10 15
REMARK SMILES IDX 11 17 12 18 17 19 13 20 15 21 14 22 16 23 21 24 22 25 23 26
REMARK SMILES IDX 24 27 25 28 26 29 27 31 28 32 29 33 93 34 30 35 92 36 31 37
REMARK SMILES IDX 32 38 33 39 86 40 34 41 91 42 85 43 87 44 35 45 90 46 84 47
REMARK SMILES IDX 83 48 36 50 70 51 49 52 69 53 50 54 53 55 68 56 88 57 51 58
REMARK SMILES IDX 52 59 67 61 89 62 54 63 37 64 38 65 47 66 39 67 40 68 46 69
REMARK SMILES IDX 48 70 41 71 42 72 43 73 44 74 45 75 71 76 72 77 81 78 73 79
REMARK SMILES IDX 74 80 80 81 82 82 75 83 76 84 77 85 78 86 79 87 55 88 56 89
REMARK SMILES IDX 65 90 57 91 58 92 64 93 66 94 59 95 60 96 61 97 62 98 63 99
REMARK H PARENT 18 6 7 13 10 16 25 30 87 49 53 60
REMARK Flexibility Score: inf
ROOT
ATOM      1  C   UNL A   1      37.025  21.683  24.469  1.00  0.00     0.021 C 
ENDROOT
BRANCH   1   2
ATOM      2  C   UNL A   1      36.655  22.722  23.414  1.00  0.00     0.116 C 
BRANCH   2   3
ATOM      3  N   UNL A   1      35.760  23.710  23.966  1.00  0.00    -0.354 N 
ATOM      4  O   UNL A   1      34.164  23.592  22.309  1.00  0.00    -0.272 OA
ATOM      5  C   UNL A   1      34.581  24.075  23.355  1.00  0.00     0.245 C 
ATOM      6  H   UNL A   1      36.004  24.143  24.816  1.00  0.00     0.163 HD
BRANCH   5   7
ATOM      7  C   UNL A   1      33.851  25.198  24.094  1.00  0.00     0.260 C 
BRANCH   7   8
ATOM      8  O   UNL A   1      32.881  25.921  23.352  1.00  0.00    -0.370 OA
BRANCH   8   9
ATOM      9  C   UNL A   1      32.893  27.335  23.550  1.00  0.00     0.182 C 
BRANCH   9  10
ATOM     10  C   UNL A   1      31.576  27.928  24.050  1.00  0.00     0.146 C 
BRANCH  10  11
ATOM     11  N   UNL A   1      30.714  27.031  24.819  1.00  0.00    -0.336 N 
ATOM     12  C   UNL A   1      30.705  26.589  26.094  1.00  0.00     0.319 C 
ATOM     13  H   UNL A   1      29.971  26.667  24.285  1.00  0.00     0.165 HD
ATOM     14  O   UNL A   1      29.931  25.673  26.380  1.00  0.00    -0.249 OA
ATOM     15  N   UNL A   1      31.562  27.033  27.037  1.00  0.00    -0.308 N 
ATOM     16  H   UNL A   1      31.722  26.400  27.773  1.00  0.00     0.171 HD
BRANCH  15  17
ATOM     17  C   UNL A   1      32.260  28.236  27.147  1.00  0.00     0.045 A 
ATOM     18  C   UNL A   1      31.606  29.475  27.179  1.00  0.00     0.026 A 
ATOM     19  C   UNL A   1      33.651  28.179  27.162  1.00  0.00     0.065 A 
ATOM     20  C   UNL A   1      32.342  30.655  27.048  1.00  0.00     0.005 A 
ATOM     21  C   UNL A   1      34.370  29.359  27.023  1.00  0.00     0.125 A 
ATOM     22  C   UNL A   1      33.729  30.591  26.935  1.00  0.00     0.039 A 
ATOM     23  F   UNL A   1      35.704  29.303  26.915  1.00  0.00    -0.207 F 
ENDBRANCH  15  17
ENDBRANCH  10  11
ENDBRANCH   9  10
ENDBRANCH   8   9
ENDBRANCH   7   8
ENDBRANCH   5   7
ENDBRANCH   2   3
ENDBRANCH   1   2
BRANCH   1  24
ATOM     24  C   UNL A   1      37.931  22.226  25.583  1.00  0.00     0.002 C 
BRANCH  24  25
ATOM     25  C   UNL A   1      39.132  21.343  25.936  1.00  0.00     0.002 C 
BRANCH  25  26
ATOM     26  C   UNL A   1      40.109  21.954  26.941  1.00  0.00     0.021 C 
BRANCH  26  27
ATOM     27  C   UNL A   1      40.119  23.479  26.981  1.00  0.00     0.116 C 
BRANCH  27  28
ATOM     28  N   UNL A   1      41.084  24.050  26.055  1.00  0.00    -0.352 N 
ATOM     29  C   UNL A   1      41.571  25.332  25.985  1.00  0.00     0.251 C 
ATOM     30  H   UNL A   1      41.439  23.427  25.381  1.00  0.00     0.163 HD
ATOM     31  O   UNL A   1      42.251  25.676  25.025  1.00  0.00    -0.269 OA
BRANCH  29  32
ATOM     32  C   UNL A   1      41.249  26.303  27.056  1.00  0.00     0.039 A 
ATOM     33  C   UNL A   1      40.400  25.905  28.090  1.00  0.00     0.014 A 
ATOM     34  C   UNL A   1      41.781  27.596  27.042  1.00  0.00     0.014 A 
ATOM     35  C   UNL A   1      40.136  26.782  29.145  1.00  0.00     0.010 A 
ATOM     36  C   UNL A   1      41.578  28.442  28.130  1.00  0.00     0.010 A 
ATOM     37  C   UNL A   1      40.755  28.043  29.195  1.00  0.00    -0.014 A 
BRANCH  37  38
ATOM     38  C   UNL A   1      40.572  28.937  30.368  1.00  0.00     0.031 A 
ATOM     39  C   UNL A   1      41.447  28.800  31.583  1.00  0.00     0.074 A 
ATOM     40  C   UNL A   1      39.581  29.851  30.350  1.00  0.00     0.049 A 
ATOM     41  N   UNL A   1      41.419  29.483  32.698  1.00  0.00    -0.248 NA
ATOM     42  C   UNL A   1      42.471  27.745  31.551  1.00  0.00     0.031 C 
ATOM     43  C   UNL A   1      38.637  30.048  29.248  1.00  0.00     0.029 A 
ATOM     44  N   UNL A   1      39.204  30.786  31.281  1.00  0.00    -0.354 N 
ATOM     45  C   UNL A   1      42.419  28.944  33.499  1.00  0.00     0.074 A 
ATOM     46  C   UNL A   1      42.993  27.835  32.766  1.00  0.00     0.031 C 
ATOM     47  C   UNL A   1      37.817  31.068  29.549  1.00  0.00     0.029 A 
ATOM     48  C   UNL A   1      38.147  31.570  30.879  1.00  0.00     0.049 A 
ATOM     49  H   UNL A   1      39.647  30.887  32.154  1.00  0.00     0.167 HD
ATOM     50  C   UNL A   1      42.840  29.352  34.720  1.00  0.00     0.037 A 
ATOM     51  C   UNL A   1      37.515  32.580  31.508  1.00  0.00     0.037 A 
ATOM     52  C   UNL A   1      42.268  30.462  35.440  1.00  0.00     0.049 A 
ATOM     53  C   UNL A   1      37.980  33.002  32.872  1.00  0.00     0.074 A 
ATOM     54  C   UNL A   1      42.655  30.984  36.661  1.00  0.00     0.029 A 
ATOM     55  N   UNL A   1      41.186  31.218  35.009  1.00  0.00    -0.354 N 
ATOM     56  N   UNL A   1      38.966  32.518  33.590  1.00  0.00    -0.248 NA
ATOM     57  C   UNL A   1      37.251  34.104  33.514  1.00  0.00     0.031 C 
ATOM     58  C   UNL A   1      41.777  32.021  36.994  1.00  0.00     0.029 A 
ATOM     59  C   UNL A   1      40.874  32.182  35.954  1.00  0.00     0.049 A 
ATOM     60  H   UNL A   1      40.711  31.088  34.157  1.00  0.00     0.167 HD
ATOM     61  C   UNL A   1      38.984  33.265  34.763  1.00  0.00     0.074 A 
ATOM     62  C   UNL A   1      37.923  34.245  34.649  1.00  0.00     0.031 C 
ATOM     63  C   UNL A   1      39.804  33.145  35.837  1.00  0.00     0.037 A 
BRANCH  50  64
ATOM     64  C   UNL A   1      43.979  28.600  35.354  1.00  0.00     0.058 A 
ATOM     65  C   UNL A   1      45.310  28.892  35.015  1.00  0.00     0.135 A 
ATOM     66  C   UNL A   1      43.754  27.558  36.269  1.00  0.00     0.135 A 
ATOM     67  F   UNL A   1      45.587  29.879  34.147  1.00  0.00    -0.206 F 
ATOM     68  C   UNL A   1      46.374  28.177  35.556  1.00  0.00     0.059 A 
ATOM     69  C   UNL A   1      44.804  26.849  36.845  1.00  0.00     0.059 A 
ATOM     70  F   UNL A   1      42.503  27.247  36.643  1.00  0.00    -0.206 F 
ATOM     71  C   UNL A   1      46.111  27.160  36.474  1.00  0.00     0.060 A 
BRANCH  71  72
ATOM     72  S   UNL A   1      47.505  26.279  37.210  1.00  0.00     0.124 S 
ATOM     73  O   UNL A   1      48.456  26.244  36.105  1.00  0.00    -0.237 OA
ATOM     74  O   UNL A   1      47.859  27.148  38.329  1.00  0.00    -0.237 OA
ATOM     75  O   UNL A   1      46.929  24.991  37.587  1.00  0.00    -0.744 OA
ENDBRANCH  71  72
ENDBRANCH  50  64
BRANCH  51  76
ATOM     76  C   UNL A   1      36.399  33.281  30.818  1.00  0.00     0.058 A 
ATOM     77  C   UNL A   1      36.638  34.166  29.754  1.00  0.00     0.135 A 
ATOM     78  C   UNL A   1      35.076  33.136  31.262  1.00  0.00     0.135 A 
ATOM     79  F   UNL A   1      37.887  34.349  29.299  1.00  0.00    -0.206 F 
ATOM     80  C   UNL A   1      35.613  34.911  29.184  1.00  0.00     0.059 A 
ATOM     81  C   UNL A   1      34.029  33.852  30.690  1.00  0.00     0.059 A 
ATOM     82  F   UNL A   1      34.797  32.292  32.267  1.00  0.00    -0.206 F 
ATOM     83  C   UNL A   1      34.313  34.756  29.667  1.00  0.00     0.060 A 
BRANCH  83  84
ATOM     84  S   UNL A   1      33.006  35.775  28.949  1.00  0.00     0.124 S 
ATOM     85  O   UNL A   1      32.345  34.819  28.064  1.00  0.00    -0.237 OA
ATOM     86  O   UNL A   1      32.249  36.178  30.129  1.00  0.00    -0.237 OA
ATOM     87  O   UNL A   1      33.740  36.844  28.280  1.00  0.00    -0.744 OA
ENDBRANCH  83  84
ENDBRANCH  51  76
BRANCH  63  88
ATOM     88  C   UNL A   1      39.592  34.094  36.985  1.00  0.00     0.058 A 
ATOM     89  C   UNL A   1      40.277  35.319  37.036  1.00  0.00     0.135 A 
ATOM     90  C   UNL A   1      38.764  33.760  38.068  1.00  0.00     0.135 A 
ATOM     91  F   UNL A   1      41.085  35.686  36.030  1.00  0.00    -0.206 F 
ATOM     92  C   UNL A   1      40.163  36.170  38.130  1.00  0.00     0.059 A 
ATOM     93  C   UNL A   1      38.613  34.611  39.160  1.00  0.00     0.059 A 
ATOM     94  F   UNL A   1      38.078  32.607  38.063  1.00  0.00    -0.206 F 
ATOM     95  C   UNL A   1      39.329  35.807  39.189  1.00  0.00     0.060 A 
BRANCH  95  96
ATOM     96  S   UNL A   1      39.181  36.933  40.592  1.00  0.00     0.124 S 
ATOM     97  O   UNL A   1      38.628  36.058  41.621  1.00  0.00    -0.237 OA
ATOM     98  O   UNL A   1      40.562  37.358  40.794  1.00  0.00    -0.237 OA
ATOM     99  O   UNL A   1      38.279  37.971  40.100  1.00  0.00    -0.744 OA
ENDBRANCH  95  96
ENDBRANCH  63  88
ENDBRANCH  37  38
ENDBRANCH  29  32
ENDBRANCH  27  28
ENDBRANCH  26  27
ENDBRANCH  25  26
ENDBRANCH  24  25
ENDBRANCH   1  24
TORSDOF 21
ENDMDL
MODEL 3
REMARK VINA RESULT:     -10.1      2.861      8.380
REMARK SMILES O=C(COCCNC(=O)Nc1cccc(F)c1)NCCCCCCNC(=O)c1ccc(-c2c3nc(c(-c4c(F)cc(S(=O)(=O)[O-])cc4F)c4ccc([nH]4)c(-c4c(F)cc(S(=O)(=O)[O-])cc4F)c4nc(c(-c5c(F)cc(S(=O)(=O)[O-])cc5F)c5ccc2[nH]5)C=C4)C=C3)cc1
REMARK SMILES IDX 20 1 19 2 18 3 1 4 2 5 3 7 4 8 5 9 6 10 7 11 8 12 9 14 10 15
REMARK SMILES IDX 11 17 12 18 17 19 13 20 15 21 14 22 16 23 21 24 22 25 23 26
REMARK SMILES IDX 24 27 25 28 26 29 27 31 28 32 29 33 93 34 30 35 92 36 31 37
REMARK SMILES IDX 32 38 33 39 86 40 34 41 91 42 85 43 87 44 35 45 90 46 84 47
REMARK SMILES IDX 83 48 36 50 70 51 49 52 69 53 50 54 53 55 68 56 88 57 51 58
REMARK SMILES IDX 52 59 67 61 89 62 54 63 37 64 38 65 47 66 39 67 40 68 46 69
REMARK SMILES IDX 48 70 41 71 42 72 43 73 44 74 45 75 71 76 72 77 81 78 73 79
REMARK SMILES IDX 74 80 80 81 82 82 75 83 76 84 77 85 78 86 79 87 55 88 56 89
REMARK SMILES IDX 65 90 57 91 58 92 64 93 66 94 59 95 60 96 61 97 62 98 63 99
REMARK H PARENT 18 6 7 13 10 16 25 30 87 49 53 60
REMARK Flexibility Score: inf
ROOT
ATOM      1  C   UNL A   1      30.554  27.275  23.421  1.00  0.00     0.021 C 
ENDROOT
BRANCH   1   2
ATOM      2  C   UNL A   1      29.511  26.324  24.001  1.00  0.00     0.116 C 
BRANCH   2   3
ATOM      3  N   UNL A   1      30.025  25.662  25.177  1.00  0.00    -0.354 N 
ATOM      4  O   UNL A   1      30.805  23.775  24.112  1.00  0.00    -0.272 OA
ATOM      5  C   UNL A   1      30.627  24.424  25.135  1.00  0.00     0.245 C 
ATOM      6  H   UNL A   1      29.941  26.116  26.046  1.00  0.00     0.163 HD
BRANCH   5   7
ATOM      7  C   UNL A   1      31.013  23.904  26.521  1.00  0.00     0.260 C 
BRANCH   7   8
ATOM      8  O   UNL A   1      31.776  22.708  26.561  1.00  0.00    -0.370 OA
BRANCH   8   9
ATOM      9  C   UNL A   1      32.737  22.633  27.614  1.00  0.00     0.182 C 
BRANCH   9  10
ATOM     10  C   UNL A   1      33.725  21.472  27.505  1.00  0.00     0.146 C 
BRANCH  10  11
ATOM     11  N   UNL A   1      33.241  20.275  26.817  1.00  0.00    -0.336 N 
ATOM     12  C   UNL A   1      33.115  19.912  25.524  1.00  0.00     0.319 C 
ATOM     13  H   UNL A   1      32.940  19.574  27.440  1.00  0.00     0.165 HD
ATOM     14  O   UNL A   1      32.483  18.883  25.273  1.00  0.00    -0.249 OA
ATOM     15  N   UNL A   1      33.560  20.666  24.497  1.00  0.00    -0.308 N 
ATOM     16  H   UNL A   1      33.092  20.512  23.645  1.00  0.00     0.171 HD
BRANCH  15  17
ATOM     17  C   UNL A   1      34.571  21.626  24.437  1.00  0.00     0.045 A 
ATOM     18  C   UNL A   1      35.916  21.306  24.666  1.00  0.00     0.026 A 
ATOM     19  C   UNL A   1      34.197  22.946  24.199  1.00  0.00     0.065 A 
ATOM     20  C   UNL A   1      36.856  22.325  24.833  1.00  0.00     0.005 A 
ATOM     21  C   UNL A   1      35.140  23.950  24.377  1.00  0.00     0.125 A 
ATOM     22  C   UNL A   1      36.456  23.655  24.721  1.00  0.00     0.039 A 
ATOM     23  F   UNL A   1      34.760  25.231  24.269  1.00  0.00    -0.207 F 
ENDBRANCH  15  17
ENDBRANCH  10  11
ENDBRANCH   9  10
ENDBRANCH   8   9
ENDBRANCH   7   8
ENDBRANCH   5   7
ENDBRANCH   2   3
ENDBRANCH   1   2
BRANCH   1  24
ATOM     24  C   UNL A   1      30.535  28.675  24.052  1.00  0.00     0.002 C 
BRANCH  24  25
ATOM     25  C   UNL A   1      31.905  29.225  24.458  1.00  0.00     0.002 C 
BRANCH  25  26
ATOM     26  C   UNL A   1      32.922  28.169  24.893  1.00  0.00     0.021 C 
BRANCH  26  27
ATOM     27  C   UNL A   1      33.888  28.620  25.984  1.00  0.00     0.116 C 
BRANCH  27  28
ATOM     28  N   UNL A   1      33.664  30.001  26.384  1.00  0.00    -0.352 N 
ATOM     29  C   UNL A   1      34.338  30.760  27.309  1.00  0.00     0.251 C 
ATOM     30  H   UNL A   1      32.921  30.456  25.925  1.00  0.00     0.163 HD
ATOM     31  O   UNL A   1      33.895  31.854  27.640  1.00  0.00    -0.269 OA
BRANCH  29  32
ATOM     32  C   UNL A   1      35.581  30.242  27.924  1.00  0.00     0.039 A 
ATOM     33  C   UNL A   1      36.784  30.387  27.230  1.00  0.00     0.014 A 
ATOM     34  C   UNL A   1      35.564  29.620  29.175  1.00  0.00     0.014 A 
ATOM     35  C   UNL A   1      37.978  29.966  27.820  1.00  0.00     0.010 A 
ATOM     36  C   UNL A   1      36.762  29.270  29.794  1.00  0.00     0.010 A 
ATOM     37  C   UNL A   1      37.982  29.441  29.124  1.00  0.00    -0.014 A 
BRANCH  37  38
ATOM     38  C   UNL A   1      39.258  29.098  29.803  1.00  0.00     0.031 A 
ATOM     39  C   UNL A   1      39.697  29.839  31.036  1.00  0.00     0.074 A 
ATOM     40  C   UNL A   1      40.046  28.137  29.278  1.00  0.00     0.049 A 
ATOM     41  N   UNL A   1      40.783  29.682  31.748  1.00  0.00    -0.248 NA
ATOM     42  C   UNL A   1      38.813  30.911  31.518  1.00  0.00     0.031 C 
ATOM     43  C   UNL A   1      39.752  27.379  28.060  1.00  0.00     0.029 A 
ATOM     44  N   UNL A   1      41.249  27.631  29.701  1.00  0.00    -0.354 N 
ATOM     45  C   UNL A   1      40.714  30.631  32.762  1.00  0.00     0.074 A 
ATOM     46  C   UNL A   1      39.509  31.401  32.534  1.00  0.00     0.031 C 
ATOM     47  C   UNL A   1      40.725  26.478  27.858  1.00  0.00     0.029 A 
ATOM     48  C   UNL A   1      41.733  26.620  28.904  1.00  0.00     0.049 A 
ATOM     49  H   UNL A   1      41.722  27.959  30.500  1.00  0.00     0.167 HD
ATOM     50  C   UNL A   1      41.559  30.823  33.801  1.00  0.00     0.037 A 
ATOM     51  C   UNL A   1      42.859  25.886  29.003  1.00  0.00     0.037 A 
ATOM     52  C   UNL A   1      42.752  30.047  34.025  1.00  0.00     0.049 A 
ATOM     53  C   UNL A   1      43.797  26.132  30.150  1.00  0.00     0.074 A 
ATOM     54  C   UNL A   1      43.649  30.133  35.075  1.00  0.00     0.029 A 
ATOM     55  N   UNL A   1      43.219  29.045  33.184  1.00  0.00    -0.354 N 
ATOM     56  N   UNL A   1      43.686  26.995  31.132  1.00  0.00    -0.248 NA
ATOM     57  C   UNL A   1      45.013  25.310  30.205  1.00  0.00     0.031 C 
ATOM     58  C   UNL A   1      44.684  29.221  34.844  1.00  0.00     0.029 A 
ATOM     59  C   UNL A   1      44.406  28.527  33.676  1.00  0.00     0.049 A 
ATOM     60  H   UNL A   1      42.772  28.747  32.360  1.00  0.00     0.167 HD
ATOM     61  C   UNL A   1      44.810  26.811  31.929  1.00  0.00     0.074 A 
ATOM     62  C   UNL A   1      45.578  25.741  31.325  1.00  0.00     0.031 C 
ATOM     63  C   UNL A   1      45.172  27.471  33.058  1.00  0.00     0.037 A 
BRANCH  50  64
ATOM     64  C   UNL A   1      41.222  31.913  34.783  1.00  0.00     0.058 A 
ATOM     65  C   UNL A   1      40.345  31.670  35.853  1.00  0.00     0.135 A 
ATOM     66  C   UNL A   1      41.733  33.214  34.643  1.00  0.00     0.135 A 
ATOM     67  F   UNL A   1      39.827  30.446  36.039  1.00  0.00    -0.206 F 
ATOM     68  C   UNL A   1      39.986  32.677  36.745  1.00  0.00     0.059 A 
ATOM     69  C   UNL A   1      41.411  34.229  35.540  1.00  0.00     0.059 A 
ATOM     70  F   UNL A   1      42.589  33.499  33.649  1.00  0.00    -0.206 F 
ATOM     71  C   UNL A   1      40.527  33.952  36.582  1.00  0.00     0.060 A 
BRANCH  71  72
ATOM     72  S   UNL A   1      40.095  35.233  37.780  1.00  0.00     0.124 S 
ATOM     73  O   UNL A   1      38.937  34.647  38.442  1.00  0.00    -0.237 OA
ATOM     74  O   UNL A   1      41.312  35.323  38.582  1.00  0.00    -0.237 OA
ATOM     75  O   UNL A   1      39.821  36.398  36.943  1.00  0.00    -0.744 OA
ENDBRANCH  71  72
ENDBRANCH  50  64
BRANCH  51  76
ATOM     76  C   UNL A   1      43.126  24.823  27.998  1.00  0.00     0.058 A 
ATOM     77  C   UNL A   1      42.808  23.480  28.254  1.00  0.00     0.135 A 
ATOM     78  C   UNL A   1      43.774  25.123  26.790  1.00  0.00     0.135 A 
ATOM     79  F   UNL A   1      42.197  23.139  29.399  1.00  0.00    -0.206 F 
ATOM     80  C   UNL A   1      43.160  22.468  27.368  1.00  0.00     0.059 A 
ATOM     81  C   UNL A   1      44.114  24.129  25.876  1.00  0.00     0.059 A 
ATOM     82  F   UNL A   1      44.085  26.394  26.496  1.00  0.00    -0.206 F 
ATOM     83  C   UNL A   1      43.824  22.802  26.187  1.00  0.00     0.060 A 
BRANCH  83  84
ATOM     84  S   UNL A   1      44.322  21.466  25.079  1.00  0.00     0.124 S 
ATOM     85  O   UNL A   1      44.134  22.088  23.771  1.00  0.00    -0.237 OA
ATOM     86  O   UNL A   1      45.705  21.235  25.480  1.00  0.00    -0.237 OA
ATOM     87  O   UNL A   1      43.388  20.392  25.402  1.00  0.00    -0.744 OA
ENDBRANCH  83  84
ENDBRANCH  51  76
BRANCH  63  88
ATOM     88  C   UNL A   1      46.459  27.064  33.721  1.00  0.00     0.058 A 
ATOM     89  C   UNL A   1      46.479  26.032  34.673  1.00  0.00     0.135 A 
ATOM     90  C   UNL A   1      47.662  27.741  33.464  1.00  0.00     0.135 A 
ATOM     91  F   UNL A   1      45.357  25.354  34.960  1.00  0.00    -0.206 F 
ATOM     92  C   UNL A   1      47.640  25.698  35.361  1.00  0.00     0.059 A 
ATOM     93  C   UNL A   1      48.843  27.404  34.121  1.00  0.00     0.059 A 
ATOM     94  F   UNL A   1      47.701  28.727  32.555  1.00  0.00    -0.206 F 
ATOM     95  C   UNL A   1      48.818  26.392  35.080  1.00  0.00     0.060 A 
BRANCH  95  96
ATOM     96  S   UNL A   1      50.320  25.935  35.970  1.00  0.00     0.124 S 
ATOM     97  O   UNL A   1      51.175  27.093  35.731  1.00  0.00    -0.237 OA
ATOM     98  O   UNL A   1      49.832  25.777  37.337  1.00  0.00    -0.237 OA
ATOM     99  O   UNL A   1      50.740  24.698  35.317  1.00  0.00    -0.744 OA
ENDBRANCH  95  96
ENDBRANCH  63  88
ENDBRANCH  37  38
ENDBRANCH  29  32
ENDBRANCH  27  28
ENDBRANCH  26  27
ENDBRANCH  25  26
ENDBRANCH  24  25
ENDBRANCH   1  24
TORSDOF 21
ENDMDL
