MODEL 1
REMARK VINA RESULT:      -9.4      0.000      0.000
REMARK SMILES CCOc1ccc(-c2cnc(N)cc2C(=O)NCCCCCCNC(=O)c2ccc(-c3c4nc(c(-c5c(F)cc(S(=O)(=O)[O-])cc5F)c5ccc([nH]5)c(-c5c(F)cc(S(=O)(=O)[O-])cc5F)c5nc(c(-c6c(F)cc(S(=O)(=O)[O-])cc6F)c6ccc3[nH]6)C=C5)C=C4)cc2)c(Cl)c1
REMARK SMILES IDX 20 1 19 2 18 3 17 4 15 5 16 6 14 8 8 9 9 10 10 11 13 12
REMARK SMILES IDX 11 13 7 14 4 15 5 16 95 17 6 18 93 19 94 20 3 21 2 22 1 23
REMARK SMILES IDX 12 24 21 27 22 28 23 29 24 30 25 31 26 33 27 34 28 35 92 36
REMARK SMILES IDX 29 37 91 38 30 39 31 40 32 41 85 42 33 43 90 44 84 45 86 46
REMARK SMILES IDX 34 47 89 48 83 49 82 50 35 52 69 53 48 54 68 55 49 56 52 57
REMARK SMILES IDX 67 58 87 59 50 60 51 61 66 63 88 64 53 65 36 66 37 67 46 68
REMARK SMILES IDX 38 69 39 70 45 71 47 72 40 73 41 74 42 75 43 76 44 77 70 78
REMARK SMILES IDX 71 79 80 80 72 81 73 82 79 83 81 84 74 85 75 86 76 87 77 88
REMARK SMILES IDX 78 89 54 90 55 91 64 92 56 93 57 94 63 95 65 96 58 97 59 98
REMARK SMILES IDX 60 99 61 100 62 101
REMARK H PARENT 17 7 12 25 12 26 24 32 86 51 52 62
REMARK Flexibility Score: inf
ROOT
ATOM      1  C   UNL A   1      37.594  33.300  29.856  1.00  0.00     0.002 C 
ENDROOT
BRANCH   1   2
ATOM      2  C   UNL A   1      38.268  34.542  30.460  1.00  0.00     0.021 C 
BRANCH   2   3
ATOM      3  C   UNL A   1      39.433  34.196  31.388  1.00  0.00     0.116 C 
BRANCH   3   4
ATOM      4  N   UNL A   1      39.195  34.725  32.714  1.00  0.00    -0.352 N 
ATOM      5  C   UNL A   1      38.156  34.733  33.604  1.00  0.00     0.252 C 
ATOM      6  O   UNL A   1      38.424  35.296  34.667  1.00  0.00    -0.269 OA
ATOM      7  H   UNL A   1      39.983  35.201  33.065  1.00  0.00     0.163 HD
BRANCH   5   8
ATOM      8  C   UNL A   1      36.820  34.062  33.404  1.00  0.00     0.052 A 
ATOM      9  C   UNL A   1      36.725  32.652  33.393  1.00  0.00     0.014 A 
ATOM     10  C   UNL A   1      35.501  32.111  32.984  1.00  0.00     0.123 A 
ATOM     11  N   UNL A   1      34.420  32.820  32.601  1.00  0.00    -0.239 NA
ATOM     12  C   UNL A   1      35.649  34.786  33.155  1.00  0.00     0.061 A 
ATOM     13  C   UNL A   1      34.510  34.147  32.691  1.00  0.00     0.124 A 
BRANCH   9  14
ATOM     14  C   UNL A   1      37.795  31.707  33.771  1.00  0.00     0.003 A 
ATOM     15  C   UNL A   1      39.829  29.849  34.375  1.00  0.00     0.120 A 
ATOM     16  C   UNL A   1      39.321  29.933  33.084  1.00  0.00     0.047 A 
ATOM     17  C   UNL A   1      39.295  30.642  35.386  1.00  0.00     0.067 A 
ATOM     18  C   UNL A   1      38.335  30.869  32.779  1.00  0.00     0.014 A 
ATOM     19  C   UNL A   1      38.274  31.554  35.092  1.00  0.00     0.052 A 
ATOM     20  Cl  UNL A   1      37.594  32.440  36.419  1.00  0.00    -0.084 Cl
BRANCH  15  21
ATOM     21  O   UNL A   1      40.760  28.908  34.717  1.00  0.00    -0.494 OA
BRANCH  21  22
ATOM     22  C   UNL A   1      41.224  28.133  33.603  1.00  0.00     0.226 C 
ATOM     23  C   UNL A   1      42.655  28.483  33.227  1.00  0.00     0.049 C 
ENDBRANCH  21  22
ENDBRANCH  15  21
ENDBRANCH   9  14
BRANCH  13  24
ATOM     24  N   UNL A   1      33.392  34.871  32.329  1.00  0.00    -0.384 N 
ATOM     25  H   UNL A   1      33.322  35.249  31.423  1.00  0.00     0.158 HD
ATOM     26  H   UNL A   1      32.665  35.010  32.978  1.00  0.00     0.158 HD
ENDBRANCH  13  24
ENDBRANCH   5   8
ENDBRANCH   3   4
ENDBRANCH   2   3
ENDBRANCH   1   2
BRANCH   1  27
ATOM     27  C   UNL A   1      37.118  33.466  28.406  1.00  0.00     0.002 C 
BRANCH  27  28
ATOM     28  C   UNL A   1      35.611  33.288  28.204  1.00  0.00     0.021 C 
BRANCH  28  29
ATOM     29  C   UNL A   1      34.942  32.424  29.266  1.00  0.00     0.116 C 
BRANCH  29  30
ATOM     30  N   UNL A   1      34.211  31.320  28.665  1.00  0.00    -0.352 N 
ATOM     31  C   UNL A   1      34.697  30.177  28.083  1.00  0.00     0.251 C 
ATOM     32  H   UNL A   1      33.230  31.404  28.679  1.00  0.00     0.163 HD
ATOM     33  O   UNL A   1      33.961  29.475  27.398  1.00  0.00    -0.269 OA
BRANCH  31  34
ATOM     34  C   UNL A   1      36.114  29.804  28.281  1.00  0.00     0.039 A 
ATOM     35  C   UNL A   1      37.013  29.966  27.225  1.00  0.00     0.014 A 
ATOM     36  C   UNL A   1      36.549  29.285  29.505  1.00  0.00     0.014 A 
ATOM     37  C   UNL A   1      38.360  29.653  27.413  1.00  0.00     0.010 A 
ATOM     38  C   UNL A   1      37.903  29.045  29.713  1.00  0.00     0.010 A 
ATOM     39  C   UNL A   1      38.821  29.217  28.667  1.00  0.00    -0.014 A 
BRANCH  39  40
ATOM     40  C   UNL A   1      40.260  28.939  28.902  1.00  0.00     0.031 A 
ATOM     41  C   UNL A   1      40.837  27.596  28.547  1.00  0.00     0.074 A 
ATOM     42  C   UNL A   1      41.029  29.874  29.494  1.00  0.00     0.049 A 
ATOM     43  N   UNL A   1      42.050  27.144  28.737  1.00  0.00    -0.248 NA
ATOM     44  C   UNL A   1      39.928  26.623  27.919  1.00  0.00     0.031 C 
ATOM     45  C   UNL A   1      40.568  31.194  29.931  1.00  0.00     0.029 A 
ATOM     46  N   UNL A   1      42.357  29.855  29.841  1.00  0.00    -0.354 N 
ATOM     47  C   UNL A   1      42.045  25.835  28.270  1.00  0.00     0.074 A 
ATOM     48  C   UNL A   1      40.697  25.548  27.831  1.00  0.00     0.031 C 
ATOM     49  C   UNL A   1      41.599  31.865  30.468  1.00  0.00     0.029 A 
ATOM     50  C   UNL A   1      42.784  31.011  30.452  1.00  0.00     0.049 A 
ATOM     51  H   UNL A   1      42.948  29.087  29.669  1.00  0.00     0.167 HD
ATOM     52  C   UNL A   1      43.076  24.961  28.194  1.00  0.00     0.037 A 
ATOM     53  C   UNL A   1      43.990  31.344  30.953  1.00  0.00     0.037 A 
ATOM     54  C   UNL A   1      44.422  25.266  28.607  1.00  0.00     0.049 A 
ATOM     55  C   UNL A   1      45.122  30.360  30.846  1.00  0.00     0.074 A 
ATOM     56  C   UNL A   1      45.551  24.472  28.508  1.00  0.00     0.029 A 
ATOM     57  N   UNL A   1      44.821  26.457  29.196  1.00  0.00    -0.354 N 
ATOM     58  N   UNL A   1      45.115  29.148  30.343  1.00  0.00    -0.248 NA
ATOM     59  C   UNL A   1      46.428  30.789  31.364  1.00  0.00     0.031 C 
ATOM     60  C   UNL A   1      46.621  25.161  29.086  1.00  0.00     0.029 A 
ATOM     61  C   UNL A   1      46.174  26.408  29.490  1.00  0.00     0.049 A 
ATOM     62  H   UNL A   1      44.230  27.222  29.380  1.00  0.00     0.167 HD
ATOM     63  C   UNL A   1      46.419  28.679  30.462  1.00  0.00     0.074 A 
ATOM     64  C   UNL A   1      47.189  29.743  31.073  1.00  0.00     0.031 C 
ATOM     65  C   UNL A   1      46.929  27.476  30.098  1.00  0.00     0.037 A 
BRANCH  52  66
ATOM     66  C   UNL A   1      42.798  23.589  27.641  1.00  0.00     0.058 A 
ATOM     67  C   UNL A   1      42.784  23.337  26.260  1.00  0.00     0.135 A 
ATOM     68  C   UNL A   1      42.602  22.500  28.506  1.00  0.00     0.135 A 
ATOM     69  F   UNL A   1      42.948  24.344  25.387  1.00  0.00    -0.206 F 
ATOM     70  C   UNL A   1      42.569  22.060  25.755  1.00  0.00     0.059 A 
ATOM     71  C   UNL A   1      42.414  21.208  28.023  1.00  0.00     0.059 A 
ATOM     72  F   UNL A   1      42.601  22.683  29.835  1.00  0.00    -0.206 F 
ATOM     73  C   UNL A   1      42.389  21.000  26.645  1.00  0.00     0.060 A 
BRANCH  73  74
ATOM     74  S   UNL A   1      42.142  19.342  25.972  1.00  0.00     0.124 S 
ATOM     75  O   UNL A   1      42.565  18.507  27.091  1.00  0.00    -0.237 OA
ATOM     76  O   UNL A   1      40.712  19.336  25.681  1.00  0.00    -0.237 OA
ATOM     77  O   UNL A   1      43.017  19.316  24.804  1.00  0.00    -0.744 OA
ENDBRANCH  73  74
ENDBRANCH  52  66
BRANCH  53  78
ATOM     78  C   UNL A   1      44.184  32.677  31.581  1.00  0.00     0.058 A 
ATOM     79  C   UNL A   1      44.507  33.802  30.807  1.00  0.00     0.135 A 
ATOM     80  C   UNL A   1      44.015  32.861  32.962  1.00  0.00     0.135 A 
ATOM     81  F   UNL A   1      44.685  33.676  29.484  1.00  0.00    -0.206 F 
ATOM     82  C   UNL A   1      44.661  35.061  31.380  1.00  0.00     0.059 A 
ATOM     83  C   UNL A   1      44.138  34.113  33.555  1.00  0.00     0.059 A 
ATOM     84  F   UNL A   1      43.689  31.820  33.745  1.00  0.00    -0.206 F 
ATOM     85  C   UNL A   1      44.467  35.207  32.755  1.00  0.00     0.060 A 
BRANCH  85  86
ATOM     86  S   UNL A   1      44.601  36.858  33.477  1.00  0.00     0.124 S 
ATOM     87  O   UNL A   1      44.326  37.706  32.324  1.00  0.00    -0.237 OA
ATOM     88  O   UNL A   1      43.570  36.824  34.509  1.00  0.00    -0.237 OA
ATOM     89  O   UNL A   1      45.974  36.894  33.975  1.00  0.00    -0.744 OA
ENDBRANCH  85  86
ENDBRANCH  53  78
BRANCH  65  90
ATOM     90  C   UNL A   1      48.400  27.250  30.318  1.00  0.00     0.058 A 
ATOM     91  C   UNL A   1      48.895  26.737  31.526  1.00  0.00     0.135 A 
ATOM     92  C   UNL A   1      49.318  27.495  29.284  1.00  0.00     0.135 A 
ATOM     93  F   UNL A   1      48.061  26.491  32.549  1.00  0.00    -0.206 F 
ATOM     94  C   UNL A   1      50.253  26.494  31.710  1.00  0.00     0.059 A 
ATOM     95  C   UNL A   1      50.676  27.232  29.435  1.00  0.00     0.059 A 
ATOM     96  F   UNL A   1      48.896  27.976  28.104  1.00  0.00    -0.206 F 
ATOM     97  C   UNL A   1      51.135  26.743  30.656  1.00  0.00     0.060 A 
BRANCH  97  98
ATOM     98  S   UNL A   1      52.890  26.391  30.896  1.00  0.00     0.124 S 
ATOM     99  O   UNL A   1      53.333  27.583  31.611  1.00  0.00    -0.237 OA
ATOM    100  O   UNL A   1      52.856  25.158  31.677  1.00  0.00    -0.237 OA
ATOM    101  O   UNL A   1      53.398  26.250  29.535  1.00  0.00    -0.744 OA
ENDBRANCH  97  98
ENDBRANCH  65  90
ENDBRANCH  39  40
ENDBRANCH  31  34
ENDBRANCH  29  30
ENDBRANCH  28  29
ENDBRANCH  27  28
ENDBRANCH   1  27
TORSDOF 20
ENDMDL
MODEL 2
REMARK VINA RESULT:      -9.2      5.878     12.128
REMARK SMILES CCOc1ccc(-c2cnc(N)cc2C(=O)NCCCCCCNC(=O)c2ccc(-c3c4nc(c(-c5c(F)cc(S(=O)(=O)[O-])cc5F)c5ccc([nH]5)c(-c5c(F)cc(S(=O)(=O)[O-])cc5F)c5nc(c(-c6c(F)cc(S(=O)(=O)[O-])cc6F)c6ccc3[nH]6)C=C5)C=C4)cc2)c(Cl)c1
REMARK SMILES IDX 20 1 19 2 18 3 17 4 15 5 16 6 14 8 8 9 9 10 10 11 13 12
REMARK SMILES IDX 11 13 7 14 4 15 5 16 95 17 6 18 93 19 94 20 3 21 2 22 1 23
REMARK SMILES IDX 12 24 21 27 22 28 23 29 24 30 25 31 26 33 27 34 28 35 92 36
REMARK SMILES IDX 29 37 91 38 30 39 31 40 32 41 85 42 33 43 90 44 84 45 86 46
REMARK SMILES IDX 34 47 89 48 83 49 82 50 35 52 69 53 48 54 68 55 49 56 52 57
REMARK SMILES IDX 67 58 87 59 50 60 51 61 66 63 88 64 53 65 36 66 37 67 46 68
REMARK SMILES IDX 38 69 39 70 45 71 47 72 40 73 41 74 42 75 43 76 44 77 70 78
REMARK SMILES IDX 71 79 80 80 72 81 73 82 79 83 81 84 74 85 75 86 76 87 77 88
REMARK SMILES IDX 78 89 54 90 55 91 64 92 56 93 57 94 63 95 65 96 58 97 59 98
REMARK SMILES IDX 60 99 61 100 62 101
REMARK H PARENT 17 7 12 25 12 26 24 32 86 51 52 62
REMARK Flexibility Score: inf
ROOT
ATOM      1  C   UNL A   1      38.598  23.056  26.245  1.00  0.00     0.002 C 
ENDROOT
BRANCH   1   2
ATOM      2  C   UNL A   1      37.186  23.043  25.639  1.00  0.00     0.021 C 
BRANCH   2   3
ATOM      3  C   UNL A   1      36.611  21.633  25.498  1.00  0.00     0.116 C 
BRANCH   3   4
ATOM      4  N   UNL A   1      35.485  21.457  26.389  1.00  0.00    -0.352 N 
ATOM      5  C   UNL A   1      34.219  20.946  26.294  1.00  0.00     0.252 C 
ATOM      6  O   UNL A   1      33.599  20.972  27.359  1.00  0.00    -0.269 OA
ATOM      7  H   UNL A   1      35.680  21.789  27.296  1.00  0.00     0.163 HD
BRANCH   5   8
ATOM      8  C   UNL A   1      33.612  20.318  25.065  1.00  0.00     0.052 A 
ATOM      9  C   UNL A   1      32.982  21.125  24.090  1.00  0.00     0.014 A 
ATOM     10  C   UNL A   1      32.255  20.456  23.099  1.00  0.00     0.123 A 
ATOM     11  N   UNL A   1      32.107  19.119  23.005  1.00  0.00    -0.239 NA
ATOM     12  C   UNL A   1      33.581  18.933  24.869  1.00  0.00     0.061 A 
ATOM     13  C   UNL A   1      32.772  18.377  23.891  1.00  0.00     0.124 A 
BRANCH   9  14
ATOM     14  C   UNL A   1      33.022  22.600  24.027  1.00  0.00     0.003 A 
ATOM     15  C   UNL A   1      33.211  25.408  23.844  1.00  0.00     0.120 A 
ATOM     16  C   UNL A   1      34.137  24.601  23.191  1.00  0.00     0.047 A 
ATOM     17  C   UNL A   1      32.222  24.832  24.636  1.00  0.00     0.067 A 
ATOM     18  C   UNL A   1      34.028  23.214  23.260  1.00  0.00     0.014 A 
ATOM     19  C   UNL A   1      32.136  23.438  24.741  1.00  0.00     0.052 A 
ATOM     20  Cl  UNL A   1      30.939  22.796  25.819  1.00  0.00    -0.084 Cl
BRANCH  15  21
ATOM     21  O   UNL A   1      33.319  26.770  23.837  1.00  0.00    -0.494 OA
BRANCH  21  22
ATOM     22  C   UNL A   1      32.060  27.444  23.965  1.00  0.00     0.226 C 
ATOM     23  C   UNL A   1      31.783  28.356  22.779  1.00  0.00     0.049 C 
ENDBRANCH  21  22
ENDBRANCH  15  21
ENDBRANCH   9  14
BRANCH  13  24
ATOM     24  N   UNL A   1      32.646  17.008  23.773  1.00  0.00    -0.384 N 
ATOM     25  H   UNL A   1      32.233  16.619  22.969  1.00  0.00     0.158 HD
ATOM     26  H   UNL A   1      32.969  16.420  24.495  1.00  0.00     0.158 HD
ENDBRANCH  13  24
ENDBRANCH   5   8
ENDBRANCH   3   4
ENDBRANCH   2   3
ENDBRANCH   1   2
BRANCH   1  27
ATOM     27  C   UNL A   1      39.362  21.728  26.129  1.00  0.00     0.002 C 
BRANCH  27  28
ATOM     28  C   UNL A   1      40.642  21.652  26.965  1.00  0.00     0.021 C 
BRANCH  28  29
ATOM     29  C   UNL A   1      41.181  23.011  27.396  1.00  0.00     0.116 C 
BRANCH  29  30
ATOM     30  N   UNL A   1      41.693  23.760  26.259  1.00  0.00    -0.352 N 
ATOM     31  C   UNL A   1      41.806  25.118  26.101  1.00  0.00     0.251 C 
ATOM     32  H   UNL A   1      42.002  23.217  25.498  1.00  0.00     0.163 HD
ATOM     33  O   UNL A   1      42.014  25.591  24.989  1.00  0.00    -0.269 OA
BRANCH  31  34
ATOM     34  C   UNL A   1      41.667  26.004  27.276  1.00  0.00     0.039 A 
ATOM     35  C   UNL A   1      42.637  26.980  27.510  1.00  0.00     0.014 A 
ATOM     36  C   UNL A   1      40.583  25.860  28.149  1.00  0.00     0.014 A 
ATOM     37  C   UNL A   1      42.494  27.847  28.595  1.00  0.00     0.010 A 
ATOM     38  C   UNL A   1      40.405  26.771  29.185  1.00  0.00     0.010 A 
ATOM     39  C   UNL A   1      41.362  27.767  29.425  1.00  0.00    -0.014 A 
BRANCH  39  40
ATOM     40  C   UNL A   1      41.164  28.720  30.546  1.00  0.00     0.031 A 
ATOM     41  C   UNL A   1      42.014  28.619  31.782  1.00  0.00     0.074 A 
ATOM     42  C   UNL A   1      40.174  29.633  30.475  1.00  0.00     0.049 A 
ATOM     43  N   UNL A   1      41.947  29.314  32.888  1.00  0.00    -0.248 NA
ATOM     44  C   UNL A   1      43.063  27.584  31.788  1.00  0.00     0.031 C 
ATOM     45  C   UNL A   1      39.251  29.791  29.349  1.00  0.00     0.029 A 
ATOM     46  N   UNL A   1      39.772  30.591  31.370  1.00  0.00    -0.354 N 
ATOM     47  C   UNL A   1      42.927  28.794  33.725  1.00  0.00     0.074 A 
ATOM     48  C   UNL A   1      43.544  27.692  33.018  1.00  0.00     0.031 C 
ATOM     49  C   UNL A   1      38.405  30.799  29.612  1.00  0.00     0.029 A 
ATOM     50  C   UNL A   1      38.698  31.333  30.940  1.00  0.00     0.049 A 
ATOM     51  H   UNL A   1      40.212  30.735  32.239  1.00  0.00     0.167 HD
ATOM     52  C   UNL A   1      43.293  29.210  34.959  1.00  0.00     0.037 A 
ATOM     53  C   UNL A   1      38.015  32.323  31.548  1.00  0.00     0.037 A 
ATOM     54  C   UNL A   1      42.692  30.327  35.643  1.00  0.00     0.049 A 
ATOM     55  C   UNL A   1      38.449  32.777  32.914  1.00  0.00     0.074 A 
ATOM     56  C   UNL A   1      43.037  30.871  36.867  1.00  0.00     0.029 A 
ATOM     57  N   UNL A   1      41.623  31.070  35.163  1.00  0.00    -0.354 N 
ATOM     58  N   UNL A   1      39.420  32.314  33.666  1.00  0.00    -0.248 NA
ATOM     59  C   UNL A   1      37.703  33.891  33.513  1.00  0.00     0.031 C 
ATOM     60  C   UNL A   1      42.144  31.908  37.153  1.00  0.00     0.029 A 
ATOM     61  C   UNL A   1      41.281  32.051  36.079  1.00  0.00     0.049 A 
ATOM     62  H   UNL A   1      41.175  30.921  34.299  1.00  0.00     0.167 HD
ATOM     63  C   UNL A   1      39.417  33.096  34.816  1.00  0.00     0.074 A 
ATOM     64  C   UNL A   1      38.356  34.069  34.654  1.00  0.00     0.031 C 
ATOM     65  C   UNL A   1      40.221  33.014  35.904  1.00  0.00     0.037 A 
BRANCH  52  66
ATOM     66  C   UNL A   1      44.398  28.463  35.658  1.00  0.00     0.058 A 
ATOM     67  C   UNL A   1      44.132  27.386  36.518  1.00  0.00     0.135 A 
ATOM     68  C   UNL A   1      45.742  28.791  35.416  1.00  0.00     0.135 A 
ATOM     69  F   UNL A   1      42.865  27.040  36.799  1.00  0.00    -0.206 F 
ATOM     70  C   UNL A   1      45.157  26.672  37.128  1.00  0.00     0.059 A 
ATOM     71  C   UNL A   1      46.785  28.072  35.993  1.00  0.00     0.059 A 
ATOM     72  F   UNL A   1      46.054  29.814  34.606  1.00  0.00    -0.206 F 
ATOM     73  C   UNL A   1      46.482  27.020  36.855  1.00  0.00     0.060 A 
BRANCH  73  74
ATOM     74  S   UNL A   1      47.801  26.062  37.633  1.00  0.00     0.124 S 
ATOM     75  O   UNL A   1      48.870  26.185  36.648  1.00  0.00    -0.237 OA
ATOM     76  O   UNL A   1      48.008  26.779  38.887  1.00  0.00    -0.237 OA
ATOM     77  O   UNL A   1      47.221  24.729  37.764  1.00  0.00    -0.744 OA
ENDBRANCH  73  74
ENDBRANCH  52  66
BRANCH  53  78
ATOM     78  C   UNL A   1      36.866  32.960  30.852  1.00  0.00     0.058 A 
ATOM     79  C   UNL A   1      35.544  32.646  31.203  1.00  0.00     0.135 A 
ATOM     80  C   UNL A   1      37.065  33.922  29.850  1.00  0.00     0.135 A 
ATOM     81  F   UNL A   1      35.302  31.728  32.150  1.00  0.00    -0.206 F 
ATOM     82  C   UNL A   1      34.460  33.257  30.580  1.00  0.00     0.059 A 
ATOM     83  C   UNL A   1      35.999  34.566  29.230  1.00  0.00     0.059 A 
ATOM     84  F   UNL A   1      38.311  34.271  29.490  1.00  0.00    -0.206 F 
ATOM     85  C   UNL A   1      34.699  34.223  29.599  1.00  0.00     0.060 A 
BRANCH  85  86
ATOM     86  S   UNL A   1      33.286  35.060  28.848  1.00  0.00     0.124 S 
ATOM     87  O   UNL A   1      32.735  34.008  28.003  1.00  0.00    -0.237 OA
ATOM     88  O   UNL A   1      32.491  35.426  30.016  1.00  0.00    -0.237 OA
ATOM     89  O   UNL A   1      33.899  36.181  28.141  1.00  0.00    -0.744 OA
ENDBRANCH  85  86
ENDBRANCH  53  78
BRANCH  65  90
ATOM     90  C   UNL A   1      40.011  34.023  37.000  1.00  0.00     0.058 A 
ATOM     91  C   UNL A   1      40.592  35.300  36.950  1.00  0.00     0.135 A 
ATOM     92  C   UNL A   1      39.168  33.728  38.084  1.00  0.00     0.135 A 
ATOM     93  F   UNL A   1      41.411  35.631  35.940  1.00  0.00    -0.206 F 
ATOM     94  C   UNL A   1      40.363  36.241  37.948  1.00  0.00     0.059 A 
ATOM     95  C   UNL A   1      38.901  34.664  39.078  1.00  0.00     0.059 A 
ATOM     96  F   UNL A   1      38.578  32.526  38.175  1.00  0.00    -0.206 F 
ATOM     97  C   UNL A   1      39.512  35.914  39.007  1.00  0.00     0.060 A 
BRANCH  97  98
ATOM     98  S   UNL A   1      39.196  37.158  40.277  1.00  0.00     0.124 S 
ATOM     99  O   UNL A   1      40.551  37.561  40.637  1.00  0.00    -0.237 OA
ATOM    100  O   UNL A   1      38.409  38.151  39.552  1.00  0.00    -0.237 OA
ATOM    101  O   UNL A   1      38.467  36.418  41.303  1.00  0.00    -0.744 OA
ENDBRANCH  97  98
ENDBRANCH  65  90
ENDBRANCH  39  40
ENDBRANCH  31  34
ENDBRANCH  29  30
ENDBRANCH  28  29
ENDBRANCH  27  28
ENDBRANCH   1  27
TORSDOF 20
ENDMDL
MODEL 3
REMARK VINA RESULT:      -9.1      5.859     12.062
REMARK SMILES CCOc1ccc(-c2cnc(N)cc2C(=O)NCCCCCCNC(=O)c2ccc(-c3c4nc(c(-c5c(F)cc(S(=O)(=O)[O-])cc5F)c5ccc([nH]5)c(-c5c(F)cc(S(=O)(=O)[O-])cc5F)c5nc(c(-c6c(F)cc(S(=O)(=O)[O-])cc6F)c6ccc3[nH]6)C=C5)C=C4)cc2)c(Cl)c1
REMARK SMILES IDX 20 1 19 2 18 3 17 4 15 5 16 6 14 8 8 9 9 10 10 11 13 12
REMARK SMILES IDX 11 13 7 14 4 15 5 16 95 17 6 18 93 19 94 20 3 21 2 22 1 23
REMARK SMILES IDX 12 24 21 27 22 28 23 29 24 30 25 31 26 33 27 34 28 35 92 36
REMARK SMILES IDX 29 37 91 38 30 39 31 40 32 41 85 42 33 43 90 44 84 45 86 46
REMARK SMILES IDX 34 47 89 48 83 49 82 50 35 52 69 53 48 54 68 55 49 56 52 57
REMARK SMILES IDX 67 58 87 59 50 60 51 61 66 63 88 64 53 65 36 66 37 67 46 68
REMARK SMILES IDX 38 69 39 70 45 71 47 72 40 73 41 74 42 75 43 76 44 77 70 78
REMARK SMILES IDX 71 79 80 80 72 81 73 82 79 83 81 84 74 85 75 86 76 87 77 88
REMARK SMILES IDX 78 89 54 90 55 91 64 92 56 93 57 94 63 95 65 96 58 97 59 98
REMARK SMILES IDX 60 99 61 100 62 101
REMARK H PARENT 17 7 12 25 12 26 24 32 86 51 52 62
REMARK Flexibility Score: inf
ROOT
ATOM      1  C   UNL A   1      38.711  23.181  26.733  1.00  0.00     0.002 C 
ENDROOT
BRANCH   1   2
ATOM      2  C   UNL A   1      37.652  23.442  25.652  1.00  0.00     0.021 C 
BRANCH   2   3
ATOM      3  C   UNL A   1      37.202  22.168  24.937  1.00  0.00     0.116 C 
BRANCH   3   4
ATOM      4  N   UNL A   1      36.411  22.497  23.770  1.00  0.00    -0.352 N 
ATOM      5  C   UNL A   1      35.155  22.983  23.533  1.00  0.00     0.252 C 
ATOM      6  O   UNL A   1      34.909  23.142  22.335  1.00  0.00    -0.269 OA
ATOM      7  H   UNL A   1      36.903  22.326  22.934  1.00  0.00     0.163 HD
BRANCH   5   8
ATOM      8  C   UNL A   1      34.153  23.389  24.584  1.00  0.00     0.052 A 
ATOM      9  C   UNL A   1      33.123  22.500  24.967  1.00  0.00     0.014 A 
ATOM     10  C   UNL A   1      32.111  23.027  25.778  1.00  0.00     0.123 A 
ATOM     11  N   UNL A   1      32.041  24.301  26.214  1.00  0.00    -0.239 NA
ATOM     12  C   UNL A   1      34.152  24.661  25.167  1.00  0.00     0.061 A 
ATOM     13  C   UNL A   1      33.062  25.099  25.901  1.00  0.00     0.124 A 
BRANCH   9  14
ATOM     14  C   UNL A   1      33.019  21.076  24.589  1.00  0.00     0.003 A 
ATOM     15  C   UNL A   1      32.903  18.328  23.964  1.00  0.00     0.120 A 
ATOM     16  C   UNL A   1      33.554  18.756  25.116  1.00  0.00     0.047 A 
ATOM     17  C   UNL A   1      32.356  19.261  23.087  1.00  0.00     0.067 A 
ATOM     18  C   UNL A   1      33.588  20.111  25.438  1.00  0.00     0.014 A 
ATOM     19  C   UNL A   1      32.428  20.626  23.387  1.00  0.00     0.052 A 
ATOM     20  Cl  UNL A   1      31.809  21.732  22.203  1.00  0.00    -0.084 Cl
BRANCH  15  21
ATOM     21  O   UNL A   1      32.894  17.013  23.595  1.00  0.00    -0.494 OA
BRANCH  21  22
ATOM     22  C   UNL A   1      33.626  16.163  24.489  1.00  0.00     0.226 C 
ATOM     23  C   UNL A   1      32.701  15.352  25.384  1.00  0.00     0.049 C 
ENDBRANCH  21  22
ENDBRANCH  15  21
ENDBRANCH   9  14
BRANCH  13  24
ATOM     24  N   UNL A   1      33.005  26.394  26.375  1.00  0.00    -0.384 N 
ATOM     25  H   UNL A   1      33.737  26.748  26.932  1.00  0.00     0.158 HD
ATOM     26  H   UNL A   1      32.232  26.965  26.159  1.00  0.00     0.158 HD
ENDBRANCH  13  24
ENDBRANCH   5   8
ENDBRANCH   3   4
ENDBRANCH   2   3
ENDBRANCH   1   2
BRANCH   1  27
ATOM     27  C   UNL A   1      39.732  22.087  26.385  1.00  0.00     0.002 C 
BRANCH  27  28
ATOM     28  C   UNL A   1      40.657  21.685  27.537  1.00  0.00     0.021 C 
BRANCH  28  29
ATOM     29  C   UNL A   1      41.703  22.737  27.885  1.00  0.00     0.116 C 
BRANCH  29  30
ATOM     30  N   UNL A   1      42.225  23.379  26.689  1.00  0.00    -0.352 N 
ATOM     31  C   UNL A   1      42.250  24.712  26.365  1.00  0.00     0.251 C 
ATOM     32  H   UNL A   1      42.617  22.773  26.019  1.00  0.00     0.163 HD
ATOM     33  O   UNL A   1      42.487  25.060  25.214  1.00  0.00    -0.269 OA
BRANCH  31  34
ATOM     34  C   UNL A   1      41.978  25.721  27.410  1.00  0.00     0.039 A 
ATOM     35  C   UNL A   1      40.836  25.589  28.203  1.00  0.00     0.014 A 
ATOM     36  C   UNL A   1      42.847  26.802  27.598  1.00  0.00     0.014 A 
ATOM     37  C   UNL A   1      40.592  26.516  29.218  1.00  0.00     0.010 A 
ATOM     38  C   UNL A   1      42.640  27.680  28.656  1.00  0.00     0.010 A 
ATOM     39  C   UNL A   1      41.506  27.552  29.471  1.00  0.00    -0.014 A 
BRANCH  39  40
ATOM     40  C   UNL A   1      41.292  28.510  30.585  1.00  0.00     0.031 A 
ATOM     41  C   UNL A   1      42.127  28.416  31.833  1.00  0.00     0.074 A 
ATOM     42  C   UNL A   1      40.304  29.422  30.496  1.00  0.00     0.049 A 
ATOM     43  N   UNL A   1      42.044  29.116  32.934  1.00  0.00    -0.248 NA
ATOM     44  C   UNL A   1      43.176  27.382  31.858  1.00  0.00     0.031 C 
ATOM     45  C   UNL A   1      39.395  29.574  29.357  1.00  0.00     0.029 A 
ATOM     46  N   UNL A   1      39.889  30.385  31.382  1.00  0.00    -0.354 N 
ATOM     47  C   UNL A   1      43.014  28.600  33.786  1.00  0.00     0.074 A 
ATOM     48  C   UNL A   1      43.641  27.496  33.093  1.00  0.00     0.031 C 
ATOM     49  C   UNL A   1      38.545  30.583  29.604  1.00  0.00     0.029 A 
ATOM     50  C   UNL A   1      38.820  31.123  30.933  1.00  0.00     0.049 A 
ATOM     51  H   UNL A   1      40.317  30.533  32.256  1.00  0.00     0.167 HD
ATOM     52  C   UNL A   1      43.363  29.023  35.023  1.00  0.00     0.037 A 
ATOM     53  C   UNL A   1      38.129  32.116  31.527  1.00  0.00     0.037 A 
ATOM     54  C   UNL A   1      42.752  30.143  35.694  1.00  0.00     0.049 A 
ATOM     55  C   UNL A   1      38.544  32.576  32.898  1.00  0.00     0.074 A 
ATOM     56  C   UNL A   1      43.080  30.693  36.920  1.00  0.00     0.029 A 
ATOM     57  N   UNL A   1      41.689  30.882  35.196  1.00  0.00    -0.354 N 
ATOM     58  N   UNL A   1      39.505  32.118  33.664  1.00  0.00    -0.248 NA
ATOM     59  C   UNL A   1      37.789  33.693  33.481  1.00  0.00     0.031 C 
ATOM     60  C   UNL A   1      42.183  31.730  37.189  1.00  0.00     0.029 A 
ATOM     61  C   UNL A   1      41.334  31.868  36.103  1.00  0.00     0.049 A 
ATOM     62  H   UNL A   1      41.252  30.730  34.327  1.00  0.00     0.167 HD
ATOM     63  C   UNL A   1      39.486  32.905  34.810  1.00  0.00     0.074 A 
ATOM     64  C   UNL A   1      38.427  33.876  34.630  1.00  0.00     0.031 C 
ATOM     65  C   UNL A   1      40.276  32.829  35.910  1.00  0.00     0.037 A 
BRANCH  52  66
ATOM     66  C   UNL A   1      44.459  28.280  35.740  1.00  0.00     0.058 A 
ATOM     67  C   UNL A   1      44.185  27.190  36.580  1.00  0.00     0.135 A 
ATOM     68  C   UNL A   1      45.804  28.627  35.537  1.00  0.00     0.135 A 
ATOM     69  F   UNL A   1      42.915  26.825  36.824  1.00  0.00    -0.206 F 
ATOM     70  C   UNL A   1      45.203  26.480  37.207  1.00  0.00     0.059 A 
ATOM     71  C   UNL A   1      46.841  27.913  36.131  1.00  0.00     0.059 A 
ATOM     72  F   UNL A   1      46.124  29.663  34.747  1.00  0.00    -0.206 F 
ATOM     73  C   UNL A   1      46.529  26.846  36.972  1.00  0.00     0.060 A 
BRANCH  73  74
ATOM     74  S   UNL A   1      47.840  25.894  37.770  1.00  0.00     0.124 S 
ATOM     75  O   UNL A   1      48.843  25.834  36.712  1.00  0.00    -0.237 OA
ATOM     76  O   UNL A   1      48.177  26.731  38.917  1.00  0.00    -0.237 OA
ATOM     77  O   UNL A   1      47.191  24.626  38.091  1.00  0.00    -0.744 OA
ENDBRANCH  73  74
ENDBRANCH  52  66
BRANCH  53  78
ATOM     78  C   UNL A   1      36.988  32.749  30.814  1.00  0.00     0.058 A 
ATOM     79  C   UNL A   1      35.664  32.374  31.090  1.00  0.00     0.135 A 
ATOM     80  C   UNL A   1      37.196  33.766  29.869  1.00  0.00     0.135 A 
ATOM     81  F   UNL A   1      35.415  31.402  31.979  1.00  0.00    -0.206 F 
ATOM     82  C   UNL A   1      34.587  32.980  30.450  1.00  0.00     0.059 A 
ATOM     83  C   UNL A   1      36.135  34.405  29.236  1.00  0.00     0.059 A 
ATOM     84  F   UNL A   1      38.443  34.173  29.582  1.00  0.00    -0.206 F 
ATOM     85  C   UNL A   1      34.834  34.000  29.529  1.00  0.00     0.060 A 
BRANCH  85  86
ATOM     86  S   UNL A   1      33.425  34.828  28.758  1.00  0.00     0.124 S 
ATOM     87  O   UNL A   1      32.992  33.829  27.788  1.00  0.00    -0.237 OA
ATOM     88  O   UNL A   1      32.537  35.043  29.896  1.00  0.00    -0.237 OA
ATOM     89  O   UNL A   1      34.016  36.039  28.196  1.00  0.00    -0.744 OA
ENDBRANCH  85  86
ENDBRANCH  53  78
BRANCH  65  90
ATOM     90  C   UNL A   1      40.051  33.843  36.998  1.00  0.00     0.058 A 
ATOM     91  C   UNL A   1      40.797  35.030  37.068  1.00  0.00     0.135 A 
ATOM     92  C   UNL A   1      39.033  33.652  37.946  1.00  0.00     0.135 A 
ATOM     93  F   UNL A   1      41.786  35.260  36.190  1.00  0.00    -0.206 F 
ATOM     94  C   UNL A   1      40.558  35.981  38.055  1.00  0.00     0.059 A 
ATOM     95  C   UNL A   1      38.756  34.603  38.924  1.00  0.00     0.059 A 
ATOM     96  F   UNL A   1      38.282  32.539  37.917  1.00  0.00    -0.206 F 
ATOM     97  C   UNL A   1      39.532  35.759  38.976  1.00  0.00     0.060 A 
BRANCH  97  98
ATOM     98  S   UNL A   1      39.209  37.017  40.230  1.00  0.00     0.124 S 
ATOM     99  O   UNL A   1      38.514  38.036  39.450  1.00  0.00    -0.237 OA
ATOM    100  O   UNL A   1      38.391  36.291  41.197  1.00  0.00    -0.237 OA
ATOM    101  O   UNL A   1      40.543  37.384  40.696  1.00  0.00    -0.744 OA
ENDBRANCH  97  98
ENDBRANCH  65  90
ENDBRANCH  39  40
ENDBRANCH  31  34
ENDBRANCH  29  30
ENDBRANCH  28  29
ENDBRANCH  27  28
ENDBRANCH   1  27
TORSDOF 20
ENDMDL
