MODEL 1
REMARK VINA RESULT:     -12.8      0.000      0.000
REMARK SMILES Cc1ccc(Nc2c(Cl)cc(Cl)cc2Cl)c(CC(=O)NCCCCCCNC(=O)c2ccc(-c3c4nc(c(-c5c(F)cc(S(=O)(=O)[O-])cc5F)c5ccc([nH]5)c(-c5c(F)cc(S(=O)(=O)[O-])cc5F)c5nc(c(-c6c(F)cc(S(=O)(=O)[O-])cc6F)c6ccc3[nH]6)C=C5)C=C4)cc2)c1
REMARK SMILES IDX 23 1 22 2 21 3 20 4 18 5 19 6 17 8 16 9 1 10 2 11 3 12 96 13
REMARK SMILES IDX 4 14 5 15 6 16 7 18 8 19 14 20 9 21 10 22 13 23 15 24 11 25
REMARK SMILES IDX 12 26 24 27 25 28 26 29 27 30 28 31 29 33 30 34 31 35 95 36
REMARK SMILES IDX 32 37 94 38 33 39 34 40 35 41 88 42 36 43 93 44 87 45 89 46
REMARK SMILES IDX 37 47 92 48 86 49 85 50 38 52 72 53 51 54 71 55 52 56 55 57
REMARK SMILES IDX 70 58 90 59 53 60 54 61 69 63 91 64 56 65 39 66 40 67 49 68
REMARK SMILES IDX 41 69 42 70 48 71 50 72 43 73 44 74 45 75 46 76 47 77 73 78
REMARK SMILES IDX 74 79 83 80 75 81 76 82 82 83 84 84 77 85 78 86 79 87 80 88
REMARK SMILES IDX 81 89 57 90 58 91 67 92 59 93 60 94 66 95 68 96 61 97 62 98
REMARK SMILES IDX 63 99 64 100 65 101
REMARK H PARENT 20 7 6 17 27 32 89 51 55 62
REMARK Flexibility Score: inf
ROOT
ATOM      1  C   UNL A   1      32.305  27.373  25.377  1.00  0.00     0.002 C 
ENDROOT
BRANCH   1   2
ATOM      2  C   UNL A   1      31.008  26.740  24.852  1.00  0.00     0.021 C 
BRANCH   2   3
ATOM      3  C   UNL A   1      31.021  26.362  23.369  1.00  0.00     0.116 C 
BRANCH   3   4
ATOM      4  N   UNL A   1      32.357  26.073  22.886  1.00  0.00    -0.356 N 
ATOM      5  C   UNL A   1      32.995  24.873  22.796  1.00  0.00     0.224 C 
ATOM      6  O   UNL A   1      34.183  24.854  22.461  1.00  0.00    -0.275 OA
ATOM      7  H   UNL A   1      32.875  26.852  22.580  1.00  0.00     0.163 HD
BRANCH   5   8
ATOM      8  C   UNL A   1      32.270  23.578  23.121  1.00  0.00     0.137 C 
BRANCH   8   9
ATOM      9  C   UNL A   1      32.228  23.254  24.599  1.00  0.00    -0.015 A 
ATOM     10  C   UNL A   1      29.475  22.889  27.236  1.00  0.00     0.044 C 
ATOM     11  C   UNL A   1      30.824  22.938  26.583  1.00  0.00    -0.051 A 
ATOM     12  C   UNL A   1      31.975  22.756  27.344  1.00  0.00     0.005 A 
ATOM     13  C   UNL A   1      30.958  23.169  25.212  1.00  0.00     0.009 A 
ATOM     14  C   UNL A   1      33.235  22.797  26.741  1.00  0.00     0.026 A 
ATOM     15  C   UNL A   1      33.394  23.045  25.368  1.00  0.00     0.042 A 
BRANCH  15  16
ATOM     16  N   UNL A   1      34.673  23.020  24.764  1.00  0.00    -0.353 N 
ATOM     17  H   UNL A   1      34.827  23.702  24.070  1.00  0.00     0.167 HD
BRANCH  16  18
ATOM     18  C   UNL A   1      35.761  22.151  25.020  1.00  0.00     0.076 A 
ATOM     19  C   UNL A   1      37.035  22.612  25.409  1.00  0.00     0.067 A 
ATOM     20  C   UNL A   1      35.606  20.764  24.805  1.00  0.00     0.067 A 
ATOM     21  Cl  UNL A   1      37.326  24.271  25.820  1.00  0.00    -0.082 Cl
ATOM     22  C   UNL A   1      38.110  21.728  25.553  1.00  0.00     0.043 A 
ATOM     23  C   UNL A   1      36.676  19.878  24.951  1.00  0.00     0.043 A 
ATOM     24  Cl  UNL A   1      34.075  20.103  24.336  1.00  0.00    -0.082 Cl
ATOM     25  C   UNL A   1      37.924  20.369  25.316  1.00  0.00     0.044 A 
ATOM     26  Cl  UNL A   1      39.248  19.285  25.500  1.00  0.00    -0.084 Cl
ENDBRANCH  16  18
ENDBRANCH  15  16
ENDBRANCH   8   9
ENDBRANCH   5   8
ENDBRANCH   3   4
ENDBRANCH   2   3
ENDBRANCH   1   2
BRANCH   1  27
ATOM     27  C   UNL A   1      32.153  28.635  26.237  1.00  0.00     0.002 C 
BRANCH  27  28
ATOM     28  C   UNL A   1      33.254  29.689  26.101  1.00  0.00     0.021 C 
BRANCH  28  29
ATOM     29  C   UNL A   1      34.423  29.491  27.064  1.00  0.00     0.116 C 
BRANCH  29  30
ATOM     30  N   UNL A   1      35.065  30.748  27.428  1.00  0.00    -0.352 N 
ATOM     31  C   UNL A   1      36.305  30.952  28.010  1.00  0.00     0.251 C 
ATOM     32  H   UNL A   1      34.546  31.561  27.234  1.00  0.00     0.163 HD
ATOM     33  O   UNL A   1      36.663  32.055  28.368  1.00  0.00    -0.269 OA
BRANCH  31  34
ATOM     34  C   UNL A   1      37.216  29.790  28.105  1.00  0.00     0.039 A 
ATOM     35  C   UNL A   1      37.235  29.076  29.307  1.00  0.00     0.014 A 
ATOM     36  C   UNL A   1      38.163  29.550  27.113  1.00  0.00     0.014 A 
ATOM     37  C   UNL A   1      38.315  28.240  29.591  1.00  0.00     0.010 A 
ATOM     38  C   UNL A   1      39.263  28.772  27.422  1.00  0.00     0.010 A 
ATOM     39  C   UNL A   1      39.369  28.161  28.684  1.00  0.00    -0.014 A 
BRANCH  39  40
ATOM     40  C   UNL A   1      40.678  27.594  29.001  1.00  0.00     0.031 A 
ATOM     41  C   UNL A   1      40.998  26.180  28.688  1.00  0.00     0.074 A 
ATOM     42  C   UNL A   1      41.662  28.413  29.436  1.00  0.00     0.049 A 
ATOM     43  N   UNL A   1      42.109  25.603  29.004  1.00  0.00    -0.248 NA
ATOM     44  C   UNL A   1      40.047  25.269  28.050  1.00  0.00     0.031 C 
ATOM     45  C   UNL A   1      43.103  28.184  29.360  1.00  0.00     0.029 A 
ATOM     46  N   UNL A   1      41.535  29.533  30.261  1.00  0.00    -0.354 N 
ATOM     47  C   UNL A   1      42.147  24.389  28.365  1.00  0.00     0.074 A 
ATOM     48  C   UNL A   1      40.799  24.172  27.906  1.00  0.00     0.031 C 
ATOM     49  C   UNL A   1      43.715  28.951  30.272  1.00  0.00     0.029 A 
ATOM     50  C   UNL A   1      42.684  29.572  31.081  1.00  0.00     0.049 A 
ATOM     51  H   UNL A   1      40.785  30.173  30.270  1.00  0.00     0.167 HD
ATOM     52  C   UNL A   1      43.350  23.776  28.184  1.00  0.00     0.037 A 
ATOM     53  C   UNL A   1      42.577  29.434  32.437  1.00  0.00     0.037 A 
ATOM     54  C   UNL A   1      44.360  24.313  29.098  1.00  0.00     0.049 A 
ATOM     55  C   UNL A   1      43.224  28.189  33.008  1.00  0.00     0.074 A 
ATOM     56  C   UNL A   1      45.483  25.111  28.981  1.00  0.00     0.029 A 
ATOM     57  N   UNL A   1      44.126  24.183  30.458  1.00  0.00    -0.354 N 
ATOM     58  N   UNL A   1      43.893  27.310  32.311  1.00  0.00    -0.248 NA
ATOM     59  C   UNL A   1      43.097  27.796  34.415  1.00  0.00     0.031 C 
ATOM     60  C   UNL A   1      45.850  25.546  30.295  1.00  0.00     0.029 A 
ATOM     61  C   UNL A   1      44.972  24.980  31.202  1.00  0.00     0.049 A 
ATOM     62  H   UNL A   1      43.441  23.592  30.847  1.00  0.00     0.167 HD
ATOM     63  C   UNL A   1      44.185  26.235  33.103  1.00  0.00     0.074 A 
ATOM     64  C   UNL A   1      43.705  26.598  34.424  1.00  0.00     0.031 C 
ATOM     65  C   UNL A   1      44.742  25.084  32.633  1.00  0.00     0.037 A 
BRANCH  52  66
ATOM     66  C   UNL A   1      43.651  22.772  27.089  1.00  0.00     0.058 A 
ATOM     67  C   UNL A   1      43.067  21.485  27.117  1.00  0.00     0.135 A 
ATOM     68  C   UNL A   1      44.615  22.954  26.070  1.00  0.00     0.135 A 
ATOM     69  F   UNL A   1      42.155  21.160  28.045  1.00  0.00    -0.206 F 
ATOM     70  C   UNL A   1      43.424  20.467  26.223  1.00  0.00     0.059 A 
ATOM     71  C   UNL A   1      44.946  21.972  25.135  1.00  0.00     0.059 A 
ATOM     72  F   UNL A   1      45.353  24.066  25.971  1.00  0.00    -0.206 F 
ATOM     73  C   UNL A   1      44.370  20.719  25.237  1.00  0.00     0.060 A 
BRANCH  73  74
ATOM     74  S   UNL A   1      44.883  19.401  24.120  1.00  0.00     0.124 S 
ATOM     75  O   UNL A   1      44.092  18.276  24.607  1.00  0.00    -0.237 OA
ATOM     76  O   UNL A   1      44.508  19.929  22.813  1.00  0.00    -0.237 OA
ATOM     77  O   UNL A   1      46.321  19.300  24.357  1.00  0.00    -0.744 OA
ENDBRANCH  73  74
ENDBRANCH  52  66
BRANCH  53  78
ATOM     78  C   UNL A   1      41.368  30.108  32.980  1.00  0.00     0.058 A 
ATOM     79  C   UNL A   1      41.418  31.509  33.118  1.00  0.00     0.135 A 
ATOM     80  C   UNL A   1      40.107  29.501  32.916  1.00  0.00     0.135 A 
ATOM     81  F   UNL A   1      42.605  32.133  33.206  1.00  0.00    -0.206 F 
ATOM     82  C   UNL A   1      40.277  32.291  33.003  1.00  0.00     0.059 A 
ATOM     83  C   UNL A   1      38.945  30.266  32.815  1.00  0.00     0.059 A 
ATOM     84  F   UNL A   1      40.001  28.170  32.791  1.00  0.00    -0.206 F 
ATOM     85  C   UNL A   1      39.056  31.658  32.777  1.00  0.00     0.060 A 
BRANCH  85  86
ATOM     86  S   UNL A   1      37.673  32.679  32.219  1.00  0.00     0.124 S 
ATOM     87  O   UNL A   1      36.642  31.681  31.958  1.00  0.00    -0.237 OA
ATOM     88  O   UNL A   1      37.452  33.528  33.388  1.00  0.00    -0.237 OA
ATOM     89  O   UNL A   1      38.210  33.356  31.044  1.00  0.00    -0.744 OA
ENDBRANCH  85  86
ENDBRANCH  53  78
BRANCH  65  90
ATOM     90  C   UNL A   1      45.073  23.944  33.541  1.00  0.00     0.058 A 
ATOM     91  C   UNL A   1      46.386  23.733  33.989  1.00  0.00     0.135 A 
ATOM     92  C   UNL A   1      44.116  22.973  33.889  1.00  0.00     0.135 A 
ATOM     93  F   UNL A   1      47.357  24.611  33.688  1.00  0.00    -0.206 F 
ATOM     94  C   UNL A   1      46.735  22.618  34.749  1.00  0.00     0.059 A 
ATOM     95  C   UNL A   1      44.447  21.834  34.618  1.00  0.00     0.059 A 
ATOM     96  F   UNL A   1      42.829  23.121  33.541  1.00  0.00    -0.206 F 
ATOM     97  C   UNL A   1      45.760  21.669  35.054  1.00  0.00     0.060 A 
BRANCH  97  98
ATOM     98  S   UNL A   1      46.213  20.191  35.984  1.00  0.00     0.124 S 
ATOM     99  O   UNL A   1      47.654  20.101  35.771  1.00  0.00    -0.237 OA
ATOM    100  O   UNL A   1      45.799  20.559  37.334  1.00  0.00    -0.237 OA
ATOM    101  O   UNL A   1      45.425  19.142  35.344  1.00  0.00    -0.744 OA
ENDBRANCH  97  98
ENDBRANCH  65  90
ENDBRANCH  39  40
ENDBRANCH  31  34
ENDBRANCH  29  30
ENDBRANCH  28  29
ENDBRANCH  27  28
ENDBRANCH   1  27
TORSDOF 19
ENDMDL
MODEL 2
REMARK VINA RESULT:     -12.0      1.862      3.506
REMARK SMILES Cc1ccc(Nc2c(Cl)cc(Cl)cc2Cl)c(CC(=O)NCCCCCCNC(=O)c2ccc(-c3c4nc(c(-c5c(F)cc(S(=O)(=O)[O-])cc5F)c5ccc([nH]5)c(-c5c(F)cc(S(=O)(=O)[O-])cc5F)c5nc(c(-c6c(F)cc(S(=O)(=O)[O-])cc6F)c6ccc3[nH]6)C=C5)C=C4)cc2)c1
REMARK SMILES IDX 23 1 22 2 21 3 20 4 18 5 19 6 17 8 16 9 1 10 2 11 3 12 96 13
REMARK SMILES IDX 4 14 5 15 6 16 7 18 8 19 14 20 9 21 10 22 13 23 15 24 11 25
REMARK SMILES IDX 12 26 24 27 25 28 26 29 27 30 28 31 29 33 30 34 31 35 95 36
REMARK SMILES IDX 32 37 94 38 33 39 34 40 35 41 88 42 36 43 93 44 87 45 89 46
REMARK SMILES IDX 37 47 92 48 86 49 85 50 38 52 72 53 51 54 71 55 52 56 55 57
REMARK SMILES IDX 70 58 90 59 53 60 54 61 69 63 91 64 56 65 39 66 40 67 49 68
REMARK SMILES IDX 41 69 42 70 48 71 50 72 43 73 44 74 45 75 46 76 47 77 73 78
REMARK SMILES IDX 74 79 83 80 75 81 76 82 82 83 84 84 77 85 78 86 79 87 80 88
REMARK SMILES IDX 81 89 57 90 58 91 67 92 59 93 60 94 66 95 68 96 61 97 62 98
REMARK SMILES IDX 63 99 64 100 65 101
REMARK H PARENT 20 7 6 17 27 32 89 51 55 62
REMARK Flexibility Score: inf
ROOT
ATOM      1  C   UNL A   1      33.685  27.095  26.055  1.00  0.00     0.002 C 
ENDROOT
BRANCH   1   2
ATOM      2  C   UNL A   1      32.489  26.796  26.970  1.00  0.00     0.021 C 
BRANCH   2   3
ATOM      3  C   UNL A   1      31.284  26.155  26.279  1.00  0.00     0.116 C 
BRANCH   3   4
ATOM      4  N   UNL A   1      30.933  24.874  26.860  1.00  0.00    -0.356 N 
ATOM      5  C   UNL A   1      30.646  23.699  26.234  1.00  0.00     0.224 C 
ATOM      6  O   UNL A   1      30.257  22.743  26.911  1.00  0.00    -0.275 OA
ATOM      7  H   UNL A   1      30.897  24.849  27.844  1.00  0.00     0.163 HD
BRANCH   5   8
ATOM      8  C   UNL A   1      30.781  23.564  24.727  1.00  0.00     0.137 C 
BRANCH   8   9
ATOM      9  C   UNL A   1      32.203  23.702  24.225  1.00  0.00    -0.015 A 
ATOM     10  C   UNL A   1      35.586  22.167  25.153  1.00  0.00     0.044 C 
ATOM     11  C   UNL A   1      34.537  22.998  24.478  1.00  0.00    -0.051 A 
ATOM     12  C   UNL A   1      34.895  23.900  23.479  1.00  0.00     0.005 A 
ATOM     13  C   UNL A   1      33.190  22.894  24.831  1.00  0.00     0.009 A 
ATOM     14  C   UNL A   1      33.923  24.675  22.844  1.00  0.00     0.026 A 
ATOM     15  C   UNL A   1      32.565  24.598  23.196  1.00  0.00     0.042 A 
BRANCH  15  16
ATOM     16  N   UNL A   1      31.586  25.345  22.499  1.00  0.00    -0.353 N 
ATOM     17  H   UNL A   1      31.143  24.874  21.757  1.00  0.00     0.167 HD
BRANCH  16  18
ATOM     18  C   UNL A   1      31.156  26.676  22.722  1.00  0.00     0.076 A 
ATOM     19  C   UNL A   1      31.990  27.794  22.523  1.00  0.00     0.067 A 
ATOM     20  C   UNL A   1      29.864  26.909  23.242  1.00  0.00     0.067 A 
ATOM     21  Cl  UNL A   1      33.550  27.656  21.780  1.00  0.00    -0.082 Cl
ATOM     22  C   UNL A   1      31.560  29.084  22.852  1.00  0.00     0.043 A 
ATOM     23  C   UNL A   1      29.430  28.196  23.569  1.00  0.00     0.043 A 
ATOM     24  Cl  UNL A   1      28.764  25.599  23.510  1.00  0.00    -0.082 Cl
ATOM     25  C   UNL A   1      30.286  29.275  23.379  1.00  0.00     0.044 A 
ATOM     26  Cl  UNL A   1      29.759  30.863  23.777  1.00  0.00    -0.084 Cl
ENDBRANCH  16  18
ENDBRANCH  15  16
ENDBRANCH   8   9
ENDBRANCH   5   8
ENDBRANCH   3   4
ENDBRANCH   2   3
ENDBRANCH   1   2
BRANCH   1  27
ATOM     27  C   UNL A   1      33.669  28.443  25.323  1.00  0.00     0.002 C 
BRANCH  27  28
ATOM     28  C   UNL A   1      33.661  29.696  26.201  1.00  0.00     0.021 C 
BRANCH  28  29
ATOM     29  C   UNL A   1      34.592  29.611  27.409  1.00  0.00     0.116 C 
BRANCH  29  30
ATOM     30  N   UNL A   1      35.270  30.873  27.680  1.00  0.00    -0.352 N 
ATOM     31  C   UNL A   1      36.552  31.084  28.161  1.00  0.00     0.251 C 
ATOM     32  H   UNL A   1      34.745  31.684  27.496  1.00  0.00     0.163 HD
ATOM     33  O   UNL A   1      36.944  32.194  28.453  1.00  0.00    -0.269 OA
BRANCH  31  34
ATOM     34  C   UNL A   1      37.458  29.916  28.231  1.00  0.00     0.039 A 
ATOM     35  C   UNL A   1      37.445  29.152  29.402  1.00  0.00     0.014 A 
ATOM     36  C   UNL A   1      38.429  29.714  27.254  1.00  0.00     0.014 A 
ATOM     37  C   UNL A   1      38.516  28.301  29.677  1.00  0.00     0.010 A 
ATOM     38  C   UNL A   1      39.519  28.920  27.557  1.00  0.00     0.010 A 
ATOM     39  C   UNL A   1      39.592  28.257  28.794  1.00  0.00    -0.014 A 
BRANCH  39  40
ATOM     40  C   UNL A   1      40.891  27.673  29.120  1.00  0.00     0.031 A 
ATOM     41  C   UNL A   1      41.202  26.260  28.791  1.00  0.00     0.074 A 
ATOM     42  C   UNL A   1      41.877  28.477  29.578  1.00  0.00     0.049 A 
ATOM     43  N   UNL A   1      42.303  25.668  29.112  1.00  0.00    -0.248 NA
ATOM     44  C   UNL A   1      40.251  25.368  28.128  1.00  0.00     0.031 C 
ATOM     45  C   UNL A   1      43.317  28.235  29.517  1.00  0.00     0.029 A 
ATOM     46  N   UNL A   1      41.750  29.586  30.417  1.00  0.00    -0.354 N 
ATOM     47  C   UNL A   1      42.338  24.463  28.457  1.00  0.00     0.074 A 
ATOM     48  C   UNL A   1      40.994  24.266  27.978  1.00  0.00     0.031 C 
ATOM     49  C   UNL A   1      43.925  28.983  30.447  1.00  0.00     0.029 A 
ATOM     50  C   UNL A   1      42.889  29.603  31.252  1.00  0.00     0.049 A 
ATOM     51  H   UNL A   1      41.007  30.233  30.426  1.00  0.00     0.167 HD
ATOM     52  C   UNL A   1      43.537  23.842  28.283  1.00  0.00     0.037 A 
ATOM     53  C   UNL A   1      42.764  29.446  32.605  1.00  0.00     0.037 A 
ATOM     54  C   UNL A   1      44.540  24.356  29.216  1.00  0.00     0.049 A 
ATOM     55  C   UNL A   1      43.392  28.187  33.166  1.00  0.00     0.074 A 
ATOM     56  C   UNL A   1      45.673  25.144  29.124  1.00  0.00     0.029 A 
ATOM     57  N   UNL A   1      44.288  24.209  30.572  1.00  0.00    -0.354 N 
ATOM     58  N   UNL A   1      44.061  27.312  32.465  1.00  0.00    -0.248 NA
ATOM     59  C   UNL A   1      43.244  27.776  34.566  1.00  0.00     0.031 C 
ATOM     60  C   UNL A   1      46.027  25.558  30.449  1.00  0.00     0.029 A 
ATOM     61  C   UNL A   1      45.132  24.988  31.337  1.00  0.00     0.049 A 
ATOM     62  H   UNL A   1      43.593  23.619  30.943  1.00  0.00     0.167 HD
ATOM     63  C   UNL A   1      44.333  26.223  33.246  1.00  0.00     0.074 A 
ATOM     64  C   UNL A   1      43.839  26.572  34.565  1.00  0.00     0.031 C 
ATOM     65  C   UNL A   1      44.885  25.074  32.766  1.00  0.00     0.037 A 
BRANCH  52  66
ATOM     66  C   UNL A   1      43.843  22.850  27.177  1.00  0.00     0.058 A 
ATOM     67  C   UNL A   1      43.084  21.665  27.048  1.00  0.00     0.135 A 
ATOM     68  C   UNL A   1      44.956  22.928  26.308  1.00  0.00     0.135 A 
ATOM     69  F   UNL A   1      42.014  21.441  27.826  1.00  0.00    -0.206 F 
ATOM     70  C   UNL A   1      43.413  20.642  26.149  1.00  0.00     0.059 A 
ATOM     71  C   UNL A   1      45.271  21.948  25.367  1.00  0.00     0.059 A 
ATOM     72  F   UNL A   1      45.850  23.920  26.375  1.00  0.00    -0.206 F 
ATOM     73  C   UNL A   1      44.514  20.791  25.314  1.00  0.00     0.060 A 
BRANCH  73  74
ATOM     74  S   UNL A   1      44.986  19.459  24.195  1.00  0.00     0.124 S 
ATOM     75  O   UNL A   1      44.473  19.948  22.920  1.00  0.00    -0.237 OA
ATOM     76  O   UNL A   1      46.437  19.428  24.332  1.00  0.00    -0.237 OA
ATOM     77  O   UNL A   1      44.288  18.297  24.742  1.00  0.00    -0.744 OA
ENDBRANCH  73  74
ENDBRANCH  52  66
BRANCH  53  78
ATOM     78  C   UNL A   1      41.555  30.125  33.142  1.00  0.00     0.058 A 
ATOM     79  C   UNL A   1      41.615  31.523  33.295  1.00  0.00     0.135 A 
ATOM     80  C   UNL A   1      40.289  29.528  33.058  1.00  0.00     0.135 A 
ATOM     81  F   UNL A   1      42.805  32.137  33.403  1.00  0.00    -0.206 F 
ATOM     82  C   UNL A   1      40.481  32.316  33.176  1.00  0.00     0.059 A 
ATOM     83  C   UNL A   1      39.135  30.304  32.953  1.00  0.00     0.059 A 
ATOM     84  F   UNL A   1      40.174  28.200  32.918  1.00  0.00    -0.206 F 
ATOM     85  C   UNL A   1      39.257  31.695  32.931  1.00  0.00     0.060 A 
BRANCH  85  86
ATOM     86  S   UNL A   1      37.888  32.733  32.369  1.00  0.00     0.124 S 
ATOM     87  O   UNL A   1      38.558  33.654  31.457  1.00  0.00    -0.237 OA
ATOM     88  O   UNL A   1      37.014  31.743  31.744  1.00  0.00    -0.237 OA
ATOM     89  O   UNL A   1      37.387  33.323  33.606  1.00  0.00    -0.744 OA
ENDBRANCH  85  86
ENDBRANCH  53  78
BRANCH  65  90
ATOM     90  C   UNL A   1      45.194  23.918  33.662  1.00  0.00     0.058 A 
ATOM     91  C   UNL A   1      46.486  23.725  34.176  1.00  0.00     0.135 A 
ATOM     92  C   UNL A   1      44.243  22.917  33.934  1.00  0.00     0.135 A 
ATOM     93  F   UNL A   1      47.451  24.631  33.949  1.00  0.00    -0.206 F 
ATOM     94  C   UNL A   1      46.820  22.598  34.925  1.00  0.00     0.059 A 
ATOM     95  C   UNL A   1      44.561  21.767  34.651  1.00  0.00     0.059 A 
ATOM     96  F   UNL A   1      42.973  23.046  33.521  1.00  0.00    -0.206 F 
ATOM     97  C   UNL A   1      45.852  21.620  35.153  1.00  0.00     0.060 A 
BRANCH  97  98
ATOM     98  S   UNL A   1      46.290  20.129  36.069  1.00  0.00     0.124 S 
ATOM     99  O   UNL A   1      45.562  19.083  35.357  1.00  0.00    -0.237 OA
ATOM    100  O   UNL A   1      47.740  20.105  35.909  1.00  0.00    -0.237 OA
ATOM    101  O   UNL A   1      45.806  20.413  37.416  1.00  0.00    -0.744 OA
ENDBRANCH  97  98
ENDBRANCH  65  90
ENDBRANCH  39  40
ENDBRANCH  31  34
ENDBRANCH  29  30
ENDBRANCH  28  29
ENDBRANCH  27  28
ENDBRANCH   1  27
TORSDOF 19
ENDMDL
MODEL 3
REMARK VINA RESULT:     -11.9      5.004     11.399
REMARK SMILES Cc1ccc(Nc2c(Cl)cc(Cl)cc2Cl)c(CC(=O)NCCCCCCNC(=O)c2ccc(-c3c4nc(c(-c5c(F)cc(S(=O)(=O)[O-])cc5F)c5ccc([nH]5)c(-c5c(F)cc(S(=O)(=O)[O-])cc5F)c5nc(c(-c6c(F)cc(S(=O)(=O)[O-])cc6F)c6ccc3[nH]6)C=C5)C=C4)cc2)c1
REMARK SMILES IDX 23 1 22 2 21 3 20 4 18 5 19 6 17 8 16 9 1 10 2 11 3 12 96 13
REMARK SMILES IDX 4 14 5 15 6 16 7 18 8 19 14 20 9 21 10 22 13 23 15 24 11 25
REMARK SMILES IDX 12 26 24 27 25 28 26 29 27 30 28 31 29 33 30 34 31 35 95 36
REMARK SMILES IDX 32 37 94 38 33 39 34 40 35 41 88 42 36 43 93 44 87 45 89 46
REMARK SMILES IDX 37 47 92 48 86 49 85 50 38 52 72 53 51 54 71 55 52 56 55 57
REMARK SMILES IDX 70 58 90 59 53 60 54 61 69 63 91 64 56 65 39 66 40 67 49 68
REMARK SMILES IDX 41 69 42 70 48 71 50 72 43 73 44 74 45 75 46 76 47 77 73 78
REMARK SMILES IDX 74 79 83 80 75 81 76 82 82 83 84 84 77 85 78 86 79 87 80 88
REMARK SMILES IDX 81 89 57 90 58 91 67 92 59 93 60 94 66 95 68 96 61 97 62 98
REMARK SMILES IDX 63 99 64 100 65 101
REMARK H PARENT 20 7 6 17 27 32 89 51 55 62
REMARK Flexibility Score: inf
ROOT
ATOM      1  C   UNL A   1      34.754  21.754  25.422  1.00  0.00     0.002 C 
ENDROOT
BRANCH   1   2
ATOM      2  C   UNL A   1      34.309  22.036  23.980  1.00  0.00     0.021 C 
BRANCH   2   3
ATOM      3  C   UNL A   1      35.100  23.127  23.255  1.00  0.00     0.116 C 
BRANCH   3   4
ATOM      4  N   UNL A   1      34.262  23.928  22.384  1.00  0.00    -0.356 N 
ATOM      5  C   UNL A   1      33.558  25.057  22.673  1.00  0.00     0.224 C 
ATOM      6  O   UNL A   1      32.809  25.528  21.812  1.00  0.00    -0.275 OA
ATOM      7  H   UNL A   1      34.193  23.612  21.454  1.00  0.00     0.163 HD
BRANCH   5   8
ATOM      8  C   UNL A   1      33.671  25.719  24.035  1.00  0.00     0.137 C 
BRANCH   8   9
ATOM      9  C   UNL A   1      32.414  25.614  24.873  1.00  0.00    -0.015 A 
ATOM     10  C   UNL A   1      30.482  22.765  26.550  1.00  0.00     0.044 C 
ATOM     11  C   UNL A   1      30.880  24.131  26.079  1.00  0.00    -0.051 A 
ATOM     12  C   UNL A   1      30.071  25.229  26.359  1.00  0.00     0.005 A 
ATOM     13  C   UNL A   1      32.055  24.335  25.352  1.00  0.00     0.009 A 
ATOM     14  C   UNL A   1      30.437  26.506  25.925  1.00  0.00     0.026 A 
ATOM     15  C   UNL A   1      31.605  26.731  25.178  1.00  0.00     0.042 A 
BRANCH  15  16
ATOM     16  N   UNL A   1      31.992  28.038  24.802  1.00  0.00    -0.353 N 
ATOM     17  H   UNL A   1      32.962  28.209  24.801  1.00  0.00     0.167 HD
BRANCH  16  18
ATOM     18  C   UNL A   1      31.177  29.134  24.427  1.00  0.00     0.076 A 
ATOM     19  C   UNL A   1      31.094  30.321  25.182  1.00  0.00     0.067 A 
ATOM     20  C   UNL A   1      30.344  29.022  23.292  1.00  0.00     0.067 A 
ATOM     21  Cl  UNL A   1      32.147  30.632  26.524  1.00  0.00    -0.082 Cl
ATOM     22  C   UNL A   1      30.200  31.339  24.832  1.00  0.00     0.043 A 
ATOM     23  C   UNL A   1      29.453  30.038  22.938  1.00  0.00     0.043 A 
ATOM     24  Cl  UNL A   1      30.384  27.606  22.296  1.00  0.00    -0.082 Cl
ATOM     25  C   UNL A   1      29.382  31.187  23.717  1.00  0.00     0.044 A 
ATOM     26  Cl  UNL A   1      28.288  32.444  23.287  1.00  0.00    -0.084 Cl
ENDBRANCH  16  18
ENDBRANCH  15  16
ENDBRANCH   8   9
ENDBRANCH   5   8
ENDBRANCH   3   4
ENDBRANCH   2   3
ENDBRANCH   1   2
BRANCH   1  27
ATOM     27  C   UNL A   1      36.237  21.420  25.629  1.00  0.00     0.002 C 
BRANCH  27  28
ATOM     28  C   UNL A   1      37.243  22.494  25.207  1.00  0.00     0.021 C 
BRANCH  28  29
ATOM     29  C   UNL A   1      37.666  23.425  26.341  1.00  0.00     0.116 C 
BRANCH  29  30
ATOM     30  N   UNL A   1      38.943  23.042  26.930  1.00  0.00    -0.352 N 
ATOM     31  C   UNL A   1      39.893  23.844  27.541  1.00  0.00     0.251 C 
ATOM     32  H   UNL A   1      39.159  22.083  26.888  1.00  0.00     0.163 HD
ATOM     33  O   UNL A   1      40.970  23.402  27.882  1.00  0.00    -0.269 OA
BRANCH  31  34
ATOM     34  C   UNL A   1      39.518  25.244  27.839  1.00  0.00     0.039 A 
ATOM     35  C   UNL A   1      39.945  26.235  26.949  1.00  0.00     0.014 A 
ATOM     36  C   UNL A   1      38.943  25.577  29.062  1.00  0.00     0.014 A 
ATOM     37  C   UNL A   1      39.960  27.567  27.363  1.00  0.00     0.010 A 
ATOM     38  C   UNL A   1      39.017  26.889  29.494  1.00  0.00     0.010 A 
ATOM     39  C   UNL A   1      39.579  27.877  28.667  1.00  0.00    -0.014 A 
BRANCH  39  40
ATOM     40  C   UNL A   1      39.855  29.158  29.314  1.00  0.00     0.031 A 
ATOM     41  C   UNL A   1      38.906  30.292  29.207  1.00  0.00     0.074 A 
ATOM     42  C   UNL A   1      40.909  29.255  30.156  1.00  0.00     0.049 A 
ATOM     43  N   UNL A   1      39.124  31.467  29.698  1.00  0.00    -0.248 NA
ATOM     44  C   UNL A   1      37.649  30.213  28.463  1.00  0.00     0.031 C 
ATOM     45  C   UNL A   1      41.096  30.227  31.231  1.00  0.00     0.029 A 
ATOM     46  N   UNL A   1      42.150  28.623  30.044  1.00  0.00    -0.354 N 
ATOM     47  C   UNL A   1      37.955  32.180  29.612  1.00  0.00     0.074 A 
ATOM     48  C   UNL A   1      37.121  31.415  28.720  1.00  0.00     0.031 C 
ATOM     49  C   UNL A   1      42.401  30.312  31.520  1.00  0.00     0.029 A 
ATOM     50  C   UNL A   1      43.118  29.529  30.531  1.00  0.00     0.049 A 
ATOM     51  H   UNL A   1      42.317  27.719  29.690  1.00  0.00     0.167 HD
ATOM     52  C   UNL A   1      37.784  33.266  30.416  1.00  0.00     0.037 A 
ATOM     53  C   UNL A   1      44.085  30.028  29.703  1.00  0.00     0.037 A 
ATOM     54  C   UNL A   1      39.066  33.751  30.929  1.00  0.00     0.049 A 
ATOM     55  C   UNL A   1      44.013  31.521  29.459  1.00  0.00     0.074 A 
ATOM     56  C   UNL A   1      39.709  33.759  32.153  1.00  0.00     0.029 A 
ATOM     57  N   UNL A   1      40.008  34.173  30.003  1.00  0.00    -0.354 N 
ATOM     58  N   UNL A   1      43.148  32.326  30.015  1.00  0.00    -0.248 NA
ATOM     59  C   UNL A   1      44.873  32.215  28.496  1.00  0.00     0.031 C 
ATOM     60  C   UNL A   1      41.084  34.086  31.924  1.00  0.00     0.029 A 
ATOM     61  C   UNL A   1      41.258  34.311  30.570  1.00  0.00     0.049 A 
ATOM     62  H   UNL A   1      39.809  34.353  29.056  1.00  0.00     0.167 HD
ATOM     63  C   UNL A   1      43.253  33.564  29.443  1.00  0.00     0.074 A 
ATOM     64  C   UNL A   1      44.373  33.461  28.526  1.00  0.00     0.031 C 
ATOM     65  C   UNL A   1      42.387  34.584  29.697  1.00  0.00     0.037 A 
BRANCH  52  66
ATOM     66  C   UNL A   1      36.440  33.821  30.844  1.00  0.00     0.058 A 
ATOM     67  C   UNL A   1      35.554  34.369  29.889  1.00  0.00     0.135 A 
ATOM     68  C   UNL A   1      36.024  33.980  32.186  1.00  0.00     0.135 A 
ATOM     69  F   UNL A   1      35.832  34.315  28.578  1.00  0.00    -0.206 F 
ATOM     70  C   UNL A   1      34.370  35.032  30.239  1.00  0.00     0.059 A 
ATOM     71  C   UNL A   1      34.823  34.588  32.555  1.00  0.00     0.059 A 
ATOM     72  F   UNL A   1      36.793  33.630  33.223  1.00  0.00    -0.206 F 
ATOM     73  C   UNL A   1      34.015  35.141  31.578  1.00  0.00     0.060 A 
BRANCH  73  74
ATOM     74  S   UNL A   1      32.528  36.044  32.047  1.00  0.00     0.124 S 
ATOM     75  O   UNL A   1      32.132  36.644  30.777  1.00  0.00    -0.237 OA
ATOM     76  O   UNL A   1      31.660  34.987  32.553  1.00  0.00    -0.237 OA
ATOM     77  O   UNL A   1      33.009  36.985  33.056  1.00  0.00    -0.744 OA
ENDBRANCH  73  74
ENDBRANCH  52  66
BRANCH  53  78
ATOM     78  C   UNL A   1      44.574  29.014  28.731  1.00  0.00     0.058 A 
ATOM     79  C   UNL A   1      43.941  28.968  27.474  1.00  0.00     0.135 A 
ATOM     80  C   UNL A   1      45.859  28.465  28.839  1.00  0.00     0.135 A 
ATOM     81  F   UNL A   1      42.700  29.461  27.327  1.00  0.00    -0.206 F 
ATOM     82  C   UNL A   1      44.624  28.572  26.332  1.00  0.00     0.059 A 
ATOM     83  C   UNL A   1      46.559  28.047  27.707  1.00  0.00     0.059 A 
ATOM     84  F   UNL A   1      46.504  28.476  30.014  1.00  0.00    -0.206 F 
ATOM     85  C   UNL A   1      45.958  28.185  26.454  1.00  0.00     0.060 A 
BRANCH  85  86
ATOM     86  S   UNL A   1      46.942  28.078  24.941  1.00  0.00     0.124 S 
ATOM     87  O   UNL A   1      46.565  29.304  24.246  1.00  0.00    -0.237 OA
ATOM     88  O   UNL A   1      48.299  28.048  25.483  1.00  0.00    -0.237 OA
ATOM     89  O   UNL A   1      46.481  26.837  24.330  1.00  0.00    -0.744 OA
ENDBRANCH  85  86
ENDBRANCH  53  78
BRANCH  65  90
ATOM     90  C   UNL A   1      42.558  35.931  29.073  1.00  0.00     0.058 A 
ATOM     91  C   UNL A   1      42.032  36.214  27.803  1.00  0.00     0.135 A 
ATOM     92  C   UNL A   1      43.346  36.931  29.675  1.00  0.00     0.135 A 
ATOM     93  F   UNL A   1      41.279  35.306  27.161  1.00  0.00    -0.206 F 
ATOM     94  C   UNL A   1      42.270  37.428  27.160  1.00  0.00     0.059 A 
ATOM     95  C   UNL A   1      43.626  38.137  29.038  1.00  0.00     0.059 A 
ATOM     96  F   UNL A   1      43.848  36.761  30.907  1.00  0.00    -0.206 F 
ATOM     97  C   UNL A   1      43.074  38.382  27.783  1.00  0.00     0.060 A 
BRANCH  97  98
ATOM     98  S   UNL A   1      43.440  39.931  26.934  1.00  0.00     0.124 S 
ATOM     99  O   UNL A   1      42.227  40.173  26.159  1.00  0.00    -0.237 OA
ATOM    100  O   UNL A   1      43.658  40.835  28.059  1.00  0.00    -0.237 OA
ATOM    101  O   UNL A   1      44.624  39.606  26.146  1.00  0.00    -0.744 OA
ENDBRANCH  97  98
ENDBRANCH  65  90
ENDBRANCH  39  40
ENDBRANCH  31  34
ENDBRANCH  29  30
ENDBRANCH  28  29
ENDBRANCH  27  28
ENDBRANCH   1  27
TORSDOF 19
ENDMDL
