MODEL 1
REMARK VINA RESULT:     -12.5      0.000      0.000
REMARK SMILES O=C(NCCCCCCNC(=O)c1ccc(-c2c3nc(c(-c4c(F)cc(S(=O)(=O)[O-])cc4F)c4ccc([nH]4)c(-c4c(F)cc(S(=O)(=O)[O-])cc4F)c4nc(c(-c5c(F)cc(S(=O)(=O)[O-])cc5F)c5ccc2[nH]5)C=C4)C=C3)cc1)C1=Cc2cc(S(F)(F)(F)(F)F)cc(Br)c2O[C@@H]1C(F)(F)F
REMARK SMILES IDX 7 1 6 2 5 3 4 4 3 5 1 6 2 7 79 9 80 10 95 11 81 12 94 13
REMARK SMILES IDX 82 14 93 15 83 16 91 17 90 18 92 19 96 20 97 21 98 22 99 23
REMARK SMILES IDX 84 24 85 25 86 26 87 27 88 28 89 29 8 30 9 31 10 32 11 33
REMARK SMILES IDX 12 35 13 36 14 37 78 38 15 39 77 40 16 41 17 42 18 43 71 44
REMARK SMILES IDX 19 45 76 46 70 47 72 48 20 49 75 50 69 51 68 52 21 54 55 55
REMARK SMILES IDX 34 56 54 57 35 58 38 59 53 60 73 61 36 62 37 63 52 65 74 66
REMARK SMILES IDX 39 67 22 68 23 69 32 70 24 71 25 72 31 73 33 74 26 75 27 76
REMARK SMILES IDX 28 77 29 78 30 79 56 80 57 81 66 82 58 83 59 84 65 85 67 86
REMARK SMILES IDX 60 87 61 88 62 89 63 90 64 91 40 92 41 93 50 94 42 95 43 96
REMARK SMILES IDX 49 97 51 98 44 99 45 100 46 101 47 102 48 103
REMARK H PARENT 3 8 10 34 72 53 38 64
REMARK Flexibility Score: inf
ROOT
ATOM      1  C   UNL A   1      34.251  31.900  28.340  1.00  0.00     0.002 C 
ENDROOT
BRANCH   1   2
ATOM      2  C   UNL A   1      33.962  30.937  27.202  1.00  0.00     0.002 C 
BRANCH   2   3
ATOM      3  C   UNL A   1      34.756  29.657  27.407  1.00  0.00     0.021 C 
BRANCH   3   4
ATOM      4  C   UNL A   1      34.162  28.550  26.549  1.00  0.00     0.116 C 
BRANCH   4   5
ATOM      5  N   UNL A   1      32.985  27.985  27.224  1.00  0.00    -0.352 N 
ATOM      6  O   UNL A   1      30.764  27.166  27.030  1.00  0.00    -0.270 OA
ATOM      7  C   UNL A   1      31.782  27.654  26.447  1.00  0.00     0.251 C 
ATOM      8  H   UNL A   1      33.002  27.831  28.196  1.00  0.00     0.163 HD
BRANCH   7   9
ATOM      9  C   UNL A   1      31.755  27.893  24.947  1.00  0.00     0.067 C 
ATOM     10  C   UNL A   1      32.338  26.997  24.105  1.00  0.00     0.025 C 
ATOM     11  C   UNL A   1      31.078  29.132  24.386  1.00  0.00     0.314 C 
ATOM     12  C   UNL A   1      33.016  25.758  24.665  1.00  0.00     0.020 A 
ATOM     13  O   UNL A   1      31.212  25.552  26.198  1.00  0.00    -0.474 OA
ATOM     14  C   UNL A   1      34.259  25.383  24.180  1.00  0.00     0.036 A 
ATOM     15  C   UNL A   1      32.405  25.054  25.611  1.00  0.00     0.142 A 
ATOM     16  C   UNL A   1      34.651  24.077  24.557  1.00  0.00     0.109 A 
ATOM     17  C   UNL A   1      32.917  23.849  26.028  1.00  0.00     0.062 A 
ATOM     18  C   UNL A   1      34.112  23.388  25.547  1.00  0.00     0.044 A 
ATOM     19  Br  UNL A   1      31.921  22.774  27.329  1.00  0.00    -0.047 Br
BRANCH  11  20
ATOM     20  C   UNL A   1      29.950  28.717  23.454  1.00  0.00     0.429 C 
ATOM     21  F   UNL A   1      29.082  29.718  23.336  1.00  0.00    -0.167 F 
ATOM     22  F   UNL A   1      30.450  28.420  22.258  1.00  0.00    -0.167 F 
ATOM     23  F   UNL A   1      29.333  27.651  23.954  1.00  0.00    -0.167 F 
ENDBRANCH  11  20
BRANCH  16  24
ATOM     24  S   UNL A   1      35.984  23.294  23.616  1.00  0.00     0.310 S 
ATOM     25  F   UNL A   1      35.655  21.865  24.218  1.00  0.00    -0.094 F 
ATOM     26  F   UNL A   1      36.944  23.515  24.845  1.00  0.00    -0.094 F 
ATOM     27  F   UNL A   1      37.130  22.623  22.807  1.00  0.00    -0.094 F 
ATOM     28  F   UNL A   1      34.974  22.957  22.450  1.00  0.00    -0.094 F 
ATOM     29  F   UNL A   1      34.785  23.872  24.467  1.00  0.00    -0.094 F 
ENDBRANCH  16  24
ENDBRANCH   7   9
ENDBRANCH   4   5
ENDBRANCH   3   4
ENDBRANCH   2   3
ENDBRANCH   1   2
BRANCH   1  30
ATOM     30  C   UNL A   1      35.495  32.711  28.015  1.00  0.00     0.021 C 
BRANCH  30  31
ATOM     31  C   UNL A   1      36.487  32.599  29.161  1.00  0.00     0.116 C 
BRANCH  31  32
ATOM     32  N   UNL A   1      35.895  31.802  30.246  1.00  0.00    -0.352 N 
ATOM     33  C   UNL A   1      36.640  30.670  30.817  1.00  0.00     0.251 C 
ATOM     34  H   UNL A   1      35.000  32.026  30.589  1.00  0.00     0.163 HD
ATOM     35  O   UNL A   1      36.128  29.982  31.755  1.00  0.00    -0.269 OA
BRANCH  33  36
ATOM     36  C   UNL A   1      38.021  30.325  30.287  1.00  0.00     0.039 A 
ATOM     37  C   UNL A   1      38.214  30.208  28.921  1.00  0.00     0.014 A 
ATOM     38  C   UNL A   1      39.022  30.140  31.141  1.00  0.00     0.014 A 
ATOM     39  C   UNL A   1      39.443  29.605  28.563  1.00  0.00     0.010 A 
ATOM     40  C   UNL A   1      40.239  29.677  30.704  1.00  0.00     0.010 A 
ATOM     41  C   UNL A   1      40.480  29.482  29.372  1.00  0.00    -0.014 A 
BRANCH  41  42
ATOM     42  C   UNL A   1      41.867  29.145  28.850  1.00  0.00     0.031 A 
ATOM     43  C   UNL A   1      42.818  30.167  28.810  1.00  0.00     0.074 A 
ATOM     44  C   UNL A   1      42.111  27.845  28.446  1.00  0.00     0.049 A 
ATOM     45  N   UNL A   1      44.092  30.078  28.423  1.00  0.00    -0.248 NA
ATOM     46  C   UNL A   1      42.552  31.557  29.209  1.00  0.00     0.031 C 
ATOM     47  C   UNL A   1      41.161  26.805  28.491  1.00  0.00     0.029 A 
ATOM     48  N   UNL A   1      43.280  27.323  27.937  1.00  0.00    -0.354 N 
ATOM     49  C   UNL A   1      44.693  31.264  28.542  1.00  0.00     0.074 A 
ATOM     50  C   UNL A   1      43.709  32.233  29.043  1.00  0.00     0.031 C 
ATOM     51  C   UNL A   1      41.744  25.678  28.006  1.00  0.00     0.029 A 
ATOM     52  C   UNL A   1      43.070  25.992  27.650  1.00  0.00     0.049 A 
ATOM     53  H   UNL A   1      44.122  27.815  27.801  1.00  0.00     0.167 HD
ATOM     54  C   UNL A   1      46.022  31.573  28.255  1.00  0.00     0.037 A 
ATOM     55  C   UNL A   1      43.968  25.088  27.107  1.00  0.00     0.037 A 
ATOM     56  C   UNL A   1      46.934  30.658  27.753  1.00  0.00     0.049 A 
ATOM     57  C   UNL A   1      45.283  25.413  26.764  1.00  0.00     0.074 A 
ATOM     58  C   UNL A   1      48.281  30.953  27.464  1.00  0.00     0.029 A 
ATOM     59  N   UNL A   1      46.715  29.334  27.443  1.00  0.00    -0.354 N 
ATOM     60  N   UNL A   1      45.894  26.588  26.920  1.00  0.00    -0.248 NA
ATOM     61  C   UNL A   1      46.234  24.471  26.159  1.00  0.00     0.031 C 
ATOM     62  C   UNL A   1      48.864  29.824  26.980  1.00  0.00     0.029 A 
ATOM     63  C   UNL A   1      47.891  28.806  26.956  1.00  0.00     0.049 A 
ATOM     64  H   UNL A   1      45.866  28.848  27.551  1.00  0.00     0.167 HD
ATOM     65  C   UNL A   1      47.156  26.508  26.494  1.00  0.00     0.074 A 
ATOM     66  C   UNL A   1      47.391  25.148  25.992  1.00  0.00     0.031 C 
ATOM     67  C   UNL A   1      48.123  27.515  26.509  1.00  0.00     0.037 A 
BRANCH  54  68
ATOM     68  C   UNL A   1      46.498  32.995  28.507  1.00  0.00     0.058 A 
ATOM     69  C   UNL A   1      47.012  33.335  29.748  1.00  0.00     0.135 A 
ATOM     70  C   UNL A   1      46.380  33.897  27.540  1.00  0.00     0.135 A 
ATOM     71  F   UNL A   1      47.383  32.432  30.651  1.00  0.00    -0.206 F 
ATOM     72  C   UNL A   1      47.104  34.729  29.968  1.00  0.00     0.059 A 
ATOM     73  C   UNL A   1      46.618  35.228  27.792  1.00  0.00     0.059 A 
ATOM     74  F   UNL A   1      46.027  33.511  26.317  1.00  0.00    -0.206 F 
ATOM     75  C   UNL A   1      47.070  35.641  29.013  1.00  0.00     0.060 A 
BRANCH  75  76
ATOM     76  S   UNL A   1      47.593  37.349  29.308  1.00  0.00     0.124 S 
ATOM     77  O   UNL A   1      49.109  37.457  29.125  1.00  0.00    -0.237 OA
ATOM     78  O   UNL A   1      46.891  38.277  28.314  1.00  0.00    -0.237 OA
ATOM     79  O   UNL A   1      47.178  37.805  30.903  1.00  0.00    -0.744 OA
ENDBRANCH  75  76
ENDBRANCH  54  68
BRANCH  55  80
ATOM     80  C   UNL A   1      43.496  23.662  26.870  1.00  0.00     0.058 A 
ATOM     81  C   UNL A   1      43.094  23.290  25.599  1.00  0.00     0.135 A 
ATOM     82  C   UNL A   1      43.509  22.790  27.872  1.00  0.00     0.135 A 
ATOM     83  F   UNL A   1      43.300  24.044  24.522  1.00  0.00    -0.206 F 
ATOM     84  C   UNL A   1      42.442  22.035  25.548  1.00  0.00     0.059 A 
ATOM     85  C   UNL A   1      42.977  21.533  27.711  1.00  0.00     0.059 A 
ATOM     86  F   UNL A   1      44.041  23.136  29.040  1.00  0.00    -0.206 F 
ATOM     87  C   UNL A   1      42.505  21.120  26.497  1.00  0.00     0.060 A 
BRANCH  87  88
ATOM     88  S   UNL A   1      41.998  19.407  26.203  1.00  0.00     0.124 S 
ATOM     89  O   UNL A   1      42.782  18.838  25.019  1.00  0.00    -0.237 OA
ATOM     90  O   UNL A   1      42.281  18.569  27.452  1.00  0.00    -0.237 OA
ATOM     91  O   UNL A   1      40.324  19.361  25.854  1.00  0.00    -0.744 OA
ENDBRANCH  87  88
ENDBRANCH  55  80
BRANCH  67  92
ATOM     92  C   UNL A   1      49.517  27.175  26.003  1.00  0.00     0.058 A 
ATOM     93  C   UNL A   1      49.780  27.244  24.645  1.00  0.00     0.135 A 
ATOM     94  C   UNL A   1      50.455  26.816  26.870  1.00  0.00     0.135 A 
ATOM     95  F   UNL A   1      48.963  27.833  23.776  1.00  0.00    -0.206 F 
ATOM     96  C   UNL A   1      50.998  26.633  24.266  1.00  0.00     0.059 A 
ATOM     97  C   UNL A   1      51.673  26.355  26.430  1.00  0.00     0.059 A 
ATOM     98  F   UNL A   1      50.216  26.903  28.175  1.00  0.00    -0.206 F 
ATOM     99  C   UNL A   1      51.981  26.341  25.098  1.00  0.00     0.060 A 
BRANCH  99 100
ATOM    100  S   UNL A   1      53.645  25.943  24.508  1.00  0.00     0.124 S 
ATOM    101  O   UNL A   1      53.951  24.471  24.797  1.00  0.00    -0.237 OA
ATOM    102  O   UNL A   1      53.725  26.195  23.001  1.00  0.00    -0.237 OA
ATOM    103  O   UNL A   1      54.787  26.930  25.313  1.00  0.00    -0.744 OA
ENDBRANCH  99 100
ENDBRANCH  67  92
ENDBRANCH  41  42
ENDBRANCH  33  36
ENDBRANCH  31  32
ENDBRANCH  30  31
ENDBRANCH   1  30
TORSDOF 18
ENDMDL
MODEL 2
REMARK VINA RESULT:     -12.4      6.321     11.536
REMARK SMILES O=C(NCCCCCCNC(=O)c1ccc(-c2c3nc(c(-c4c(F)cc(S(=O)(=O)[O-])cc4F)c4ccc([nH]4)c(-c4c(F)cc(S(=O)(=O)[O-])cc4F)c4nc(c(-c5c(F)cc(S(=O)(=O)[O-])cc5F)c5ccc2[nH]5)C=C4)C=C3)cc1)C1=Cc2cc(S(F)(F)(F)(F)F)cc(Br)c2O[C@@H]1C(F)(F)F
REMARK SMILES IDX 7 1 6 2 5 3 4 4 3 5 1 6 2 7 79 9 80 10 95 11 81 12 94 13
REMARK SMILES IDX 82 14 93 15 83 16 91 17 90 18 92 19 96 20 97 21 98 22 99 23
REMARK SMILES IDX 84 24 85 25 86 26 87 27 88 28 89 29 8 30 9 31 10 32 11 33
REMARK SMILES IDX 12 35 13 36 14 37 78 38 15 39 77 40 16 41 17 42 18 43 71 44
REMARK SMILES IDX 19 45 76 46 70 47 72 48 20 49 75 50 69 51 68 52 21 54 55 55
REMARK SMILES IDX 34 56 54 57 35 58 38 59 53 60 73 61 36 62 37 63 52 65 74 66
REMARK SMILES IDX 39 67 22 68 23 69 32 70 24 71 25 72 31 73 33 74 26 75 27 76
REMARK SMILES IDX 28 77 29 78 30 79 56 80 57 81 66 82 58 83 59 84 65 85 67 86
REMARK SMILES IDX 60 87 61 88 62 89 63 90 64 91 40 92 41 93 50 94 42 95 43 96
REMARK SMILES IDX 49 97 51 98 44 99 45 100 46 101 47 102 48 103
REMARK H PARENT 3 8 10 34 72 53 38 64
REMARK Flexibility Score: inf
ROOT
ATOM      1  C   UNL A   1      40.130  22.631  27.654  1.00  0.00     0.002 C 
ENDROOT
BRANCH   1   2
ATOM      2  C   UNL A   1      39.304  22.627  26.379  1.00  0.00     0.002 C 
BRANCH   2   3
ATOM      3  C   UNL A   1      38.592  23.961  26.231  1.00  0.00     0.021 C 
BRANCH   3   4
ATOM      4  C   UNL A   1      37.126  23.719  25.904  1.00  0.00     0.116 C 
BRANCH   4   5
ATOM      5  N   UNL A   1      36.952  23.668  24.445  1.00  0.00    -0.352 N 
ATOM      6  O   UNL A   1      35.693  22.852  22.604  1.00  0.00    -0.270 OA
ATOM      7  C   UNL A   1      35.844  22.897  23.865  1.00  0.00     0.251 C 
ATOM      8  H   UNL A   1      37.579  24.149  23.857  1.00  0.00     0.163 HD
BRANCH   7   9
ATOM      9  C   UNL A   1      34.878  22.153  24.772  1.00  0.00     0.067 C 
ATOM     10  C   UNL A   1      33.849  22.821  25.362  1.00  0.00     0.025 C 
ATOM     11  C   UNL A   1      35.058  20.665  25.020  1.00  0.00     0.314 C 
ATOM     12  C   UNL A   1      33.667  24.309  25.115  1.00  0.00     0.020 A 
ATOM     13  O   UNL A   1      34.204  23.922  22.832  1.00  0.00    -0.474 OA
ATOM     14  C   UNL A   1      33.398  25.149  26.183  1.00  0.00     0.036 A 
ATOM     15  C   UNL A   1      33.770  24.780  23.877  1.00  0.00     0.142 A 
ATOM     16  C   UNL A   1      32.965  26.441  25.801  1.00  0.00     0.109 A 
ATOM     17  C   UNL A   1      33.461  26.090  23.598  1.00  0.00     0.062 A 
ATOM     18  C   UNL A   1      33.129  26.962  24.598  1.00  0.00     0.044 A 
ATOM     19  Br  UNL A   1      33.496  26.717  21.742  1.00  0.00    -0.047 Br
BRANCH  11  20
ATOM     20  C   UNL A   1      33.819  19.918  24.552  1.00  0.00     0.429 C 
ATOM     21  F   UNL A   1      33.230  20.605  23.576  1.00  0.00    -0.167 F 
ATOM     22  F   UNL A   1      34.170  18.718  24.100  1.00  0.00    -0.167 F 
ATOM     23  F   UNL A   1      32.975  19.780  25.569  1.00  0.00    -0.167 F 
ENDBRANCH  11  20
BRANCH  16  24
ATOM     24  S   UNL A   1      32.129  27.451  27.049  1.00  0.00     0.310 S 
ATOM     25  F   UNL A   1      31.875  28.628  26.017  1.00  0.00    -0.094 F 
ATOM     26  F   UNL A   1      33.509  28.133  27.382  1.00  0.00    -0.094 F 
ATOM     27  F   UNL A   1      31.410  28.317  28.121  1.00  0.00    -0.094 F 
ATOM     28  F   UNL A   1      30.734  26.858  26.605  1.00  0.00    -0.094 F 
ATOM     29  F   UNL A   1      32.826  26.646  25.881  1.00  0.00    -0.094 F 
ENDBRANCH  16  24
ENDBRANCH   7   9
ENDBRANCH   4   5
ENDBRANCH   3   4
ENDBRANCH   2   3
ENDBRANCH   1   2
BRANCH   1  30
ATOM     30  C   UNL A   1      41.548  22.184  27.342  1.00  0.00     0.021 C 
BRANCH  30  31
ATOM     31  C   UNL A   1      42.481  23.383  27.388  1.00  0.00     0.116 C 
BRANCH  31  32
ATOM     32  N   UNL A   1      42.593  23.968  26.044  1.00  0.00    -0.352 N 
ATOM     33  C   UNL A   1      42.417  25.415  25.854  1.00  0.00     0.251 C 
ATOM     34  H   UNL A   1      42.786  23.391  25.270  1.00  0.00     0.163 HD
ATOM     35  O   UNL A   1      42.514  25.920  24.693  1.00  0.00    -0.269 OA
BRANCH  33  36
ATOM     36  C   UNL A   1      42.118  26.307  27.048  1.00  0.00     0.039 A 
ATOM     37  C   UNL A   1      42.998  27.326  27.371  1.00  0.00     0.014 A 
ATOM     38  C   UNL A   1      41.019  26.094  27.764  1.00  0.00     0.014 A 
ATOM     39  C   UNL A   1      42.778  27.891  28.649  1.00  0.00     0.010 A 
ATOM     40  C   UNL A   1      40.802  26.780  28.934  1.00  0.00     0.010 A 
ATOM     41  C   UNL A   1      41.662  27.760  29.344  1.00  0.00    -0.014 A 
BRANCH  41  42
ATOM     42  C   UNL A   1      41.351  28.652  30.535  1.00  0.00     0.031 A 
ATOM     43  C   UNL A   1      40.319  29.584  30.403  1.00  0.00     0.074 A 
ATOM     44  C   UNL A   1      42.105  28.490  31.683  1.00  0.00     0.049 A 
ATOM     45  N   UNL A   1      39.865  30.431  31.327  1.00  0.00    -0.248 NA
ATOM     46  C   UNL A   1      39.538  29.779  29.173  1.00  0.00     0.031 C 
ATOM     47  C   UNL A   1      43.142  27.547  31.828  1.00  0.00     0.029 A 
ATOM     48  N   UNL A   1      42.004  29.188  32.867  1.00  0.00    -0.354 N 
ATOM     49  C   UNL A   1      38.855  31.153  30.836  1.00  0.00     0.074 A 
ATOM     50  C   UNL A   1      38.635  30.747  29.441  1.00  0.00     0.031 C 
ATOM     51  C   UNL A   1      43.665  27.682  33.075  1.00  0.00     0.029 A 
ATOM     52  C   UNL A   1      42.964  28.711  33.732  1.00  0.00     0.049 A 
ATOM     53  H   UNL A   1      41.357  29.905  33.061  1.00  0.00     0.167 HD
ATOM     54  C   UNL A   1      38.110  32.129  31.496  1.00  0.00     0.037 A 
ATOM     55  C   UNL A   1      43.230  29.138  35.023  1.00  0.00     0.037 A 
ATOM     56  C   UNL A   1      38.348  32.525  32.803  1.00  0.00     0.049 A 
ATOM     57  C   UNL A   1      42.521  30.157  35.665  1.00  0.00     0.074 A 
ATOM     58  C   UNL A   1      37.600  33.505  33.486  1.00  0.00     0.029 A 
ATOM     59  N   UNL A   1      39.324  32.066  33.659  1.00  0.00    -0.354 N 
ATOM     60  N   UNL A   1      41.487  30.850  35.186  1.00  0.00    -0.248 NA
ATOM     61  C   UNL A   1      42.815  30.638  37.021  1.00  0.00     0.031 C 
ATOM     62  C   UNL A   1      38.123  33.639  34.734  1.00  0.00     0.029 A 
ATOM     63  C   UNL A   1      39.207  32.748  34.850  1.00  0.00     0.049 A 
ATOM     64  H   UNL A   1      39.989  31.370  33.455  1.00  0.00     0.167 HD
ATOM     65  C   UNL A   1      41.060  31.726  36.097  1.00  0.00     0.074 A 
ATOM     66  C   UNL A   1      41.913  31.608  37.288  1.00  0.00     0.031 C 
ATOM     67  C   UNL A   1      39.992  32.617  35.986  1.00  0.00     0.037 A 
BRANCH  54  68
ATOM     68  C   UNL A   1      36.972  32.796  30.740  1.00  0.00     0.058 A 
ATOM     69  C   UNL A   1      37.213  33.960  30.030  1.00  0.00     0.135 A 
ATOM     70  C   UNL A   1      35.756  32.267  30.804  1.00  0.00     0.135 A 
ATOM     71  F   UNL A   1      38.436  34.385  29.727  1.00  0.00    -0.206 F 
ATOM     72  C   UNL A   1      36.040  34.658  29.657  1.00  0.00     0.059 A 
ATOM     73  C   UNL A   1      34.672  32.944  30.297  1.00  0.00     0.059 A 
ATOM     74  F   UNL A   1      35.584  31.073  31.364  1.00  0.00    -0.206 F 
ATOM     75  C   UNL A   1      34.830  34.129  29.635  1.00  0.00     0.060 A 
BRANCH  75  76
ATOM     76  S   UNL A   1      33.454  34.932  28.775  1.00  0.00     0.124 S 
ATOM     77  O   UNL A   1      32.586  35.682  29.790  1.00  0.00    -0.237 OA
ATOM     78  O   UNL A   1      34.004  35.920  27.744  1.00  0.00    -0.237 OA
ATOM     79  O   UNL A   1      32.508  33.748  27.982  1.00  0.00    -0.744 OA
ENDBRANCH  75  76
ENDBRANCH  54  68
BRANCH  55  80
ATOM     80  C   UNL A   1      44.357  28.459  35.784  1.00  0.00     0.058 A 
ATOM     81  C   UNL A   1      45.633  28.993  35.712  1.00  0.00     0.135 A 
ATOM     82  C   UNL A   1      44.098  27.392  36.531  1.00  0.00     0.135 A 
ATOM     83  F   UNL A   1      45.891  30.189  35.192  1.00  0.00    -0.206 F 
ATOM     84  C   UNL A   1      46.638  28.148  36.241  1.00  0.00     0.059 A 
ATOM     85  C   UNL A   1      45.118  26.693  37.130  1.00  0.00     0.059 A 
ATOM     86  F   UNL A   1      42.840  26.995  36.699  1.00  0.00    -0.206 F 
ATOM     87  C   UNL A   1      46.411  27.129  37.049  1.00  0.00     0.060 A 
BRANCH  87  88
ATOM     88  S   UNL A   1      47.741  26.354  38.002  1.00  0.00     0.124 S 
ATOM     89  O   UNL A   1      47.270  24.993  38.521  1.00  0.00    -0.237 OA
ATOM     90  O   UNL A   1      48.966  26.161  37.105  1.00  0.00    -0.237 OA
ATOM     91  O   UNL A   1      48.154  27.356  39.324  1.00  0.00    -0.744 OA
ENDBRANCH  87  88
ENDBRANCH  55  80
BRANCH  67  92
ATOM     92  C   UNL A   1      39.667  33.498  37.182  1.00  0.00     0.058 A 
ATOM     93  C   UNL A   1      40.224  34.764  37.262  1.00  0.00     0.135 A 
ATOM     94  C   UNL A   1      38.859  33.040  38.130  1.00  0.00     0.135 A 
ATOM     95  F   UNL A   1      40.825  35.358  36.235  1.00  0.00    -0.206 F 
ATOM     96  C   UNL A   1      40.094  35.368  38.534  1.00  0.00     0.059 A 
ATOM     97  C   UNL A   1      38.672  33.749  39.292  1.00  0.00     0.059 A 
ATOM     98  F   UNL A   1      38.223  31.885  37.953  1.00  0.00    -0.206 F 
ATOM     99  C   UNL A   1      39.238  34.981  39.463  1.00  0.00     0.060 A 
BRANCH  99 100
ATOM    100  S   UNL A   1      38.839  36.025  40.887  1.00  0.00     0.124 S 
ATOM    101  O   UNL A   1      40.027  36.049  41.852  1.00  0.00    -0.237 OA
ATOM    102  O   UNL A   1      38.542  37.448  40.408  1.00  0.00    -0.237 OA
ATOM    103  O   UNL A   1      37.466  35.394  41.689  1.00  0.00    -0.744 OA
ENDBRANCH  99 100
ENDBRANCH  67  92
ENDBRANCH  41  42
ENDBRANCH  33  36
ENDBRANCH  31  32
ENDBRANCH  30  31
ENDBRANCH   1  30
TORSDOF 18
ENDMDL
MODEL 3
REMARK VINA RESULT:     -12.3      6.598     11.390
REMARK SMILES O=C(NCCCCCCNC(=O)c1ccc(-c2c3nc(c(-c4c(F)cc(S(=O)(=O)[O-])cc4F)c4ccc([nH]4)c(-c4c(F)cc(S(=O)(=O)[O-])cc4F)c4nc(c(-c5c(F)cc(S(=O)(=O)[O-])cc5F)c5ccc2[nH]5)C=C4)C=C3)cc1)C1=Cc2cc(S(F)(F)(F)(F)F)cc(Br)c2O[C@@H]1C(F)(F)F
REMARK SMILES IDX 7 1 6 2 5 3 4 4 3 5 1 6 2 7 79 9 80 10 95 11 81 12 94 13
REMARK SMILES IDX 82 14 93 15 83 16 91 17 90 18 92 19 96 20 97 21 98 22 99 23
REMARK SMILES IDX 84 24 85 25 86 26 87 27 88 28 89 29 8 30 9 31 10 32 11 33
REMARK SMILES IDX 12 35 13 36 14 37 78 38 15 39 77 40 16 41 17 42 18 43 71 44
REMARK SMILES IDX 19 45 76 46 70 47 72 48 20 49 75 50 69 51 68 52 21 54 55 55
REMARK SMILES IDX 34 56 54 57 35 58 38 59 53 60 73 61 36 62 37 63 52 65 74 66
REMARK SMILES IDX 39 67 22 68 23 69 32 70 24 71 25 72 31 73 33 74 26 75 27 76
REMARK SMILES IDX 28 77 29 78 30 79 56 80 57 81 66 82 58 83 59 84 65 85 67 86
REMARK SMILES IDX 60 87 61 88 62 89 63 90 64 91 40 92 41 93 50 94 42 95 43 96
REMARK SMILES IDX 49 97 51 98 44 99 45 100 46 101 47 102 48 103
REMARK H PARENT 3 8 10 34 72 53 38 64
REMARK Flexibility Score: inf
ROOT
ATOM      1  C   UNL A   1      37.015  23.447  24.888  1.00  0.00     0.002 C 
ENDROOT
BRANCH   1   2
ATOM      2  C   UNL A   1      35.500  23.506  24.991  1.00  0.00     0.002 C 
BRANCH   2   3
ATOM      3  C   UNL A   1      34.915  23.871  23.636  1.00  0.00     0.021 C 
BRANCH   3   4
ATOM      4  C   UNL A   1      34.350  25.282  23.692  1.00  0.00     0.116 C 
BRANCH   4   5
ATOM      5  N   UNL A   1      33.037  25.311  23.032  1.00  0.00    -0.352 N 
ATOM      6  O   UNL A   1      30.694  24.970  23.214  1.00  0.00    -0.270 OA
ATOM      7  C   UNL A   1      31.829  24.945  23.785  1.00  0.00     0.251 C 
ATOM      8  H   UNL A   1      32.968  25.574  22.085  1.00  0.00     0.163 HD
BRANCH   7   9
ATOM      9  C   UNL A   1      31.937  24.538  25.245  1.00  0.00     0.067 C 
ATOM     10  C   UNL A   1      32.195  25.478  26.195  1.00  0.00     0.025 C 
ATOM     11  C   UNL A   1      31.755  23.084  25.645  1.00  0.00     0.314 C 
ATOM     12  C   UNL A   1      32.376  26.933  25.796  1.00  0.00     0.020 A 
ATOM     13  O   UNL A   1      30.566  26.667  24.279  1.00  0.00    -0.474 OA
ATOM     14  C   UNL A   1      33.423  27.662  26.336  1.00  0.00     0.036 A 
ATOM     15  C   UNL A   1      31.527  27.482  24.934  1.00  0.00     0.142 A 
ATOM     16  C   UNL A   1      33.319  29.057  26.124  1.00  0.00     0.109 A 
ATOM     17  C   UNL A   1      31.570  28.830  24.672  1.00  0.00     0.062 A 
ATOM     18  C   UNL A   1      32.542  29.622  25.218  1.00  0.00     0.044 A 
ATOM     19  Br  UNL A   1      30.219  29.629  23.499  1.00  0.00    -0.047 Br
BRANCH  11  20
ATOM     20  C   UNL A   1      30.585  22.964  26.607  1.00  0.00     0.429 C 
ATOM     21  F   UNL A   1      29.839  24.064  26.537  1.00  0.00    -0.167 F 
ATOM     22  F   UNL A   1      29.848  21.907  26.279  1.00  0.00    -0.167 F 
ATOM     23  F   UNL A   1      31.043  22.818  27.846  1.00  0.00    -0.167 F 
ENDBRANCH  11  20
BRANCH  16  24
ATOM     24  S   UNL A   1      34.323  30.143  27.167  1.00  0.00     0.310 S 
ATOM     25  F   UNL A   1      34.438  29.047  28.306  1.00  0.00    -0.094 F 
ATOM     26  F   UNL A   1      33.003  30.638  27.872  1.00  0.00    -0.094 F 
ATOM     27  F   UNL A   1      35.184  31.078  28.062  1.00  0.00    -0.094 F 
ATOM     28  F   UNL A   1      35.641  29.534  26.547  1.00  0.00    -0.094 F 
ATOM     29  F   UNL A   1      33.469  29.110  26.330  1.00  0.00    -0.094 F 
ENDBRANCH  16  24
ENDBRANCH   7   9
ENDBRANCH   4   5
ENDBRANCH   3   4
ENDBRANCH   2   3
ENDBRANCH   1   2
BRANCH   1  30
ATOM     30  C   UNL A   1      37.614  23.340  26.281  1.00  0.00     0.021 C 
BRANCH  30  31
ATOM     31  C   UNL A   1      38.546  24.516  26.524  1.00  0.00     0.116 C 
BRANCH  31  32
ATOM     32  N   UNL A   1      39.864  24.225  25.941  1.00  0.00    -0.352 N 
ATOM     33  C   UNL A   1      41.067  24.873  26.484  1.00  0.00     0.251 C 
ATOM     34  H   UNL A   1      39.941  23.597  25.187  1.00  0.00     0.163 HD
ATOM     35  O   UNL A   1      42.206  24.621  25.981  1.00  0.00    -0.269 OA
BRANCH  33  36
ATOM     36  C   UNL A   1      40.947  25.844  27.648  1.00  0.00     0.039 A 
ATOM     37  C   UNL A   1      39.981  25.627  28.615  1.00  0.00     0.014 A 
ATOM     38  C   UNL A   1      41.771  26.884  27.718  1.00  0.00     0.014 A 
ATOM     39  C   UNL A   1      39.769  26.732  29.473  1.00  0.00     0.010 A 
ATOM     40  C   UNL A   1      41.588  27.858  28.669  1.00  0.00     0.010 A 
ATOM     41  C   UNL A   1      40.613  27.738  29.620  1.00  0.00    -0.014 A 
BRANCH  41  42
ATOM     42  C   UNL A   1      40.506  28.709  30.784  1.00  0.00     0.031 A 
ATOM     43  C   UNL A   1      39.561  29.734  30.699  1.00  0.00     0.074 A 
ATOM     44  C   UNL A   1      41.350  28.523  31.865  1.00  0.00     0.049 A 
ATOM     45  N   UNL A   1      39.283  30.663  31.614  1.00  0.00    -0.248 NA
ATOM     46  C   UNL A   1      38.686  29.953  29.538  1.00  0.00     0.031 C 
ATOM     47  C   UNL A   1      42.299  27.488  31.964  1.00  0.00     0.029 A 
ATOM     48  N   UNL A   1      41.432  29.280  33.014  1.00  0.00    -0.354 N 
ATOM     49  C   UNL A   1      38.305  31.461  31.180  1.00  0.00     0.074 A 
ATOM     50  C   UNL A   1      37.911  31.018  29.836  1.00  0.00     0.031 C 
ATOM     51  C   UNL A   1      42.952  27.624  33.147  1.00  0.00     0.029 A 
ATOM     52  C   UNL A   1      42.421  28.747  33.811  1.00  0.00     0.049 A 
ATOM     53  H   UNL A   1      40.879  30.066  33.228  1.00  0.00     0.167 HD
ATOM     54  C   UNL A   1      37.725  32.535  31.853  1.00  0.00     0.037 A 
ATOM     55  C   UNL A   1      42.852  29.201  35.046  1.00  0.00     0.037 A 
ATOM     56  C   UNL A   1      38.126  32.963  33.109  1.00  0.00     0.049 A 
ATOM     57  C   UNL A   1      42.310  30.314  35.695  1.00  0.00     0.074 A 
ATOM     58  C   UNL A   1      37.546  34.042  33.805  1.00  0.00     0.029 A 
ATOM     59  N   UNL A   1      39.132  32.446  33.895  1.00  0.00    -0.354 N 
ATOM     60  N   UNL A   1      41.306  31.086  35.278  1.00  0.00    -0.248 NA
ATOM     61  C   UNL A   1      42.780  30.823  36.991  1.00  0.00     0.031 C 
ATOM     62  C   UNL A   1      38.199  34.178  34.991  1.00  0.00     0.029 A 
ATOM     63  C   UNL A   1      39.198  33.188  35.053  1.00  0.00     0.049 A 
ATOM     64  H   UNL A   1      39.704  31.678  33.668  1.00  0.00     0.167 HD
ATOM     65  C   UNL A   1      41.057  32.040  36.177  1.00  0.00     0.074 A 
ATOM     66  C   UNL A   1      42.006  31.890  37.288  1.00  0.00     0.031 C 
ATOM     67  C   UNL A   1      40.073  33.029  36.117  1.00  0.00     0.037 A 
BRANCH  54  68
ATOM     68  C   UNL A   1      36.588  33.280  31.171  1.00  0.00     0.058 A 
ATOM     69  C   UNL A   1      35.281  33.042  31.563  1.00  0.00     0.135 A 
ATOM     70  C   UNL A   1      36.869  34.123  30.184  1.00  0.00     0.135 A 
ATOM     71  F   UNL A   1      34.966  32.414  32.692  1.00  0.00    -0.206 F 
ATOM     72  C   UNL A   1      34.313  33.525  30.652  1.00  0.00     0.059 A 
ATOM     73  C   UNL A   1      35.863  34.665  29.420  1.00  0.00     0.059 A 
ATOM     74  F   UNL A   1      38.134  34.446  29.932  1.00  0.00    -0.206 F 
ATOM     75  C   UNL A   1      34.550  34.423  29.714  1.00  0.00     0.060 A 
BRANCH  75  76
ATOM     76  S   UNL A   1      33.208  35.288  28.862  1.00  0.00     0.124 S 
ATOM     77  O   UNL A   1      32.226  35.850  29.894  1.00  0.00    -0.237 OA
ATOM     78  O   UNL A   1      33.786  36.436  28.031  1.00  0.00    -0.237 OA
ATOM     79  O   UNL A   1      32.389  34.196  27.831  1.00  0.00    -0.744 OA
ENDBRANCH  75  76
ENDBRANCH  54  68
BRANCH  55  80
ATOM     80  C   UNL A   1      43.977  28.446  35.736  1.00  0.00     0.058 A 
ATOM     81  C   UNL A   1      43.661  27.403  36.590  1.00  0.00     0.135 A 
ATOM     82  C   UNL A   1      45.239  28.774  35.485  1.00  0.00     0.135 A 
ATOM     83  F   UNL A   1      42.442  26.878  36.675  1.00  0.00    -0.206 F 
ATOM     84  C   UNL A   1      44.754  26.945  37.364  1.00  0.00     0.059 A 
ATOM     85  C   UNL A   1      46.266  28.188  36.185  1.00  0.00     0.059 A 
ATOM     86  F   UNL A   1      45.512  29.678  34.549  1.00  0.00    -0.206 F 
ATOM     87  C   UNL A   1      46.022  27.191  37.089  1.00  0.00     0.060 A 
BRANCH  87  88
ATOM     88  S   UNL A   1      47.364  26.257  37.865  1.00  0.00     0.124 S 
ATOM     89  O   UNL A   1      48.145  25.498  36.790  1.00  0.00    -0.237 OA
ATOM     90  O   UNL A   1      48.304  27.222  38.593  1.00  0.00    -0.237 OA
ATOM     91  O   UNL A   1      46.709  25.144  38.987  1.00  0.00    -0.744 OA
ENDBRANCH  87  88
ENDBRANCH  55  80
BRANCH  67  92
ATOM     92  C   UNL A   1      39.954  33.990  37.289  1.00  0.00     0.058 A 
ATOM     93  C   UNL A   1      39.196  33.626  38.389  1.00  0.00     0.135 A 
ATOM     94  C   UNL A   1      40.577  35.162  37.237  1.00  0.00     0.135 A 
ATOM     95  F   UNL A   1      38.769  32.384  38.598  1.00  0.00    -0.206 F 
ATOM     96  C   UNL A   1      38.917  34.696  39.273  1.00  0.00     0.059 A 
ATOM     97  C   UNL A   1      40.362  36.110  38.208  1.00  0.00     0.059 A 
ATOM     98  F   UNL A   1      41.415  35.419  36.239  1.00  0.00    -0.206 F 
ATOM     99  C   UNL A   1      39.578  35.840  39.295  1.00  0.00     0.060 A 
BRANCH  99 100
ATOM    100  S   UNL A   1      39.449  36.988  40.688  1.00  0.00     0.124 S 
ATOM    101  O   UNL A   1      40.853  37.386  41.153  1.00  0.00    -0.237 OA
ATOM    102  O   UNL A   1      38.683  38.238  40.250  1.00  0.00    -0.237 OA
ATOM    103  O   UNL A   1      38.616  36.231  41.976  1.00  0.00    -0.744 OA
ENDBRANCH  99 100
ENDBRANCH  67  92
ENDBRANCH  41  42
ENDBRANCH  33  36
ENDBRANCH  31  32
ENDBRANCH  30  31
ENDBRANCH   1  30
TORSDOF 18
ENDMDL
